MODEL 1
REMARK VINA RESULT:    -4.315      0.000      0.000
REMARK INTER + INTRA:          -5.115
REMARK INTER:                  -4.694
REMARK INTRA:                  -0.422
REMARK UNBOUND:                -0.422
REMARK SMILES C=C1C[C@]2(O)O[C@]3(C[C@@H]2C(C)C)[C@@H](C)CC[C@@H]13
REMARK SMILES IDX 14 1 13 2 15 3 16 4 17 5 7 6 8 7 9 8 4 9 6 10 3 11 2 12 1 13
REMARK SMILES IDX 10 14 11 15 12 16 5 17
REMARK H PARENT 5 18
REMARK Flexibility Score: inf
ROOT
ATOM      1  C   UNL     1      25.878  25.714   5.202  1.00  0.00     0.011 C 
ATOM      2  C   UNL     1      25.112  24.823   6.188  1.00  0.00     0.019 C 
ATOM      3  C   UNL     1      23.579  24.864   5.996  1.00  0.00     0.007 C 
ATOM      4  C   UNL     1      23.046  23.475   6.403  1.00  0.00     0.011 C 
ATOM      5  C   UNL     1      24.269  22.756   6.963  1.00  0.00     0.047 C 
ATOM      6  C   UNL     1      25.442  23.322   6.159  1.00  0.00     0.081 C 
ATOM      7  C   UNL     1      25.549  22.702   4.735  1.00  0.00     0.046 C 
ATOM      8  C   UNL     1      26.657  21.667   4.891  1.00  0.00     0.054 C 
ATOM      9  C   UNL     1      26.817  21.610   6.424  1.00  0.00     0.173 C 
ATOM     10  O   UNL     1      26.618  22.954   6.842  1.00  0.00    -0.342 OA
ATOM     11  C   UNL     1      25.757  20.681   7.125  1.00  0.00     0.096 C 
ATOM     12  C   UNL     1      24.355  21.249   6.973  1.00  0.00    -0.066 C 
ATOM     13  C   UNL     1      23.272  20.464   7.064  1.00  0.00     0.008 C 
ENDROOT
BRANCH   8  14
ATOM     14  C   UNL     1      26.387  20.329   4.136  1.00  0.00    -0.009 C 
ATOM     15  C   UNL     1      25.045  20.387   3.386  1.00  0.00     0.008 C 
ATOM     16  C   UNL     1      27.503  20.019   3.125  1.00  0.00     0.008 C 
ENDBRANCH   8  14
BRANCH   9  17
ATOM     17  O   UNL     1      28.119  21.198   6.753  1.00  0.00    -0.365 OA
ATOM     18  H   UNL     1      28.137  20.208   6.690  1.00  0.00     0.214 HD
ENDBRANCH   9  17
TORSDOF 2
ENDMDL
MODEL 2
REMARK VINA RESULT:    -4.038      1.685      4.626
REMARK INTER + INTRA:          -4.814
REMARK INTER:                  -4.405
REMARK INTRA:                  -0.410
REMARK UNBOUND:                -0.422
REMARK SMILES C=C1C[C@]2(O)O[C@]3(C[C@@H]2C(C)C)[C@@H](C)CC[C@@H]13
REMARK SMILES IDX 14 1 13 2 15 3 16 4 17 5 7 6 8 7 9 8 4 9 6 10 3 11 2 12 1 13
REMARK SMILES IDX 10 14 11 15 12 16 5 17
REMARK H PARENT 5 18
REMARK Flexibility Score: inf
ROOT
ATOM      1  C   UNL     1      24.757  19.992   1.969  1.00  0.00     0.011 C 
ATOM      2  C   UNL     1      25.753  19.743   3.109  1.00  0.00     0.019 C 
ATOM      3  C   UNL     1      27.225  19.994   2.710  1.00  0.00     0.007 C 
ATOM      4  C   UNL     1      27.949  20.485   3.981  1.00  0.00     0.011 C 
ATOM      5  C   UNL     1      26.905  20.338   5.084  1.00  0.00     0.047 C 
ATOM      6  C   UNL     1      25.570  20.590   4.379  1.00  0.00     0.081 C 
ATOM      7  C   UNL     1      25.301  22.102   4.125  1.00  0.00     0.046 C 
ATOM      8  C   UNL     1      24.338  22.475   5.246  1.00  0.00     0.054 C 
ATOM      9  C   UNL     1      24.428  21.235   6.160  1.00  0.00     0.173 C 
ATOM     10  O   UNL     1      24.559  20.148   5.253  1.00  0.00    -0.342 OA
ATOM     11  C   UNL     1      25.671  21.264   7.125  1.00  0.00     0.096 C 
ATOM     12  C   UNL     1      26.970  21.175   6.339  1.00  0.00    -0.066 C 
ATOM     13  C   UNL     1      28.124  21.625   6.848  1.00  0.00     0.008 C 
ENDROOT
BRANCH   8  14
ATOM     14  C   UNL     1      24.615  23.871   5.883  1.00  0.00    -0.009 C 
ATOM     15  C   UNL     1      25.877  24.508   5.274  1.00  0.00     0.008 C 
ATOM     16  C   UNL     1      23.431  24.829   5.674  1.00  0.00     0.008 C 
ENDBRANCH   8  14
BRANCH   9  17
ATOM     17  O   UNL     1      23.241  21.099   6.897  1.00  0.00    -0.365 OA
ATOM     18  H   UNL     1      22.716  20.370   6.474  1.00  0.00     0.214 HD
ENDBRANCH   9  17
TORSDOF 2
ENDMDL
MODEL 3
REMARK VINA RESULT:    -3.169      3.144      5.063
REMARK INTER + INTRA:          -3.868
REMARK INTER:                  -3.842
REMARK INTRA:                  -0.027
REMARK UNBOUND:                -0.422
REMARK SMILES C=C1C[C@]2(O)O[C@]3(C[C@@H]2C(C)C)[C@@H](C)CC[C@@H]13
REMARK SMILES IDX 14 1 13 2 15 3 16 4 17 5 7 6 8 7 9 8 4 9 6 10 3 11 2 12 1 13
REMARK SMILES IDX 10 14 11 15 12 16 5 17
REMARK H PARENT 5 18
REMARK Flexibility Score: inf
ROOT
ATOM      1  C   UNL     1      24.530  29.180   5.599  1.00  0.00     0.011 C 
ATOM      2  C   UNL     1      25.487  27.981   5.608  1.00  0.00     0.019 C 
ATOM      3  C   UNL     1      26.233  27.796   6.949  1.00  0.00     0.007 C 
ATOM      4  C   UNL     1      26.473  26.281   7.115  1.00  0.00     0.011 C 
ATOM      5  C   UNL     1      26.003  25.683   5.792  1.00  0.00     0.047 C 
ATOM      6  C   UNL     1      24.863  26.601   5.344  1.00  0.00     0.081 C 
ATOM      7  C   UNL     1      23.534  26.326   6.109  1.00  0.00     0.046 C 
ATOM      8  C   UNL     1      22.733  25.489   5.118  1.00  0.00     0.054 C 
ATOM      9  C   UNL     1      23.807  25.137   4.068  1.00  0.00     0.173 C 
ATOM     10  O   UNL     1      24.611  26.306   3.991  1.00  0.00    -0.342 OA
ATOM     11  C   UNL     1      24.702  23.911   4.482  1.00  0.00     0.096 C 
ATOM     12  C   UNL     1      25.548  24.246   5.701  1.00  0.00    -0.066 C 
ATOM     13  C   UNL     1      26.027  23.285   6.502  1.00  0.00     0.008 C 
ENDROOT
BRANCH   8  14
ATOM     14  C   UNL     1      21.941  24.316   5.772  1.00  0.00    -0.009 C 
ATOM     15  C   UNL     1      22.564  23.925   7.124  1.00  0.00     0.008 C 
ATOM     16  C   UNL     1      20.467  24.691   5.999  1.00  0.00     0.008 C 
ENDBRANCH   8  14
BRANCH   9  17
ATOM     17  O   UNL     1      23.197  24.897   2.825  1.00  0.00    -0.365 OA
ATOM     18  H   UNL     1      23.215  23.916   2.675  1.00  0.00     0.214 HD
ENDBRANCH   9  17
TORSDOF 2
ENDMDL
MODEL 4
REMARK VINA RESULT:    -2.989      1.686      4.614
REMARK INTER + INTRA:          -3.672
REMARK INTER:                  -3.572
REMARK INTRA:                  -0.101
REMARK UNBOUND:                -0.422
REMARK SMILES C=C1C[C@]2(O)O[C@]3(C[C@@H]2C(C)C)[C@@H](C)CC[C@@H]13
REMARK SMILES IDX 14 1 13 2 15 3 16 4 17 5 7 6 8 7 9 8 4 9 6 10 3 11 2 12 1 13
REMARK SMILES IDX 10 14 11 15 12 16 5 17
REMARK H PARENT 5 18
REMARK Flexibility Score: inf
ROOT
ATOM      1  C   UNL     1      24.592  20.279   2.407  1.00  0.00     0.011 C 
ATOM      2  C   UNL     1      25.573  20.236   3.586  1.00  0.00     0.019 C 
ATOM      3  C   UNL     1      27.057  20.276   3.157  1.00  0.00     0.007 C 
ATOM      4  C   UNL     1      27.823  21.000   4.284  1.00  0.00     0.011 C 
ATOM      5  C   UNL     1      26.777  21.197   5.377  1.00  0.00     0.047 C 
ATOM      6  C   UNL     1      25.460  21.371   4.617  1.00  0.00     0.081 C 
ATOM      7  C   UNL     1      25.303  22.795   4.007  1.00  0.00     0.046 C 
ATOM      8  C   UNL     1      24.377  23.494   4.996  1.00  0.00     0.054 C 
ATOM      9  C   UNL     1      24.380  22.503   6.179  1.00  0.00     0.173 C 
ATOM     10  O   UNL     1      24.424  21.225   5.558  1.00  0.00    -0.342 OA
ATOM     11  C   UNL     1      25.626  22.670   7.125  1.00  0.00     0.096 C 
ATOM     12  C   UNL     1      26.911  22.301   6.398  1.00  0.00    -0.066 C 
ATOM     13  C   UNL     1      28.099  22.773   6.800  1.00  0.00     0.008 C 
ENDROOT
BRANCH   8  14
ATOM     14  C   UNL     1      24.760  24.977   5.287  1.00  0.00    -0.009 C 
ATOM     15  C   UNL     1      24.946  25.760   3.975  1.00  0.00     0.008 C 
ATOM     16  C   UNL     1      23.685  25.680   6.132  1.00  0.00     0.008 C 
ENDBRANCH   8  14
BRANCH   9  17
ATOM     17  O   UNL     1      23.190  22.634   6.913  1.00  0.00    -0.365 OA
ATOM     18  H   UNL     1      23.372  23.268   7.654  1.00  0.00     0.214 HD
ENDBRANCH   9  17
TORSDOF 2
ENDMDL
MODEL 5
REMARK VINA RESULT:    -2.920     14.236     16.635
REMARK INTER + INTRA:          -3.598
REMARK INTER:                  -4.298
REMARK INTRA:                   0.700
REMARK UNBOUND:                -0.422
REMARK SMILES C=C1C[C@]2(O)O[C@]3(C[C@@H]2C(C)C)[C@@H](C)CC[C@@H]13
REMARK SMILES IDX 14 1 13 2 15 3 16 4 17 5 7 6 8 7 9 8 4 9 6 10 3 11 2 12 1 13
REMARK SMILES IDX 10 14 11 15 12 16 5 17
REMARK H PARENT 5 18
REMARK Flexibility Score: inf
ROOT
ATOM      1  C   UNL     1       8.030  24.266   5.563  1.00  0.00     0.011 C 
ATOM      2  C   UNL     1       9.250  24.808   6.318  1.00  0.00     0.019 C 
ATOM      3  C   UNL     1      10.507  23.919   6.181  1.00  0.00     0.007 C 
ATOM      4  C   UNL     1      11.725  24.865   6.247  1.00  0.00     0.011 C 
ATOM      5  C   UNL     1      11.122  26.225   6.581  1.00  0.00     0.047 C 
ATOM      6  C   UNL     1       9.745  26.205   5.912  1.00  0.00     0.081 C 
ATOM      7  C   UNL     1       9.820  26.453   4.377  1.00  0.00     0.046 C 
ATOM      8  C   UNL     1       9.435  27.922   4.244  1.00  0.00     0.054 C 
ATOM      9  C   UNL     1       9.497  28.394   5.712  1.00  0.00     0.173 C 
ATOM     10  O   UNL     1       9.015  27.281   6.453  1.00  0.00    -0.342 OA
ATOM     11  C   UNL     1      10.954  28.749   6.189  1.00  0.00     0.096 C 
ATOM     12  C   UNL     1      11.832  27.507   6.218  1.00  0.00    -0.066 C 
ATOM     13  C   UNL     1      13.167  27.596   6.140  1.00  0.00     0.008 C 
ENDROOT
BRANCH   8  14
ATOM     14  C   UNL     1      10.276  28.706   3.191  1.00  0.00    -0.009 C 
ATOM     15  C   UNL     1       9.511  28.824   1.861  1.00  0.00     0.008 C 
ATOM     16  C   UNL     1      10.621  30.120   3.688  1.00  0.00     0.008 C 
ENDBRANCH   8  14
BRANCH   9  17
ATOM     17  O   UNL     1       8.643  29.493   5.895  1.00  0.00    -0.365 OA
ATOM     18  H   UNL     1       8.770  29.809   6.828  1.00  0.00     0.214 HD
ENDBRANCH   9  17
TORSDOF 2
ENDMDL
MODEL 6
REMARK VINA RESULT:    -2.820      1.824      3.182
REMARK INTER + INTRA:          -3.489
REMARK INTER:                  -4.377
REMARK INTRA:                   0.888
REMARK UNBOUND:                -0.422
REMARK SMILES C=C1C[C@]2(O)O[C@]3(C[C@@H]2C(C)C)[C@@H](C)CC[C@@H]13
REMARK SMILES IDX 14 1 13 2 15 3 16 4 17 5 7 6 8 7 9 8 4 9 6 10 3 11 2 12 1 13
REMARK SMILES IDX 10 14 11 15 12 16 5 17
REMARK H PARENT 5 18
REMARK Flexibility Score: inf
ROOT
ATOM      1  C   UNL     1      22.837  25.214   4.938  1.00  0.00     0.011 C 
ATOM      2  C   UNL     1      24.359  25.038   5.024  1.00  0.00     0.019 C 
ATOM      3  C   UNL     1      25.011  25.850   6.167  1.00  0.00     0.007 C 
ATOM      4  C   UNL     1      26.236  25.041   6.639  1.00  0.00     0.011 C 
ATOM      5  C   UNL     1      26.328  23.888   5.644  1.00  0.00     0.047 C 
ATOM      6  C   UNL     1      24.875  23.608   5.253  1.00  0.00     0.081 C 
ATOM      7  C   UNL     1      24.106  22.801   6.340  1.00  0.00     0.046 C 
ATOM      8  C   UNL     1      24.122  21.379   5.790  1.00  0.00     0.054 C 
ATOM      9  C   UNL     1      25.148  21.500   4.644  1.00  0.00     0.173 C 
ATOM     10  O   UNL     1      24.912  22.794   4.105  1.00  0.00    -0.342 OA
ATOM     11  C   UNL     1      26.641  21.401   5.133  1.00  0.00     0.096 C 
ATOM     12  C   UNL     1      27.003  22.589   6.010  1.00  0.00    -0.066 C 
ATOM     13  C   UNL     1      28.009  22.522   6.894  1.00  0.00     0.008 C 
ENDROOT
BRANCH   8  14
ATOM     14  C   UNL     1      24.365  20.283   6.872  1.00  0.00    -0.009 C 
ATOM     15  C   UNL     1      23.082  19.472   7.125  1.00  0.00     0.008 C 
ATOM     16  C   UNL     1      25.484  19.315   6.450  1.00  0.00     0.008 C 
ENDBRANCH   8  14
BRANCH   9  17
ATOM     17  O   UNL     1      24.889  20.524   3.668  1.00  0.00    -0.365 OA
ATOM     18  H   UNL     1      23.929  20.601   3.426  1.00  0.00     0.214 HD
ENDBRANCH   9  17
TORSDOF 2
ENDMDL
MODEL 7
REMARK VINA RESULT:    -2.781     13.698     16.257
REMARK INTER + INTRA:          -3.446
REMARK INTER:                  -3.387
REMARK INTRA:                  -0.059
REMARK UNBOUND:                -0.422
REMARK SMILES C=C1C[C@]2(O)O[C@]3(C[C@@H]2C(C)C)[C@@H](C)CC[C@@H]13
REMARK SMILES IDX 14 1 13 2 15 3 16 4 17 5 7 6 8 7 9 8 4 9 6 10 3 11 2 12 1 13
REMARK SMILES IDX 10 14 11 15 12 16 5 17
REMARK H PARENT 5 18
REMARK Flexibility Score: inf
ROOT
ATOM      1  C   UNL     1      10.481  24.812   6.326  1.00  0.00     0.011 C 
ATOM      2  C   UNL     1      11.448  25.975   6.588  1.00  0.00     0.019 C 
ATOM      3  C   UNL     1      12.892  25.696   6.113  1.00  0.00     0.007 C 
ATOM      4  C   UNL     1      13.489  27.056   5.694  1.00  0.00     0.011 C 
ATOM      5  C   UNL     1      12.424  28.070   6.098  1.00  0.00     0.047 C 
ATOM      6  C   UNL     1      11.101  27.319   5.928  1.00  0.00     0.081 C 
ATOM      7  C   UNL     1      10.652  27.222   4.440  1.00  0.00     0.046 C 
ATOM      8  C   UNL     1       9.599  28.319   4.324  1.00  0.00     0.054 C 
ATOM      9  C   UNL     1       9.806  29.089   5.645  1.00  0.00     0.173 C 
ATOM     10  O   UNL     1      10.116  28.075   6.592  1.00  0.00    -0.342 OA
ATOM     11  C   UNL     1      10.990  30.125   5.581  1.00  0.00     0.096 C 
ATOM     12  C   UNL     1      12.324  29.413   5.417  1.00  0.00    -0.066 C 
ATOM     13  C   UNL     1      13.387  30.039   4.893  1.00  0.00     0.008 C 
ENDROOT
BRANCH   8  14
ATOM     14  C   UNL     1       9.667  29.126   2.992  1.00  0.00    -0.009 C 
ATOM     15  C   UNL     1      11.062  29.008   2.352  1.00  0.00     0.008 C 
ATOM     16  C   UNL     1       8.619  28.630   1.981  1.00  0.00     0.008 C 
ENDBRANCH   8  14
BRANCH   9  17
ATOM     17  O   UNL     1       8.613  29.734   6.012  1.00  0.00    -0.365 OA
ATOM     18  H   UNL     1       7.880  29.305   5.498  1.00  0.00     0.214 HD
ENDBRANCH   9  17
TORSDOF 2
ENDMDL
MODEL 8
REMARK VINA RESULT:    -2.567      2.047      4.957
REMARK INTER + INTRA:          -3.214
REMARK INTER:                  -3.398
REMARK INTRA:                   0.185
REMARK UNBOUND:                -0.422
REMARK SMILES C=C1C[C@]2(O)O[C@]3(C[C@@H]2C(C)C)[C@@H](C)CC[C@@H]13
REMARK SMILES IDX 14 1 13 2 15 3 16 4 17 5 7 6 8 7 9 8 4 9 6 10 3 11 2 12 1 13
REMARK SMILES IDX 10 14 11 15 12 16 5 17
REMARK H PARENT 5 18
REMARK Flexibility Score: inf
ROOT
ATOM      1  C   UNL     1      26.883  21.840   4.751  1.00  0.00     0.011 C 
ATOM      2  C   UNL     1      25.383  22.005   5.027  1.00  0.00     0.019 C 
ATOM      3  C   UNL     1      24.913  21.305   6.323  1.00  0.00     0.007 C 
ATOM      4  C   UNL     1      23.742  22.143   6.877  1.00  0.00     0.011 C 
ATOM      5  C   UNL     1      23.487  23.188   5.795  1.00  0.00     0.047 C 
ATOM      6  C   UNL     1      24.866  23.444   5.183  1.00  0.00     0.081 C 
ATOM      7  C   UNL     1      25.754  24.366   6.070  1.00  0.00     0.046 C 
ATOM      8  C   UNL     1      25.627  25.725   5.390  1.00  0.00     0.054 C 
ATOM      9  C   UNL     1      24.459  25.477   4.413  1.00  0.00     0.173 C 
ATOM     10  O   UNL     1      24.653  24.138   3.977  1.00  0.00    -0.342 OA
ATOM     11  C   UNL     1      23.045  25.607   5.090  1.00  0.00     0.096 C 
ATOM     12  C   UNL     1      22.835  24.509   6.121  1.00  0.00    -0.066 C 
ATOM     13  C   UNL     1      21.956  24.653   7.123  1.00  0.00     0.008 C 
ENDROOT
BRANCH   8  14
ATOM     14  C   UNL     1      25.505  26.922   6.382  1.00  0.00    -0.009 C 
ATOM     15  C   UNL     1      26.833  27.153   7.125  1.00  0.00     0.008 C 
ATOM     16  C   UNL     1      25.117  28.219   5.652  1.00  0.00     0.008 C 
ENDBRANCH   8  14
BRANCH   9  17
ATOM     17  O   UNL     1      24.559  26.353   3.319  1.00  0.00    -0.365 OA
ATOM     18  H   UNL     1      24.357  25.824   2.503  1.00  0.00     0.214 HD
ENDBRANCH   9  17
TORSDOF 2
ENDMDL
MODEL 9
REMARK VINA RESULT:    -2.480     14.103     15.998
REMARK INTER + INTRA:          -3.119
REMARK INTER:                  -3.297
REMARK INTRA:                   0.178
REMARK UNBOUND:                -0.422
REMARK SMILES C=C1C[C@]2(O)O[C@]3(C[C@@H]2C(C)C)[C@@H](C)CC[C@@H]13
REMARK SMILES IDX 14 1 13 2 15 3 16 4 17 5 7 6 8 7 9 8 4 9 6 10 3 11 2 12 1 13
REMARK SMILES IDX 10 14 11 15 12 16 5 17
REMARK H PARENT 5 18
REMARK Flexibility Score: inf
ROOT
ATOM      1  C   UNL     1      13.034  28.964   7.096  1.00  0.00     0.011 C 
ATOM      2  C   UNL     1      11.817  29.310   6.227  1.00  0.00     0.019 C 
ATOM      3  C   UNL     1      12.184  30.029   4.908  1.00  0.00     0.007 C 
ATOM      4  C   UNL     1      11.125  29.610   3.868  1.00  0.00     0.011 C 
ATOM      5  C   UNL     1      10.110  28.804   4.673  1.00  0.00     0.047 C 
ATOM      6  C   UNL     1      10.943  28.132   5.768  1.00  0.00     0.081 C 
ATOM      7  C   UNL     1      11.731  26.894   5.248  1.00  0.00     0.046 C 
ATOM      8  C   UNL     1      10.878  25.720   5.714  1.00  0.00     0.054 C 
ATOM      9  C   UNL     1       9.581  26.432   6.153  1.00  0.00     0.173 C 
ATOM     10  O   UNL     1      10.035  27.649   6.730  1.00  0.00    -0.342 OA
ATOM     11  C   UNL     1       8.611  26.750   4.956  1.00  0.00     0.096 C 
ATOM     12  C   UNL     1       9.230  27.771   4.013  1.00  0.00    -0.066 C 
ATOM     13  C   UNL     1       8.840  27.865   2.735  1.00  0.00     0.008 C 
ENDROOT
BRANCH   8  14
ATOM     14  C   UNL     1      10.758  24.568   4.670  1.00  0.00    -0.009 C 
ATOM     15  C   UNL     1      12.103  23.839   4.504  1.00  0.00     0.008 C 
ATOM     16  C   UNL     1       9.690  23.542   5.085  1.00  0.00     0.008 C 
ENDBRANCH   8  14
BRANCH   9  17
ATOM     17  O   UNL     1       8.921  25.662   7.125  1.00  0.00    -0.365 OA
ATOM     18  H   UNL     1       8.740  24.774   6.720  1.00  0.00     0.214 HD
ENDBRANCH   9  17
TORSDOF 2
ENDMDL
