MODEL 1
REMARK VINA RESULT:    -4.536      0.000      0.000
REMARK INTER + INTRA:          -4.536
REMARK INTER:                  -4.536
REMARK INTRA:                   0.000
REMARK UNBOUND:                 0.000
REMARK SMILES CC1(C)[C@H]2CC[C@]1(C)C(=O)C2
REMARK SMILES IDX 1 1 2 2 4 3 5 4 6 5 7 6 9 7 10 8 11 9 8 10 3 11
REMARK H PARENT
REMARK Flexibility Score: inf
ROOT
ATOM      1  C   UNL     1      -1.565   9.026   6.090  1.00  0.00     0.012 C 
ATOM      2  C   UNL     1      -1.470   7.927   4.989  1.00  0.00    -0.020 C 
ATOM      3  C   UNL     1      -1.331   8.490   3.554  1.00  0.00     0.003 C 
ATOM      4  C   UNL     1       0.044   9.213   3.603  1.00  0.00     0.005 C 
ATOM      5  C   UNL     1       0.883   8.302   4.533  1.00  0.00     0.015 C 
ATOM      6  C   UNL     1      -0.119   7.183   4.906  1.00  0.00     0.032 C 
ATOM      7  C   UNL     1      -0.312   6.398   3.632  1.00  0.00     0.139 C 
ATOM      8  O   UNL     1       0.184   5.311   3.377  1.00  0.00    -0.299 OA
ATOM      9  C   UNL     1      -1.127   7.220   2.683  1.00  0.00     0.080 C 
ATOM     10  C   UNL     1       0.276   6.347   6.129  1.00  0.00     0.020 C 
ATOM     11  C   UNL     1      -2.713   7.003   5.180  1.00  0.00     0.012 C 
ENDROOT
TORSDOF 0
ENDMDL
MODEL 2
REMARK VINA RESULT:    -4.342      1.503      2.888
REMARK INTER + INTRA:          -4.342
REMARK INTER:                  -4.342
REMARK INTRA:                   0.000
REMARK UNBOUND:                 0.000
REMARK SMILES CC1(C)[C@H]2CC[C@]1(C)C(=O)C2
REMARK SMILES IDX 1 1 2 2 4 3 5 4 6 5 7 6 9 7 10 8 11 9 8 10 3 11
REMARK H PARENT
REMARK Flexibility Score: inf
ROOT
ATOM      1  C   UNL     1      -2.862   7.127   5.048  1.00  0.00     0.012 C 
ATOM      2  C   UNL     1      -1.356   7.500   5.194  1.00  0.00    -0.020 C 
ATOM      3  C   UNL     1      -0.390   6.335   4.874  1.00  0.00     0.003 C 
ATOM      4  C   UNL     1      -0.655   6.077   3.364  1.00  0.00     0.005 C 
ATOM      5  C   UNL     1      -0.916   7.499   2.809  1.00  0.00     0.015 C 
ATOM      6  C   UNL     1      -0.778   8.386   4.069  1.00  0.00     0.032 C 
ATOM      7  C   UNL     1       0.691   8.345   4.410  1.00  0.00     0.139 C 
ATOM      8  O   UNL     1       1.504   9.231   4.192  1.00  0.00    -0.299 OA
ATOM      9  C   UNL     1       1.016   6.993   4.964  1.00  0.00     0.080 C 
ATOM     10  C   UNL     1      -1.373   9.792   3.933  1.00  0.00     0.020 C 
ATOM     11  C   UNL     1      -1.182   8.078   6.633  1.00  0.00     0.012 C 
ENDROOT
TORSDOF 0
ENDMDL
MODEL 3
REMARK VINA RESULT:    -3.983     12.958     14.242
REMARK INTER + INTRA:          -3.983
REMARK INTER:                  -3.983
REMARK INTRA:                   0.000
REMARK UNBOUND:                 0.000
REMARK SMILES CC1(C)[C@H]2CC[C@]1(C)C(=O)C2
REMARK SMILES IDX 1 1 2 2 4 3 5 4 6 5 7 6 9 7 10 8 11 9 8 10 3 11
REMARK H PARENT
REMARK Flexibility Score: inf
ROOT
ATOM      1  C   UNL     1       9.167  -1.943   3.689  1.00  0.00     0.012 C 
ATOM      2  C   UNL     1       8.123  -2.511   2.681  1.00  0.00    -0.020 C 
ATOM      3  C   UNL     1       8.619  -2.534   1.215  1.00  0.00     0.003 C 
ATOM      4  C   UNL     1       9.800  -3.542   1.270  1.00  0.00     0.005 C 
ATOM      5  C   UNL     1       9.317  -4.588   2.305  1.00  0.00     0.015 C 
ATOM      6  C   UNL     1       7.929  -4.042   2.717  1.00  0.00     0.032 C 
ATOM      7  C   UNL     1       7.060  -4.240   1.499  1.00  0.00     0.139 C 
ATOM      8  O   UNL     1       6.221  -5.117   1.351  1.00  0.00    -0.299 OA
ATOM      9  C   UNL     1       7.468  -3.250   0.454  1.00  0.00     0.080 C 
ATOM     10  C   UNL     1       7.367  -4.629   4.016  1.00  0.00     0.020 C 
ATOM     11  C   UNL     1       6.816  -1.682   2.886  1.00  0.00     0.012 C 
ENDROOT
TORSDOF 0
ENDMDL
MODEL 4
REMARK VINA RESULT:    -3.970      1.733      3.092
REMARK INTER + INTRA:          -3.970
REMARK INTER:                  -3.970
REMARK INTRA:                   0.000
REMARK UNBOUND:                 0.000
REMARK SMILES CC1(C)[C@H]2CC[C@]1(C)C(=O)C2
REMARK SMILES IDX 1 1 2 2 4 3 5 4 6 5 7 6 9 7 10 8 11 9 8 10 3 11
REMARK H PARENT
REMARK Flexibility Score: inf
ROOT
ATOM      1  C   UNL     1       1.322   6.952   5.095  1.00  0.00     0.012 C 
ATOM      2  C   UNL     1      -0.146   7.034   4.581  1.00  0.00    -0.020 C 
ATOM      3  C   UNL     1      -1.207   6.774   5.677  1.00  0.00     0.003 C 
ATOM      4  C   UNL     1      -0.993   7.968   6.650  1.00  0.00     0.005 C 
ATOM      5  C   UNL     1      -0.632   9.133   5.695  1.00  0.00     0.015 C 
ATOM      6  C   UNL     1      -0.675   8.458   4.304  1.00  0.00     0.032 C 
ATOM      7  C   UNL     1      -2.136   8.170   4.060  1.00  0.00     0.139 C 
ATOM      8  O   UNL     1      -2.880   8.804   3.327  1.00  0.00    -0.299 OA
ATOM      9  C   UNL     1      -2.555   7.040   4.949  1.00  0.00     0.080 C 
ATOM     10  C   UNL     1       0.025   9.242   3.188  1.00  0.00     0.020 C 
ATOM     11  C   UNL     1      -0.245   6.054   3.370  1.00  0.00     0.012 C 
ENDROOT
TORSDOF 0
ENDMDL
MODEL 5
REMARK VINA RESULT:    -3.966     14.660     16.076
REMARK INTER + INTRA:          -3.966
REMARK INTER:                  -3.966
REMARK INTRA:                   0.000
REMARK UNBOUND:                 0.000
REMARK SMILES CC1(C)[C@H]2CC[C@]1(C)C(=O)C2
REMARK SMILES IDX 1 1 2 2 4 3 5 4 6 5 7 6 9 7 10 8 11 9 8 10 3 11
REMARK H PARENT
REMARK Flexibility Score: inf
ROOT
ATOM      1  C   UNL     1      10.575  -5.188   1.222  1.00  0.00     0.012 C 
ATOM      2  C   UNL     1       9.048  -5.118   1.524  1.00  0.00    -0.020 C 
ATOM      3  C   UNL     1       8.385  -3.789   1.089  1.00  0.00     0.003 C 
ATOM      4  C   UNL     1       8.546  -3.817  -0.457  1.00  0.00     0.005 C 
ATOM      5  C   UNL     1       8.373  -5.318  -0.797  1.00  0.00     0.015 C 
ATOM      6  C   UNL     1       8.146  -5.957   0.594  1.00  0.00     0.032 C 
ATOM      7  C   UNL     1       6.781  -5.476   1.021  1.00  0.00     0.139 C 
ATOM      8  O   UNL     1       5.750  -6.131   1.000  1.00  0.00    -0.299 OA
ATOM      9  C   UNL     1       6.875  -4.025   1.375  1.00  0.00     0.080 C 
ATOM     10  C   UNL     1       8.342  -7.477   0.643  1.00  0.00     0.020 C 
ATOM     11  C   UNL     1       8.885  -5.428   3.045  1.00  0.00     0.012 C 
ENDROOT
TORSDOF 0
ENDMDL
MODEL 6
REMARK VINA RESULT:    -3.952      1.769      3.005
REMARK INTER + INTRA:          -3.952
REMARK INTER:                  -3.952
REMARK INTRA:                   0.000
REMARK UNBOUND:                 0.000
REMARK SMILES CC1(C)[C@H]2CC[C@]1(C)C(=O)C2
REMARK SMILES IDX 1 1 2 2 4 3 5 4 6 5 7 6 9 7 10 8 11 9 8 10 3 11
REMARK H PARENT
REMARK Flexibility Score: inf
ROOT
ATOM      1  C   UNL     1       0.213   6.511   6.699  1.00  0.00     0.012 C 
ATOM      2  C   UNL     1      -0.153   7.683   5.740  1.00  0.00    -0.020 C 
ATOM      3  C   UNL     1       0.491   7.567   4.338  1.00  0.00     0.003 C 
ATOM      4  C   UNL     1      -0.169   6.282   3.765  1.00  0.00     0.005 C 
ATOM      5  C   UNL     1      -1.608   6.346   4.334  1.00  0.00     0.015 C 
ATOM      6  C   UNL     1      -1.586   7.651   5.166  1.00  0.00     0.032 C 
ATOM      7  C   UNL     1      -1.501   8.758   4.145  1.00  0.00     0.139 C 
ATOM      8  O   UNL     1      -2.422   9.479   3.790  1.00  0.00    -0.299 OA
ATOM      9  C   UNL     1      -0.125   8.761   3.555  1.00  0.00     0.080 C 
ATOM     10  C   UNL     1      -2.730   7.787   6.177  1.00  0.00     0.020 C 
ATOM     11  C   UNL     1       0.219   9.000   6.491  1.00  0.00     0.012 C 
ENDROOT
TORSDOF 0
ENDMDL
MODEL 7
REMARK VINA RESULT:    -3.943      1.149      2.856
REMARK INTER + INTRA:          -3.943
REMARK INTER:                  -3.943
REMARK INTRA:                   0.000
REMARK UNBOUND:                 0.000
REMARK SMILES CC1(C)[C@H]2CC[C@]1(C)C(=O)C2
REMARK SMILES IDX 1 1 2 2 4 3 5 4 6 5 7 6 9 7 10 8 11 9 8 10 3 11
REMARK H PARENT
REMARK Flexibility Score: inf
ROOT
ATOM      1  C   UNL     1      -0.872   9.998   5.385  1.00  0.00     0.012 C 
ATOM      2  C   UNL     1      -0.049   8.742   4.969  1.00  0.00    -0.020 C 
ATOM      3  C   UNL     1       0.483   7.919   6.166  1.00  0.00     0.003 C 
ATOM      4  C   UNL     1      -0.823   7.411   6.839  1.00  0.00     0.005 C 
ATOM      5  C   UNL     1      -1.759   7.154   5.632  1.00  0.00     0.015 C 
ATOM      6  C   UNL     1      -0.876   7.556   4.426  1.00  0.00     0.032 C 
ATOM      7  C   UNL     1       0.187   6.487   4.354  1.00  0.00     0.139 C 
ATOM      8  O   UNL     1       0.223   5.563   3.554  1.00  0.00    -0.299 OA
ATOM      9  C   UNL     1       1.138   6.680   5.493  1.00  0.00     0.080 C 
ATOM     10  C   UNL     1      -1.642   7.797   3.121  1.00  0.00     0.020 C 
ATOM     11  C   UNL     1       1.074   9.247   4.010  1.00  0.00     0.012 C 
ENDROOT
TORSDOF 0
ENDMDL
MODEL 8
REMARK VINA RESULT:    -3.941      1.935      3.361
REMARK INTER + INTRA:          -3.941
REMARK INTER:                  -3.941
REMARK INTRA:                   0.000
REMARK UNBOUND:                 0.000
REMARK SMILES CC1(C)[C@H]2CC[C@]1(C)C(=O)C2
REMARK SMILES IDX 1 1 2 2 4 3 5 4 6 5 7 6 9 7 10 8 11 9 8 10 3 11
REMARK H PARENT
REMARK Flexibility Score: inf
ROOT
ATOM      1  C   UNL     1      -0.244   6.031   3.550  1.00  0.00     0.012 C 
ATOM      2  C   UNL     1      -0.768   6.955   4.690  1.00  0.00    -0.020 C 
ATOM      3  C   UNL     1      -0.227   6.585   6.092  1.00  0.00     0.003 C 
ATOM      4  C   UNL     1       1.298   6.849   5.951  1.00  0.00     0.005 C 
ATOM      5  C   UNL     1       1.352   8.087   5.021  1.00  0.00     0.015 C 
ATOM      6  C   UNL     1      -0.144   8.367   4.742  1.00  0.00     0.032 C 
ATOM      7  C   UNL     1      -0.694   8.866   6.055  1.00  0.00     0.139 C 
ATOM      8  O   UNL     1      -0.946  10.030   6.332  1.00  0.00    -0.299 OA
ATOM      9  C   UNL     1      -0.783   7.714   7.006  1.00  0.00     0.080 C 
ATOM     10  C   UNL     1      -0.414   9.277   3.538  1.00  0.00     0.020 C 
ATOM     11  C   UNL     1      -2.326   6.933   4.596  1.00  0.00     0.012 C 
ENDROOT
TORSDOF 0
ENDMDL
MODEL 9
REMARK VINA RESULT:    -3.940     12.919     14.395
REMARK INTER + INTRA:          -3.940
REMARK INTER:                  -3.940
REMARK INTRA:                   0.000
REMARK UNBOUND:                 0.000
REMARK SMILES CC1(C)[C@H]2CC[C@]1(C)C(=O)C2
REMARK SMILES IDX 1 1 2 2 4 3 5 4 6 5 7 6 9 7 10 8 11 9 8 10 3 11
REMARK H PARENT
REMARK Flexibility Score: inf
ROOT
ATOM      1  C   UNL     1       9.891  -1.974   2.463  1.00  0.00     0.012 C 
ATOM      2  C   UNL     1       9.017  -3.264   2.438  1.00  0.00    -0.020 C 
ATOM      3  C   UNL     1       8.275  -3.541   3.767  1.00  0.00     0.003 C 
ATOM      4  C   UNL     1       7.305  -2.331   3.876  1.00  0.00     0.005 C 
ATOM      5  C   UNL     1       6.904  -2.075   2.402  1.00  0.00     0.015 C 
ATOM      6  C   UNL     1       7.700  -3.160   1.639  1.00  0.00     0.032 C 
ATOM      7  C   UNL     1       7.040  -4.462   2.021  1.00  0.00     0.139 C 
ATOM      8  O   UNL     1       6.273  -5.109   1.324  1.00  0.00    -0.299 OA
ATOM      9  C   UNL     1       7.394  -4.779   3.440  1.00  0.00     0.080 C 
ATOM     10  C   UNL     1       7.833  -2.919   0.131  1.00  0.00     0.020 C 
ATOM     11  C   UNL     1       9.959  -4.427   1.995  1.00  0.00     0.012 C 
ENDROOT
TORSDOF 0
ENDMDL
