MODEL 1
REMARK VINA RESULT:    -4.482      0.000      0.000
REMARK INTER + INTRA:          -4.613
REMARK INTER:                  -4.613
REMARK INTRA:                   0.000
REMARK UNBOUND:                 0.000
REMARK SMILES Cc1ccccc1O
REMARK SMILES IDX 1 1 2 2 3 3 4 4 5 5 6 6 7 7 8 8
REMARK H PARENT 8 9
REMARK Flexibility Score: inf
ROOT
ATOM      1  C   UNL     1      19.393  28.757 -21.938  1.00  0.00     0.048 C 
ATOM      2  C   UNL     1      19.000  30.185 -22.185  1.00  0.00    -0.009 A 
ATOM      3  C   UNL     1      17.707  30.632 -21.867  1.00  0.00     0.007 A 
ATOM      4  C   UNL     1      17.341  31.961 -22.097  1.00  0.00     0.001 A 
ATOM      5  C   UNL     1      18.263  32.855 -22.648  1.00  0.00     0.004 A 
ATOM      6  C   UNL     1      19.552  32.422 -22.969  1.00  0.00     0.046 A 
ATOM      7  C   UNL     1      19.926  31.090 -22.740  1.00  0.00     0.118 A 
ENDROOT
BRANCH   7   8
ATOM      8  O   UNL     1      21.215  30.661 -23.062  1.00  0.00    -0.508 OA
ATOM      9  H   UNL     1      21.639  30.880 -23.956  1.00  0.00     0.293 HD
ENDBRANCH   7   8
TORSDOF 1
ENDMDL
MODEL 2
REMARK VINA RESULT:    -4.284      9.815     10.751
REMARK INTER + INTRA:          -4.409
REMARK INTER:                  -4.409
REMARK INTRA:                   0.000
REMARK UNBOUND:                 0.000
REMARK SMILES Cc1ccccc1O
REMARK SMILES IDX 1 1 2 2 3 3 4 4 5 5 6 6 7 7 8 8
REMARK H PARENT 8 9
REMARK Flexibility Score: inf
ROOT
ATOM      1  C   UNL     1      17.570  27.161 -14.681  1.00  0.00     0.048 C 
ATOM      2  C   UNL     1      18.464  27.550 -13.538  1.00  0.00    -0.009 A 
ATOM      3  C   UNL     1      19.491  28.490 -13.728  1.00  0.00     0.007 A 
ATOM      4  C   UNL     1      20.322  28.852 -12.664  1.00  0.00     0.001 A 
ATOM      5  C   UNL     1      20.136  28.279 -11.404  1.00  0.00     0.004 A 
ATOM      6  C   UNL     1      19.117  27.344 -11.204  1.00  0.00     0.046 A 
ATOM      7  C   UNL     1      18.279  26.975 -12.266  1.00  0.00     0.118 A 
ENDROOT
BRANCH   7   8
ATOM      8  O   UNL     1      17.263  26.041 -12.062  1.00  0.00    -0.508 OA
ATOM      9  H   UNL     1      16.876  25.502 -12.828  1.00  0.00     0.293 HD
ENDBRANCH   7   8
TORSDOF 1
ENDMDL
MODEL 3
REMARK VINA RESULT:    -4.213      9.525     10.441
REMARK INTER + INTRA:          -4.336
REMARK INTER:                  -4.336
REMARK INTRA:                   0.000
REMARK UNBOUND:                 0.000
REMARK SMILES Cc1ccccc1O
REMARK SMILES IDX 1 1 2 2 3 3 4 4 5 5 6 6 7 7 8 8
REMARK H PARENT 8 9
REMARK Flexibility Score: inf
ROOT
ATOM      1  C   UNL     1      19.171  27.189 -10.890  1.00  0.00     0.048 C 
ATOM      2  C   UNL     1      18.759  27.389 -12.320  1.00  0.00    -0.009 A 
ATOM      3  C   UNL     1      19.502  28.234 -13.162  1.00  0.00     0.007 A 
ATOM      4  C   UNL     1      19.118  28.420 -14.493  1.00  0.00     0.001 A 
ATOM      5  C   UNL     1      17.991  27.766 -14.994  1.00  0.00     0.004 A 
ATOM      6  C   UNL     1      17.245  26.923 -14.166  1.00  0.00     0.046 A 
ATOM      7  C   UNL     1      17.623  26.731 -12.829  1.00  0.00     0.118 A 
ENDROOT
BRANCH   7   8
ATOM      8  O   UNL     1      16.875  25.888 -12.006  1.00  0.00    -0.508 OA
ATOM      9  H   UNL     1      16.579  26.177 -11.080  1.00  0.00     0.293 HD
ENDBRANCH   7   8
TORSDOF 1
ENDMDL
MODEL 4
REMARK VINA RESULT:    -4.206      7.535      8.767
REMARK INTER + INTRA:          -4.329
REMARK INTER:                  -4.329
REMARK INTRA:                   0.000
REMARK UNBOUND:                 0.000
REMARK SMILES Cc1ccccc1O
REMARK SMILES IDX 1 1 2 2 3 3 4 4 5 5 6 6 7 7 8 8
REMARK H PARENT 8 9
REMARK Flexibility Score: inf
ROOT
ATOM      1  C   UNL     1      24.533  23.024 -23.566  1.00  0.00     0.048 C 
ATOM      2  C   UNL     1      23.057  23.298 -23.594  1.00  0.00    -0.009 A 
ATOM      3  C   UNL     1      22.500  24.279 -22.755  1.00  0.00     0.007 A 
ATOM      4  C   UNL     1      21.126  24.533 -22.781  1.00  0.00     0.001 A 
ATOM      5  C   UNL     1      20.297  23.812 -23.643  1.00  0.00     0.004 A 
ATOM      6  C   UNL     1      20.839  22.836 -24.482  1.00  0.00     0.046 A 
ATOM      7  C   UNL     1      22.217  22.574 -24.462  1.00  0.00     0.118 A 
ENDROOT
BRANCH   7   8
ATOM      8  O   UNL     1      22.755  21.597 -25.301  1.00  0.00    -0.508 OA
ATOM      9  H   UNL     1      23.529  21.012 -25.006  1.00  0.00     0.293 HD
ENDBRANCH   7   8
TORSDOF 1
ENDMDL
MODEL 5
REMARK VINA RESULT:    -4.168      9.725     10.829
REMARK INTER + INTRA:          -4.290
REMARK INTER:                  -4.290
REMARK INTRA:                   0.000
REMARK UNBOUND:                 0.000
REMARK SMILES Cc1ccccc1O
REMARK SMILES IDX 1 1 2 2 3 3 4 4 5 5 6 6 7 7 8 8
REMARK H PARENT 8 9
REMARK Flexibility Score: inf
ROOT
ATOM      1  C   UNL     1      24.837  22.915 -24.043  1.00  0.00     0.048 C 
ATOM      2  C   UNL     1      24.345  22.879 -25.462  1.00  0.00    -0.009 A 
ATOM      3  C   UNL     1      23.371  23.793 -25.899  1.00  0.00     0.007 A 
ATOM      4  C   UNL     1      22.913  23.760 -27.219  1.00  0.00     0.001 A 
ATOM      5  C   UNL     1      23.422  22.815 -28.113  1.00  0.00     0.004 A 
ATOM      6  C   UNL     1      24.391  21.902 -27.689  1.00  0.00     0.046 A 
ATOM      7  C   UNL     1      24.855  21.928 -26.366  1.00  0.00     0.118 A 
ENDROOT
BRANCH   7   8
ATOM      8  O   UNL     1      25.823  21.014 -25.947  1.00  0.00    -0.508 OA
ATOM      9  H   UNL     1      26.297  20.405 -26.604  1.00  0.00     0.293 HD
ENDBRANCH   7   8
TORSDOF 1
ENDMDL
MODEL 6
REMARK VINA RESULT:    -4.125     12.611     13.421
REMARK INTER + INTRA:          -4.245
REMARK INTER:                  -4.245
REMARK INTRA:                   0.000
REMARK UNBOUND:                 0.000
REMARK SMILES Cc1ccccc1O
REMARK SMILES IDX 1 1 2 2 3 3 4 4 5 5 6 6 7 7 8 8
REMARK H PARENT 8 9
REMARK Flexibility Score: inf
ROOT
ATOM      1  C   UNL     1      32.641  36.615 -23.113  1.00  0.00     0.048 C 
ATOM      2  C   UNL     1      31.311  37.311 -23.049  1.00  0.00    -0.009 A 
ATOM      3  C   UNL     1      30.706  37.794 -24.221  1.00  0.00     0.007 A 
ATOM      4  C   UNL     1      29.468  38.441 -24.161  1.00  0.00     0.001 A 
ATOM      5  C   UNL     1      28.826  38.612 -22.933  1.00  0.00     0.004 A 
ATOM      6  C   UNL     1      29.419  38.135 -21.761  1.00  0.00     0.046 A 
ATOM      7  C   UNL     1      30.660  37.484 -21.812  1.00  0.00     0.118 A 
ENDROOT
BRANCH   7   8
ATOM      8  O   UNL     1      31.249  37.009 -20.639  1.00  0.00    -0.508 OA
ATOM      9  H   UNL     1      30.960  36.134 -20.218  1.00  0.00     0.293 HD
ENDBRANCH   7   8
TORSDOF 1
ENDMDL
MODEL 7
REMARK VINA RESULT:    -4.068     11.594     12.603
REMARK INTER + INTRA:          -4.187
REMARK INTER:                  -4.187
REMARK INTRA:                   0.000
REMARK UNBOUND:                 0.000
REMARK SMILES Cc1ccccc1O
REMARK SMILES IDX 1 1 2 2 3 3 4 4 5 5 6 6 7 7 8 8
REMARK H PARENT 8 9
REMARK Flexibility Score: inf
ROOT
ATOM      1  C   UNL     1      32.696  32.557 -20.187  1.00  0.00     0.048 C 
ATOM      2  C   UNL     1      31.596  32.221 -19.222  1.00  0.00    -0.009 A 
ATOM      3  C   UNL     1      31.861  31.435 -18.088  1.00  0.00     0.007 A 
ATOM      4  C   UNL     1      30.838  31.122 -17.190  1.00  0.00     0.001 A 
ATOM      5  C   UNL     1      29.541  31.590 -17.416  1.00  0.00     0.004 A 
ATOM      6  C   UNL     1      29.265  32.373 -18.540  1.00  0.00     0.046 A 
ATOM      7  C   UNL     1      30.287  32.691 -19.446  1.00  0.00     0.118 A 
ENDROOT
BRANCH   7   8
ATOM      8  O   UNL     1      30.008  33.473 -20.568  1.00  0.00    -0.508 OA
ATOM      9  H   UNL     1      29.239  34.134 -20.576  1.00  0.00     0.293 HD
ENDBRANCH   7   8
TORSDOF 1
ENDMDL
MODEL 8
REMARK VINA RESULT:    -4.066     13.044     14.290
REMARK INTER + INTRA:          -4.185
REMARK INTER:                  -4.185
REMARK INTRA:                   0.000
REMARK UNBOUND:                 0.000
REMARK SMILES Cc1ccccc1O
REMARK SMILES IDX 1 1 2 2 3 3 4 4 5 5 6 6 7 7 8 8
REMARK H PARENT 8 9
REMARK Flexibility Score: inf
ROOT
ATOM      1  C   UNL     1      29.019  38.271 -21.851  1.00  0.00     0.048 C 
ATOM      2  C   UNL     1      30.401  37.982 -22.365  1.00  0.00    -0.009 A 
ATOM      3  C   UNL     1      31.085  36.826 -21.954  1.00  0.00     0.007 A 
ATOM      4  C   UNL     1      32.370  36.558 -22.433  1.00  0.00     0.001 A 
ATOM      5  C   UNL     1      32.983  37.441 -23.325  1.00  0.00     0.004 A 
ATOM      6  C   UNL     1      32.312  38.593 -23.741  1.00  0.00     0.046 A 
ATOM      7  C   UNL     1      31.022  38.870 -23.265  1.00  0.00     0.118 A 
ENDROOT
BRANCH   7   8
ATOM      8  O   UNL     1      30.355  40.022 -23.684  1.00  0.00    -0.508 OA
ATOM      9  H   UNL     1      29.545  39.975 -24.291  1.00  0.00     0.293 HD
ENDBRANCH   7   8
TORSDOF 1
ENDMDL
MODEL 9
REMARK VINA RESULT:    -3.545     18.459     19.230
REMARK INTER + INTRA:          -3.648
REMARK INTER:                  -3.648
REMARK INTRA:                   0.000
REMARK UNBOUND:                 0.000
REMARK SMILES Cc1ccccc1O
REMARK SMILES IDX 1 1 2 2 3 3 4 4 5 5 6 6 7 7 8 8
REMARK H PARENT 8 9
REMARK Flexibility Score: inf
ROOT
ATOM      1  C   UNL     1      33.482  30.361 -12.446  1.00  0.00     0.048 C 
ATOM      2  C   UNL     1      34.752  31.043 -12.870  1.00  0.00    -0.009 A 
ATOM      3  C   UNL     1      35.256  30.861 -14.168  1.00  0.00     0.007 A 
ATOM      4  C   UNL     1      36.438  31.496 -14.563  1.00  0.00     0.001 A 
ATOM      5  C   UNL     1      37.125  32.315 -13.665  1.00  0.00     0.004 A 
ATOM      6  C   UNL     1      36.632  32.503 -12.371  1.00  0.00     0.046 A 
ATOM      7  C   UNL     1      35.448  31.870 -11.967  1.00  0.00     0.118 A 
ENDROOT
BRANCH   7   8
ATOM      8  O   UNL     1      34.959  32.061 -10.674  1.00  0.00    -0.508 OA
ATOM      9  H   UNL     1      35.582  32.192  -9.885  1.00  0.00     0.293 HD
ENDBRANCH   7   8
TORSDOF 1
ENDMDL
