MODEL 1
REMARK VINA RESULT:    -2.597      0.000      0.000
REMARK INTER + INTRA:          -2.597
REMARK INTER:                  -2.597
REMARK INTRA:                   0.000
REMARK UNBOUND:                 0.000
REMARK SMILES CC(=O)[O-]
REMARK SMILES IDX 1 1 2 2 3 3 4 4
REMARK H PARENT
REMARK Flexibility Score: inf
ROOT
ATOM      1  C   UNL     1      60.852  50.993  11.497  1.00  0.00     0.063 C 
ATOM      2  C   UNL     1      60.181  51.479  10.258  1.00  0.00     0.038 C 
ATOM      3  O   UNL     1      60.767  51.396   9.148  1.00  0.00    -0.550 OA
ATOM      4  O   UNL     1      58.929  52.077  10.333  1.00  0.00    -0.550 OA
ENDROOT
TORSDOF 0
ENDMDL
MODEL 2
REMARK VINA RESULT:    -2.448     23.757     24.101
REMARK INTER + INTRA:          -2.448
REMARK INTER:                  -2.448
REMARK INTRA:                   0.000
REMARK UNBOUND:                 0.000
REMARK SMILES CC(=O)[O-]
REMARK SMILES IDX 1 1 2 2 3 3 4 4
REMARK H PARENT
REMARK Flexibility Score: inf
ROOT
ATOM      1  C   UNL     1      45.963  68.677   4.561  1.00  0.00     0.063 C 
ATOM      2  C   UNL     1      44.485  68.784   4.396  1.00  0.00     0.038 C 
ATOM      3  O   UNL     1      43.936  68.375   3.339  1.00  0.00    -0.550 OA
ATOM      4  O   UNL     1      43.715  69.385   5.384  1.00  0.00    -0.550 OA
ENDROOT
TORSDOF 0
ENDMDL
MODEL 3
REMARK VINA RESULT:    -2.387     19.476     19.858
REMARK INTER + INTRA:          -2.387
REMARK INTER:                  -2.387
REMARK INTRA:                   0.000
REMARK UNBOUND:                 0.000
REMARK SMILES CC(=O)[O-]
REMARK SMILES IDX 1 1 2 2 3 3 4 4
REMARK H PARENT
REMARK Flexibility Score: inf
ROOT
ATOM      1  C   UNL     1      56.352  61.504  -5.758  1.00  0.00     0.063 C 
ATOM      2  C   UNL     1      55.920  62.863  -5.322  1.00  0.00     0.038 C 
ATOM      3  O   UNL     1      56.370  63.358  -4.256  1.00  0.00    -0.550 OA
ATOM      4  O   UNL     1      54.977  63.565  -6.063  1.00  0.00    -0.550 OA
ENDROOT
TORSDOF 0
ENDMDL
MODEL 4
REMARK VINA RESULT:    -2.300      9.913     10.300
REMARK INTER + INTRA:          -2.300
REMARK INTER:                  -2.300
REMARK INTRA:                   0.000
REMARK UNBOUND:                 0.000
REMARK SMILES CC(=O)[O-]
REMARK SMILES IDX 1 1 2 2 3 3 4 4
REMARK H PARENT
REMARK Flexibility Score: inf
ROOT
ATOM      1  C   UNL     1      55.205  58.474   8.197  1.00  0.00     0.063 C 
ATOM      2  C   UNL     1      54.660  59.859   8.110  1.00  0.00     0.038 C 
ATOM      3  O   UNL     1      54.171  60.279   7.029  1.00  0.00    -0.550 OA
ATOM      4  O   UNL     1      54.740  60.709   9.206  1.00  0.00    -0.550 OA
ENDROOT
TORSDOF 0
ENDMDL
MODEL 5
REMARK VINA RESULT:    -2.293      9.582     10.090
REMARK INTER + INTRA:          -2.293
REMARK INTER:                  -2.293
REMARK INTRA:                   0.000
REMARK UNBOUND:                 0.000
REMARK SMILES CC(=O)[O-]
REMARK SMILES IDX 1 1 2 2 3 3 4 4
REMARK H PARENT
REMARK Flexibility Score: inf
ROOT
ATOM      1  C   UNL     1      55.021  58.113   8.100  1.00  0.00     0.063 C 
ATOM      2  C   UNL     1      54.543  59.143   7.135  1.00  0.00     0.038 C 
ATOM      3  O   UNL     1      54.385  60.334   7.508  1.00  0.00    -0.550 OA
ATOM      4  O   UNL     1      54.216  58.779   5.834  1.00  0.00    -0.550 OA
ENDROOT
TORSDOF 0
ENDMDL
MODEL 6
REMARK VINA RESULT:    -2.279     13.556     14.027
REMARK INTER + INTRA:          -2.279
REMARK INTER:                  -2.279
REMARK INTRA:                   0.000
REMARK UNBOUND:                 0.000
REMARK SMILES CC(=O)[O-]
REMARK SMILES IDX 1 1 2 2 3 3 4 4
REMARK H PARENT
REMARK Flexibility Score: inf
ROOT
ATOM      1  C   UNL     1      54.844  58.177  -1.130  1.00  0.00     0.063 C 
ATOM      2  C   UNL     1      53.791  58.175  -0.075  1.00  0.00     0.038 C 
ATOM      3  O   UNL     1      52.606  57.864  -0.365  1.00  0.00    -0.550 OA
ATOM      4  O   UNL     1      54.102  58.570   1.220  1.00  0.00    -0.550 OA
ENDROOT
TORSDOF 0
ENDMDL
MODEL 7
REMARK VINA RESULT:    -2.273     22.648     23.222
REMARK INTER + INTRA:          -2.273
REMARK INTER:                  -2.273
REMARK INTRA:                   0.000
REMARK UNBOUND:                 0.000
REMARK SMILES CC(=O)[O-]
REMARK SMILES IDX 1 1 2 2 3 3 4 4
REMARK H PARENT
REMARK Flexibility Score: inf
ROOT
ATOM      1  C   UNL     1      45.695  68.852   4.688  1.00  0.00     0.063 C 
ATOM      2  C   UNL     1      45.044  67.789   3.870  1.00  0.00     0.038 C 
ATOM      3  O   UNL     1      45.510  66.619   3.868  1.00  0.00    -0.550 OA
ATOM      4  O   UNL     1      43.956  68.098   3.064  1.00  0.00    -0.550 OA
ENDROOT
TORSDOF 0
ENDMDL
MODEL 8
REMARK VINA RESULT:    -2.261      8.891      9.057
REMARK INTER + INTRA:          -2.261
REMARK INTER:                  -2.261
REMARK INTRA:                   0.000
REMARK UNBOUND:                 0.000
REMARK SMILES CC(=O)[O-]
REMARK SMILES IDX 1 1 2 2 3 3 4 4
REMARK H PARENT
REMARK Flexibility Score: inf
ROOT
ATOM      1  C   UNL     1      55.253  57.383   7.126  1.00  0.00     0.063 C 
ATOM      2  C   UNL     1      54.830  58.341   8.187  1.00  0.00     0.038 C 
ATOM      3  O   UNL     1      55.589  59.288   8.523  1.00  0.00    -0.550 OA
ATOM      4  O   UNL     1      53.622  58.159   8.848  1.00  0.00    -0.550 OA
ENDROOT
TORSDOF 0
ENDMDL
MODEL 9
REMARK VINA RESULT:    -2.256     13.506     13.883
REMARK INTER + INTRA:          -2.256
REMARK INTER:                  -2.256
REMARK INTRA:                   0.000
REMARK UNBOUND:                 0.000
REMARK SMILES CC(=O)[O-]
REMARK SMILES IDX 1 1 2 2 3 3 4 4
REMARK H PARENT
REMARK Flexibility Score: inf
ROOT
ATOM      1  C   UNL     1      55.137  57.911  -0.951  1.00  0.00     0.063 C 
ATOM      2  C   UNL     1      54.003  58.174  -0.020  1.00  0.00     0.038 C 
ATOM      3  O   UNL     1      54.222  58.649   1.125  1.00  0.00    -0.550 OA
ATOM      4  O   UNL     1      52.706  57.845  -0.393  1.00  0.00    -0.550 OA
ENDROOT
TORSDOF 0
ENDMDL
