MODEL 1
REMARK VINA RESULT:    -3.400      0.000      0.000
REMARK INTER + INTRA:          -4.730
REMARK INTER:                  -4.393
REMARK INTRA:                  -0.337
REMARK UNBOUND:                -0.337
REMARK SMILES CCCCCCC(=O)[O-]
REMARK SMILES IDX 5 1 6 2 7 3 8 4 9 5 4 6 3 7 2 8 1 9
REMARK H PARENT
REMARK Flexibility Score: inf
ROOT
ATOM      1  C   UNL     1      24.838  -3.416  17.222  1.00  0.00     0.006 C 
ENDROOT
BRANCH   1   2
ATOM      2  C   UNL     1      25.874  -4.521  17.480  1.00  0.00     0.053 C 
BRANCH   2   3
ATOM      3  C   UNL     1      25.263  -5.722  18.133  1.00  0.00     0.041 C 
ATOM      4  O   UNL     1      24.273  -5.592  18.899  1.00  0.00    -0.550 OA
ATOM      5  O   UNL     1      25.768  -6.989  17.870  1.00  0.00    -0.550 OA
ENDBRANCH   2   3
ENDBRANCH   1   2
BRANCH   1   6
ATOM      6  C   UNL     1      24.993  -2.178  18.126  1.00  0.00     0.000 C 
BRANCH   6   7
ATOM      7  C   UNL     1      23.656  -1.691  18.703  1.00  0.00    -0.000 C 
BRANCH   7   8
ATOM      8  C   UNL     1      22.494  -2.557  18.201  1.00  0.00    -0.003 C 
ATOM      9  C   UNL     1      21.731  -3.185  19.364  1.00  0.00     0.004 C 
ENDBRANCH   7   8
ENDBRANCH   6   7
ENDBRANCH   1   6
TORSDOF 5
ENDMDL
MODEL 2
REMARK VINA RESULT:    -3.392      1.124      2.019
REMARK INTER + INTRA:          -4.720
REMARK INTER:                  -4.541
REMARK INTRA:                  -0.180
REMARK UNBOUND:                -0.337
REMARK SMILES CCCCCCC(=O)[O-]
REMARK SMILES IDX 5 1 6 2 7 3 8 4 9 5 4 6 3 7 2 8 1 9
REMARK H PARENT
REMARK Flexibility Score: inf
ROOT
ATOM      1  C   UNL     1      24.790  -3.387  17.286  1.00  0.00     0.006 C 
ENDROOT
BRANCH   1   2
ATOM      2  C   UNL     1      25.842  -4.494  17.460  1.00  0.00     0.053 C 
BRANCH   2   3
ATOM      3  C   UNL     1      25.274  -5.708  18.129  1.00  0.00     0.041 C 
ATOM      4  O   UNL     1      25.783  -6.841  17.926  1.00  0.00    -0.550 OA
ATOM      5  O   UNL     1      24.201  -5.582  19.003  1.00  0.00    -0.550 OA
ENDBRANCH   2   3
ENDBRANCH   1   2
BRANCH   1   6
ATOM      6  C   UNL     1      25.038  -2.137  18.151  1.00  0.00     0.000 C 
BRANCH   6   7
ATOM      7  C   UNL     1      23.742  -1.401  18.520  1.00  0.00    -0.000 C 
BRANCH   7   8
ATOM      8  C   UNL     1      22.974  -0.978  17.261  1.00  0.00    -0.003 C 
ATOM      9  C   UNL     1      23.432   0.393  16.770  1.00  0.00     0.004 C 
ENDBRANCH   7   8
ENDBRANCH   6   7
ENDBRANCH   1   6
TORSDOF 5
ENDMDL
MODEL 3
REMARK VINA RESULT:    -3.290      1.860      2.874
REMARK INTER + INTRA:          -4.588
REMARK INTER:                  -4.230
REMARK INTRA:                  -0.358
REMARK UNBOUND:                -0.337
REMARK SMILES CCCCCCC(=O)[O-]
REMARK SMILES IDX 5 1 6 2 7 3 8 4 9 5 4 6 3 7 2 8 1 9
REMARK H PARENT
REMARK Flexibility Score: inf
ROOT
ATOM      1  C   UNL     1      24.974  -5.565  18.296  1.00  0.00     0.006 C 
ENDROOT
BRANCH   1   2
ATOM      2  C   UNL     1      23.597  -5.942  17.724  1.00  0.00     0.053 C 
BRANCH   2   3
ATOM      3  C   UNL     1      22.484  -5.578  18.657  1.00  0.00     0.041 C 
ATOM      4  O   UNL     1      22.673  -4.739  19.575  1.00  0.00    -0.550 OA
ATOM      5  O   UNL     1      21.225  -6.144  18.490  1.00  0.00    -0.550 OA
ENDBRANCH   2   3
ENDBRANCH   1   2
BRANCH   1   6
ATOM      6  C   UNL     1      25.753  -4.544  17.447  1.00  0.00     0.000 C 
BRANCH   6   7
ATOM      7  C   UNL     1      24.931  -3.288  17.122  1.00  0.00    -0.000 C 
BRANCH   7   8
ATOM      8  C   UNL     1      25.099  -2.225  18.215  1.00  0.00    -0.003 C 
ATOM      9  C   UNL     1      23.772  -1.540  18.527  1.00  0.00     0.004 C 
ENDBRANCH   7   8
ENDBRANCH   6   7
ENDBRANCH   1   6
TORSDOF 5
ENDMDL
MODEL 4
REMARK VINA RESULT:    -3.288      1.542      2.270
REMARK INTER + INTRA:          -4.587
REMARK INTER:                  -4.331
REMARK INTRA:                  -0.256
REMARK UNBOUND:                -0.337
REMARK SMILES CCCCCCC(=O)[O-]
REMARK SMILES IDX 5 1 6 2 7 3 8 4 9 5 4 6 3 7 2 8 1 9
REMARK H PARENT
REMARK Flexibility Score: inf
ROOT
ATOM      1  C   UNL     1      25.735  -4.542  17.366  1.00  0.00     0.006 C 
ENDROOT
BRANCH   1   2
ATOM      2  C   UNL     1      25.215  -5.451  18.491  1.00  0.00     0.053 C 
BRANCH   2   3
ATOM      3  C   UNL     1      23.736  -5.669  18.397  1.00  0.00     0.041 C 
ATOM      4  O   UNL     1      23.263  -6.439  17.523  1.00  0.00    -0.550 OA
ATOM      5  O   UNL     1      22.883  -5.044  19.299  1.00  0.00    -0.550 OA
ENDBRANCH   2   3
ENDBRANCH   1   2
BRANCH   1   6
ATOM      6  C   UNL     1      24.888  -3.277  17.131  1.00  0.00     0.000 C 
BRANCH   6   7
ATOM      7  C   UNL     1      25.137  -2.189  18.187  1.00  0.00    -0.000 C 
BRANCH   7   8
ATOM      8  C   UNL     1      23.857  -1.393  18.467  1.00  0.00    -0.003 C 
ATOM      9  C   UNL     1      23.364  -0.681  17.210  1.00  0.00     0.004 C 
ENDBRANCH   7   8
ENDBRANCH   6   7
ENDBRANCH   1   6
TORSDOF 5
ENDMDL
MODEL 5
REMARK VINA RESULT:    -3.103     12.291     13.327
REMARK INTER + INTRA:          -4.347
REMARK INTER:                  -4.122
REMARK INTRA:                  -0.225
REMARK UNBOUND:                -0.337
REMARK SMILES CCCCCCC(=O)[O-]
REMARK SMILES IDX 5 1 6 2 7 3 8 4 9 5 4 6 3 7 2 8 1 9
REMARK H PARENT
REMARK Flexibility Score: inf
ROOT
ATOM      1  C   UNL     1      27.453  -0.308   6.705  1.00  0.00     0.006 C 
ENDROOT
BRANCH   1   2
ATOM      2  C   UNL     1      27.710   0.589   5.483  1.00  0.00     0.053 C 
BRANCH   2   3
ATOM      3  C   UNL     1      26.715   1.703   5.386  1.00  0.00     0.041 C 
ATOM      4  O   UNL     1      25.910   1.753   4.421  1.00  0.00    -0.550 OA
ATOM      5  O   UNL     1      26.657   2.672   6.381  1.00  0.00    -0.550 OA
ENDBRANCH   2   3
ENDBRANCH   1   2
BRANCH   1   6
ATOM      6  C   UNL     1      28.416  -0.064   7.882  1.00  0.00     0.000 C 
BRANCH   6   7
ATOM      7  C   UNL     1      28.964  -1.367   8.482  1.00  0.00    -0.000 C 
BRANCH   7   8
ATOM      8  C   UNL     1      28.143  -2.575   8.013  1.00  0.00    -0.003 C 
ATOM      9  C   UNL     1      29.043  -3.659   7.427  1.00  0.00     0.004 C 
ENDBRANCH   7   8
ENDBRANCH   6   7
ENDBRANCH   1   6
TORSDOF 5
ENDMDL
MODEL 6
REMARK VINA RESULT:    -3.102     11.180     12.053
REMARK INTER + INTRA:          -4.345
REMARK INTER:                  -4.031
REMARK INTRA:                  -0.314
REMARK UNBOUND:                -0.337
REMARK SMILES CCCCCCC(=O)[O-]
REMARK SMILES IDX 5 1 6 2 7 3 8 4 9 5 4 6 3 7 2 8 1 9
REMARK H PARENT
REMARK Flexibility Score: inf
ROOT
ATOM      1  C   UNL     1      27.577  -0.621   6.986  1.00  0.00     0.006 C 
ENDROOT
BRANCH   1   2
ATOM      2  C   UNL     1      28.579  -0.306   8.108  1.00  0.00     0.053 C 
BRANCH   2   3
ATOM      3  C   UNL     1      27.999  -0.560   9.465  1.00  0.00     0.041 C 
ATOM      4  O   UNL     1      28.452  -1.487  10.185  1.00  0.00    -0.550 OA
ATOM      5  O   UNL     1      26.977   0.251   9.947  1.00  0.00    -0.550 OA
ENDBRANCH   2   3
ENDBRANCH   1   2
BRANCH   1   6
ATOM      6  C   UNL     1      27.738   0.255   5.729  1.00  0.00     0.000 C 
BRANCH   6   7
ATOM      7  C   UNL     1      27.993   1.732   6.063  1.00  0.00    -0.000 C 
BRANCH   7   8
ATOM      8  C   UNL     1      26.671   2.494   6.225  1.00  0.00    -0.003 C 
ATOM      9  C   UNL     1      26.411   2.842   7.688  1.00  0.00     0.004 C 
ENDBRANCH   7   8
ENDBRANCH   6   7
ENDBRANCH   1   6
TORSDOF 5
ENDMDL
MODEL 7
REMARK VINA RESULT:    -3.097     11.638     12.361
REMARK INTER + INTRA:          -4.339
REMARK INTER:                  -3.930
REMARK INTRA:                  -0.409
REMARK UNBOUND:                -0.337
REMARK SMILES CCCCCCC(=O)[O-]
REMARK SMILES IDX 5 1 6 2 7 3 8 4 9 5 4 6 3 7 2 8 1 9
REMARK H PARENT
REMARK Flexibility Score: inf
ROOT
ATOM      1  C   UNL     1      27.978   1.320   5.728  1.00  0.00     0.006 C 
ENDROOT
BRANCH   1   2
ATOM      2  C   UNL     1      27.578  -0.162   5.812  1.00  0.00     0.053 C 
BRANCH   2   3
ATOM      3  C   UNL     1      27.797  -0.726   7.182  1.00  0.00     0.041 C 
ATOM      4  O   UNL     1      28.680  -0.238   7.934  1.00  0.00    -0.550 OA
ATOM      5  O   UNL     1      27.003  -1.771   7.638  1.00  0.00    -0.550 OA
ENDBRANCH   2   3
ENDBRANCH   1   2
BRANCH   1   6
ATOM      6  C   UNL     1      26.810   2.303   5.931  1.00  0.00     0.000 C 
BRANCH   6   7
ATOM      7  C   UNL     1      26.631   2.719   7.399  1.00  0.00    -0.000 C 
BRANCH   7   8
ATOM      8  C   UNL     1      25.366   2.089   7.996  1.00  0.00    -0.003 C 
ATOM      9  C   UNL     1      25.672   1.375   9.309  1.00  0.00     0.004 C 
ENDBRANCH   7   8
ENDBRANCH   6   7
ENDBRANCH   1   6
TORSDOF 5
ENDMDL
MODEL 8
REMARK VINA RESULT:    -3.096      2.507      3.943
REMARK INTER + INTRA:          -4.338
REMARK INTER:                  -4.024
REMARK INTRA:                  -0.314
REMARK UNBOUND:                -0.337
REMARK SMILES CCCCCCC(=O)[O-]
REMARK SMILES IDX 5 1 6 2 7 3 8 4 9 5 4 6 3 7 2 8 1 9
REMARK H PARENT
REMARK Flexibility Score: inf
ROOT
ATOM      1  C   UNL     1      25.001  -3.304  17.141  1.00  0.00     0.006 C 
ENDROOT
BRANCH   1   2
ATOM      2  C   UNL     1      25.023  -2.221  18.232  1.00  0.00     0.053 C 
BRANCH   2   3
ATOM      3  C   UNL     1      23.676  -1.599  18.432  1.00  0.00     0.041 C 
ATOM      4  O   UNL     1      23.444  -0.438  18.008  1.00  0.00    -0.550 OA
ATOM      5  O   UNL     1      22.665  -2.317  19.061  1.00  0.00    -0.550 OA
ENDBRANCH   2   3
ENDBRANCH   1   2
BRANCH   1   6
ATOM      6  C   UNL     1      25.639  -4.641  17.565  1.00  0.00     0.000 C 
BRANCH   6   7
ATOM      7  C   UNL     1      24.840  -5.361  18.661  1.00  0.00    -0.000 C 
BRANCH   7   8
ATOM      8  C   UNL     1      23.410  -5.657  18.193  1.00  0.00    -0.003 C 
ATOM      9  C   UNL     1      23.377  -6.846  17.236  1.00  0.00     0.004 C 
ENDBRANCH   7   8
ENDBRANCH   6   7
ENDBRANCH   1   6
TORSDOF 5
ENDMDL
MODEL 9
REMARK VINA RESULT:    -3.082      3.351      4.539
REMARK INTER + INTRA:          -4.319
REMARK INTER:                  -4.042
REMARK INTRA:                  -0.277
REMARK UNBOUND:                -0.337
REMARK SMILES CCCCCCC(=O)[O-]
REMARK SMILES IDX 5 1 6 2 7 3 8 4 9 5 4 6 3 7 2 8 1 9
REMARK H PARENT
REMARK Flexibility Score: inf
ROOT
ATOM      1  C   UNL     1      24.979  -2.232  18.149  1.00  0.00     0.006 C 
ENDROOT
BRANCH   1   2
ATOM      2  C   UNL     1      23.592  -1.845  18.687  1.00  0.00     0.053 C 
BRANCH   2   3
ATOM      3  C   UNL     1      23.274  -0.403  18.436  1.00  0.00     0.041 C 
ATOM      4  O   UNL     1      22.812   0.315  19.360  1.00  0.00    -0.550 OA
ATOM      5  O   UNL     1      23.520   0.155  17.187  1.00  0.00    -0.550 OA
ENDBRANCH   2   3
ENDBRANCH   1   2
BRANCH   1   6
ATOM      6  C   UNL     1      24.957  -3.351  17.091  1.00  0.00     0.000 C 
BRANCH   6   7
ATOM      7  C   UNL     1      25.786  -4.577  17.505  1.00  0.00    -0.000 C 
BRANCH   7   8
ATOM      8  C   UNL     1      24.998  -5.470  18.471  1.00  0.00    -0.003 C 
ATOM      9  C   UNL     1      23.572  -5.697  17.975  1.00  0.00     0.004 C 
ENDBRANCH   7   8
ENDBRANCH   6   7
ENDBRANCH   1   6
TORSDOF 5
ENDMDL
