MODEL 1
REMARK VINA RESULT:    -4.571      0.000      0.000
REMARK INTER + INTRA:          -9.208
REMARK INTER:                  -6.976
REMARK INTRA:                  -2.233
REMARK UNBOUND:                -2.233
REMARK SMILES CC(=O)CCC=C(C)CCC=C(C)CCC=C(C)C
REMARK SMILES IDX 10 1 11 2 12 3 13 4 14 5 15 6 16 7 18 8 17 9 19 10 9 11 7 12
REMARK SMILES IDX 6 13 8 14 5 15 4 16 2 17 3 18 1 19
REMARK H PARENT
REMARK Flexibility Score: inf
ROOT
ATOM      1  C   UNL     1       2.010  23.717   6.495  1.00  0.00     0.032 C 
ENDROOT
BRANCH   1   2
ATOM      2  C   UNL     1       2.172  22.282   6.936  1.00  0.00    -0.028 C 
ATOM      3  C   UNL     1       3.361  21.663   7.117  1.00  0.00    -0.077 C 
ATOM      4  C   UNL     1       4.671  22.349   6.808  1.00  0.00     0.039 C 
BRANCH   3   5
ATOM      5  C   UNL     1       3.376  20.235   7.616  1.00  0.00     0.034 C 
BRANCH   5   6
ATOM      6  C   UNL     1       3.847  19.278   6.515  1.00  0.00     0.032 C 
BRANCH   6   7
ATOM      7  C   UNL     1       3.146  17.948   6.626  1.00  0.00    -0.028 C 
ATOM      8  C   UNL     1       1.349  16.305   6.292  1.00  0.00     0.039 C 
ATOM      9  C   UNL     1       1.948  17.668   6.064  1.00  0.00    -0.080 C 
ATOM     10  C   UNL     1       1.212  18.672   5.207  1.00  0.00     0.039 C 
ENDBRANCH   6   7
ENDBRANCH   5   6
ENDBRANCH   3   5
ENDBRANCH   1   2
BRANCH   1  11
ATOM     11  C   UNL     1       1.721  23.826   4.990  1.00  0.00     0.034 C 
BRANCH  11  12
ATOM     12  C   UNL     1       2.954  24.236   4.205  1.00  0.00    -0.077 C 
ATOM     13  C   UNL     1       3.441  23.517   3.168  1.00  0.00    -0.028 C 
ATOM     14  C   UNL     1       3.653  25.520   4.572  1.00  0.00     0.039 C 
BRANCH  13  15
ATOM     15  C   UNL     1       2.913  22.174   2.723  1.00  0.00     0.035 C 
BRANCH  15  16
ATOM     16  C   UNL     1       3.620  21.023   3.452  1.00  0.00     0.079 C 
BRANCH  16  17
ATOM     17  C   UNL     1       5.006  20.788   2.907  1.00  0.00     0.130 C 
ATOM     18  O   UNL     1       5.209  20.907   1.708  1.00  0.00    -0.300 OA
ATOM     19  C   UNL     1       6.143  20.406   3.808  1.00  0.00     0.087 C 
ENDBRANCH  16  17
ENDBRANCH  15  16
ENDBRANCH  13  15
ENDBRANCH  11  12
ENDBRANCH   1  11
TORSDOF 9
ENDMDL
MODEL 2
REMARK VINA RESULT:    -4.423      1.337      2.025
REMARK INTER + INTRA:          -8.983
REMARK INTER:                  -7.346
REMARK INTRA:                  -1.638
REMARK UNBOUND:                -2.233
REMARK SMILES CC(=O)CCC=C(C)CCC=C(C)CCC=C(C)C
REMARK SMILES IDX 10 1 11 2 12 3 13 4 14 5 15 6 16 7 18 8 17 9 19 10 9 11 7 12
REMARK SMILES IDX 6 13 8 14 5 15 4 16 2 17 3 18 1 19
REMARK H PARENT
REMARK Flexibility Score: inf
ROOT
ATOM      1  C   UNL     1       3.123  23.917   4.277  1.00  0.00     0.032 C 
ENDROOT
BRANCH   1   2
ATOM      2  C   UNL     1       2.492  23.056   5.345  1.00  0.00    -0.028 C 
ATOM      3  C   UNL     1       3.150  22.551   6.413  1.00  0.00    -0.077 C 
ATOM      4  C   UNL     1       4.637  22.741   6.596  1.00  0.00     0.039 C 
BRANCH   3   5
ATOM      5  C   UNL     1       2.378  21.749   7.438  1.00  0.00     0.034 C 
BRANCH   5   6
ATOM      6  C   UNL     1       3.089  20.426   7.742  1.00  0.00     0.032 C 
BRANCH   6   7
ATOM      7  C   UNL     1       2.328  19.262   7.159  1.00  0.00    -0.028 C 
ATOM      8  C   UNL     1       2.017  17.110   6.013  1.00  0.00     0.039 C 
ATOM      9  C   UNL     1       2.906  18.181   6.591  1.00  0.00    -0.080 C 
ATOM     10  C   UNL     1       4.407  18.012   6.536  1.00  0.00     0.039 C 
ENDBRANCH   6   7
ENDBRANCH   5   6
ENDBRANCH   3   5
ENDBRANCH   1   2
BRANCH   1  11
ATOM     11  C   UNL     1       2.539  23.624   2.886  1.00  0.00     0.034 C 
BRANCH  11  12
ATOM     12  C   UNL     1       3.536  23.920   1.779  1.00  0.00    -0.077 C 
ATOM     13  C   UNL     1       4.169  22.952   1.079  1.00  0.00    -0.028 C 
ATOM     14  C   UNL     1       3.811  25.358   1.418  1.00  0.00     0.039 C 
BRANCH  13  15
ATOM     15  C   UNL     1       4.072  21.473   1.364  1.00  0.00     0.035 C 
BRANCH  15  16
ATOM     16  C   UNL     1       5.388  20.920   1.928  1.00  0.00     0.079 C 
BRANCH  16  17
ATOM     17  C   UNL     1       5.266  20.583   3.392  1.00  0.00     0.130 C 
ATOM     18  O   UNL     1       4.159  20.511   3.903  1.00  0.00    -0.300 OA
ATOM     19  C   UNL     1       6.480  20.338   4.239  1.00  0.00     0.087 C 
ENDBRANCH  16  17
ENDBRANCH  15  16
ENDBRANCH  13  15
ENDBRANCH  11  12
ENDBRANCH   1  11
TORSDOF 9
ENDMDL
MODEL 3
REMARK VINA RESULT:    -4.351      2.184      6.101
REMARK INTER + INTRA:          -8.872
REMARK INTER:                  -6.925
REMARK INTRA:                  -1.947
REMARK UNBOUND:                -2.233
REMARK SMILES CC(=O)CCC=C(C)CCC=C(C)CCC=C(C)C
REMARK SMILES IDX 10 1 11 2 12 3 13 4 14 5 15 6 16 7 18 8 17 9 19 10 9 11 7 12
REMARK SMILES IDX 6 13 8 14 5 15 4 16 2 17 3 18 1 19
REMARK H PARENT
REMARK Flexibility Score: inf
ROOT
ATOM      1  C   UNL     1       5.334  20.290   4.224  1.00  0.00     0.032 C 
ENDROOT
BRANCH   1   2
ATOM      2  C   UNL     1       5.583  20.641   2.776  1.00  0.00    -0.028 C 
ATOM      3  C   UNL     1       4.617  20.753   1.835  1.00  0.00    -0.077 C 
ATOM      4  C   UNL     1       3.170  20.450   2.140  1.00  0.00     0.039 C 
BRANCH   3   5
ATOM      5  C   UNL     1       5.005  21.167   0.433  1.00  0.00     0.034 C 
BRANCH   5   6
ATOM      6  C   UNL     1       4.064  22.257  -0.093  1.00  0.00     0.032 C 
BRANCH   6   7
ATOM      7  C   UNL     1       4.319  23.568   0.607  1.00  0.00    -0.028 C 
ATOM      8  C   UNL     1       3.752  25.669   1.749  1.00  0.00     0.039 C 
ATOM      9  C   UNL     1       3.350  24.365   1.110  1.00  0.00    -0.080 C 
ATOM     10  C   UNL     1       1.890  23.977   1.064  1.00  0.00     0.039 C 
ENDBRANCH   6   7
ENDBRANCH   5   6
ENDBRANCH   3   5
ENDBRANCH   1   2
BRANCH   1  11
ATOM     11  C   UNL     1       5.401  21.528   5.132  1.00  0.00     0.034 C 
BRANCH  11  12
ATOM     12  C   UNL     1       4.019  22.061   5.466  1.00  0.00    -0.077 C 
ATOM     13  C   UNL     1       3.292  21.617   6.517  1.00  0.00    -0.028 C 
ATOM     14  C   UNL     1       3.439  23.157   4.610  1.00  0.00     0.039 C 
BRANCH  13  15
ATOM     15  C   UNL     1       3.686  20.474   7.422  1.00  0.00     0.035 C 
BRANCH  15  16
ATOM     16  C   UNL     1       2.633  19.358   7.410  1.00  0.00     0.079 C 
BRANCH  16  17
ATOM     17  C   UNL     1       3.129  18.134   6.683  1.00  0.00     0.130 C 
ATOM     18  O   UNL     1       4.324  17.882   6.676  1.00  0.00    -0.300 OA
ATOM     19  C   UNL     1       2.183  17.220   5.962  1.00  0.00     0.087 C 
ENDBRANCH  16  17
ENDBRANCH  15  16
ENDBRANCH  13  15
ENDBRANCH  11  12
ENDBRANCH   1  11
TORSDOF 9
ENDMDL
MODEL 4
REMARK VINA RESULT:    -4.349      3.024      6.247
REMARK INTER + INTRA:          -8.870
REMARK INTER:                  -7.288
REMARK INTRA:                  -1.581
REMARK UNBOUND:                -2.233
REMARK SMILES CC(=O)CCC=C(C)CCC=C(C)CCC=C(C)C
REMARK SMILES IDX 10 1 11 2 12 3 13 4 14 5 15 6 16 7 18 8 17 9 19 10 9 11 7 12
REMARK SMILES IDX 6 13 8 14 5 15 4 16 2 17 3 18 1 19
REMARK H PARENT
REMARK Flexibility Score: inf
ROOT
ATOM      1  C   UNL     1       4.240  20.608   5.934  1.00  0.00     0.032 C 
ENDROOT
BRANCH   1   2
ATOM      2  C   UNL     1       4.300  20.764   4.433  1.00  0.00    -0.028 C 
ATOM      3  C   UNL     1       5.427  20.659   3.693  1.00  0.00    -0.077 C 
ATOM      4  C   UNL     1       6.781  20.448   4.330  1.00  0.00     0.039 C 
BRANCH   3   5
ATOM      5  C   UNL     1       5.331  20.782   2.188  1.00  0.00     0.034 C 
BRANCH   5   6
ATOM      6  C   UNL     1       3.935  21.256   1.769  1.00  0.00     0.032 C 
BRANCH   6   7
ATOM      7  C   UNL     1       4.014  22.569   1.032  1.00  0.00    -0.028 C 
ATOM      8  C   UNL     1       3.724  24.983   0.679  1.00  0.00     0.039 C 
ATOM      9  C   UNL     1       3.625  23.757   1.547  1.00  0.00    -0.080 C 
ATOM     10  C   UNL     1       3.115  23.886   2.964  1.00  0.00     0.039 C 
ENDBRANCH   6   7
ENDBRANCH   5   6
ENDBRANCH   3   5
ENDBRANCH   1   2
BRANCH   1  11
ATOM     11  C   UNL     1       4.290  21.965   6.653  1.00  0.00     0.034 C 
BRANCH  11  12
ATOM     12  C   UNL     1       2.902  22.540   6.876  1.00  0.00    -0.077 C 
ATOM     13  C   UNL     1       2.628  23.861   6.779  1.00  0.00    -0.028 C 
ATOM     14  C   UNL     1       1.768  21.597   7.187  1.00  0.00     0.039 C 
BRANCH  13  15
ATOM     15  C   UNL     1       3.656  24.945   6.558  1.00  0.00     0.035 C 
BRANCH  15  16
ATOM     16  C   UNL     1       2.993  26.306   6.308  1.00  0.00     0.079 C 
BRANCH  16  17
ATOM     17  C   UNL     1       3.024  27.173   7.542  1.00  0.00     0.130 C 
ATOM     18  O   UNL     1       3.934  27.974   7.691  1.00  0.00    -0.300 OA
ATOM     19  C   UNL     1       1.961  27.068   8.594  1.00  0.00     0.087 C 
ENDBRANCH  16  17
ENDBRANCH  15  16
ENDBRANCH  13  15
ENDBRANCH  11  12
ENDBRANCH   1  11
TORSDOF 9
ENDMDL
MODEL 5
REMARK VINA RESULT:    -4.342      2.037      3.864
REMARK INTER + INTRA:          -8.859
REMARK INTER:                  -7.026
REMARK INTRA:                  -1.833
REMARK UNBOUND:                -2.233
REMARK SMILES CC(=O)CCC=C(C)CCC=C(C)CCC=C(C)C
REMARK SMILES IDX 10 1 11 2 12 3 13 4 14 5 15 6 16 7 18 8 17 9 19 10 9 11 7 12
REMARK SMILES IDX 6 13 8 14 5 15 4 16 2 17 3 18 1 19
REMARK H PARENT
REMARK Flexibility Score: inf
ROOT
ATOM      1  C   UNL     1       3.660  20.980   2.575  1.00  0.00     0.032 C 
ENDROOT
BRANCH   1   2
ATOM      2  C   UNL     1       3.380  21.445   3.984  1.00  0.00    -0.028 C 
ATOM      3  C   UNL     1       4.296  21.479   4.978  1.00  0.00    -0.077 C 
ATOM      4  C   UNL     1       5.702  20.963   4.784  1.00  0.00     0.039 C 
BRANCH   3   5
ATOM      5  C   UNL     1       3.890  22.023   6.330  1.00  0.00     0.034 C 
BRANCH   5   6
ATOM      6  C   UNL     1       3.945  20.925   7.398  1.00  0.00     0.032 C 
BRANCH   6   7
ATOM      7  C   UNL     1       2.789  19.969   7.244  1.00  0.00    -0.028 C 
ATOM      8  C   UNL     1       1.660  17.859   6.689  1.00  0.00     0.039 C 
ATOM      9  C   UNL     1       2.909  18.686   6.835  1.00  0.00    -0.080 C 
ATOM     10  C   UNL     1       4.254  18.063   6.541  1.00  0.00     0.039 C 
ENDBRANCH   6   7
ENDBRANCH   5   6
ENDBRANCH   3   5
ENDBRANCH   1   2
BRANCH   1  11
ATOM     11  C   UNL     1       3.041  21.919   1.528  1.00  0.00     0.034 C 
BRANCH  11  12
ATOM     12  C   UNL     1       4.094  22.756   0.824  1.00  0.00    -0.077 C 
ATOM     13  C   UNL     1       4.107  24.108   0.861  1.00  0.00    -0.028 C 
ATOM     14  C   UNL     1       5.197  22.052   0.074  1.00  0.00     0.039 C 
BRANCH  13  15
ATOM     15  C   UNL     1       3.038  24.967   1.493  1.00  0.00     0.035 C 
BRANCH  15  16
ATOM     16  C   UNL     1       3.642  26.003   2.451  1.00  0.00     0.079 C 
BRANCH  16  17
ATOM     17  C   UNL     1       3.454  25.602   3.892  1.00  0.00     0.130 C 
ATOM     18  O   UNL     1       4.320  25.875   4.710  1.00  0.00    -0.300 OA
ATOM     19  C   UNL     1       2.225  24.871   4.343  1.00  0.00     0.087 C 
ENDBRANCH  16  17
ENDBRANCH  15  16
ENDBRANCH  13  15
ENDBRANCH  11  12
ENDBRANCH   1  11
TORSDOF 9
ENDMDL
MODEL 6
REMARK VINA RESULT:    -4.244      2.549      6.222
REMARK INTER + INTRA:          -8.709
REMARK INTER:                  -6.504
REMARK INTRA:                  -2.205
REMARK UNBOUND:                -2.233
REMARK SMILES CC(=O)CCC=C(C)CCC=C(C)CCC=C(C)C
REMARK SMILES IDX 10 1 11 2 12 3 13 4 14 5 15 6 16 7 18 8 17 9 19 10 9 11 7 12
REMARK SMILES IDX 6 13 8 14 5 15 4 16 2 17 3 18 1 19
REMARK H PARENT
REMARK Flexibility Score: inf
ROOT
ATOM      1  C   UNL     1       5.297  20.257   4.375  1.00  0.00     0.032 C 
ENDROOT
BRANCH   1   2
ATOM      2  C   UNL     1       5.628  20.619   2.946  1.00  0.00    -0.028 C 
ATOM      3  C   UNL     1       4.715  20.773   1.961  1.00  0.00    -0.077 C 
ATOM      4  C   UNL     1       3.245  20.511   2.189  1.00  0.00     0.039 C 
BRANCH   3   5
ATOM      5  C   UNL     1       5.185  21.194   0.585  1.00  0.00     0.034 C 
BRANCH   5   6
ATOM      6  C   UNL     1       4.189  22.167  -0.056  1.00  0.00     0.032 C 
BRANCH   6   7
ATOM      7  C   UNL     1       4.426  23.574   0.431  1.00  0.00    -0.028 C 
ATOM      8  C   UNL     1       3.831  25.808   1.266  1.00  0.00     0.039 C 
ATOM      9  C   UNL     1       3.449  24.414   0.843  1.00  0.00    -0.080 C 
ATOM     10  C   UNL     1       2.001  23.987   0.904  1.00  0.00     0.039 C 
ENDBRANCH   6   7
ENDBRANCH   5   6
ENDBRANCH   3   5
ENDBRANCH   1   2
BRANCH   1  11
ATOM     11  C   UNL     1       5.233  21.497   5.280  1.00  0.00     0.034 C 
BRANCH  11  12
ATOM     12  C   UNL     1       3.906  21.598   6.011  1.00  0.00    -0.077 C 
ATOM     13  C   UNL     1       2.877  22.356   5.570  1.00  0.00    -0.028 C 
ATOM     14  C   UNL     1       3.710  20.792   7.270  1.00  0.00     0.039 C 
BRANCH  13  15
ATOM     15  C   UNL     1       2.933  23.283   4.380  1.00  0.00     0.035 C 
BRANCH  15  16
ATOM     16  C   UNL     1       2.363  24.667   4.717  1.00  0.00     0.079 C 
BRANCH  16  17
ATOM     17  C   UNL     1       3.397  25.550   5.368  1.00  0.00     0.130 C 
ATOM     18  O   UNL     1       4.316  25.996   4.698  1.00  0.00    -0.300 OA
ATOM     19  C   UNL     1       3.325  25.889   6.828  1.00  0.00     0.087 C 
ENDBRANCH  16  17
ENDBRANCH  15  16
ENDBRANCH  13  15
ENDBRANCH  11  12
ENDBRANCH   1  11
TORSDOF 9
ENDMDL
MODEL 7
REMARK VINA RESULT:    -4.238      2.386      4.810
REMARK INTER + INTRA:          -8.700
REMARK INTER:                  -6.479
REMARK INTRA:                  -2.221
REMARK UNBOUND:                -2.233
REMARK SMILES CC(=O)CCC=C(C)CCC=C(C)CCC=C(C)C
REMARK SMILES IDX 10 1 11 2 12 3 13 4 14 5 15 6 16 7 18 8 17 9 19 10 9 11 7 12
REMARK SMILES IDX 6 13 8 14 5 15 4 16 2 17 3 18 1 19
REMARK H PARENT
REMARK Flexibility Score: inf
ROOT
ATOM      1  C   UNL     1       2.299  20.313   5.554  1.00  0.00     0.032 C 
ENDROOT
BRANCH   1   2
ATOM      2  C   UNL     1       3.691  20.293   4.968  1.00  0.00    -0.028 C 
ATOM      3  C   UNL     1       4.693  21.122   5.339  1.00  0.00    -0.077 C 
ATOM      4  C   UNL     1       4.481  22.228   6.345  1.00  0.00     0.039 C 
BRANCH   3   5
ATOM      5  C   UNL     1       6.057  20.952   4.706  1.00  0.00     0.034 C 
BRANCH   5   6
ATOM      6  C   UNL     1       5.946  20.223   3.362  1.00  0.00     0.032 C 
BRANCH   6   7
ATOM      7  C   UNL     1       5.422  21.147   2.292  1.00  0.00    -0.028 C 
ATOM      8  C   UNL     1       4.582  21.792   0.074  1.00  0.00     0.039 C 
ATOM      9  C   UNL     1       5.051  20.749   1.055  1.00  0.00    -0.080 C 
ATOM     10  C   UNL     1       5.078  19.296   0.641  1.00  0.00     0.039 C 
ENDBRANCH   6   7
ENDBRANCH   5   6
ENDBRANCH   3   5
ENDBRANCH   1   2
BRANCH   1  11
ATOM     11  C   UNL     1       1.391  21.327   4.841  1.00  0.00     0.034 C 
BRANCH  11  12
ATOM     12  C   UNL     1       1.562  21.279   3.333  1.00  0.00    -0.077 C 
ATOM     13  C   UNL     1       1.890  22.363   2.593  1.00  0.00    -0.028 C 
ATOM     14  C   UNL     1       1.392  19.958   2.626  1.00  0.00     0.039 C 
BRANCH  13  15
ATOM     15  C   UNL     1       2.016  23.770   3.127  1.00  0.00     0.035 C 
BRANCH  15  16
ATOM     16  C   UNL     1       3.484  24.155   3.357  1.00  0.00     0.079 C 
BRANCH  16  17
ATOM     17  C   UNL     1       3.630  25.623   3.670  1.00  0.00     0.130 C 
ATOM     18  O   UNL     1       4.152  25.965   4.720  1.00  0.00    -0.300 OA
ATOM     19  C   UNL     1       3.142  26.674   2.718  1.00  0.00     0.087 C 
ENDBRANCH  16  17
ENDBRANCH  15  16
ENDBRANCH  13  15
ENDBRANCH  11  12
ENDBRANCH   1  11
TORSDOF 9
ENDMDL
MODEL 8
REMARK VINA RESULT:    -4.227      1.852      3.108
REMARK INTER + INTRA:          -8.683
REMARK INTER:                  -6.658
REMARK INTRA:                  -2.025
REMARK UNBOUND:                -2.233
REMARK SMILES CC(=O)CCC=C(C)CCC=C(C)CCC=C(C)C
REMARK SMILES IDX 10 1 11 2 12 3 13 4 14 5 15 6 16 7 18 8 17 9 19 10 9 11 7 12
REMARK SMILES IDX 6 13 8 14 5 15 4 16 2 17 3 18 1 19
REMARK H PARENT
REMARK Flexibility Score: inf
ROOT
ATOM      1  C   UNL     1       3.485  24.632   6.476  1.00  0.00     0.032 C 
ENDROOT
BRANCH   1   2
ATOM      2  C   UNL     1       3.969  23.217   6.688  1.00  0.00    -0.028 C 
ATOM      3  C   UNL     1       3.169  22.164   6.969  1.00  0.00    -0.077 C 
ATOM      4  C   UNL     1       1.682  22.329   7.183  1.00  0.00     0.039 C 
BRANCH   3   5
ATOM      5  C   UNL     1       3.785  20.789   7.101  1.00  0.00     0.034 C 
BRANCH   5   6
ATOM      6  C   UNL     1       3.881  20.102   5.734  1.00  0.00     0.032 C 
BRANCH   6   7
ATOM      7  C   UNL     1       4.995  20.699   4.912  1.00  0.00    -0.028 C 
ATOM      8  C   UNL     1       7.143  20.758   3.719  1.00  0.00     0.039 C 
ATOM      9  C   UNL     1       6.090  20.020   4.503  1.00  0.00    -0.080 C 
ATOM     10  C   UNL     1       6.273  18.548   4.794  1.00  0.00     0.039 C 
ENDBRANCH   6   7
ENDBRANCH   5   6
ENDBRANCH   3   5
ENDBRANCH   1   2
BRANCH   1  11
ATOM     11  C   UNL     1       3.505  25.028   4.992  1.00  0.00     0.034 C 
BRANCH  11  12
ATOM     12  C   UNL     1       2.254  24.569   4.265  1.00  0.00    -0.077 C 
ATOM     13  C   UNL     1       2.272  23.638   3.284  1.00  0.00    -0.028 C 
ATOM     14  C   UNL     1       0.924  25.149   4.673  1.00  0.00     0.039 C 
BRANCH  13  15
ATOM     15  C   UNL     1       3.519  23.019   2.700  1.00  0.00     0.035 C 
BRANCH  15  16
ATOM     16  C   UNL     1       3.196  21.748   1.903  1.00  0.00     0.079 C 
BRANCH  16  17
ATOM     17  C   UNL     1       4.395  21.257   1.131  1.00  0.00     0.130 C 
ATOM     18  O   UNL     1       4.749  20.093   1.246  1.00  0.00    -0.300 OA
ATOM     19  C   UNL     1       5.167  22.171   0.227  1.00  0.00     0.087 C 
ENDBRANCH  16  17
ENDBRANCH  15  16
ENDBRANCH  13  15
ENDBRANCH  11  12
ENDBRANCH   1  11
TORSDOF 9
ENDMDL
MODEL 9
REMARK VINA RESULT:    -4.191      1.737      4.511
REMARK INTER + INTRA:          -8.628
REMARK INTER:                  -6.271
REMARK INTRA:                  -2.357
REMARK UNBOUND:                -2.233
REMARK SMILES CC(=O)CCC=C(C)CCC=C(C)CCC=C(C)C
REMARK SMILES IDX 10 1 11 2 12 3 13 4 14 5 15 6 16 7 18 8 17 9 19 10 9 11 7 12
REMARK SMILES IDX 6 13 8 14 5 15 4 16 2 17 3 18 1 19
REMARK H PARENT
REMARK Flexibility Score: inf
ROOT
ATOM      1  C   UNL     1       1.226  24.605   5.016  1.00  0.00     0.032 C 
ENDROOT
BRANCH   1   2
ATOM      2  C   UNL     1       1.491  23.645   3.880  1.00  0.00    -0.028 C 
ATOM      3  C   UNL     1       2.490  23.779   2.978  1.00  0.00    -0.077 C 
ATOM      4  C   UNL     1       3.407  24.979   2.977  1.00  0.00     0.039 C 
BRANCH   3   5
ATOM      5  C   UNL     1       2.674  22.710   1.924  1.00  0.00     0.034 C 
BRANCH   5   6
ATOM      6  C   UNL     1       2.721  21.317   2.563  1.00  0.00     0.032 C 
BRANCH   6   7
ATOM      7  C   UNL     1       3.895  21.198   3.501  1.00  0.00    -0.028 C 
ATOM      8  C   UNL     1       6.156  20.562   4.224  1.00  0.00     0.039 C 
ATOM      9  C   UNL     1       5.085  20.650   3.168  1.00  0.00    -0.080 C 
ATOM     10  C   UNL     1       5.371  20.146   1.773  1.00  0.00     0.039 C 
ENDBRANCH   6   7
ENDBRANCH   5   6
ENDBRANCH   3   5
ENDBRANCH   1   2
BRANCH   1  11
ATOM     11  C   UNL     1       1.503  23.963   6.384  1.00  0.00     0.034 C 
BRANCH  11  12
ATOM     12  C   UNL     1       2.990  23.823   6.655  1.00  0.00    -0.077 C 
ATOM     13  C   UNL     1       3.584  22.635   6.914  1.00  0.00    -0.028 C 
ATOM     14  C   UNL     1       3.856  25.056   6.602  1.00  0.00     0.039 C 
BRANCH  13  15
ATOM     15  C   UNL     1       2.857  21.323   7.083  1.00  0.00     0.035 C 
BRANCH  15  16
ATOM     16  C   UNL     1       3.830  20.175   7.381  1.00  0.00     0.079 C 
BRANCH  16  17
ATOM     17  C   UNL     1       3.434  18.911   6.660  1.00  0.00     0.130 C 
ATOM     18  O   UNL     1       4.181  17.944   6.687  1.00  0.00    -0.300 OA
ATOM     19  C   UNL     1       2.142  18.816   5.906  1.00  0.00     0.087 C 
ENDBRANCH  16  17
ENDBRANCH  15  16
ENDBRANCH  13  15
ENDBRANCH  11  12
ENDBRANCH   1  11
TORSDOF 9
ENDMDL
