MODEL 1
REMARK VINA RESULT:    -4.331      0.000      0.000
REMARK INTER + INTRA:          -5.472
REMARK INTER:                  -5.344
REMARK INTRA:                  -0.128
REMARK UNBOUND:                -0.128
REMARK SMILES CCCCC=CC(C)=O
REMARK SMILES IDX 4 1 3 2 2 3 1 4 5 5 6 6 7 7 9 8 8 9
REMARK H PARENT
REMARK Flexibility Score: inf
ROOT
ATOM      1  C   UNL     1      15.309  18.400  30.814  1.00  0.00     0.027 C 
ENDROOT
BRANCH   1   2
ATOM      2  C   UNL     1      15.696  19.753  30.196  1.00  0.00     0.004 C 
BRANCH   2   3
ATOM      3  C   UNL     1      14.876  20.919  30.771  1.00  0.00    -0.003 C 
ATOM      4  C   UNL     1      15.746  22.104  31.187  1.00  0.00     0.004 C 
ENDBRANCH   2   3
ENDBRANCH   1   2
BRANCH   1   5
ATOM      5  C   UNL     1      16.173  17.295  30.280  1.00  0.00    -0.023 C 
ATOM      6  C   UNL     1      17.473  17.216  30.582  1.00  0.00     0.042 C 
BRANCH   6   7
ATOM      7  C   UNL     1      18.336  16.132  30.079  1.00  0.00     0.152 C 
ATOM      8  O   UNL     1      19.330  16.386  29.345  1.00  0.00    -0.295 OA
ATOM      9  C   UNL     1      18.033  14.715  30.445  1.00  0.00     0.093 C 
ENDBRANCH   6   7
ENDBRANCH   1   5
TORSDOF 4
ENDMDL
MODEL 2
REMARK VINA RESULT:    -4.292      2.345      5.124
REMARK INTER + INTRA:          -5.423
REMARK INTER:                  -5.266
REMARK INTRA:                  -0.157
REMARK UNBOUND:                -0.128
REMARK SMILES CCCCC=CC(C)=O
REMARK SMILES IDX 4 1 3 2 2 3 1 4 5 5 6 6 7 7 9 8 8 9
REMARK H PARENT
REMARK Flexibility Score: inf
ROOT
ATOM      1  C   UNL     1      18.638  15.922  30.019  1.00  0.00     0.027 C 
ENDROOT
BRANCH   1   2
ATOM      2  C   UNL     1      18.339  14.414  30.004  1.00  0.00     0.004 C 
BRANCH   2   3
ATOM      3  C   UNL     1      16.985  14.076  30.646  1.00  0.00    -0.003 C 
ATOM      4  C   UNL     1      15.876  13.875  29.615  1.00  0.00     0.004 C 
ENDBRANCH   2   3
ENDBRANCH   1   2
BRANCH   1   5
ATOM      5  C   UNL     1      17.441  16.705  30.473  1.00  0.00    -0.023 C 
ATOM      6  C   UNL     1      16.998  17.766  29.789  1.00  0.00     0.042 C 
BRANCH   6   7
ATOM      7  C   UNL     1      15.817  18.541  30.210  1.00  0.00     0.152 C 
ATOM      8  O   UNL     1      15.590  19.683  29.728  1.00  0.00    -0.295 OA
ATOM      9  C   UNL     1      14.875  17.965  31.218  1.00  0.00     0.093 C 
ENDBRANCH   6   7
ENDBRANCH   1   5
TORSDOF 4
ENDMDL
MODEL 3
REMARK VINA RESULT:    -4.041      1.559      1.740
REMARK INTER + INTRA:          -5.113
REMARK INTER:                  -5.002
REMARK INTRA:                  -0.112
REMARK UNBOUND:                -0.128
REMARK SMILES CCCCC=CC(C)=O
REMARK SMILES IDX 4 1 3 2 2 3 1 4 5 5 6 6 7 7 9 8 8 9
REMARK H PARENT
REMARK Flexibility Score: inf
ROOT
ATOM      1  C   UNL     1      16.374  18.299  30.458  1.00  0.00     0.027 C 
ENDROOT
BRANCH   1   2
ATOM      2  C   UNL     1      14.973  18.903  30.645  1.00  0.00     0.004 C 
BRANCH   2   3
ATOM      3  C   UNL     1      14.875  20.339  30.107  1.00  0.00    -0.003 C 
ATOM      4  C   UNL     1      14.944  21.390  31.214  1.00  0.00     0.004 C 
ENDBRANCH   2   3
ENDBRANCH   1   2
BRANCH   1   5
ATOM      5  C   UNL     1      16.314  16.799  30.411  1.00  0.00    -0.023 C 
ATOM      6  C   UNL     1      17.311  16.044  30.884  1.00  0.00     0.042 C 
BRANCH   6   7
ATOM      7  C   UNL     1      17.266  14.571  30.859  1.00  0.00     0.152 C 
ATOM      8  O   UNL     1      18.095  13.889  31.521  1.00  0.00    -0.295 OA
ATOM      9  C   UNL     1      16.224  13.876  30.043  1.00  0.00     0.093 C 
ENDBRANCH   6   7
ENDBRANCH   1   5
TORSDOF 4
ENDMDL
MODEL 4
REMARK VINA RESULT:    -3.493     12.980     14.964
REMARK INTER + INTRA:          -4.437
REMARK INTER:                  -4.192
REMARK INTRA:                  -0.245
REMARK UNBOUND:                -0.128
REMARK SMILES CCCCC=CC(C)=O
REMARK SMILES IDX 4 1 3 2 2 3 1 4 5 5 6 6 7 7 9 8 8 9
REMARK H PARENT
REMARK Flexibility Score: inf
ROOT
ATOM      1  C   UNL     1      26.053  30.856  30.796  1.00  0.00     0.027 C 
ENDROOT
BRANCH   1   2
ATOM      2  C   UNL     1      27.200  31.021  29.787  1.00  0.00     0.004 C 
BRANCH   2   3
ATOM      3  C   UNL     1      28.571  31.146  30.471  1.00  0.00    -0.003 C 
ATOM      4  C   UNL     1      28.552  30.668  31.922  1.00  0.00     0.004 C 
ENDBRANCH   2   3
ENDBRANCH   1   2
BRANCH   1   5
ATOM      5  C   UNL     1      25.235  29.635  30.489  1.00  0.00    -0.023 C 
ATOM      6  C   UNL     1      25.264  29.059  29.282  1.00  0.00     0.042 C 
BRANCH   6   7
ATOM      7  C   UNL     1      24.479  27.852  28.964  1.00  0.00     0.152 C 
ATOM      8  O   UNL     1      25.052  26.780  28.628  1.00  0.00    -0.295 OA
ATOM      9  C   UNL     1      22.987  27.897  29.044  1.00  0.00     0.093 C 
ENDBRANCH   6   7
ENDBRANCH   1   5
TORSDOF 4
ENDMDL
MODEL 5
REMARK VINA RESULT:    -3.458     13.559     14.654
REMARK INTER + INTRA:          -4.394
REMARK INTER:                  -4.097
REMARK INTRA:                  -0.297
REMARK UNBOUND:                -0.128
REMARK SMILES CCCCC=CC(C)=O
REMARK SMILES IDX 4 1 3 2 2 3 1 4 5 5 6 6 7 7 9 8 8 9
REMARK H PARENT
REMARK Flexibility Score: inf
ROOT
ATOM      1  C   UNL     1      16.373  32.649  28.950  1.00  0.00     0.027 C 
ENDROOT
BRANCH   1   2
ATOM      2  C   UNL     1      16.125  31.327  29.693  1.00  0.00     0.004 C 
BRANCH   2   3
ATOM      3  C   UNL     1      15.109  31.476  30.837  1.00  0.00    -0.003 C 
ATOM      4  C   UNL     1      15.654  32.293  32.007  1.00  0.00     0.004 C 
ENDBRANCH   2   3
ENDBRANCH   1   2
BRANCH   1   5
ATOM      5  C   UNL     1      17.829  33.014  28.967  1.00  0.00    -0.023 C 
ATOM      6  C   UNL     1      18.726  32.281  29.634  1.00  0.00     0.042 C 
BRANCH   6   7
ATOM      7  C   UNL     1      20.162  32.615  29.653  1.00  0.00     0.152 C 
ATOM      8  O   UNL     1      21.036  31.706  29.625  1.00  0.00    -0.295 OA
ATOM      9  C   UNL     1      20.588  34.047  29.701  1.00  0.00     0.093 C 
ENDBRANCH   6   7
ENDBRANCH   1   5
TORSDOF 4
ENDMDL
MODEL 6
REMARK VINA RESULT:    -3.429     12.619     13.717
REMARK INTER + INTRA:          -4.358
REMARK INTER:                  -4.099
REMARK INTRA:                  -0.259
REMARK UNBOUND:                -0.128
REMARK SMILES CCCCC=CC(C)=O
REMARK SMILES IDX 4 1 3 2 2 3 1 4 5 5 6 6 7 7 9 8 8 9
REMARK H PARENT
REMARK Flexibility Score: inf
ROOT
ATOM      1  C   UNL     1      16.415  32.424  29.134  1.00  0.00     0.027 C 
ENDROOT
BRANCH   1   2
ATOM      2  C   UNL     1      15.826  32.262  30.544  1.00  0.00     0.004 C 
BRANCH   2   3
ATOM      3  C   UNL     1      14.882  31.054  30.653  1.00  0.00    -0.003 C 
ATOM      4  C   UNL     1      15.035  30.078  29.487  1.00  0.00     0.004 C 
ENDBRANCH   2   3
ENDBRANCH   1   2
BRANCH   1   5
ATOM      5  C   UNL     1      17.915  32.428  29.171  1.00  0.00    -0.023 C 
ATOM      6  C   UNL     1      18.613  31.305  29.373  1.00  0.00     0.042 C 
BRANCH   6   7
ATOM      7  C   UNL     1      20.087  31.285  29.400  1.00  0.00     0.152 C 
ATOM      8  O   UNL     1      20.747  32.359  29.385  1.00  0.00    -0.295 OA
ATOM      9  C   UNL     1      20.808  29.977  29.450  1.00  0.00     0.093 C 
ENDBRANCH   6   7
ENDBRANCH   1   5
TORSDOF 4
ENDMDL
MODEL 7
REMARK VINA RESULT:    -3.396     18.710     20.537
REMARK INTER + INTRA:          -4.317
REMARK INTER:                  -4.029
REMARK INTRA:                  -0.288
REMARK UNBOUND:                -0.128
REMARK SMILES CCCCC=CC(C)=O
REMARK SMILES IDX 4 1 3 2 2 3 1 4 5 5 6 6 7 7 9 8 8 9
REMARK H PARENT
REMARK Flexibility Score: inf
ROOT
ATOM      1  C   UNL     1      28.863  33.645  28.582  1.00  0.00     0.027 C 
ENDROOT
BRANCH   1   2
ATOM      2  C   UNL     1      28.696  33.587  30.109  1.00  0.00     0.004 C 
BRANCH   2   3
ATOM      3  C   UNL     1      27.843  32.392  30.563  1.00  0.00    -0.003 C 
ATOM      4  C   UNL     1      27.906  31.218  29.588  1.00  0.00     0.004 C 
ENDBRANCH   2   3
ENDBRANCH   1   2
BRANCH   1   5
ATOM      5  C   UNL     1      30.307  33.805  28.202  1.00  0.00    -0.023 C 
ATOM      6  C   UNL     1      31.241  32.947  28.627  1.00  0.00     0.042 C 
BRANCH   6   7
ATOM      7  C   UNL     1      32.661  33.079  28.254  1.00  0.00     0.152 C 
ATOM      8  O   UNL     1      33.173  32.321  27.385  1.00  0.00    -0.295 OA
ATOM      9  C   UNL     1      33.505  34.124  28.910  1.00  0.00     0.093 C 
ENDBRANCH   6   7
ENDBRANCH   1   5
TORSDOF 4
ENDMDL
MODEL 8
REMARK VINA RESULT:    -3.342     12.326     13.058
REMARK INTER + INTRA:          -4.251
REMARK INTER:                  -4.115
REMARK INTRA:                  -0.137
REMARK UNBOUND:                -0.128
REMARK SMILES CCCCC=CC(C)=O
REMARK SMILES IDX 4 1 3 2 2 3 1 4 5 5 6 6 7 7 9 8 8 9
REMARK H PARENT
REMARK Flexibility Score: inf
ROOT
ATOM      1  C   UNL     1      18.299  31.065  29.613  1.00  0.00     0.027 C 
ENDROOT
BRANCH   1   2
ATOM      2  C   UNL     1      17.886  32.400  28.975  1.00  0.00     0.004 C 
BRANCH   2   3
ATOM      3  C   UNL     1      16.365  32.619  29.001  1.00  0.00    -0.003 C 
ATOM      4  C   UNL     1      15.676  31.841  30.120  1.00  0.00     0.004 C 
ENDBRANCH   2   3
ENDBRANCH   1   2
BRANCH   1   5
ATOM      5  C   UNL     1      19.754  30.781  29.377  1.00  0.00    -0.023 C 
ATOM      6  C   UNL     1      20.334  29.668  29.839  1.00  0.00     0.042 C 
BRANCH   6   7
ATOM      7  C   UNL     1      21.757  29.363  29.607  1.00  0.00     0.152 C 
ATOM      8  O   UNL     1      22.107  28.566  28.695  1.00  0.00    -0.295 OA
ATOM      9  C   UNL     1      22.801  30.009  30.461  1.00  0.00     0.093 C 
ENDBRANCH   6   7
ENDBRANCH   1   5
TORSDOF 4
ENDMDL
