MODEL 1
REMARK VINA RESULT:    -8.362      0.000      0.000
REMARK INTER + INTRA:         -10.092
REMARK INTER:                  -9.828
REMARK INTRA:                  -0.263
REMARK UNBOUND:                -0.263
REMARK SMILES O=c1cc(-c2ccc(O)c(O)c2)oc2cc(O)cc(O)c12
REMARK SMILES IDX 4 1 3 2 2 3 1 4 21 5 19 6 18 7 16 8 15 9 14 10 13 11 5 12
REMARK SMILES IDX 6 13 7 14 8 15 12 16 10 17 9 18 11 20 20 22 17 24
REMARK H PARENT 9 19 11 21 20 23 17 25
REMARK Flexibility Score: inf
ROOT
ATOM      1  C   UNL     1     137.387 -17.958  79.667  1.00  0.00     0.138 A 
ATOM      2  C   UNL     1     138.524 -18.403  78.972  1.00  0.00     0.100 A 
ATOM      3  C   UNL     1     139.713 -17.679  79.064  1.00  0.00     0.197 A 
ATOM      4  O   UNL     1     140.727 -18.085  78.436  1.00  0.00    -0.289 OA
ATOM      5  C   UNL     1     139.755 -16.509  79.850  1.00  0.00     0.107 A 
ATOM      6  C   UNL     1     140.918 -15.717  79.997  1.00  0.00     0.134 A 
ATOM      7  C   UNL     1     140.877 -14.563  80.794  1.00  0.00     0.093 A 
ATOM      8  C   UNL     1     139.695 -14.187  81.443  1.00  0.00     0.123 A 
ATOM      9  C   UNL     1     138.546 -14.965  81.299  1.00  0.00     0.094 A 
ATOM     10  C   UNL     1     138.567 -16.120  80.511  1.00  0.00     0.146 A 
ATOM     11  O   UNL     1     137.459 -16.844  80.393  1.00  0.00    -0.456 OA
ENDROOT
BRANCH   1  12
ATOM     12  C   UNL     1     136.096 -18.688  79.604  1.00  0.00     0.021 A 
ATOM     13  C   UNL     1     135.700 -19.581  80.618  1.00  0.00     0.016 A 
ATOM     14  C   UNL     1     134.473 -20.244  80.539  1.00  0.00     0.051 A 
ATOM     15  C   UNL     1     133.619 -20.026  79.452  1.00  0.00     0.157 A 
ATOM     16  C   UNL     1     135.225 -18.463  78.523  1.00  0.00     0.062 A 
ATOM     17  C   UNL     1     133.997 -19.128  78.440  1.00  0.00     0.158 A 
BRANCH  15  18
ATOM     18  O   UNL     1     132.397 -20.693  79.375  1.00  0.00    -0.504 OA
ATOM     19  H   UNL     1     131.884 -20.958  80.207  1.00  0.00     0.293 HD
ENDBRANCH  15  18
BRANCH  17  20
ATOM     20  O   UNL     1     133.167 -18.884  77.346  1.00  0.00    -0.504 OA
ATOM     21  H   UNL     1     132.511 -18.113  77.329  1.00  0.00     0.293 HD
ENDBRANCH  17  20
ENDBRANCH   1  12
BRANCH   6  22
ATOM     22  O   UNL     1     142.111 -16.068  79.362  1.00  0.00    -0.507 OA
ATOM     23  H   UNL     1     142.763 -16.724  79.776  1.00  0.00     0.293 HD
ENDBRANCH   6  22
BRANCH   8  24
ATOM     24  O   UNL     1     139.654 -13.041  82.233  1.00  0.00    -0.508 OA
ATOM     25  H   UNL     1     138.920 -12.350  82.128  1.00  0.00     0.293 HD
ENDBRANCH   8  24
TORSDOF 5
ENDMDL
MODEL 2
REMARK VINA RESULT:    -7.892      3.053      6.251
REMARK INTER + INTRA:          -9.539
REMARK INTER:                  -9.274
REMARK INTRA:                  -0.265
REMARK UNBOUND:                -0.263
REMARK SMILES O=c1cc(-c2ccc(O)c(O)c2)oc2cc(O)cc(O)c12
REMARK SMILES IDX 4 1 3 2 2 3 1 4 21 5 19 6 18 7 16 8 15 9 14 10 13 11 5 12
REMARK SMILES IDX 6 13 7 14 8 15 12 16 10 17 9 18 11 20 20 22 17 24
REMARK H PARENT 9 19 11 21 20 23 17 25
REMARK Flexibility Score: inf
ROOT
ATOM      1  C   UNL     1     138.996 -19.834  78.801  1.00  0.00     0.138 A 
ATOM      2  C   UNL     1     137.776 -20.157  78.183  1.00  0.00     0.100 A 
ATOM      3  C   UNL     1     136.592 -19.604  78.672  1.00  0.00     0.197 A 
ATOM      4  O   UNL     1     135.502 -19.900  78.112  1.00  0.00    -0.289 OA
ATOM      5  C   UNL     1     136.636 -18.734  79.780  1.00  0.00     0.107 A 
ATOM      6  C   UNL     1     135.483 -18.131  80.337  1.00  0.00     0.134 A 
ATOM      7  C   UNL     1     135.611 -17.279  81.444  1.00  0.00     0.093 A 
ATOM      8  C   UNL     1     136.868 -17.021  82.004  1.00  0.00     0.123 A 
ATOM      9  C   UNL     1     138.007 -17.615  81.458  1.00  0.00     0.094 A 
ATOM     10  C   UNL     1     137.901 -18.466  80.353  1.00  0.00     0.146 A 
ATOM     11  O   UNL     1     139.002 -19.016  79.851  1.00  0.00    -0.456 OA
ENDROOT
BRANCH   1  12
ATOM     12  C   UNL     1     140.287 -20.394  78.325  1.00  0.00     0.021 A 
ATOM     13  C   UNL     1     140.775 -21.628  78.793  1.00  0.00     0.016 A 
ATOM     14  C   UNL     1     141.988 -22.136  78.318  1.00  0.00     0.051 A 
ATOM     15  C   UNL     1     142.729 -21.425  77.367  1.00  0.00     0.157 A 
ATOM     16  C   UNL     1     141.031 -19.693  77.359  1.00  0.00     0.062 A 
ATOM     17  C   UNL     1     142.247 -20.198  76.884  1.00  0.00     0.158 A 
BRANCH  15  18
ATOM     18  O   UNL     1     143.941 -21.933  76.899  1.00  0.00    -0.504 OA
ATOM     19  H   UNL     1     144.703 -22.153  77.530  1.00  0.00     0.293 HD
ENDBRANCH  15  18
BRANCH  17  20
ATOM     20  O   UNL     1     142.959 -19.467  75.934  1.00  0.00    -0.504 OA
ATOM     21  H   UNL     1     142.517 -18.762  75.356  1.00  0.00     0.293 HD
ENDBRANCH  17  20
ENDBRANCH   1  12
BRANCH   6  22
ATOM     22  O   UNL     1     134.217 -18.369  79.799  1.00  0.00    -0.507 OA
ATOM     23  H   UNL     1     133.684 -19.197  80.038  1.00  0.00     0.293 HD
ENDBRANCH   6  22
BRANCH   8  24
ATOM     24  O   UNL     1     136.994 -16.177  83.104  1.00  0.00    -0.508 OA
ATOM     25  H   UNL     1     136.388 -15.375  83.230  1.00  0.00     0.293 HD
ENDBRANCH   8  24
TORSDOF 5
ENDMDL
MODEL 3
REMARK VINA RESULT:    -7.748      3.086      6.445
REMARK INTER + INTRA:          -9.370
REMARK INTER:                  -9.106
REMARK INTRA:                  -0.264
REMARK UNBOUND:                -0.263
REMARK SMILES O=c1cc(-c2ccc(O)c(O)c2)oc2cc(O)cc(O)c12
REMARK SMILES IDX 4 1 3 2 2 3 1 4 21 5 19 6 18 7 16 8 15 9 14 10 13 11 5 12
REMARK SMILES IDX 6 13 7 14 8 15 12 16 10 17 9 18 11 20 20 22 17 24
REMARK H PARENT 9 19 11 21 20 23 17 25
REMARK Flexibility Score: inf
ROOT
ATOM      1  C   UNL     1     139.014 -19.719  78.623  1.00  0.00     0.138 A 
ATOM      2  C   UNL     1     137.786 -20.234  78.175  1.00  0.00     0.100 A 
ATOM      3  C   UNL     1     136.605 -19.838  78.803  1.00  0.00     0.197 A 
ATOM      4  O   UNL     1     135.508 -20.306  78.395  1.00  0.00    -0.289 OA
ATOM      5  C   UNL     1     136.661 -18.930  79.880  1.00  0.00     0.107 A 
ATOM      6  C   UNL     1     135.513 -18.478  80.571  1.00  0.00     0.134 A 
ATOM      7  C   UNL     1     135.654 -17.577  81.637  1.00  0.00     0.093 A 
ATOM      8  C   UNL     1     136.919 -17.123  82.025  1.00  0.00     0.123 A 
ATOM      9  C   UNL     1     138.055 -17.568  81.346  1.00  0.00     0.094 A 
ATOM     10  C   UNL     1     137.936 -18.465  80.280  1.00  0.00     0.146 A 
ATOM     11  O   UNL     1     139.033 -18.871  79.649  1.00  0.00    -0.456 OA
ENDROOT
BRANCH   1  12
ATOM     12  C   UNL     1     140.302 -20.107  77.994  1.00  0.00     0.021 A 
ATOM     13  C   UNL     1     140.841 -19.390  76.908  1.00  0.00     0.016 A 
ATOM     14  C   UNL     1     142.061 -19.770  76.344  1.00  0.00     0.051 A 
ATOM     15  C   UNL     1     142.767 -20.865  76.854  1.00  0.00     0.157 A 
ATOM     16  C   UNL     1     141.024 -21.197  78.510  1.00  0.00     0.062 A 
ATOM     17  C   UNL     1     142.246 -21.582  77.944  1.00  0.00     0.158 A 
BRANCH  15  18
ATOM     18  O   UNL     1     143.982 -21.244  76.286  1.00  0.00    -0.504 OA
ATOM     19  H   UNL     1     144.722 -20.571  76.118  1.00  0.00     0.293 HD
ENDBRANCH  15  18
BRANCH  17  20
ATOM     20  O   UNL     1     142.926 -22.675  78.480  1.00  0.00    -0.504 OA
ATOM     21  H   UNL     1     143.270 -22.681  79.432  1.00  0.00     0.293 HD
ENDBRANCH  17  20
ENDBRANCH   1  12
BRANCH   6  22
ATOM     22  O   UNL     1     134.237 -18.913  80.207  1.00  0.00    -0.507 OA
ATOM     23  H   UNL     1     133.680 -18.416  79.522  1.00  0.00     0.293 HD
ENDBRANCH   6  22
BRANCH   8  24
ATOM     24  O   UNL     1     137.059 -16.229  83.084  1.00  0.00    -0.508 OA
ATOM     25  H   UNL     1     136.291 -15.643  83.388  1.00  0.00     0.293 HD
ENDBRANCH   8  24
TORSDOF 5
ENDMDL
MODEL 4
REMARK VINA RESULT:    -7.583      1.923      6.686
REMARK INTER + INTRA:          -9.176
REMARK INTER:                  -8.858
REMARK INTRA:                  -0.318
REMARK UNBOUND:                -0.263
REMARK SMILES O=c1cc(-c2ccc(O)c(O)c2)oc2cc(O)cc(O)c12
REMARK SMILES IDX 4 1 3 2 2 3 1 4 21 5 19 6 18 7 16 8 15 9 14 10 13 11 5 12
REMARK SMILES IDX 6 13 7 14 8 15 12 16 10 17 9 18 11 20 20 22 17 24
REMARK H PARENT 9 19 11 21 20 23 17 25
REMARK Flexibility Score: inf
ROOT
ATOM      1  C   UNL     1     137.588 -17.108  80.391  1.00  0.00     0.138 A 
ATOM      2  C   UNL     1     138.392 -18.235  80.630  1.00  0.00     0.100 A 
ATOM      3  C   UNL     1     137.879 -19.510  80.388  1.00  0.00     0.197 A 
ATOM      4  O   UNL     1     138.607 -20.514  80.607  1.00  0.00    -0.289 OA
ATOM      5  C   UNL     1     136.560 -19.648  79.909  1.00  0.00     0.107 A 
ATOM      6  C   UNL     1     135.964 -20.902  79.638  1.00  0.00     0.134 A 
ATOM      7  C   UNL     1     134.643 -20.956  79.168  1.00  0.00     0.093 A 
ATOM      8  C   UNL     1     133.909 -19.781  78.967  1.00  0.00     0.123 A 
ATOM      9  C   UNL     1     134.494 -18.543  79.235  1.00  0.00     0.094 A 
ATOM     10  C   UNL     1     135.810 -18.467  79.702  1.00  0.00     0.146 A 
ATOM     11  O   UNL     1     136.343 -17.275  79.947  1.00  0.00    -0.456 OA
ENDROOT
BRANCH   1  12
ATOM     12  C   UNL     1     138.080 -15.728  80.632  1.00  0.00     0.021 A 
ATOM     13  C   UNL     1     139.374 -15.481  81.129  1.00  0.00     0.016 A 
ATOM     14  C   UNL     1     139.815 -14.171  81.336  1.00  0.00     0.051 A 
ATOM     15  C   UNL     1     138.977 -13.088  81.045  1.00  0.00     0.157 A 
ATOM     16  C   UNL     1     137.250 -14.635  80.330  1.00  0.00     0.062 A 
ATOM     17  C   UNL     1     137.689 -13.321  80.538  1.00  0.00     0.158 A 
BRANCH  15  18
ATOM     18  O   UNL     1     139.420 -11.782  81.256  1.00  0.00    -0.504 OA
ATOM     19  H   UNL     1     139.768 -11.211  80.495  1.00  0.00     0.293 HD
ENDBRANCH  15  18
BRANCH  17  20
ATOM     20  O   UNL     1     136.831 -12.265  80.234  1.00  0.00    -0.504 OA
ATOM     21  H   UNL     1     136.361 -12.193  79.340  1.00  0.00     0.293 HD
ENDBRANCH  17  20
ENDBRANCH   1  12
BRANCH   6  22
ATOM     22  O   UNL     1     136.671 -22.090  79.828  1.00  0.00    -0.507 OA
ATOM     23  H   UNL     1     136.362 -22.795  80.487  1.00  0.00     0.293 HD
ENDBRANCH   6  22
BRANCH   8  24
ATOM     24  O   UNL     1     132.597 -19.835  78.502  1.00  0.00    -0.508 OA
ATOM     25  H   UNL     1     131.926 -20.492  78.882  1.00  0.00     0.293 HD
ENDBRANCH   8  24
TORSDOF 5
ENDMDL
MODEL 5
REMARK VINA RESULT:    -7.517      3.573      6.074
REMARK INTER + INTRA:          -9.098
REMARK INTER:                  -8.796
REMARK INTRA:                  -0.302
REMARK UNBOUND:                -0.263
REMARK SMILES O=c1cc(-c2ccc(O)c(O)c2)oc2cc(O)cc(O)c12
REMARK SMILES IDX 4 1 3 2 2 3 1 4 21 5 19 6 18 7 16 8 15 9 14 10 13 11 5 12
REMARK SMILES IDX 6 13 7 14 8 15 12 16 10 17 9 18 11 20 20 22 17 24
REMARK H PARENT 9 19 11 21 20 23 17 25
REMARK Flexibility Score: inf
ROOT
ATOM      1  C   UNL     1     133.618 -18.868  77.223  1.00  0.00     0.138 A 
ATOM      2  C   UNL     1     133.134 -19.496  78.382  1.00  0.00     0.100 A 
ATOM      3  C   UNL     1     134.037 -19.969  79.335  1.00  0.00     0.197 A 
ATOM      4  O   UNL     1     133.594 -20.533  80.372  1.00  0.00    -0.289 OA
ATOM      5  C   UNL     1     135.421 -19.812  79.118  1.00  0.00     0.107 A 
ATOM      6  C   UNL     1     136.403 -20.262  80.033  1.00  0.00     0.134 A 
ATOM      7  C   UNL     1     137.762 -20.072  79.741  1.00  0.00     0.093 A 
ATOM      8  C   UNL     1     138.157 -19.445  78.554  1.00  0.00     0.123 A 
ATOM      9  C   UNL     1     137.191 -19.001  77.650  1.00  0.00     0.094 A 
ATOM     10  C   UNL     1     135.831 -19.178  77.922  1.00  0.00     0.146 A 
ATOM     11  O   UNL     1     134.932 -18.745  77.045  1.00  0.00    -0.456 OA
ENDROOT
BRANCH   1  12
ATOM     12  C   UNL     1     132.704 -18.347  76.174  1.00  0.00     0.021 A 
ATOM     13  C   UNL     1     131.473 -17.746  76.498  1.00  0.00     0.016 A 
ATOM     14  C   UNL     1     130.638 -17.255  75.491  1.00  0.00     0.051 A 
ATOM     15  C   UNL     1     131.019 -17.348  74.147  1.00  0.00     0.157 A 
ATOM     16  C   UNL     1     133.085 -18.425  74.823  1.00  0.00     0.062 A 
ATOM     17  C   UNL     1     132.250 -17.935  73.812  1.00  0.00     0.158 A 
BRANCH  15  18
ATOM     18  O   UNL     1     130.181 -16.859  73.145  1.00  0.00    -0.504 OA
ATOM     19  H   UNL     1     129.420 -16.223  73.353  1.00  0.00     0.293 HD
ENDBRANCH  15  18
BRANCH  17  20
ATOM     20  O   UNL     1     132.661 -18.040  72.484  1.00  0.00    -0.504 OA
ATOM     21  H   UNL     1     133.460 -17.531  72.126  1.00  0.00     0.293 HD
ENDBRANCH  17  20
ENDBRANCH   1  12
BRANCH   6  22
ATOM     22  O   UNL     1     136.040 -20.891  81.225  1.00  0.00    -0.507 OA
ATOM     23  H   UNL     1     135.910 -21.895  81.280  1.00  0.00     0.293 HD
ENDBRANCH   6  22
BRANCH   8  24
ATOM     24  O   UNL     1     139.506 -19.258  78.265  1.00  0.00    -0.508 OA
ATOM     25  H   UNL     1     140.112 -20.037  78.034  1.00  0.00     0.293 HD
ENDBRANCH   8  24
TORSDOF 5
ENDMDL
MODEL 6
REMARK VINA RESULT:    -7.296      4.242      8.484
REMARK INTER + INTRA:          -8.839
REMARK INTER:                  -8.530
REMARK INTRA:                  -0.309
REMARK UNBOUND:                -0.263
REMARK SMILES O=c1cc(-c2ccc(O)c(O)c2)oc2cc(O)cc(O)c12
REMARK SMILES IDX 4 1 3 2 2 3 1 4 21 5 19 6 18 7 16 8 15 9 14 10 13 11 5 12
REMARK SMILES IDX 6 13 7 14 8 15 12 16 10 17 9 18 11 20 20 22 17 24
REMARK H PARENT 9 19 11 21 20 23 17 25
REMARK Flexibility Score: inf
ROOT
ATOM      1  C   UNL     1     133.552 -18.754  76.827  1.00  0.00     0.138 A 
ATOM      2  C   UNL     1     132.379 -18.058  77.163  1.00  0.00     0.100 A 
ATOM      3  C   UNL     1     131.497 -17.671  76.153  1.00  0.00     0.197 A 
ATOM      4  O   UNL     1     130.448 -17.046  76.464  1.00  0.00    -0.289 OA
ATOM      5  C   UNL     1     131.799 -17.980  74.811  1.00  0.00     0.107 A 
ATOM      6  C   UNL     1     130.960 -17.624  73.728  1.00  0.00     0.134 A 
ATOM      7  C   UNL     1     131.334 -17.964  72.420  1.00  0.00     0.093 A 
ATOM      8  C   UNL     1     132.529 -18.650  72.174  1.00  0.00     0.123 A 
ATOM      9  C   UNL     1     133.358 -19.002  73.240  1.00  0.00     0.094 A 
ATOM     10  C   UNL     1     133.003 -18.674  74.552  1.00  0.00     0.146 A 
ATOM     11  O   UNL     1     133.811 -19.022  75.549  1.00  0.00    -0.456 OA
ENDROOT
BRANCH   1  12
ATOM     12  C   UNL     1     134.526 -19.190  77.859  1.00  0.00     0.021 A 
ATOM     13  C   UNL     1     134.130 -19.471  79.180  1.00  0.00     0.016 A 
ATOM     14  C   UNL     1     135.067 -19.891  80.128  1.00  0.00     0.051 A 
ATOM     15  C   UNL     1     136.413 -20.043  79.773  1.00  0.00     0.157 A 
ATOM     16  C   UNL     1     135.877 -19.359  77.507  1.00  0.00     0.062 A 
ATOM     17  C   UNL     1     136.819 -19.777  78.455  1.00  0.00     0.158 A 
BRANCH  15  18
ATOM     18  O   UNL     1     137.346 -20.459  80.722  1.00  0.00    -0.504 OA
ATOM     19  H   UNL     1     137.223 -20.261  81.708  1.00  0.00     0.293 HD
ENDBRANCH  15  18
BRANCH  17  20
ATOM     20  O   UNL     1     138.151 -19.923  78.068  1.00  0.00    -0.504 OA
ATOM     21  H   UNL     1     138.827 -20.414  78.641  1.00  0.00     0.293 HD
ENDBRANCH  17  20
ENDBRANCH   1  12
BRANCH   6  22
ATOM     22  O   UNL     1     129.762 -16.940  73.942  1.00  0.00    -0.507 OA
ATOM     23  H   UNL     1     129.023 -16.929  73.249  1.00  0.00     0.293 HD
ENDBRANCH   6  22
BRANCH   8  24
ATOM     24  O   UNL     1     132.900 -18.987  70.875  1.00  0.00    -0.508 OA
ATOM     25  H   UNL     1     133.813 -19.373  70.668  1.00  0.00     0.293 HD
ENDBRANCH   8  24
TORSDOF 5
ENDMDL
MODEL 7
REMARK VINA RESULT:    -7.135      2.874      6.775
REMARK INTER + INTRA:          -8.649
REMARK INTER:                  -8.379
REMARK INTRA:                  -0.270
REMARK UNBOUND:                -0.263
REMARK SMILES O=c1cc(-c2ccc(O)c(O)c2)oc2cc(O)cc(O)c12
REMARK SMILES IDX 4 1 3 2 2 3 1 4 21 5 19 6 18 7 16 8 15 9 14 10 13 11 5 12
REMARK SMILES IDX 6 13 7 14 8 15 12 16 10 17 9 18 11 20 20 22 17 24
REMARK H PARENT 9 19 11 21 20 23 17 25
REMARK Flexibility Score: inf
ROOT
ATOM      1  C   UNL     1     139.214 -19.505  78.860  1.00  0.00     0.138 A 
ATOM      2  C   UNL     1     139.293 -18.224  79.430  1.00  0.00     0.100 A 
ATOM      3  C   UNL     1     138.135 -17.616  79.916  1.00  0.00     0.197 A 
ATOM      4  O   UNL     1     138.215 -16.466  80.425  1.00  0.00    -0.289 OA
ATOM      5  C   UNL     1     136.902 -18.294  79.823  1.00  0.00     0.107 A 
ATOM      6  C   UNL     1     135.683 -17.749  80.290  1.00  0.00     0.134 A 
ATOM      7  C   UNL     1     134.497 -18.486  80.157  1.00  0.00     0.093 A 
ATOM      8  C   UNL     1     134.507 -19.754  79.564  1.00  0.00     0.123 A 
ATOM      9  C   UNL     1     135.709 -20.294  79.101  1.00  0.00     0.094 A 
ATOM     10  C   UNL     1     136.902 -19.576  79.227  1.00  0.00     0.146 A 
ATOM     11  O   UNL     1     138.032 -20.114  78.779  1.00  0.00    -0.456 OA
ENDROOT
BRANCH   1  12
ATOM     12  C   UNL     1     140.412 -20.201  78.326  1.00  0.00     0.021 A 
ATOM     13  C   UNL     1     140.755 -21.504  78.734  1.00  0.00     0.016 A 
ATOM     14  C   UNL     1     141.883 -22.138  78.205  1.00  0.00     0.051 A 
ATOM     15  C   UNL     1     142.683 -21.487  77.259  1.00  0.00     0.157 A 
ATOM     16  C   UNL     1     141.213 -19.559  77.364  1.00  0.00     0.062 A 
ATOM     17  C   UNL     1     142.344 -20.192  76.834  1.00  0.00     0.158 A 
BRANCH  15  18
ATOM     18  O   UNL     1     143.809 -22.122  76.736  1.00  0.00    -0.504 OA
ATOM     19  H   UNL     1     143.850 -22.418  75.768  1.00  0.00     0.293 HD
ENDBRANCH  15  18
BRANCH  17  20
ATOM     20  O   UNL     1     143.117 -19.518  75.890  1.00  0.00    -0.504 OA
ATOM     21  H   UNL     1     144.043 -19.166  76.104  1.00  0.00     0.293 HD
ENDBRANCH  17  20
ENDBRANCH   1  12
BRANCH   6  22
ATOM     22  O   UNL     1     135.641 -16.487  80.886  1.00  0.00    -0.507 OA
ATOM     23  H   UNL     1     136.477 -16.036  81.237  1.00  0.00     0.293 HD
ENDBRANCH   6  22
BRANCH   8  24
ATOM     24  O   UNL     1     133.330 -20.485  79.430  1.00  0.00    -0.508 OA
ATOM     25  H   UNL     1     132.620 -20.228  78.755  1.00  0.00     0.293 HD
ENDBRANCH   8  24
TORSDOF 5
ENDMDL
MODEL 8
REMARK VINA RESULT:    -6.926      1.282      2.751
REMARK INTER + INTRA:          -8.404
REMARK INTER:                  -8.137
REMARK INTRA:                  -0.267
REMARK UNBOUND:                -0.263
REMARK SMILES O=c1cc(-c2ccc(O)c(O)c2)oc2cc(O)cc(O)c12
REMARK SMILES IDX 4 1 3 2 2 3 1 4 21 5 19 6 18 7 16 8 15 9 14 10 13 11 5 12
REMARK SMILES IDX 6 13 7 14 8 15 12 16 10 17 9 18 11 20 20 22 17 24
REMARK H PARENT 9 19 11 21 20 23 17 25
REMARK Flexibility Score: inf
ROOT
ATOM      1  C   UNL     1     136.872 -16.827  80.063  1.00  0.00     0.138 A 
ATOM      2  C   UNL     1     136.377 -15.615  80.571  1.00  0.00     0.100 A 
ATOM      3  C   UNL     1     137.271 -14.605  80.930  1.00  0.00     0.197 A 
ATOM      4  O   UNL     1     136.818 -13.521  81.387  1.00  0.00    -0.289 OA
ATOM      5  C   UNL     1     138.656 -14.818  80.781  1.00  0.00     0.107 A 
ATOM      6  C   UNL     1     139.629 -13.847  81.120  1.00  0.00     0.134 A 
ATOM      7  C   UNL     1     140.990 -14.138  80.947  1.00  0.00     0.093 A 
ATOM      8  C   UNL     1     141.396 -15.379  80.443  1.00  0.00     0.123 A 
ATOM      9  C   UNL     1     140.439 -16.339  80.108  1.00  0.00     0.094 A 
ATOM     10  C   UNL     1     139.077 -16.068  80.272  1.00  0.00     0.146 A 
ATOM     11  O   UNL     1     138.187 -16.999  79.943  1.00  0.00    -0.456 OA
ENDROOT
BRANCH   1  12
ATOM     12  C   UNL     1     135.969 -17.937  79.666  1.00  0.00     0.021 A 
ATOM     13  C   UNL     1     135.399 -18.804  80.618  1.00  0.00     0.016 A 
ATOM     14  C   UNL     1     134.543 -19.833  80.216  1.00  0.00     0.051 A 
ATOM     15  C   UNL     1     134.236 -20.011  78.862  1.00  0.00     0.157 A 
ATOM     16  C   UNL     1     135.644 -18.114  78.309  1.00  0.00     0.062 A 
ATOM     17  C   UNL     1     134.788 -19.145  77.904  1.00  0.00     0.158 A 
BRANCH  15  18
ATOM     18  O   UNL     1     133.384 -21.041  78.466  1.00  0.00    -0.504 OA
ATOM     19  H   UNL     1     133.742 -21.904  78.074  1.00  0.00     0.293 HD
ENDBRANCH  15  18
BRANCH  17  20
ATOM     20  O   UNL     1     134.499 -19.292  76.548  1.00  0.00    -0.504 OA
ATOM     21  H   UNL     1     133.881 -18.657  76.058  1.00  0.00     0.293 HD
ENDBRANCH  17  20
ENDBRANCH   1  12
BRANCH   6  22
ATOM     22  O   UNL     1     139.254 -12.601  81.625  1.00  0.00    -0.507 OA
ATOM     23  H   UNL     1     138.412 -12.130  81.313  1.00  0.00     0.293 HD
ENDBRANCH   6  22
BRANCH   8  24
ATOM     24  O   UNL     1     142.747 -15.668  80.272  1.00  0.00    -0.508 OA
ATOM     25  H   UNL     1     143.428 -15.469  80.996  1.00  0.00     0.293 HD
ENDBRANCH   8  24
TORSDOF 5
ENDMDL
MODEL 9
REMARK VINA RESULT:    -6.801      1.392      7.188
REMARK INTER + INTRA:          -8.256
REMARK INTER:                  -7.994
REMARK INTRA:                  -0.263
REMARK UNBOUND:                -0.263
REMARK SMILES O=c1cc(-c2ccc(O)c(O)c2)oc2cc(O)cc(O)c12
REMARK SMILES IDX 4 1 3 2 2 3 1 4 21 5 19 6 18 7 16 8 15 9 14 10 13 11 5 12
REMARK SMILES IDX 6 13 7 14 8 15 12 16 10 17 9 18 11 20 20 22 17 24
REMARK H PARENT 9 19 11 21 20 23 17 25
REMARK Flexibility Score: inf
ROOT
ATOM      1  C   UNL     1     137.382 -17.869  79.599  1.00  0.00     0.138 A 
ATOM      2  C   UNL     1     136.870 -18.699  80.611  1.00  0.00     0.100 A 
ATOM      3  C   UNL     1     135.633 -19.318  80.431  1.00  0.00     0.197 A 
ATOM      4  O   UNL     1     135.182 -20.061  81.345  1.00  0.00    -0.289 OA
ATOM      5  C   UNL     1     134.912 -19.099  79.240  1.00  0.00     0.107 A 
ATOM      6  C   UNL     1     133.652 -19.687  78.978  1.00  0.00     0.134 A 
ATOM      7  C   UNL     1     132.996 -19.414  77.768  1.00  0.00     0.093 A 
ATOM      8  C   UNL     1     133.574 -18.564  76.819  1.00  0.00     0.123 A 
ATOM      9  C   UNL     1     134.817 -17.981  77.074  1.00  0.00     0.094 A 
ATOM     10  C   UNL     1     135.488 -18.242  78.273  1.00  0.00     0.146 A 
ATOM     11  O   UNL     1     136.671 -17.675  78.490  1.00  0.00    -0.456 OA
ENDROOT
BRANCH   1  12
ATOM     12  C   UNL     1     138.691 -17.183  79.736  1.00  0.00     0.021 A 
ATOM     13  C   UNL     1     139.834 -17.625  79.043  1.00  0.00     0.016 A 
ATOM     14  C   UNL     1     141.051 -16.953  79.182  1.00  0.00     0.051 A 
ATOM     15  C   UNL     1     141.148 -15.828  80.008  1.00  0.00     0.157 A 
ATOM     16  C   UNL     1     138.794 -16.044  80.553  1.00  0.00     0.062 A 
ATOM     17  C   UNL     1     140.013 -15.370  80.696  1.00  0.00     0.158 A 
BRANCH  15  18
ATOM     18  O   UNL     1     142.366 -15.162  80.146  1.00  0.00    -0.504 OA
ATOM     19  H   UNL     1     142.640 -14.421  79.512  1.00  0.00     0.293 HD
ENDBRANCH  15  18
BRANCH  17  20
ATOM     20  O   UNL     1     140.075 -14.249  81.523  1.00  0.00    -0.504 OA
ATOM     21  H   UNL     1     140.013 -13.307  81.158  1.00  0.00     0.293 HD
ENDBRANCH  17  20
ENDBRANCH   1  12
BRANCH   6  22
ATOM     22  O   UNL     1     133.051 -20.539  79.906  1.00  0.00    -0.507 OA
ATOM     23  H   UNL     1     133.599 -21.095  80.553  1.00  0.00     0.293 HD
ENDBRANCH   6  22
BRANCH   8  24
ATOM     24  O   UNL     1     132.922 -18.293  75.619  1.00  0.00    -0.508 OA
ATOM     25  H   UNL     1     133.299 -18.598  74.730  1.00  0.00     0.293 HD
ENDBRANCH   8  24
TORSDOF 5
ENDMDL
