MODEL 1
REMARK VINA RESULT:    -5.079      0.000      0.000
REMARK INTER + INTRA:          -5.579
REMARK INTER:                  -5.524
REMARK INTRA:                  -0.055
REMARK UNBOUND:                -0.055
REMARK SMILES COc1cc2ccc(=O)oc2cc1O
REMARK SMILES IDX 3 1 13 2 12 3 11 4 5 5 4 6 6 7 7 8 8 9 9 10 10 11 2 12 1 13
REMARK SMILES IDX 14 14
REMARK H PARENT 14 15
REMARK Flexibility Score: inf
ROOT
ATOM      1  C   UNL     1      -6.915 -23.509 -21.246  1.00  0.00     0.161 A 
ATOM      2  C   UNL     1      -7.976 -24.264 -20.708  1.00  0.00     0.161 A 
ATOM      3  C   UNL     1      -8.273 -24.190 -19.342  1.00  0.00     0.098 A 
ATOM      4  C   UNL     1      -7.521 -23.369 -18.499  1.00  0.00     0.142 A 
ATOM      5  C   UNL     1      -6.457 -22.610 -19.026  1.00  0.00     0.022 A 
ATOM      6  C   UNL     1      -6.157 -22.680 -20.394  1.00  0.00     0.062 A 
ATOM      7  C   UNL     1      -5.722 -21.797 -18.157  1.00  0.00     0.019 A 
ATOM      8  C   UNL     1      -6.061 -21.761 -16.805  1.00  0.00     0.094 A 
ATOM      9  C   UNL     1      -7.130 -22.541 -16.352  1.00  0.00     0.336 A 
ATOM     10  O   UNL     1      -7.451 -22.522 -15.135  1.00  0.00    -0.246 OA
ATOM     11  O   UNL     1      -7.812 -23.305 -17.201  1.00  0.00    -0.423 OA
ENDROOT
BRANCH   1  12
ATOM     12  O   UNL     1      -6.644 -23.606 -22.620  1.00  0.00    -0.493 OA
ATOM     13  C   UNL     1      -6.604 -22.501 -23.516  1.00  0.00     0.278 C 
ENDBRANCH   1  12
BRANCH   2  14
ATOM     14  O   UNL     1      -8.749 -25.095 -21.518  1.00  0.00    -0.504 OA
ATOM     15  H   UNL     1      -8.473 -26.044 -21.738  1.00  0.00     0.293 HD
ENDBRANCH   2  14
TORSDOF 2
ENDMDL
MODEL 2
REMARK VINA RESULT:    -4.983      1.555      2.706
REMARK INTER + INTRA:          -5.475
REMARK INTER:                  -5.431
REMARK INTRA:                  -0.044
REMARK UNBOUND:                -0.055
REMARK SMILES COc1cc2ccc(=O)oc2cc1O
REMARK SMILES IDX 3 1 13 2 12 3 11 4 5 5 4 6 6 7 7 8 8 9 9 10 10 11 2 12 1 13
REMARK SMILES IDX 14 14
REMARK H PARENT 14 15
REMARK Flexibility Score: inf
ROOT
ATOM      1  C   UNL     1      -8.613 -24.250 -20.168  1.00  0.00     0.161 A 
ATOM      2  C   UNL     1      -7.622 -23.601 -20.932  1.00  0.00     0.161 A 
ATOM      3  C   UNL     1      -6.672 -22.785 -20.308  1.00  0.00     0.098 A 
ATOM      4  C   UNL     1      -6.695 -22.605 -18.924  1.00  0.00     0.142 A 
ATOM      5  C   UNL     1      -7.683 -23.248 -18.149  1.00  0.00     0.022 A 
ATOM      6  C   UNL     1      -8.636 -24.067 -18.771  1.00  0.00     0.062 A 
ATOM      7  C   UNL     1      -7.680 -23.048 -16.765  1.00  0.00     0.019 A 
ATOM      8  C   UNL     1      -6.710 -22.224 -16.195  1.00  0.00     0.094 A 
ATOM      9  C   UNL     1      -5.761 -21.619 -17.026  1.00  0.00     0.336 A 
ATOM     10  O   UNL     1      -4.878 -20.871 -16.530  1.00  0.00    -0.246 OA
ATOM     11  O   UNL     1      -5.787 -21.826 -18.340  1.00  0.00    -0.423 OA
ENDROOT
BRANCH   1  12
ATOM     12  O   UNL     1      -9.551 -25.062 -20.826  1.00  0.00    -0.493 OA
ATOM     13  C   UNL     1      -9.366 -26.444 -21.109  1.00  0.00     0.278 C 
ENDBRANCH   1  12
BRANCH   2  14
ATOM     14  O   UNL     1      -7.567 -23.757 -22.317  1.00  0.00    -0.504 OA
ATOM     15  H   UNL     1      -8.058 -24.502 -22.797  1.00  0.00     0.293 HD
ENDBRANCH   2  14
TORSDOF 2
ENDMDL
MODEL 3
REMARK VINA RESULT:    -4.960      1.707      2.793
REMARK INTER + INTRA:          -5.450
REMARK INTER:                  -5.389
REMARK INTRA:                  -0.061
REMARK UNBOUND:                -0.055
REMARK SMILES COc1cc2ccc(=O)oc2cc1O
REMARK SMILES IDX 3 1 13 2 12 3 11 4 5 5 4 6 6 7 7 8 8 9 9 10 10 11 2 12 1 13
REMARK SMILES IDX 14 14
REMARK H PARENT 14 15
REMARK Flexibility Score: inf
ROOT
ATOM      1  C   UNL     1      -7.145 -22.468 -22.504  1.00  0.00     0.161 A 
ATOM      2  C   UNL     1      -5.901 -22.095 -21.956  1.00  0.00     0.161 A 
ATOM      3  C   UNL     1      -5.676 -22.206 -20.579  1.00  0.00     0.098 A 
ATOM      4  C   UNL     1      -6.679 -22.685 -19.735  1.00  0.00     0.142 A 
ATOM      5  C   UNL     1      -7.928 -23.061 -20.273  1.00  0.00     0.022 A 
ATOM      6  C   UNL     1      -8.157 -22.952 -21.651  1.00  0.00     0.062 A 
ATOM      7  C   UNL     1      -8.912 -23.538 -19.401  1.00  0.00     0.019 A 
ATOM      8  C   UNL     1      -8.635 -23.627 -18.038  1.00  0.00     0.094 A 
ATOM      9  C   UNL     1      -7.373 -23.237 -17.576  1.00  0.00     0.336 A 
ATOM     10  O   UNL     1      -7.103 -23.310 -16.349  1.00  0.00    -0.246 OA
ATOM     11  O   UNL     1      -6.455 -22.787 -18.427  1.00  0.00    -0.423 OA
ENDROOT
BRANCH   1  12
ATOM     12  O   UNL     1      -7.338 -22.345 -23.890  1.00  0.00    -0.493 OA
ATOM     13  C   UNL     1      -8.253 -21.442 -24.500  1.00  0.00     0.278 C 
ENDBRANCH   1  12
BRANCH   2  14
ATOM     14  O   UNL     1      -4.875 -21.612 -22.767  1.00  0.00    -0.504 OA
ATOM     15  H   UNL     1      -5.046 -20.964 -23.527  1.00  0.00     0.293 HD
ENDBRANCH   2  14
TORSDOF 2
ENDMDL
MODEL 4
REMARK VINA RESULT:    -4.936      1.598      4.645
REMARK INTER + INTRA:          -5.423
REMARK INTER:                  -5.371
REMARK INTRA:                  -0.053
REMARK UNBOUND:                -0.055
REMARK SMILES COc1cc2ccc(=O)oc2cc1O
REMARK SMILES IDX 3 1 13 2 12 3 11 4 5 5 4 6 6 7 7 8 8 9 9 10 10 11 2 12 1 13
REMARK SMILES IDX 14 14
REMARK H PARENT 14 15
REMARK Flexibility Score: inf
ROOT
ATOM      1  C   UNL     1      -6.221 -22.106 -17.768  1.00  0.00     0.161 A 
ATOM      2  C   UNL     1      -7.336 -22.594 -17.058  1.00  0.00     0.161 A 
ATOM      3  C   UNL     1      -8.217 -23.498 -17.663  1.00  0.00     0.098 A 
ATOM      4  C   UNL     1      -8.001 -23.925 -18.975  1.00  0.00     0.142 A 
ATOM      5  C   UNL     1      -6.889 -23.442 -19.695  1.00  0.00     0.022 A 
ATOM      6  C   UNL     1      -6.004 -22.537 -19.093  1.00  0.00     0.062 A 
ATOM      7  C   UNL     1      -6.700 -23.888 -21.007  1.00  0.00     0.019 A 
ATOM      8  C   UNL     1      -7.609 -24.789 -21.561  1.00  0.00     0.094 A 
ATOM      9  C   UNL     1      -8.689 -25.225 -20.787  1.00  0.00     0.336 A 
ATOM     10  O   UNL     1      -9.520 -26.038 -21.269  1.00  0.00    -0.246 OA
ATOM     11  O   UNL     1      -8.845 -24.785 -19.541  1.00  0.00    -0.423 OA
ENDROOT
BRANCH   1  12
ATOM     12  O   UNL     1      -5.357 -21.200 -17.132  1.00  0.00    -0.493 OA
ATOM     13  C   UNL     1      -4.950 -19.951 -17.680  1.00  0.00     0.278 C 
ENDBRANCH   1  12
BRANCH   2  14
ATOM     14  O   UNL     1      -7.584 -22.191 -15.746  1.00  0.00    -0.504 OA
ATOM     15  H   UNL     1      -8.005 -21.296 -15.526  1.00  0.00     0.293 HD
ENDBRANCH   2  14
TORSDOF 2
ENDMDL
MODEL 5
REMARK VINA RESULT:    -4.873      1.750      5.414
REMARK INTER + INTRA:          -5.355
REMARK INTER:                  -5.290
REMARK INTRA:                  -0.065
REMARK UNBOUND:                -0.055
REMARK SMILES COc1cc2ccc(=O)oc2cc1O
REMARK SMILES IDX 3 1 13 2 12 3 11 4 5 5 4 6 6 7 7 8 8 9 9 10 10 11 2 12 1 13
REMARK SMILES IDX 14 14
REMARK H PARENT 14 15
REMARK Flexibility Score: inf
ROOT
ATOM      1  C   UNL     1      -6.789 -22.530 -17.630  1.00  0.00     0.161 A 
ATOM      2  C   UNL     1      -5.580 -21.997 -18.120  1.00  0.00     0.161 A 
ATOM      3  C   UNL     1      -5.049 -22.452 -19.332  1.00  0.00     0.098 A 
ATOM      4  C   UNL     1      -5.709 -23.438 -20.068  1.00  0.00     0.142 A 
ATOM      5  C   UNL     1      -6.919 -23.979 -19.586  1.00  0.00     0.022 A 
ATOM      6  C   UNL     1      -7.455 -23.526 -18.373  1.00  0.00     0.062 A 
ATOM      7  C   UNL     1      -7.556 -24.966 -20.346  1.00  0.00     0.019 A 
ATOM      8  C   UNL     1      -6.983 -25.382 -21.546  1.00  0.00     0.094 A 
ATOM      9  C   UNL     1      -5.781 -24.800 -21.961  1.00  0.00     0.336 A 
ATOM     10  O   UNL     1      -5.247 -25.163 -23.042  1.00  0.00    -0.246 OA
ATOM     11  O   UNL     1      -5.195 -23.863 -21.220  1.00  0.00    -0.423 OA
ENDROOT
BRANCH   1  12
ATOM     12  O   UNL     1      -7.294 -22.052 -16.410  1.00  0.00    -0.493 OA
ATOM     13  C   UNL     1      -7.140 -22.710 -15.158  1.00  0.00     0.278 C 
ENDBRANCH   1  12
BRANCH   2  14
ATOM     14  O   UNL     1      -4.892 -21.011 -17.414  1.00  0.00    -0.504 OA
ATOM     15  H   UNL     1      -5.300 -20.106 -17.212  1.00  0.00     0.293 HD
ENDBRANCH   2  14
TORSDOF 2
ENDMDL
MODEL 6
REMARK VINA RESULT:    -4.792      2.302      4.707
REMARK INTER + INTRA:          -5.268
REMARK INTER:                  -5.210
REMARK INTRA:                  -0.057
REMARK UNBOUND:                -0.055
REMARK SMILES COc1cc2ccc(=O)oc2cc1O
REMARK SMILES IDX 3 1 13 2 12 3 11 4 5 5 4 6 6 7 7 8 8 9 9 10 10 11 2 12 1 13
REMARK SMILES IDX 14 14
REMARK H PARENT 14 15
REMARK Flexibility Score: inf
ROOT
ATOM      1  C   UNL     1      -5.500 -20.296 -18.685  1.00  0.00     0.161 A 
ATOM      2  C   UNL     1      -5.491 -21.247 -17.645  1.00  0.00     0.161 A 
ATOM      3  C   UNL     1      -6.104 -22.493 -17.823  1.00  0.00     0.098 A 
ATOM      4  C   UNL     1      -6.730 -22.806 -19.031  1.00  0.00     0.142 A 
ATOM      5  C   UNL     1      -6.747 -21.862 -20.078  1.00  0.00     0.022 A 
ATOM      6  C   UNL     1      -6.134 -20.613 -19.904  1.00  0.00     0.062 A 
ATOM      7  C   UNL     1      -7.383 -22.205 -21.276  1.00  0.00     0.019 A 
ATOM      8  C   UNL     1      -7.977 -23.460 -21.399  1.00  0.00     0.094 A 
ATOM      9  C   UNL     1      -7.921 -24.346 -20.318  1.00  0.00     0.336 A 
ATOM     10  O   UNL     1      -8.453 -25.483 -20.410  1.00  0.00    -0.246 OA
ATOM     11  O   UNL     1      -7.310 -23.994 -19.190  1.00  0.00    -0.423 OA
ENDROOT
BRANCH   1  12
ATOM     12  O   UNL     1      -4.877 -19.056 -18.473  1.00  0.00    -0.493 OA
ATOM     13  C   UNL     1      -5.538 -17.797 -18.538  1.00  0.00     0.278 C 
ENDBRANCH   1  12
BRANCH   2  14
ATOM     14  O   UNL     1      -4.875 -20.971 -16.425  1.00  0.00    -0.504 OA
ATOM     15  H   UNL     1      -5.331 -20.432 -15.699  1.00  0.00     0.293 HD
ENDBRANCH   2  14
TORSDOF 2
ENDMDL
MODEL 7
REMARK VINA RESULT:    -4.785      2.626      5.073
REMARK INTER + INTRA:          -5.259
REMARK INTER:                  -5.197
REMARK INTRA:                  -0.062
REMARK UNBOUND:                -0.055
REMARK SMILES COc1cc2ccc(=O)oc2cc1O
REMARK SMILES IDX 3 1 13 2 12 3 11 4 5 5 4 6 6 7 7 8 8 9 9 10 10 11 2 12 1 13
REMARK SMILES IDX 14 14
REMARK H PARENT 14 15
REMARK Flexibility Score: inf
ROOT
ATOM      1  C   UNL     1      -6.181 -24.165 -21.107  1.00  0.00     0.161 A 
ATOM      2  C   UNL     1      -7.200 -23.734 -20.234  1.00  0.00     0.161 A 
ATOM      3  C   UNL     1      -8.145 -22.795 -20.663  1.00  0.00     0.098 A 
ATOM      4  C   UNL     1      -8.088 -22.275 -21.958  1.00  0.00     0.142 A 
ATOM      5  C   UNL     1      -7.071 -22.698 -22.839  1.00  0.00     0.022 A 
ATOM      6  C   UNL     1      -6.123 -23.638 -22.413  1.00  0.00     0.062 A 
ATOM      7  C   UNL     1      -7.040 -22.158 -24.129  1.00  0.00     0.019 A 
ATOM      8  C   UNL     1      -8.006 -21.225 -24.504  1.00  0.00     0.094 A 
ATOM      9  C   UNL     1      -8.985 -20.853 -23.576  1.00  0.00     0.336 A 
ATOM     10  O   UNL     1      -9.866 -20.013 -23.895  1.00  0.00    -0.246 OA
ATOM     11  O   UNL     1      -8.992 -21.382 -22.355  1.00  0.00    -0.423 OA
ENDROOT
BRANCH   1  12
ATOM     12  O   UNL     1      -5.248 -25.108 -20.645  1.00  0.00    -0.493 OA
ATOM     13  C   UNL     1      -5.171 -26.456 -21.096  1.00  0.00     0.278 C 
ENDBRANCH   1  12
BRANCH   2  14
ATOM     14  O   UNL     1      -7.290 -24.232 -18.935  1.00  0.00    -0.504 OA
ATOM     15  H   UNL     1      -6.488 -24.606 -18.443  1.00  0.00     0.293 HD
ENDBRANCH   2  14
TORSDOF 2
ENDMDL
MODEL 8
REMARK VINA RESULT:    -4.773      2.146      3.325
REMARK INTER + INTRA:          -5.247
REMARK INTER:                  -5.225
REMARK INTRA:                  -0.022
REMARK UNBOUND:                -0.055
REMARK SMILES COc1cc2ccc(=O)oc2cc1O
REMARK SMILES IDX 3 1 13 2 12 3 11 4 5 5 4 6 6 7 7 8 8 9 9 10 10 11 2 12 1 13
REMARK SMILES IDX 14 14
REMARK H PARENT 14 15
REMARK Flexibility Score: inf
ROOT
ATOM      1  C   UNL     1      -6.256 -22.343 -23.787  1.00  0.00     0.161 A 
ATOM      2  C   UNL     1      -7.612 -21.960 -23.775  1.00  0.00     0.161 A 
ATOM      3  C   UNL     1      -8.387 -22.146 -22.625  1.00  0.00     0.098 A 
ATOM      4  C   UNL     1      -7.826 -22.713 -21.478  1.00  0.00     0.142 A 
ATOM      5  C   UNL     1      -6.470 -23.100 -21.479  1.00  0.00     0.022 A 
ATOM      6  C   UNL     1      -5.690 -22.915 -22.629  1.00  0.00     0.062 A 
ATOM      7  C   UNL     1      -5.938 -23.665 -20.316  1.00  0.00     0.019 A 
ATOM      8  C   UNL     1      -6.755 -23.828 -19.198  1.00  0.00     0.094 A 
ATOM      9  C   UNL     1      -8.091 -23.419 -19.270  1.00  0.00     0.336 A 
ATOM     10  O   UNL     1      -8.845 -23.558 -18.272  1.00  0.00    -0.246 OA
ATOM     11  O   UNL     1      -8.572 -22.885 -20.389  1.00  0.00    -0.423 OA
ENDROOT
BRANCH   1  12
ATOM     12  O   UNL     1      -5.506 -22.143 -24.958  1.00  0.00    -0.493 OA
ATOM     13  C   UNL     1      -4.875 -20.918 -25.313  1.00  0.00     0.278 C 
ENDBRANCH   1  12
BRANCH   2  14
ATOM     14  O   UNL     1      -8.207 -21.391 -24.901  1.00  0.00    -0.504 OA
ATOM     15  H   UNL     1      -9.206 -21.430 -25.062  1.00  0.00     0.293 HD
ENDBRANCH   2  14
TORSDOF 2
ENDMDL
MODEL 9
REMARK VINA RESULT:    -4.639      1.227      4.886
REMARK INTER + INTRA:          -5.100
REMARK INTER:                  -5.036
REMARK INTRA:                  -0.064
REMARK UNBOUND:                -0.055
REMARK SMILES COc1cc2ccc(=O)oc2cc1O
REMARK SMILES IDX 3 1 13 2 12 3 11 4 5 5 4 6 6 7 7 8 8 9 9 10 10 11 2 12 1 13
REMARK SMILES IDX 14 14
REMARK H PARENT 14 15
REMARK Flexibility Score: inf
ROOT
ATOM      1  C   UNL     1      -6.864 -22.372 -17.387  1.00  0.00     0.161 A 
ATOM      2  C   UNL     1      -7.775 -23.334 -17.867  1.00  0.00     0.161 A 
ATOM      3  C   UNL     1      -7.828 -23.635 -19.233  1.00  0.00     0.098 A 
ATOM      4  C   UNL     1      -6.980 -22.987 -20.133  1.00  0.00     0.142 A 
ATOM      5  C   UNL     1      -6.065 -22.022 -19.663  1.00  0.00     0.022 A 
ATOM      6  C   UNL     1      -6.008 -21.718 -18.296  1.00  0.00     0.062 A 
ATOM      7  C   UNL     1      -5.229 -21.390 -20.590  1.00  0.00     0.019 A 
ATOM      8  C   UNL     1      -5.323 -21.729 -21.939  1.00  0.00     0.094 A 
ATOM      9  C   UNL     1      -6.255 -22.695 -22.332  1.00  0.00     0.336 A 
ATOM     10  O   UNL     1      -6.356 -23.014 -23.545  1.00  0.00    -0.246 OA
ATOM     11  O   UNL     1      -7.038 -23.281 -21.430  1.00  0.00    -0.423 OA
ENDROOT
BRANCH   1  12
ATOM     12  O   UNL     1      -6.837 -22.094 -16.010  1.00  0.00    -0.493 OA
ATOM     13  C   UNL     1      -5.811 -22.519 -15.120  1.00  0.00     0.278 C 
ENDBRANCH   1  12
BRANCH   2  14
ATOM     14  O   UNL     1      -8.638 -24.002 -16.998  1.00  0.00    -0.504 OA
ATOM     15  H   UNL     1      -9.545 -24.342 -17.293  1.00  0.00     0.293 HD
ENDBRANCH   2  14
TORSDOF 2
ENDMDL
