MODEL 1
REMARK VINA RESULT:    -3.987      0.000      0.000
REMARK INTER + INTRA:          -4.937
REMARK INTER:                  -4.686
REMARK INTRA:                  -0.251
REMARK UNBOUND:                -0.251
REMARK SMILES O=c1c(O)c(-c2ccc(O)cc2)oc2cc(O)cc(O)c12
REMARK SMILES IDX 5 1 3 2 2 3 1 4 21 5 19 6 18 7 16 8 15 9 14 10 13 11 6 12
REMARK SMILES IDX 7 13 8 14 9 15 12 16 11 17 10 18 4 20 20 22 17 24
REMARK H PARENT 10 19 4 21 20 23 17 25
REMARK Flexibility Score: inf
ROOT
ATOM      1  C   UNL     1      12.753 -12.830  29.044  1.00  0.00     0.180 A 
ATOM      2  C   UNL     1      13.465 -12.117  30.024  1.00  0.00     0.208 A 
ATOM      3  C   UNL     1      12.839 -11.037  30.670  1.00  0.00     0.238 A 
ATOM      4  O   UNL     1      13.462 -10.438  31.584  1.00  0.00    -0.285 OA
ATOM      5  C   UNL     1      11.517 -10.675  30.315  1.00  0.00     0.111 A 
ATOM      6  C   UNL     1      10.802  -9.574  30.875  1.00  0.00     0.134 A 
ATOM      7  C   UNL     1       9.454  -9.388  30.546  1.00  0.00     0.093 A 
ATOM      8  C   UNL     1       8.815 -10.223  29.625  1.00  0.00     0.123 A 
ATOM      9  C   UNL     1       9.522 -11.263  29.029  1.00  0.00     0.094 A 
ATOM     10  C   UNL     1      10.858 -11.497  29.364  1.00  0.00     0.146 A 
ATOM     11  O   UNL     1      11.493 -12.506  28.781  1.00  0.00    -0.452 OA
ENDROOT
BRANCH   1  12
ATOM     12  C   UNL     1      13.353 -13.962  28.302  1.00  0.00     0.021 A 
ATOM     13  C   UNL     1      13.468 -15.239  28.880  1.00  0.00     0.016 A 
ATOM     14  C   UNL     1      14.059 -16.288  28.168  1.00  0.00     0.047 A 
ATOM     15  C   UNL     1      14.554 -16.072  26.879  1.00  0.00     0.115 A 
ATOM     16  C   UNL     1      13.870 -13.748  27.014  1.00  0.00     0.016 A 
ATOM     17  C   UNL     1      14.461 -14.798  26.303  1.00  0.00     0.047 A 
BRANCH  15  18
ATOM     18  O   UNL     1      15.139 -17.125  26.181  1.00  0.00    -0.508 OA
ATOM     19  H   UNL     1      15.308 -17.071  25.184  1.00  0.00     0.293 HD
ENDBRANCH  15  18
ENDBRANCH   1  12
BRANCH   2  20
ATOM     20  O   UNL     1      14.760 -12.506  30.374  1.00  0.00    -0.502 OA
ATOM     21  H   UNL     1      14.959 -13.049  31.207  1.00  0.00     0.293 HD
ENDBRANCH   2  20
BRANCH   6  22
ATOM     22  O   UNL     1      11.371  -8.627  31.732  1.00  0.00    -0.507 OA
ATOM     23  H   UNL     1      10.959  -8.313  32.598  1.00  0.00     0.293 HD
ENDBRANCH   6  22
BRANCH   8  24
ATOM     24  O   UNL     1       7.478 -10.020  29.291  1.00  0.00    -0.508 OA
ATOM     25  H   UNL     1       6.863  -9.465  29.875  1.00  0.00     0.293 HD
ENDBRANCH   8  24
TORSDOF 5
ENDMDL
MODEL 2
REMARK VINA RESULT:    -3.909      1.162      2.908
REMARK INTER + INTRA:          -4.845
REMARK INTER:                  -4.586
REMARK INTRA:                  -0.259
REMARK UNBOUND:                -0.251
REMARK SMILES O=c1c(O)c(-c2ccc(O)cc2)oc2cc(O)cc(O)c12
REMARK SMILES IDX 5 1 3 2 2 3 1 4 21 5 19 6 18 7 16 8 15 9 14 10 13 11 6 12
REMARK SMILES IDX 7 13 8 14 9 15 12 16 11 17 10 18 4 20 20 22 17 24
REMARK H PARENT 10 19 4 21 20 23 17 25
REMARK Flexibility Score: inf
ROOT
ATOM      1  C   UNL     1      12.021 -12.955  28.597  1.00  0.00     0.180 A 
ATOM      2  C   UNL     1      10.691 -12.826  28.162  1.00  0.00     0.208 A 
ATOM      3  C   UNL     1       9.911 -11.768  28.659  1.00  0.00     0.238 A 
ATOM      4  O   UNL     1       8.739 -11.627  28.224  1.00  0.00    -0.285 OA
ATOM      5  C   UNL     1      10.466 -10.864  29.596  1.00  0.00     0.111 A 
ATOM      6  C   UNL     1       9.756  -9.781  30.195  1.00  0.00     0.134 A 
ATOM      7  C   UNL     1      10.442  -8.871  31.008  1.00  0.00     0.093 A 
ATOM      8  C   UNL     1      11.798  -9.044  31.298  1.00  0.00     0.123 A 
ATOM      9  C   UNL     1      12.485 -10.131  30.766  1.00  0.00     0.094 A 
ATOM     10  C   UNL     1      11.837 -11.036  29.921  1.00  0.00     0.146 A 
ATOM     11  O   UNL     1      12.532 -12.053  29.426  1.00  0.00    -0.452 OA
ENDROOT
BRANCH   1  12
ATOM     12  C   UNL     1      12.897 -14.058  28.140  1.00  0.00     0.021 A 
ATOM     13  C   UNL     1      13.144 -15.182  28.949  1.00  0.00     0.016 A 
ATOM     14  C   UNL     1      13.993 -16.200  28.504  1.00  0.00     0.047 A 
ATOM     15  C   UNL     1      14.616 -16.103  27.256  1.00  0.00     0.115 A 
ATOM     16  C   UNL     1      13.541 -13.958  26.896  1.00  0.00     0.016 A 
ATOM     17  C   UNL     1      14.390 -14.978  26.453  1.00  0.00     0.047 A 
BRANCH  15  18
ATOM     18  O   UNL     1      15.458 -17.125  26.826  1.00  0.00    -0.508 OA
ATOM     19  H   UNL     1      15.437 -17.462  25.871  1.00  0.00     0.293 HD
ENDBRANCH  15  18
ENDBRANCH   1  12
BRANCH   2  20
ATOM     20  O   UNL     1      10.170 -13.717  27.220  1.00  0.00    -0.502 OA
ATOM     21  H   UNL     1      10.760 -14.320  26.658  1.00  0.00     0.293 HD
ENDBRANCH   2  20
BRANCH   6  22
ATOM     22  O   UNL     1       8.382  -9.571  30.046  1.00  0.00    -0.507 OA
ATOM     23  H   UNL     1       7.721 -10.274  29.748  1.00  0.00     0.293 HD
ENDBRANCH   6  22
BRANCH   8  24
ATOM     24  O   UNL     1      12.469  -8.143  32.122  1.00  0.00    -0.508 OA
ATOM     25  H   UNL     1      11.971  -7.551  32.777  1.00  0.00     0.293 HD
ENDBRANCH   8  24
TORSDOF 5
ENDMDL
MODEL 3
REMARK VINA RESULT:    -3.539     16.062     18.518
REMARK INTER + INTRA:          -4.411
REMARK INTER:                  -4.905
REMARK INTRA:                   0.494
REMARK UNBOUND:                -0.251
REMARK SMILES O=c1c(O)c(-c2ccc(O)cc2)oc2cc(O)cc(O)c12
REMARK SMILES IDX 5 1 3 2 2 3 1 4 21 5 19 6 18 7 16 8 15 9 14 10 13 11 6 12
REMARK SMILES IDX 7 13 8 14 9 15 12 16 11 17 10 18 4 20 20 22 17 24
REMARK H PARENT 10 19 4 21 20 23 17 25
REMARK Flexibility Score: inf
ROOT
ATOM      1  C   UNL     1       4.361  -6.598  14.232  1.00  0.00     0.180 A 
ATOM      2  C   UNL     1       4.181  -7.456  13.133  1.00  0.00     0.208 A 
ATOM      3  C   UNL     1       4.275  -8.844  13.330  1.00  0.00     0.238 A 
ATOM      4  O   UNL     1       4.058  -9.607  12.354  1.00  0.00    -0.285 OA
ATOM      5  C   UNL     1       4.563  -9.355  14.618  1.00  0.00     0.111 A 
ATOM      6  C   UNL     1       4.720 -10.740  14.923  1.00  0.00     0.134 A 
ATOM      7  C   UNL     1       4.875 -11.140  16.256  1.00  0.00     0.093 A 
ATOM      8  C   UNL     1       4.944 -10.199  17.287  1.00  0.00     0.123 A 
ATOM      9  C   UNL     1       4.851  -8.842  16.992  1.00  0.00     0.094 A 
ATOM     10  C   UNL     1       4.660  -8.413  15.676  1.00  0.00     0.146 A 
ATOM     11  O   UNL     1       4.566  -7.111  15.440  1.00  0.00    -0.452 OA
ENDROOT
BRANCH   1  12
ATOM     12  C   UNL     1       4.304  -5.125  14.100  1.00  0.00     0.021 A 
ATOM     13  C   UNL     1       3.941  -4.511  12.887  1.00  0.00     0.016 A 
ATOM     14  C   UNL     1       3.916  -3.116  12.780  1.00  0.00     0.047 A 
ATOM     15  C   UNL     1       4.265  -2.320  13.873  1.00  0.00     0.115 A 
ATOM     16  C   UNL     1       4.673  -4.318  15.189  1.00  0.00     0.016 A 
ATOM     17  C   UNL     1       4.647  -2.923  15.079  1.00  0.00     0.047 A 
BRANCH  15  18
ATOM     18  O   UNL     1       4.235  -0.933  13.753  1.00  0.00    -0.508 OA
ATOM     19  H   UNL     1       3.959  -0.340  14.525  1.00  0.00     0.293 HD
ENDBRANCH  15  18
ENDBRANCH   1  12
BRANCH   2  20
ATOM     20  O   UNL     1       3.875  -6.931  11.875  1.00  0.00    -0.502 OA
ATOM     21  H   UNL     1       3.314  -7.434  11.197  1.00  0.00     0.293 HD
ENDBRANCH   2  20
BRANCH   6  22
ATOM     22  O   UNL     1       4.759 -11.752  13.960  1.00  0.00    -0.507 OA
ATOM     23  H   UNL     1       4.230 -12.610  14.006  1.00  0.00     0.293 HD
ENDBRANCH   6  22
BRANCH   8  24
ATOM     24  O   UNL     1       5.114 -10.605  18.609  1.00  0.00    -0.508 OA
ATOM     25  H   UNL     1       4.415 -10.412  19.317  1.00  0.00     0.293 HD
ENDBRANCH   8  24
TORSDOF 5
ENDMDL
