MODEL 1
REMARK VINA RESULT:    -4.090      0.000      0.000
REMARK INTER + INTRA:          -6.910
REMARK INTER:                  -5.644
REMARK INTRA:                  -1.266
REMARK UNBOUND:                -1.266
REMARK SMILES C[C@@H]1OC(=O)[C@H](C)[C@@H]1C[C@H](O)[C@](C)(O)[C@@H]1CC[C@@]2(O)C3=CC(=O)[C@@H]4C[C@@H](O)[C@@H](O)C[C@]4(C)[C@@H]3CC[C@@]12C
REMARK SMILES IDX 12 1 13 2 10 3 9 4 8 5 7 6 6 7 4 8 2 9 3 10 5 11 1 12 11 13
REMARK SMILES IDX 15 15 16 16 36 17 17 18 18 19 35 20 37 21 20 22 34 23 33 24
REMARK SMILES IDX 21 25 31 26 22 27 24 28 30 29 32 30 23 31 25 32 28 33 26 34
REMARK SMILES IDX 19 35 29 37 27 39 14 41
REMARK H PARENT 11 14 19 36 29 38 27 40 14 42
REMARK Flexibility Score: inf
ROOT
ATOM      1  C   UNL     1     202.152 192.983 196.082  1.00  0.00     0.091 C 
ATOM      2  C   UNL     1     202.833 192.600 194.735  1.00  0.00     0.045 C 
ENDROOT
BRANCH   1   3
ATOM      3  C   UNL     1     201.132 191.848 196.541  1.00  0.00     0.146 C 
BRANCH   3   4
ATOM      4  C   UNL     1     199.724 191.911 195.873  1.00  0.00     0.043 C 
BRANCH   4   5
ATOM      5  C   UNL     1     198.544 191.529 196.810  1.00  0.00     0.046 C 
ATOM      6  C   UNL     1     196.924 192.557 195.056  1.00  0.00     0.020 C 
ATOM      7  C   UNL     1     197.199 192.247 196.533  1.00  0.00     0.103 C 
ATOM      8  C   UNL     1     196.239 191.243 197.053  1.00  0.00     0.309 C 
ATOM      9  C   UNL     1     198.190 190.010 196.960  1.00  0.00     0.177 C 
ATOM     10  O   UNL     1     196.822 190.022 197.332  1.00  0.00    -0.462 OA
ATOM     11  O   UNL     1     195.025 191.473 197.276  1.00  0.00    -0.252 OA
ATOM     12  C   UNL     1     198.317 189.176 195.675  1.00  0.00     0.053 C 
ENDBRANCH   4   5
ENDBRANCH   3   4
BRANCH   3  13
ATOM     13  O   UNL     1     200.968 191.830 197.938  1.00  0.00    -0.390 OA
ATOM     14  H   UNL     1     201.689 192.390 198.335  1.00  0.00     0.211 HD
ENDBRANCH   3  13
ENDBRANCH   1   3
BRANCH   1  15
ATOM     15  C   UNL     1     201.522 194.442 195.960  1.00  0.00     0.032 C 
ATOM     16  C   UNL     1     202.044 195.265 194.783  1.00  0.00     0.010 C 
ATOM     17  C   UNL     1     201.398 195.461 197.159  1.00  0.00     0.006 C 
ATOM     18  C   UNL     1     201.374 196.619 194.925  1.00  0.00     0.041 C 
ATOM     19  C   UNL     1     201.117 196.871 196.432  1.00  0.00     0.092 C 
ATOM     20  C   UNL     1     200.212 195.116 198.125  1.00  0.00     0.011 C 
ATOM     21  C   UNL     1     202.671 195.456 198.033  1.00  0.00     0.015 C 
ATOM     22  C   UNL     1     199.648 197.304 196.648  1.00  0.00    -0.031 C 
ATOM     23  C   UNL     1     198.832 195.045 197.449  1.00  0.00     0.009 C 
ATOM     24  C   UNL     1     198.554 196.236 196.468  1.00  0.00     0.025 C 
ATOM     25  C   UNL     1     199.353 198.468 197.243  1.00  0.00     0.050 C 
ATOM     26  C   UNL     1     197.029 196.775 196.418  1.00  0.00    -0.013 C 
ATOM     27  C   UNL     1     197.979 198.920 197.337  1.00  0.00     0.159 C 
ATOM     28  C   UNL     1     196.990 198.341 196.361  1.00  0.00     0.070 C 
ATOM     29  C   UNL     1     196.175 196.282 197.641  1.00  0.00     0.042 C 
ATOM     30  C   UNL     1     196.393 196.230 195.107  1.00  0.00     0.013 C 
ATOM     31  O   UNL     1     197.689 199.865 198.123  1.00  0.00    -0.295 OA
ATOM     32  C   UNL     1     195.577 198.943 196.535  1.00  0.00     0.047 C 
ATOM     33  C   UNL     1     194.773 196.900 197.780  1.00  0.00     0.143 C 
ATOM     34  C   UNL     1     194.878 198.432 197.794  1.00  0.00     0.143 C 
BRANCH  19  35
ATOM     35  O   UNL     1     201.959 197.960 196.775  1.00  0.00    -0.385 OA
ATOM     36  H   UNL     1     202.557 198.256 196.053  1.00  0.00     0.211 HD
ENDBRANCH  19  35
BRANCH  33  37
ATOM     37  O   UNL     1     193.918 196.393 196.774  1.00  0.00    -0.390 OA
ATOM     38  H   UNL     1     193.620 197.139 196.187  1.00  0.00     0.211 HD
ENDBRANCH  33  37
BRANCH  34  39
ATOM     39  O   UNL     1     193.603 199.006 197.897  1.00  0.00    -0.390 OA
ATOM     40  H   UNL     1     193.602 199.571 198.714  1.00  0.00     0.211 HD
ENDBRANCH  34  39
ENDBRANCH   1  15
BRANCH   1  41
ATOM     41  O   UNL     1     203.175 193.075 197.062  1.00  0.00    -0.387 OA
ATOM     42  H   UNL     1     203.268 194.020 197.357  1.00  0.00     0.211 HD
ENDBRANCH   1  41
TORSDOF 9
ENDMDL
MODEL 2
REMARK VINA RESULT:    -3.935      3.366      6.386
REMARK INTER + INTRA:          -6.696
REMARK INTER:                  -5.500
REMARK INTRA:                  -1.197
REMARK UNBOUND:                -1.266
REMARK SMILES C[C@@H]1OC(=O)[C@H](C)[C@@H]1C[C@H](O)[C@](C)(O)[C@@H]1CC[C@@]2(O)C3=CC(=O)[C@@H]4C[C@@H](O)[C@@H](O)C[C@]4(C)[C@@H]3CC[C@@]12C
REMARK SMILES IDX 12 1 13 2 10 3 9 4 8 5 7 6 6 7 4 8 2 9 3 10 5 11 1 12 11 13
REMARK SMILES IDX 15 15 16 16 36 17 17 18 18 19 35 20 37 21 20 22 34 23 33 24
REMARK SMILES IDX 21 25 31 26 22 27 24 28 30 29 32 30 23 31 25 32 28 33 26 34
REMARK SMILES IDX 19 35 29 37 27 39 14 41
REMARK H PARENT 11 14 19 36 29 38 27 40 14 42
REMARK Flexibility Score: inf
ROOT
ATOM      1  C   UNL     1     200.304 193.601 197.253  1.00  0.00     0.091 C 
ATOM      2  C   UNL     1     199.431 192.316 197.354  1.00  0.00     0.045 C 
ENDROOT
BRANCH   1   3
ATOM      3  C   UNL     1     199.491 194.876 197.756  1.00  0.00     0.146 C 
BRANCH   3   4
ATOM      4  C   UNL     1     198.430 195.425 196.752  1.00  0.00     0.043 C 
BRANCH   4   5
ATOM      5  C   UNL     1     198.024 196.908 196.984  1.00  0.00     0.046 C 
ATOM      6  C   UNL     1     197.051 196.933 194.573  1.00  0.00     0.020 C 
ATOM      7  C   UNL     1     197.705 197.730 195.710  1.00  0.00     0.103 C 
ATOM      8  C   UNL     1     196.766 198.738 196.261  1.00  0.00     0.309 C 
ATOM      9  C   UNL     1     196.849 197.198 197.980  1.00  0.00     0.177 C 
ATOM     10  O   UNL     1     196.343 198.448 197.544  1.00  0.00    -0.462 OA
ATOM     11  O   UNL     1     196.419 199.784 195.661  1.00  0.00    -0.252 OA
ATOM     12  C   UNL     1     195.691 196.187 197.943  1.00  0.00     0.053 C 
ENDBRANCH   4   5
ENDBRANCH   3   4
BRANCH   3  13
ATOM     13  O   UNL     1     200.349 195.928 198.124  1.00  0.00    -0.390 OA
ATOM     14  H   UNL     1     201.088 195.541 198.667  1.00  0.00     0.211 HD
ENDBRANCH   3  13
ENDBRANCH   1   3
BRANCH   1  15
ATOM     15  C   UNL     1     200.899 193.722 195.779  1.00  0.00     0.032 C 
ATOM     16  C   UNL     1     201.087 192.389 195.057  1.00  0.00     0.010 C 
ATOM     17  C   UNL     1     202.163 194.586 195.398  1.00  0.00     0.006 C 
ATOM     18  C   UNL     1     201.732 192.750 193.732  1.00  0.00     0.041 C 
ATOM     19  C   UNL     1     202.579 194.030 193.944  1.00  0.00     0.092 C 
ATOM     20  C   UNL     1     201.844 196.118 195.309  1.00  0.00     0.011 C 
ATOM     21  C   UNL     1     203.278 194.446 196.458  1.00  0.00     0.015 C 
ATOM     22  C   UNL     1     202.236 195.071 192.853  1.00  0.00    -0.031 C 
ATOM     23  C   UNL     1     200.731 196.487 194.315  1.00  0.00     0.009 C 
ATOM     24  C   UNL     1     200.863 195.764 192.930  1.00  0.00     0.025 C 
ATOM     25  C   UNL     1     203.188 195.564 192.048  1.00  0.00     0.050 C 
ATOM     26  C   UNL     1     200.421 196.624 191.633  1.00  0.00    -0.013 C 
ATOM     27  C   UNL     1     202.841 196.449 190.953  1.00  0.00     0.159 C 
ATOM     28  C   UNL     1     201.424 196.406 190.449  1.00  0.00     0.070 C 
ATOM     29  C   UNL     1     200.310 198.161 191.938  1.00  0.00     0.042 C 
ATOM     30  C   UNL     1     199.027 196.096 191.186  1.00  0.00     0.013 C 
ATOM     31  O   UNL     1     203.750 197.113 190.380  1.00  0.00    -0.295 OA
ATOM     32  C   UNL     1     201.202 197.358 189.251  1.00  0.00     0.047 C 
ATOM     33  C   UNL     1     200.085 199.077 190.723  1.00  0.00     0.143 C 
ATOM     34  C   UNL     1     201.176 198.826 189.672  1.00  0.00     0.143 C 
BRANCH  19  35
ATOM     35  O   UNL     1     203.924 193.619 193.763  1.00  0.00    -0.385 OA
ATOM     36  H   UNL     1     204.574 194.092 194.329  1.00  0.00     0.211 HD
ENDBRANCH  19  35
BRANCH  33  37
ATOM     37  O   UNL     1     198.769 198.916 190.232  1.00  0.00    -0.390 OA
ATOM     38  H   UNL     1     198.423 199.795 189.922  1.00  0.00     0.211 HD
ENDBRANCH  33  37
BRANCH  34  39
ATOM     39  O   UNL     1     200.967 199.641 188.550  1.00  0.00    -0.390 OA
ATOM     40  H   UNL     1     201.820 199.663 188.042  1.00  0.00     0.211 HD
ENDBRANCH  34  39
ENDBRANCH   1  15
BRANCH   1  41
ATOM     41  O   UNL     1     201.418 193.425 198.116  1.00  0.00    -0.387 OA
ATOM     42  H   UNL     1     201.213 192.717 198.782  1.00  0.00     0.211 HD
ENDBRANCH   1  41
TORSDOF 9
ENDMDL
MODEL 3
REMARK VINA RESULT:    -3.898      1.980      5.867
REMARK INTER + INTRA:          -6.645
REMARK INTER:                  -5.108
REMARK INTRA:                  -1.537
REMARK UNBOUND:                -1.266
REMARK SMILES C[C@@H]1OC(=O)[C@H](C)[C@@H]1C[C@H](O)[C@](C)(O)[C@@H]1CC[C@@]2(O)C3=CC(=O)[C@@H]4C[C@@H](O)[C@@H](O)C[C@]4(C)[C@@H]3CC[C@@]12C
REMARK SMILES IDX 12 1 13 2 10 3 9 4 8 5 7 6 6 7 4 8 2 9 3 10 5 11 1 12 11 13
REMARK SMILES IDX 15 15 16 16 36 17 17 18 18 19 35 20 37 21 20 22 34 23 33 24
REMARK SMILES IDX 21 25 31 26 22 27 24 28 30 29 32 30 23 31 25 32 28 33 26 34
REMARK SMILES IDX 19 35 29 37 27 39 14 41
REMARK H PARENT 11 14 19 36 29 38 27 40 14 42
REMARK Flexibility Score: inf
ROOT
ATOM      1  C   UNL     1     201.742 194.735 195.653  1.00  0.00     0.091 C 
ATOM      2  C   UNL     1     202.984 194.713 196.591  1.00  0.00     0.045 C 
ENDROOT
BRANCH   1   3
ATOM      3  C   UNL     1     201.322 196.233 195.307  1.00  0.00     0.146 C 
BRANCH   3   4
ATOM      4  C   UNL     1     199.786 196.503 195.283  1.00  0.00     0.043 C 
BRANCH   4   5
ATOM      5  C   UNL     1     199.336 197.758 196.083  1.00  0.00     0.046 C 
ATOM      6  C   UNL     1     196.977 197.488 195.024  1.00  0.00     0.020 C 
ATOM      7  C   UNL     1     198.034 198.443 195.595  1.00  0.00     0.103 C 
ATOM      8  C   UNL     1     197.562 199.066 196.855  1.00  0.00     0.309 C 
ATOM      9  C   UNL     1     199.184 197.620 197.637  1.00  0.00     0.177 C 
ATOM     10  O   UNL     1     198.250 198.632 197.972  1.00  0.00    -0.462 OA
ATOM     11  O   UNL     1     196.665 199.943 196.918  1.00  0.00    -0.252 OA
ATOM     12  C   UNL     1     198.614 196.278 198.125  1.00  0.00     0.053 C 
ENDBRANCH   4   5
ENDBRANCH   3   4
BRANCH   3  13
ATOM     13  O   UNL     1     201.874 196.659 194.085  1.00  0.00    -0.390 OA
ATOM     14  H   UNL     1     201.843 195.889 193.454  1.00  0.00     0.211 HD
ENDBRANCH   3  13
ENDBRANCH   1   3
BRANCH   1  15
ATOM     15  C   UNL     1     200.583 193.843 196.288  1.00  0.00     0.032 C 
ATOM     16  C   UNL     1     200.816 193.439 197.743  1.00  0.00     0.010 C 
ATOM     17  C   UNL     1     199.958 192.570 195.597  1.00  0.00     0.006 C 
ATOM     18  C   UNL     1     199.643 192.542 198.093  1.00  0.00     0.041 C 
ATOM     19  C   UNL     1     199.186 191.825 196.798  1.00  0.00     0.092 C 
ATOM     20  C   UNL     1     198.943 192.937 194.459  1.00  0.00     0.011 C 
ATOM     21  C   UNL     1     201.048 191.704 194.928  1.00  0.00     0.015 C 
ATOM     22  C   UNL     1     197.656 191.975 196.628  1.00  0.00    -0.031 C 
ATOM     23  C   UNL     1     197.771 193.827 194.906  1.00  0.00     0.009 C 
ATOM     24  C   UNL     1     197.110 193.365 196.251  1.00  0.00     0.025 C 
ATOM     25  C   UNL     1     196.865 190.898 196.526  1.00  0.00     0.050 C 
ATOM     26  C   UNL     1     195.508 193.559 196.360  1.00  0.00    -0.013 C 
ATOM     27  C   UNL     1     195.423 191.044 196.485  1.00  0.00     0.159 C 
ATOM     28  C   UNL     1     194.838 192.315 197.039  1.00  0.00     0.070 C 
ATOM     29  C   UNL     1     194.834 193.808 194.963  1.00  0.00     0.042 C 
ATOM     30  C   UNL     1     195.257 194.796 197.268  1.00  0.00     0.013 C 
ATOM     31  O   UNL     1     194.711 190.066 196.122  1.00  0.00    -0.295 OA
ATOM     32  C   UNL     1     193.294 192.321 196.982  1.00  0.00     0.047 C 
ATOM     33  C   UNL     1     193.296 193.810 194.944  1.00  0.00     0.143 C 
ATOM     34  C   UNL     1     192.766 192.508 195.560  1.00  0.00     0.143 C 
BRANCH  19  35
ATOM     35  O   UNL     1     199.479 190.453 197.010  1.00  0.00    -0.385 OA
ATOM     36  H   UNL     1     199.115 190.083 197.845  1.00  0.00     0.211 HD
ENDBRANCH  19  35
BRANCH  33  37
ATOM     37  O   UNL     1     192.806 194.981 195.568  1.00  0.00    -0.390 OA
ATOM     38  H   UNL     1     192.325 195.536 194.898  1.00  0.00     0.211 HD
ENDBRANCH  33  37
BRANCH  34  39
ATOM     39  O   UNL     1     191.363 192.510 195.569  1.00  0.00    -0.390 OA
ATOM     40  H   UNL     1     191.068 191.638 195.198  1.00  0.00     0.211 HD
ENDBRANCH  34  39
ENDBRANCH   1  15
BRANCH   1  41
ATOM     41  O   UNL     1     202.114 194.094 194.442  1.00  0.00    -0.387 OA
ATOM     42  H   UNL     1     201.859 193.134 194.483  1.00  0.00     0.211 HD
ENDBRANCH   1  41
TORSDOF 9
ENDMDL
MODEL 4
REMARK VINA RESULT:    -3.858      1.581      2.321
REMARK INTER + INTRA:          -6.591
REMARK INTER:                  -5.031
REMARK INTRA:                  -1.560
REMARK UNBOUND:                -1.266
REMARK SMILES C[C@@H]1OC(=O)[C@H](C)[C@@H]1C[C@H](O)[C@](C)(O)[C@@H]1CC[C@@]2(O)C3=CC(=O)[C@@H]4C[C@@H](O)[C@@H](O)C[C@]4(C)[C@@H]3CC[C@@]12C
REMARK SMILES IDX 12 1 13 2 10 3 9 4 8 5 7 6 6 7 4 8 2 9 3 10 5 11 1 12 11 13
REMARK SMILES IDX 15 15 16 16 36 17 17 18 18 19 35 20 37 21 20 22 34 23 33 24
REMARK SMILES IDX 21 25 31 26 22 27 24 28 30 29 32 30 23 31 25 32 28 33 26 34
REMARK SMILES IDX 19 35 29 37 27 39 14 41
REMARK H PARENT 11 14 19 36 29 38 27 40 14 42
REMARK Flexibility Score: inf
ROOT
ATOM      1  C   UNL     1     201.218 195.133 196.392  1.00  0.00     0.091 C 
ATOM      2  C   UNL     1     202.238 195.017 195.221  1.00  0.00     0.045 C 
ENDROOT
BRANCH   1   3
ATOM      3  C   UNL     1     200.754 193.689 196.881  1.00  0.00     0.146 C 
BRANCH   3   4
ATOM      4  C   UNL     1     199.852 192.907 195.877  1.00  0.00     0.043 C 
BRANCH   4   5
ATOM      5  C   UNL     1     198.507 192.400 196.472  1.00  0.00     0.046 C 
ATOM      6  C   UNL     1     197.325 193.260 194.322  1.00  0.00     0.020 C 
ATOM      7  C   UNL     1     197.221 192.975 195.826  1.00  0.00     0.103 C 
ATOM      8  C   UNL     1     196.264 191.874 196.094  1.00  0.00     0.309 C 
ATOM      9  C   UNL     1     198.282 190.852 196.559  1.00  0.00     0.177 C 
ATOM     10  O   UNL     1     196.871 190.719 196.549  1.00  0.00    -0.462 OA
ATOM     11  O   UNL     1     195.018 191.975 195.977  1.00  0.00    -0.252 OA
ATOM     12  C   UNL     1     198.836 190.040 195.376  1.00  0.00     0.053 C 
ENDBRANCH   4   5
ENDBRANCH   3   4
BRANCH   3  13
ATOM     13  O   UNL     1     200.100 193.746 198.125  1.00  0.00    -0.390 OA
ATOM     14  H   UNL     1     199.172 193.411 197.995  1.00  0.00     0.211 HD
ENDBRANCH   3  13
ENDBRANCH   1   3
BRANCH   1  15
ATOM     15  C   UNL     1     200.032 196.110 195.966  1.00  0.00     0.032 C 
ATOM     16  C   UNL     1     200.120 196.629 194.531  1.00  0.00     0.010 C 
ATOM     17  C   UNL     1     199.539 197.339 196.824  1.00  0.00     0.006 C 
ATOM     18  C   UNL     1     198.952 197.588 194.390  1.00  0.00     0.041 C 
ATOM     19  C   UNL     1     198.670 198.207 195.782  1.00  0.00     0.092 C 
ATOM     20  C   UNL     1     198.642 196.908 198.036  1.00  0.00     0.011 C 
ATOM     21  C   UNL     1     200.730 198.111 197.433  1.00  0.00     0.015 C 
ATOM     22  C   UNL     1     197.163 198.090 196.112  1.00  0.00    -0.031 C 
ATOM     23  C   UNL     1     197.394 196.096 197.655  1.00  0.00     0.009 C 
ATOM     24  C   UNL     1     196.608 196.690 196.435  1.00  0.00     0.025 C 
ATOM     25  C   UNL     1     196.432 199.178 196.390  1.00  0.00     0.050 C 
ATOM     26  C   UNL     1     194.996 196.556 196.493  1.00  0.00    -0.013 C 
ATOM     27  C   UNL     1     194.999 199.074 196.582  1.00  0.00     0.159 C 
ATOM     28  C   UNL     1     194.306 197.873 195.997  1.00  0.00     0.070 C 
ATOM     29  C   UNL     1     194.472 196.210 197.932  1.00  0.00     0.042 C 
ATOM     30  C   UNL     1     194.597 195.408 195.521  1.00  0.00     0.013 C 
ATOM     31  O   UNL     1     194.370 200.038 197.101  1.00  0.00    -0.295 OA
ATOM     32  C   UNL     1     192.778 197.910 196.228  1.00  0.00     0.047 C 
ATOM     33  C   UNL     1     192.946 196.253 198.125  1.00  0.00     0.143 C 
ATOM     34  C   UNL     1     192.403 197.619 197.681  1.00  0.00     0.143 C 
BRANCH  19  35
ATOM     35  O   UNL     1     198.993 199.582 195.650  1.00  0.00    -0.385 OA
ATOM     36  H   UNL     1     199.115 199.884 194.722  1.00  0.00     0.211 HD
ENDBRANCH  19  35
BRANCH  33  37
ATOM     37  O   UNL     1     192.344 195.155 197.468  1.00  0.00    -0.390 OA
ATOM     38  H   UNL     1     192.858 194.941 196.644  1.00  0.00     0.211 HD
ENDBRANCH  33  37
BRANCH  34  39
ATOM     39  O   UNL     1     191.009 197.661 197.830  1.00  0.00    -0.390 OA
ATOM     40  H   UNL     1     190.818 198.226 198.623  1.00  0.00     0.211 HD
ENDBRANCH  34  39
ENDBRANCH   1  15
BRANCH   1  41
ATOM     41  O   UNL     1     201.883 195.768 197.473  1.00  0.00    -0.387 OA
ATOM     42  H   UNL     1     202.298 195.079 198.057  1.00  0.00     0.211 HD
ENDBRANCH   1  41
TORSDOF 9
ENDMDL
MODEL 5
REMARK VINA RESULT:    -3.836      1.988      2.283
REMARK INTER + INTRA:          -6.560
REMARK INTER:                  -4.922
REMARK INTRA:                  -1.638
REMARK UNBOUND:                -1.266
REMARK SMILES C[C@@H]1OC(=O)[C@H](C)[C@@H]1C[C@H](O)[C@](C)(O)[C@@H]1CC[C@@]2(O)C3=CC(=O)[C@@H]4C[C@@H](O)[C@@H](O)C[C@]4(C)[C@@H]3CC[C@@]12C
REMARK SMILES IDX 12 1 13 2 10 3 9 4 8 5 7 6 6 7 4 8 2 9 3 10 5 11 1 12 11 13
REMARK SMILES IDX 15 15 16 16 36 17 17 18 18 19 35 20 37 21 20 22 34 23 33 24
REMARK SMILES IDX 21 25 31 26 22 27 24 28 30 29 32 30 23 31 25 32 28 33 26 34
REMARK SMILES IDX 19 35 29 37 27 39 14 41
REMARK H PARENT 11 14 19 36 29 38 27 40 14 42
REMARK Flexibility Score: inf
ROOT
ATOM      1  C   UNL     1     202.420 192.892 195.785  1.00  0.00     0.091 C 
ATOM      2  C   UNL     1     203.897 193.034 195.314  1.00  0.00     0.045 C 
ENDROOT
BRANCH   1   3
ATOM      3  C   UNL     1     201.674 191.747 194.964  1.00  0.00     0.146 C 
BRANCH   3   4
ATOM      4  C   UNL     1     201.042 192.203 193.614  1.00  0.00     0.043 C 
BRANCH   4   5
ATOM      5  C   UNL     1     199.520 191.912 193.478  1.00  0.00     0.046 C 
ATOM      6  C   UNL     1     199.194 194.383 192.740  1.00  0.00     0.020 C 
ATOM      7  C   UNL     1     198.593 193.153 193.433  1.00  0.00     0.103 C 
ATOM      8  C   UNL     1     197.448 192.613 192.660  1.00  0.00     0.309 C 
ATOM      9  C   UNL     1     199.053 190.991 192.299  1.00  0.00     0.177 C 
ATOM     10  O   UNL     1     197.709 191.386 192.080  1.00  0.00    -0.462 OA
ATOM     11  O   UNL     1     196.327 193.172 192.572  1.00  0.00    -0.252 OA
ATOM     12  C   UNL     1     199.816 191.179 190.977  1.00  0.00     0.053 C 
ENDBRANCH   4   5
ENDBRANCH   3   4
BRANCH   3  13
ATOM     13  O   UNL     1     200.682 191.114 195.736  1.00  0.00    -0.390 OA
ATOM     14  H   UNL     1     201.118 190.377 196.243  1.00  0.00     0.211 HD
ENDBRANCH   3  13
ENDBRANCH   1   3
BRANCH   1  15
ATOM     15  C   UNL     1     201.710 194.318 195.742  1.00  0.00     0.032 C 
ATOM     16  C   UNL     1     202.226 195.253 194.649  1.00  0.00     0.010 C 
ATOM     17  C   UNL     1     201.482 195.238 197.004  1.00  0.00     0.006 C 
ATOM     18  C   UNL     1     201.474 196.554 194.859  1.00  0.00     0.041 C 
ATOM     19  C   UNL     1     201.147 196.680 196.368  1.00  0.00     0.092 C 
ATOM     20  C   UNL     1     200.283 194.758 197.893  1.00  0.00     0.011 C 
ATOM     21  C   UNL     1     202.720 195.239 197.927  1.00  0.00     0.015 C 
ATOM     22  C   UNL     1     199.648 197.013 196.553  1.00  0.00    -0.031 C 
ATOM     23  C   UNL     1     198.936 194.660 197.158  1.00  0.00     0.009 C 
ATOM     24  C   UNL     1     198.625 195.902 196.253  1.00  0.00     0.025 C 
ATOM     25  C   UNL     1     199.264 198.112 197.218  1.00  0.00     0.050 C 
ATOM     26  C   UNL     1     197.075 196.358 196.178  1.00  0.00    -0.013 C 
ATOM     27  C   UNL     1     197.863 198.479 197.286  1.00  0.00     0.159 C 
ATOM     28  C   UNL     1     196.947 197.919 196.232  1.00  0.00     0.070 C 
ATOM     29  C   UNL     1     196.206 195.730 197.327  1.00  0.00     0.042 C 
ATOM     30  C   UNL     1     196.520 195.877 194.806  1.00  0.00     0.013 C 
ATOM     31  O   UNL     1     197.489 199.346 198.125  1.00  0.00    -0.295 OA
ATOM     32  C   UNL     1     195.495 198.428 196.389  1.00  0.00     0.047 C 
ATOM     33  C   UNL     1     194.766 196.257 197.451  1.00  0.00     0.143 C 
ATOM     34  C   UNL     1     194.781 197.788 197.579  1.00  0.00     0.143 C 
BRANCH  19  35
ATOM     35  O   UNL     1     201.910 197.786 196.822  1.00  0.00    -0.385 OA
ATOM     36  H   UNL     1     201.787 198.003 197.773  1.00  0.00     0.211 HD
ENDBRANCH  19  35
BRANCH  33  37
ATOM     37  O   UNL     1     193.981 195.779 196.377  1.00  0.00    -0.390 OA
ATOM     38  H   UNL     1     193.956 194.785 196.404  1.00  0.00     0.211 HD
ENDBRANCH  33  37
BRANCH  34  39
ATOM     39  O   UNL     1     193.471 198.281 197.670  1.00  0.00    -0.390 OA
ATOM     40  H   UNL     1     192.977 197.943 196.878  1.00  0.00     0.211 HD
ENDBRANCH  34  39
ENDBRANCH   1  15
BRANCH   1  41
ATOM     41  O   UNL     1     202.445 192.504 197.151  1.00  0.00    -0.387 OA
ATOM     42  H   UNL     1     201.818 193.076 197.669  1.00  0.00     0.211 HD
ENDBRANCH   1  41
TORSDOF 9
ENDMDL
MODEL 6
REMARK VINA RESULT:    -3.715      2.013      5.761
REMARK INTER + INTRA:          -6.393
REMARK INTER:                  -4.864
REMARK INTRA:                  -1.529
REMARK UNBOUND:                -1.266
REMARK SMILES C[C@@H]1OC(=O)[C@H](C)[C@@H]1C[C@H](O)[C@](C)(O)[C@@H]1CC[C@@]2(O)C3=CC(=O)[C@@H]4C[C@@H](O)[C@@H](O)C[C@]4(C)[C@@H]3CC[C@@]12C
REMARK SMILES IDX 12 1 13 2 10 3 9 4 8 5 7 6 6 7 4 8 2 9 3 10 5 11 1 12 11 13
REMARK SMILES IDX 15 15 16 16 36 17 17 18 18 19 35 20 37 21 20 22 34 23 33 24
REMARK SMILES IDX 21 25 31 26 22 27 24 28 30 29 32 30 23 31 25 32 28 33 26 34
REMARK SMILES IDX 19 35 29 37 27 39 14 41
REMARK H PARENT 11 14 19 36 29 38 27 40 14 42
REMARK Flexibility Score: inf
ROOT
ATOM      1  C   UNL     1     196.614 189.326 196.223  1.00  0.00     0.091 C 
ATOM      2  C   UNL     1     196.176 188.292 195.144  1.00  0.00     0.045 C 
ENDROOT
BRANCH   1   3
ATOM      3  C   UNL     1     195.354 190.128 196.781  1.00  0.00     0.146 C 
BRANCH   3   4
ATOM      4  C   UNL     1     194.953 191.390 195.957  1.00  0.00     0.043 C 
BRANCH   4   5
ATOM      5  C   UNL     1     194.935 192.716 196.770  1.00  0.00     0.046 C 
ATOM      6  C   UNL     1     195.546 193.974 194.579  1.00  0.00     0.020 C 
ATOM      7  C   UNL     1     195.642 193.926 196.109  1.00  0.00     0.103 C 
ATOM      8  C   UNL     1     194.895 195.050 196.724  1.00  0.00     0.309 C 
ATOM      9  C   UNL     1     193.547 193.253 197.262  1.00  0.00     0.177 C 
ATOM     10  O   UNL     1     193.761 194.647 197.404  1.00  0.00    -0.462 OA
ATOM     11  O   UNL     1     195.265 196.250 196.689  1.00  0.00    -0.252 OA
ATOM     12  C   UNL     1     192.380 193.057 196.281  1.00  0.00     0.053 C 
ENDBRANCH   4   5
ENDBRANCH   3   4
BRANCH   3  13
ATOM     13  O   UNL     1     195.530 190.503 198.125  1.00  0.00    -0.390 OA
ATOM     14  H   UNL     1     194.629 190.556 198.545  1.00  0.00     0.211 HD
ENDBRANCH   3  13
ENDBRANCH   1   3
BRANCH   1  15
ATOM     15  C   UNL     1     197.784 190.238 195.638  1.00  0.00     0.032 C 
ATOM     16  C   UNL     1     197.950 190.164 194.121  1.00  0.00     0.010 C 
ATOM     17  C   UNL     1     199.251 190.284 196.216  1.00  0.00     0.006 C 
ATOM     18  C   UNL     1     199.156 191.034 193.816  1.00  0.00     0.041 C 
ATOM     19  C   UNL     1     200.101 190.988 195.043  1.00  0.00     0.092 C 
ATOM     20  C   UNL     1     199.356 191.132 197.531  1.00  0.00     0.011 C 
ATOM     21  C   UNL     1     199.753 188.870 196.583  1.00  0.00     0.015 C 
ATOM     22  C   UNL     1     200.495 192.426 195.454  1.00  0.00    -0.031 C 
ATOM     23  C   UNL     1     198.879 192.587 197.397  1.00  0.00     0.009 C 
ATOM     24  C   UNL     1     199.414 193.305 196.109  1.00  0.00     0.025 C 
ATOM     25  C   UNL     1     201.781 192.799 195.509  1.00  0.00     0.050 C 
ATOM     26  C   UNL     1     199.766 194.877 196.264  1.00  0.00    -0.013 C 
ATOM     27  C   UNL     1     202.138 194.178 195.781  1.00  0.00     0.159 C 
ATOM     28  C   UNL     1     201.096 195.229 195.513  1.00  0.00     0.070 C 
ATOM     29  C   UNL     1     199.889 195.321 197.766  1.00  0.00     0.042 C 
ATOM     30  C   UNL     1     198.609 195.674 195.596  1.00  0.00     0.013 C 
ATOM     31  O   UNL     1     203.328 194.460 196.095  1.00  0.00    -0.295 OA
ATOM     32  C   UNL     1     201.620 196.656 195.795  1.00  0.00     0.047 C 
ATOM     33  C   UNL     1     200.410 196.748 198.008  1.00  0.00     0.143 C 
ATOM     34  C   UNL     1     201.754 196.941 197.290  1.00  0.00     0.143 C 
BRANCH  19  35
ATOM     35  O   UNL     1     201.266 190.318 194.589  1.00  0.00    -0.385 OA
ATOM     36  H   UNL     1     201.092 189.562 193.986  1.00  0.00     0.211 HD
ENDBRANCH  19  35
BRANCH  33  37
ATOM     37  O   UNL     1     199.424 197.693 197.643  1.00  0.00    -0.390 OA
ATOM     38  H   UNL     1     198.651 197.619 198.264  1.00  0.00     0.211 HD
ENDBRANCH  33  37
BRANCH  34  39
ATOM     39  O   UNL     1     202.227 198.247 197.486  1.00  0.00    -0.390 OA
ATOM     40  H   UNL     1     202.078 198.471 198.441  1.00  0.00     0.211 HD
ENDBRANCH  34  39
ENDBRANCH   1  15
BRANCH   1  41
ATOM     41  O   UNL     1     197.182 188.599 197.301  1.00  0.00    -0.387 OA
ATOM     42  H   UNL     1     197.801 187.908 196.945  1.00  0.00     0.211 HD
ENDBRANCH   1  41
TORSDOF 9
ENDMDL
MODEL 7
REMARK VINA RESULT:    -3.636      2.581      8.110
REMARK INTER + INTRA:          -6.284
REMARK INTER:                  -4.674
REMARK INTRA:                  -1.611
REMARK UNBOUND:                -1.266
REMARK SMILES C[C@@H]1OC(=O)[C@H](C)[C@@H]1C[C@H](O)[C@](C)(O)[C@@H]1CC[C@@]2(O)C3=CC(=O)[C@@H]4C[C@@H](O)[C@@H](O)C[C@]4(C)[C@@H]3CC[C@@]12C
REMARK SMILES IDX 12 1 13 2 10 3 9 4 8 5 7 6 6 7 4 8 2 9 3 10 5 11 1 12 11 13
REMARK SMILES IDX 15 15 16 16 36 17 17 18 18 19 35 20 37 21 20 22 34 23 33 24
REMARK SMILES IDX 21 25 31 26 22 27 24 28 30 29 32 30 23 31 25 32 28 33 26 34
REMARK SMILES IDX 19 35 29 37 27 39 14 41
REMARK H PARENT 11 14 19 36 29 38 27 40 14 42
REMARK Flexibility Score: inf
ROOT
ATOM      1  C   UNL     1     191.873 195.948 196.273  1.00  0.00     0.091 C 
ATOM      2  C   UNL     1     190.853 195.136 195.421  1.00  0.00     0.045 C 
ENDROOT
BRANCH   1   3
ATOM      3  C   UNL     1     191.565 197.509 196.183  1.00  0.00     0.146 C 
BRANCH   3   4
ATOM      4  C   UNL     1     192.739 198.442 196.612  1.00  0.00     0.043 C 
BRANCH   4   5
ATOM      5  C   UNL     1     192.894 199.728 195.752  1.00  0.00     0.046 C 
ATOM      6  C   UNL     1     194.983 200.333 197.175  1.00  0.00     0.020 C 
ATOM      7  C   UNL     1     193.794 200.839 196.349  1.00  0.00     0.103 C 
ATOM      8  C   UNL     1     194.255 201.514 195.111  1.00  0.00     0.309 C 
ATOM      9  C   UNL     1     193.356 199.563 194.264  1.00  0.00     0.177 C 
ATOM     10  O   UNL     1     193.955 200.811 193.960  1.00  0.00    -0.462 OA
ATOM     11  O   UNL     1     194.816 202.637 195.084  1.00  0.00    -0.252 OA
ATOM     12  C   UNL     1     194.408 198.468 194.020  1.00  0.00     0.053 C 
ENDBRANCH   4   5
ENDBRANCH   3   4
BRANCH   3  13
ATOM     13  O   UNL     1     190.420 197.857 196.921  1.00  0.00    -0.390 OA
ATOM     14  H   UNL     1     189.841 197.050 196.981  1.00  0.00     0.211 HD
ENDBRANCH   3  13
ENDBRANCH   1   3
BRANCH   1  15
ATOM     15  C   UNL     1     193.356 195.531 195.862  1.00  0.00     0.032 C 
ATOM     16  C   UNL     1     193.481 194.914 194.471  1.00  0.00     0.010 C 
ATOM     17  C   UNL     1     194.331 194.695 196.779  1.00  0.00     0.006 C 
ATOM     18  C   UNL     1     194.944 194.528 194.344  1.00  0.00     0.041 C 
ATOM     19  C   UNL     1     195.476 194.196 195.761  1.00  0.00     0.092 C 
ATOM     20  C   UNL     1     194.974 195.557 197.921  1.00  0.00     0.011 C 
ATOM     21  C   UNL     1     193.585 193.543 197.488  1.00  0.00     0.015 C 
ATOM     22  C   UNL     1     196.795 194.963 196.018  1.00  0.00    -0.031 C 
ATOM     23  C   UNL     1     195.757 196.788 197.434  1.00  0.00     0.009 C 
ATOM     24  C   UNL     1     196.709 196.486 196.224  1.00  0.00     0.025 C 
ATOM     25  C   UNL     1     197.920 194.309 196.336  1.00  0.00     0.050 C 
ATOM     26  C   UNL     1     198.112 197.291 196.205  1.00  0.00    -0.013 C 
ATOM     27  C   UNL     1     199.176 195.022 196.460  1.00  0.00     0.159 C 
ATOM     28  C   UNL     1     199.290 196.353 195.768  1.00  0.00     0.070 C 
ATOM     29  C   UNL     1     198.456 197.937 197.594  1.00  0.00     0.042 C 
ATOM     30  C   UNL     1     197.978 198.421 195.143  1.00  0.00     0.013 C 
ATOM     31  O   UNL     1     200.159 194.455 197.015  1.00  0.00    -0.295 OA
ATOM     32  C   UNL     1     200.692 196.982 195.936  1.00  0.00     0.047 C 
ATOM     33  C   UNL     1     199.858 198.556 197.725  1.00  0.00     0.143 C 
ATOM     34  C   UNL     1     200.923 197.516 197.350  1.00  0.00     0.143 C 
BRANCH  19  35
ATOM     35  O   UNL     1     195.763 192.808 195.734  1.00  0.00    -0.385 OA
ATOM     36  H   UNL     1     196.219 192.502 194.918  1.00  0.00     0.211 HD
ENDBRANCH  19  35
BRANCH  33  37
ATOM     37  O   UNL     1     199.932 199.750 196.971  1.00  0.00    -0.390 OA
ATOM     38  H   UNL     1     200.810 199.793 196.507  1.00  0.00     0.211 HD
ENDBRANCH  33  37
BRANCH  34  39
ATOM     39  O   UNL     1     202.205 198.077 197.443  1.00  0.00    -0.390 OA
ATOM     40  H   UNL     1     202.558 198.154 196.518  1.00  0.00     0.211 HD
ENDBRANCH  34  39
ENDBRANCH   1  15
BRANCH   1  41
ATOM     41  O   UNL     1     191.709 195.547 197.625  1.00  0.00    -0.387 OA
ATOM     42  H   UNL     1     192.441 195.934 198.175  1.00  0.00     0.211 HD
ENDBRANCH   1  41
TORSDOF 9
ENDMDL
MODEL 8
REMARK VINA RESULT:    -3.636      2.286      6.139
REMARK INTER + INTRA:          -6.283
REMARK INTER:                  -4.751
REMARK INTRA:                  -1.533
REMARK UNBOUND:                -1.266
REMARK SMILES C[C@@H]1OC(=O)[C@H](C)[C@@H]1C[C@H](O)[C@](C)(O)[C@@H]1CC[C@@]2(O)C3=CC(=O)[C@@H]4C[C@@H](O)[C@@H](O)C[C@]4(C)[C@@H]3CC[C@@]12C
REMARK SMILES IDX 12 1 13 2 10 3 9 4 8 5 7 6 6 7 4 8 2 9 3 10 5 11 1 12 11 13
REMARK SMILES IDX 15 15 16 16 36 17 17 18 18 19 35 20 37 21 20 22 34 23 33 24
REMARK SMILES IDX 21 25 31 26 22 27 24 28 30 29 32 30 23 31 25 32 28 33 26 34
REMARK SMILES IDX 19 35 29 37 27 39 14 41
REMARK H PARENT 11 14 19 36 29 38 27 40 14 42
REMARK Flexibility Score: inf
ROOT
ATOM      1  C   UNL     1     192.972 193.466 194.595  1.00  0.00     0.091 C 
ATOM      2  C   UNL     1     191.635 192.955 195.208  1.00  0.00     0.045 C 
ENDROOT
BRANCH   1   3
ATOM      3  C   UNL     1     193.775 192.268 193.917  1.00  0.00     0.146 C 
BRANCH   3   4
ATOM      4  C   UNL     1     194.339 191.203 194.907  1.00  0.00     0.043 C 
BRANCH   4   5
ATOM      5  C   UNL     1     195.869 191.304 195.166  1.00  0.00     0.046 C 
ATOM      6  C   UNL     1     195.409 190.679 197.647  1.00  0.00     0.020 C 
ATOM      7  C   UNL     1     196.299 191.433 196.649  1.00  0.00     0.103 C 
ATOM      8  C   UNL     1     197.657 190.839 196.595  1.00  0.00     0.309 C 
ATOM      9  C   UNL     1     196.791 190.195 194.553  1.00  0.00     0.177 C 
ATOM     10  O   UNL     1     197.927 190.200 195.400  1.00  0.00    -0.462 OA
ATOM     11  O   UNL     1     198.511 190.941 197.509  1.00  0.00    -0.252 OA
ATOM     12  C   UNL     1     196.205 188.773 194.566  1.00  0.00     0.053 C 
ENDBRANCH   4   5
ENDBRANCH   3   4
BRANCH   3  13
ATOM     13  O   UNL     1     194.828 192.738 193.111  1.00  0.00    -0.390 OA
ATOM     14  H   UNL     1     195.615 192.893 193.701  1.00  0.00     0.211 HD
ENDBRANCH   3  13
ENDBRANCH   1   3
BRANCH   1  15
ATOM     15  C   UNL     1     193.785 194.278 195.699  1.00  0.00     0.032 C 
ATOM     16  C   UNL     1     193.357 193.999 197.139  1.00  0.00     0.010 C 
ATOM     17  C   UNL     1     194.060 195.831 195.640  1.00  0.00     0.006 C 
ATOM     18  C   UNL     1     194.200 194.934 197.986  1.00  0.00     0.041 C 
ATOM     19  C   UNL     1     194.510 196.196 197.143  1.00  0.00     0.092 C 
ATOM     20  C   UNL     1     195.205 196.205 194.636  1.00  0.00     0.011 C 
ATOM     21  C   UNL     1     192.810 196.603 195.162  1.00  0.00     0.015 C 
ATOM     22  C   UNL     1     196.027 196.498 197.191  1.00  0.00    -0.031 C 
ATOM     23  C   UNL     1     196.553 195.519 194.915  1.00  0.00     0.009 C 
ATOM     24  C   UNL     1     196.970 195.550 196.427  1.00  0.00     0.025 C 
ATOM     25  C   UNL     1     196.480 197.681 197.627  1.00  0.00     0.050 C 
ATOM     26  C   UNL     1     198.550 195.719 196.726  1.00  0.00    -0.013 C 
ATOM     27  C   UNL     1     197.903 197.914 197.779  1.00  0.00     0.159 C 
ATOM     28  C   UNL     1     198.792 196.709 197.917  1.00  0.00     0.070 C 
ATOM     29  C   UNL     1     199.352 196.218 195.471  1.00  0.00     0.042 C 
ATOM     30  C   UNL     1     199.090 194.321 197.145  1.00  0.00     0.013 C 
ATOM     31  O   UNL     1     198.326 199.095 197.926  1.00  0.00    -0.295 OA
ATOM     32  C   UNL     1     200.274 197.097 198.124  1.00  0.00     0.047 C 
ATOM     33  C   UNL     1     200.824 196.592 195.713  1.00  0.00     0.143 C 
ATOM     34  C   UNL     1     200.920 197.626 196.844  1.00  0.00     0.143 C 
BRANCH  19  35
ATOM     35  O   UNL     1     193.823 197.254 197.791  1.00  0.00    -0.385 OA
ATOM     36  H   UNL     1     194.273 197.601 198.593  1.00  0.00     0.211 HD
ENDBRANCH  19  35
BRANCH  33  37
ATOM     37  O   UNL     1     201.590 195.425 195.937  1.00  0.00    -0.390 OA
ATOM     38  H   UNL     1     201.039 194.624 195.728  1.00  0.00     0.211 HD
ENDBRANCH  33  37
BRANCH  34  39
ATOM     39  O   UNL     1     202.261 197.957 197.088  1.00  0.00    -0.390 OA
ATOM     40  H   UNL     1     202.715 197.128 197.392  1.00  0.00     0.211 HD
ENDBRANCH  34  39
ENDBRANCH   1  15
BRANCH   1  41
ATOM     41  O   UNL     1     192.642 194.401 193.579  1.00  0.00    -0.387 OA
ATOM     42  H   UNL     1     192.399 195.271 193.996  1.00  0.00     0.211 HD
ENDBRANCH   1  41
TORSDOF 9
ENDMDL
