MODEL 1
REMARK VINA RESULT:     0.000      0.000      0.000
REMARK INTER + INTRA:          -3.106
REMARK INTER:                   0.000
REMARK INTRA:                  -3.106
REMARK UNBOUND:                -3.106
REMARK SMILES O=C([O-])CCCCCCCCCCCCCCC(=O)[O-]
REMARK SMILES IDX 10 1 9 2 8 3 7 4 6 5 5 6 4 7 2 8 1 9 3 10 11 11 12 12 13 13
REMARK SMILES IDX 14 14 15 15 16 16 17 17 18 18 19 19 20 20
REMARK H PARENT
REMARK Flexibility Score: inf
ROOT
ATOM      1  C   UNL     1     187.070 182.413 189.150  1.00  0.00     0.000 C 
ENDROOT
BRANCH   1   2
ATOM      2  C   UNL     1     185.765 182.285 188.344  1.00  0.00     0.000 C 
BRANCH   2   3
ATOM      3  C   UNL     1     186.002 182.274 186.824  1.00  0.00     0.000 C 
BRANCH   3   4
ATOM      4  C   UNL     1     187.480 182.476 186.449  1.00  0.00     0.000 C 
BRANCH   4   5
ATOM      5  C   UNL     1     187.774 183.742 185.622  1.00  0.00     0.000 C 
BRANCH   5   6
ATOM      6  C   UNL     1     188.959 184.578 186.157  1.00  0.00     0.006 C 
BRANCH   6   7
ATOM      7  C   UNL     1     189.866 183.803 187.125  1.00  0.00     0.053 C 
BRANCH   7   8
ATOM      8  C   UNL     1     190.308 184.655 188.277  1.00  0.00     0.041 C 
ATOM      9  O   UNL     1     190.331 185.909 188.165  1.00  0.00    -0.550 OA
ATOM     10  O   UNL     1     190.719 184.062 189.464  1.00  0.00    -0.550 OA
ENDBRANCH   7   8
ENDBRANCH   6   7
ENDBRANCH   5   6
ENDBRANCH   4   5
ENDBRANCH   3   4
ENDBRANCH   2   3
ENDBRANCH   1   2
BRANCH   1  11
ATOM     11  C   UNL     1     187.186 183.685 190.016  1.00  0.00     0.000 C 
BRANCH  11  12
ATOM     12  C   UNL     1     186.184 184.801 189.674  1.00  0.00     0.000 C 
BRANCH  12  13
ATOM     13  C   UNL     1     186.795 185.904 188.798  1.00  0.00     0.000 C 
BRANCH  13  14
ATOM     14  C   UNL     1     185.876 186.240 187.617  1.00  0.00     0.000 C 
BRANCH  14  15
ATOM     15  C   UNL     1     184.444 185.749 187.878  1.00  0.00     0.000 C 
BRANCH  15  16
ATOM     16  C   UNL     1     183.758 185.197 186.615  1.00  0.00     0.006 C 
BRANCH  16  17
ATOM     17  C   UNL     1     184.513 185.501 185.310  1.00  0.00     0.053 C 
BRANCH  17  18
ATOM     18  C   UNL     1     184.329 184.435 184.274  1.00  0.00     0.041 C 
ATOM     19  O   UNL     1     185.081 184.392 183.265  1.00  0.00    -0.550 OA
ATOM     20  O   UNL     1     183.309 183.502 184.410  1.00  0.00    -0.550 OA
ENDBRANCH  17  18
ENDBRANCH  16  17
ENDBRANCH  15  16
ENDBRANCH  14  15
ENDBRANCH  13  14
ENDBRANCH  12  13
ENDBRANCH  11  12
ENDBRANCH   1  11
TORSDOF 15
ENDMDL
MODEL 2
REMARK VINA RESULT:     0.010      5.129      7.804
REMARK INTER + INTRA:          -3.088
REMARK INTER:                   0.000
REMARK INTRA:                  -3.088
REMARK UNBOUND:                -3.106
REMARK SMILES O=C([O-])CCCCCCCCCCCCCCC(=O)[O-]
REMARK SMILES IDX 10 1 9 2 8 3 7 4 6 5 5 6 4 7 2 8 1 9 3 10 11 11 12 12 13 13
REMARK SMILES IDX 14 14 15 15 16 16 17 17 18 18 19 19 20 20
REMARK H PARENT
REMARK Flexibility Score: inf
ROOT
ATOM      1  C   UNL     1     185.922 184.536 191.757  1.00  0.00     0.000 C 
ENDROOT
BRANCH   1   2
ATOM      2  C   UNL     1     185.604 183.849 190.418  1.00  0.00     0.000 C 
BRANCH   2   3
ATOM      3  C   UNL     1     184.158 183.332 190.343  1.00  0.00     0.000 C 
BRANCH   3   4
ATOM      4  C   UNL     1     184.077 181.801 190.219  1.00  0.00     0.000 C 
BRANCH   4   5
ATOM      5  C   UNL     1     183.434 181.083 191.421  1.00  0.00     0.000 C 
BRANCH   5   6
ATOM      6  C   UNL     1     182.297 181.886 192.095  1.00  0.00     0.006 C 
BRANCH   6   7
ATOM      7  C   UNL     1     182.083 181.521 193.572  1.00  0.00     0.053 C 
BRANCH   7   8
ATOM      8  C   UNL     1     181.921 180.043 193.762  1.00  0.00     0.041 C 
ATOM      9  O   UNL     1     182.763 179.396 194.439  1.00  0.00    -0.550 OA
ATOM     10  O   UNL     1     180.855 179.377 193.170  1.00  0.00    -0.550 OA
ENDBRANCH   7   8
ENDBRANCH   6   7
ENDBRANCH   5   6
ENDBRANCH   4   5
ENDBRANCH   3   4
ENDBRANCH   2   3
ENDBRANCH   1   2
BRANCH   1  11
ATOM     11  C   UNL     1     184.727 184.684 192.721  1.00  0.00     0.000 C 
BRANCH  11  12
ATOM     12  C   UNL     1     184.866 183.929 194.055  1.00  0.00     0.000 C 
BRANCH  12  13
ATOM     13  C   UNL     1     186.061 182.965 194.073  1.00  0.00     0.000 C 
BRANCH  13  14
ATOM     14  C   UNL     1     185.627 181.561 194.513  1.00  0.00     0.000 C 
BRANCH  14  15
ATOM     15  C   UNL     1     186.255 180.485 193.615  1.00  0.00     0.000 C 
BRANCH  15  16
ATOM     16  C   UNL     1     187.111 181.074 192.479  1.00  0.00     0.006 C 
BRANCH  16  17
ATOM     17  C   UNL     1     187.252 180.148 191.258  1.00  0.00     0.053 C 
BRANCH  17  18
ATOM     18  C   UNL     1     187.743 180.867 190.040  1.00  0.00     0.041 C 
ATOM     19  O   UNL     1     188.677 181.707 190.131  1.00  0.00    -0.550 OA
ATOM     20  O   UNL     1     187.153 180.628 188.805  1.00  0.00    -0.550 OA
ENDBRANCH  17  18
ENDBRANCH  16  17
ENDBRANCH  15  16
ENDBRANCH  14  15
ENDBRANCH  13  14
ENDBRANCH  12  13
ENDBRANCH  11  12
ENDBRANCH   1  11
TORSDOF 15
ENDMDL
MODEL 3
REMARK VINA RESULT:     0.010      4.718      6.364
REMARK INTER + INTRA:          -3.087
REMARK INTER:                   0.000
REMARK INTRA:                  -3.087
REMARK UNBOUND:                -3.106
REMARK SMILES O=C([O-])CCCCCCCCCCCCCCC(=O)[O-]
REMARK SMILES IDX 10 1 9 2 8 3 7 4 6 5 5 6 4 7 2 8 1 9 3 10 11 11 12 12 13 13
REMARK SMILES IDX 14 14 15 15 16 16 17 17 18 18 19 19 20 20
REMARK H PARENT
REMARK Flexibility Score: inf
ROOT
ATOM      1  C   UNL     1     179.991 187.954 189.227  1.00  0.00     0.000 C 
ENDROOT
BRANCH   1   2
ATOM      2  C   UNL     1     179.372 187.983 187.819  1.00  0.00     0.000 C 
BRANCH   2   3
ATOM      3  C   UNL     1     180.329 188.553 186.759  1.00  0.00     0.000 C 
BRANCH   3   4
ATOM      4  C   UNL     1     180.692 187.528 185.670  1.00  0.00     0.000 C 
BRANCH   4   5
ATOM      5  C   UNL     1     182.178 187.511 185.262  1.00  0.00     0.000 C 
BRANCH   5   6
ATOM      6  C   UNL     1     183.040 188.568 185.991  1.00  0.00     0.006 C 
BRANCH   6   7
ATOM      7  C   UNL     1     184.499 188.132 186.195  1.00  0.00     0.053 C 
BRANCH   7   8
ATOM      8  C   UNL     1     185.035 188.585 187.520  1.00  0.00     0.041 C 
ATOM      9  O   UNL     1     185.778 187.825 188.196  1.00  0.00    -0.550 OA
ATOM     10  O   UNL     1     184.694 189.836 188.019  1.00  0.00    -0.550 OA
ENDBRANCH   7   8
ENDBRANCH   6   7
ENDBRANCH   5   6
ENDBRANCH   4   5
ENDBRANCH   3   4
ENDBRANCH   2   3
ENDBRANCH   1   2
BRANCH   1  11
ATOM     11  C   UNL     1     181.424 188.515 189.327  1.00  0.00     0.000 C 
BRANCH  11  12
ATOM     12  C   UNL     1     182.465 187.549 189.919  1.00  0.00     0.000 C 
BRANCH  12  13
ATOM     13  C   UNL     1     182.144 186.075 189.628  1.00  0.00     0.000 C 
BRANCH  13  14
ATOM     14  C   UNL     1     182.913 185.579 188.398  1.00  0.00     0.000 C 
BRANCH  14  15
ATOM     15  C   UNL     1     182.050 184.626 187.558  1.00  0.00     0.000 C 
BRANCH  15  16
ATOM     16  C   UNL     1     180.653 184.389 188.161  1.00  0.00     0.006 C 
BRANCH  16  17
ATOM     17  C   UNL     1     179.521 184.347 187.120  1.00  0.00     0.053 C 
BRANCH  17  18
ATOM     18  C   UNL     1     179.874 183.530 185.915  1.00  0.00     0.041 C 
ATOM     19  O   UNL     1     179.991 184.078 184.787  1.00  0.00    -0.550 OA
ATOM     20  O   UNL     1     180.052 182.157 186.033  1.00  0.00    -0.550 OA
ENDBRANCH  17  18
ENDBRANCH  16  17
ENDBRANCH  15  16
ENDBRANCH  14  15
ENDBRANCH  13  14
ENDBRANCH  12  13
ENDBRANCH  11  12
ENDBRANCH   1  11
TORSDOF 15
ENDMDL
MODEL 4
REMARK VINA RESULT:     0.014      5.730      7.590
REMARK INTER + INTRA:          -3.080
REMARK INTER:                   0.000
REMARK INTRA:                  -3.080
REMARK UNBOUND:                -3.106
REMARK SMILES O=C([O-])CCCCCCCCCCCCCCC(=O)[O-]
REMARK SMILES IDX 10 1 9 2 8 3 7 4 6 5 5 6 4 7 2 8 1 9 3 10 11 11 12 12 13 13
REMARK SMILES IDX 14 14 15 15 16 16 17 17 18 18 19 19 20 20
REMARK H PARENT
REMARK Flexibility Score: inf
ROOT
ATOM      1  C   UNL     1     183.670 186.986 184.965  1.00  0.00     0.000 C 
ENDROOT
BRANCH   1   2
ATOM      2  C   UNL     1     183.386 185.479 184.844  1.00  0.00     0.000 C 
BRANCH   2   3
ATOM      3  C   UNL     1     182.755 184.888 186.116  1.00  0.00     0.000 C 
BRANCH   3   4
ATOM      4  C   UNL     1     181.261 184.562 185.944  1.00  0.00     0.000 C 
BRANCH   4   5
ATOM      5  C   UNL     1     180.308 185.399 186.819  1.00  0.00     0.000 C 
BRANCH   5   6
ATOM      6  C   UNL     1     180.891 185.770 188.202  1.00  0.00     0.006 C 
BRANCH   6   7
ATOM      7  C   UNL     1     180.223 187.000 188.837  1.00  0.00     0.053 C 
BRANCH   7   8
ATOM      8  C   UNL     1     178.732 186.859 188.889  1.00  0.00     0.041 C 
ATOM      9  O   UNL     1     178.204 185.973 189.611  1.00  0.00    -0.550 OA
ATOM     10  O   UNL     1     177.926 187.689 188.119  1.00  0.00    -0.550 OA
ENDBRANCH   7   8
ENDBRANCH   6   7
ENDBRANCH   5   6
ENDBRANCH   4   5
ENDBRANCH   3   4
ENDBRANCH   2   3
ENDBRANCH   1   2
BRANCH   1  11
ATOM     11  C   UNL     1     183.656 187.545 186.403  1.00  0.00     0.000 C 
BRANCH  11  12
ATOM     12  C   UNL     1     182.693 188.722 186.638  1.00  0.00     0.000 C 
BRANCH  12  13
ATOM     13  C   UNL     1     181.805 189.018 185.420  1.00  0.00     0.000 C 
BRANCH  13  14
ATOM     14  C   UNL     1     180.325 189.065 185.819  1.00  0.00     0.000 C 
BRANCH  14  15
ATOM     15  C   UNL     1     179.459 188.295 184.810  1.00  0.00     0.000 C 
BRANCH  15  16
ATOM     16  C   UNL     1     180.279 187.680 183.661  1.00  0.00     0.006 C 
BRANCH  16  17
ATOM     17  C   UNL     1     179.699 186.362 183.116  1.00  0.00     0.053 C 
BRANCH  17  18
ATOM     18  C   UNL     1     180.708 185.559 182.353  1.00  0.00     0.041 C 
ATOM     19  O   UNL     1     181.613 186.135 181.694  1.00  0.00    -0.550 OA
ATOM     20  O   UNL     1     180.634 184.171 182.351  1.00  0.00    -0.550 OA
ENDBRANCH  17  18
ENDBRANCH  16  17
ENDBRANCH  15  16
ENDBRANCH  14  15
ENDBRANCH  13  14
ENDBRANCH  12  13
ENDBRANCH  11  12
ENDBRANCH   1  11
TORSDOF 15
ENDMDL
MODEL 5
REMARK VINA RESULT:     0.017      6.674      8.279
REMARK INTER + INTRA:          -3.075
REMARK INTER:                   0.000
REMARK INTRA:                  -3.075
REMARK UNBOUND:                -3.106
REMARK SMILES O=C([O-])CCCCCCCCCCCCCCC(=O)[O-]
REMARK SMILES IDX 10 1 9 2 8 3 7 4 6 5 5 6 4 7 2 8 1 9 3 10 11 11 12 12 13 13
REMARK SMILES IDX 14 14 15 15 16 16 17 17 18 18 19 19 20 20
REMARK H PARENT
REMARK Flexibility Score: inf
ROOT
ATOM      1  C   UNL     1     178.569 186.311 193.350  1.00  0.00     0.000 C 
ENDROOT
BRANCH   1   2
ATOM      2  C   UNL     1     178.000 185.932 191.972  1.00  0.00     0.000 C 
BRANCH   2   3
ATOM      3  C   UNL     1     178.791 184.804 191.290  1.00  0.00     0.000 C 
BRANCH   3   4
ATOM      4  C   UNL     1     180.123 184.499 191.995  1.00  0.00     0.000 C 
BRANCH   4   5
ATOM      5  C   UNL     1     181.385 184.891 191.202  1.00  0.00     0.000 C 
BRANCH   5   6
ATOM      6  C   UNL     1     182.520 185.468 192.079  1.00  0.00     0.006 C 
BRANCH   6   7
ATOM      7  C   UNL     1     182.226 185.398 193.585  1.00  0.00     0.053 C 
BRANCH   7   8
ATOM      8  C   UNL     1     182.514 186.699 194.270  1.00  0.00     0.041 C 
ATOM      9  O   UNL     1     181.909 187.004 195.332  1.00  0.00    -0.550 OA
ATOM     10  O   UNL     1     183.432 187.587 193.722  1.00  0.00    -0.550 OA
ENDBRANCH   7   8
ENDBRANCH   6   7
ENDBRANCH   5   6
ENDBRANCH   4   5
ENDBRANCH   3   4
ENDBRANCH   2   3
ENDBRANCH   1   2
BRANCH   1  11
ATOM     11  C   UNL     1     179.030 187.777 193.491  1.00  0.00     0.000 C 
BRANCH  11  12
ATOM     12  C   UNL     1     179.172 188.548 192.168  1.00  0.00     0.000 C 
BRANCH  12  13
ATOM     13  C   UNL     1     180.629 188.659 191.695  1.00  0.00     0.000 C 
BRANCH  13  14
ATOM     14  C   UNL     1     180.747 188.335 190.201  1.00  0.00     0.000 C 
BRANCH  14  15
ATOM     15  C   UNL     1     179.384 188.454 189.503  1.00  0.00     0.000 C 
BRANCH  15  16
ATOM     16  C   UNL     1     179.073 187.260 188.582  1.00  0.00     0.006 C 
BRANCH  16  17
ATOM     17  C   UNL     1     180.323 186.579 187.998  1.00  0.00     0.053 C 
BRANCH  17  18
ATOM     18  C   UNL     1     180.128 185.111 187.770  1.00  0.00     0.041 C 
ATOM     19  O   UNL     1     178.969 184.635 187.645  1.00  0.00    -0.550 OA
ATOM     20  O   UNL     1     181.228 184.263 187.718  1.00  0.00    -0.550 OA
ENDBRANCH  17  18
ENDBRANCH  16  17
ENDBRANCH  15  16
ENDBRANCH  14  15
ENDBRANCH  13  14
ENDBRANCH  12  13
ENDBRANCH  11  12
ENDBRANCH   1  11
TORSDOF 15
ENDMDL
MODEL 6
REMARK VINA RESULT:     0.017      5.271      6.964
REMARK INTER + INTRA:          -3.075
REMARK INTER:                   0.000
REMARK INTRA:                  -3.075
REMARK UNBOUND:                -3.106
REMARK SMILES O=C([O-])CCCCCCCCCCCCCCC(=O)[O-]
REMARK SMILES IDX 10 1 9 2 8 3 7 4 6 5 5 6 4 7 2 8 1 9 3 10 11 11 12 12 13 13
REMARK SMILES IDX 14 14 15 15 16 16 17 17 18 18 19 19 20 20
REMARK H PARENT
REMARK Flexibility Score: inf
ROOT
ATOM      1  C   UNL     1     184.853 187.777 185.778  1.00  0.00     0.000 C 
ENDROOT
BRANCH   1   2
ATOM      2  C   UNL     1     184.096 186.441 185.690  1.00  0.00     0.000 C 
BRANCH   2   3
ATOM      3  C   UNL     1     183.616 185.936 187.061  1.00  0.00     0.000 C 
BRANCH   3   4
ATOM      4  C   UNL     1     182.083 185.885 187.175  1.00  0.00     0.000 C 
BRANCH   4   5
ATOM      5  C   UNL     1     181.480 186.808 188.252  1.00  0.00     0.000 C 
BRANCH   5   6
ATOM      6  C   UNL     1     182.401 187.031 189.473  1.00  0.00     0.006 C 
BRANCH   6   7
ATOM      7  C   UNL     1     182.134 188.354 190.206  1.00  0.00     0.053 C 
BRANCH   7   8
ATOM      8  C   UNL     1     180.688 188.510 190.566  1.00  0.00     0.041 C 
ATOM      9  O   UNL     1     180.154 187.731 191.398  1.00  0.00    -0.550 OA
ATOM     10  O   UNL     1     179.922 189.500 189.962  1.00  0.00    -0.550 OA
ENDBRANCH   7   8
ENDBRANCH   6   7
ENDBRANCH   5   6
ENDBRANCH   4   5
ENDBRANCH   3   4
ENDBRANCH   2   3
ENDBRANCH   1   2
BRANCH   1  11
ATOM     11  C   UNL     1     185.135 188.280 187.209  1.00  0.00     0.000 C 
BRANCH  11  12
ATOM     12  C   UNL     1     184.473 189.621 187.573  1.00  0.00     0.000 C 
BRANCH  12  13
ATOM     13  C   UNL     1     183.439 190.077 186.533  1.00  0.00     0.000 C 
BRANCH  13  14
ATOM     14  C   UNL     1     182.078 190.339 187.190  1.00  0.00     0.000 C 
BRANCH  14  15
ATOM     15  C   UNL     1     180.931 189.869 186.283  1.00  0.00     0.000 C 
BRANCH  15  16
ATOM     16  C   UNL     1     181.416 189.038 185.080  1.00  0.00     0.006 C 
BRANCH  16  17
ATOM     17  C   UNL     1     180.417 187.962 184.620  1.00  0.00     0.053 C 
BRANCH  17  18
ATOM     18  C   UNL     1     181.038 186.949 183.708  1.00  0.00     0.041 C 
ATOM     19  O   UNL     1     181.813 187.315 182.785  1.00  0.00    -0.550 OA
ATOM     20  O   UNL     1     180.742 185.600 183.862  1.00  0.00    -0.550 OA
ENDBRANCH  17  18
ENDBRANCH  16  17
ENDBRANCH  15  16
ENDBRANCH  14  15
ENDBRANCH  13  14
ENDBRANCH  12  13
ENDBRANCH  11  12
ENDBRANCH   1  11
TORSDOF 15
ENDMDL
MODEL 7
REMARK VINA RESULT:     0.018      4.656      6.977
REMARK INTER + INTRA:          -3.073
REMARK INTER:                   0.000
REMARK INTRA:                  -3.073
REMARK UNBOUND:                -3.106
REMARK SMILES O=C([O-])CCCCCCCCCCCCCCC(=O)[O-]
REMARK SMILES IDX 10 1 9 2 8 3 7 4 6 5 5 6 4 7 2 8 1 9 3 10 11 11 12 12 13 13
REMARK SMILES IDX 14 14 15 15 16 16 17 17 18 18 19 19 20 20
REMARK H PARENT
REMARK Flexibility Score: inf
ROOT
ATOM      1  C   UNL     1     184.503 184.486 190.827  1.00  0.00     0.000 C 
ENDROOT
BRANCH   1   2
ATOM      2  C   UNL     1     184.964 185.386 189.667  1.00  0.00     0.000 C 
BRANCH   2   3
ATOM      3  C   UNL     1     184.330 184.995 188.322  1.00  0.00     0.000 C 
BRANCH   3   4
ATOM      4  C   UNL     1     183.297 186.022 187.828  1.00  0.00     0.000 C 
BRANCH   4   5
ATOM      5  C   UNL     1     181.994 185.419 187.270  1.00  0.00     0.000 C 
BRANCH   5   6
ATOM      6  C   UNL     1     182.020 183.878 187.148  1.00  0.00     0.006 C 
BRANCH   6   7
ATOM      7  C   UNL     1     180.687 183.212 187.526  1.00  0.00     0.053 C 
BRANCH   7   8
ATOM      8  C   UNL     1     180.848 181.742 187.768  1.00  0.00     0.041 C 
ATOM      9  O   UNL     1     179.834 181.005 187.889  1.00  0.00    -0.550 OA
ATOM     10  O   UNL     1     182.118 181.190 187.888  1.00  0.00    -0.550 OA
ENDBRANCH   7   8
ENDBRANCH   6   7
ENDBRANCH   5   6
ENDBRANCH   4   5
ENDBRANCH   3   4
ENDBRANCH   2   3
ENDBRANCH   1   2
BRANCH   1  11
ATOM     11  C   UNL     1     183.710 183.230 190.411  1.00  0.00     0.000 C 
BRANCH  11  12
ATOM     12  C   UNL     1     182.262 183.170 190.928  1.00  0.00     0.000 C 
BRANCH  12  13
ATOM     13  C   UNL     1     181.796 184.495 191.549  1.00  0.00     0.000 C 
BRANCH  13  14
ATOM     14  C   UNL     1     180.650 185.110 190.735  1.00  0.00     0.000 C 
BRANCH  14  15
ATOM     15  C   UNL     1     180.839 186.626 190.579  1.00  0.00     0.000 C 
BRANCH  15  16
ATOM     16  C   UNL     1     181.960 187.188 191.473  1.00  0.00     0.006 C 
BRANCH  16  17
ATOM     17  C   UNL     1     182.865 188.215 190.770  1.00  0.00     0.053 C 
BRANCH  17  18
ATOM     18  C   UNL     1     182.087 189.270 190.045  1.00  0.00     0.041 C 
ATOM     19  O   UNL     1     181.410 190.115 190.688  1.00  0.00    -0.550 OA
ATOM     20  O   UNL     1     182.091 189.305 188.656  1.00  0.00    -0.550 OA
ENDBRANCH  17  18
ENDBRANCH  16  17
ENDBRANCH  15  16
ENDBRANCH  14  15
ENDBRANCH  13  14
ENDBRANCH  12  13
ENDBRANCH  11  12
ENDBRANCH   1  11
TORSDOF 15
ENDMDL
MODEL 8
REMARK VINA RESULT:     0.020     12.312     14.385
REMARK INTER + INTRA:          -3.069
REMARK INTER:                   0.000
REMARK INTRA:                  -3.069
REMARK UNBOUND:                -3.106
REMARK SMILES O=C([O-])CCCCCCCCCCCCCCC(=O)[O-]
REMARK SMILES IDX 10 1 9 2 8 3 7 4 6 5 5 6 4 7 2 8 1 9 3 10 11 11 12 12 13 13
REMARK SMILES IDX 14 14 15 15 16 16 17 17 18 18 19 19 20 20
REMARK H PARENT
REMARK Flexibility Score: inf
ROOT
ATOM      1  C   UNL     1     174.705 190.329 188.969  1.00  0.00     0.000 C 
ENDROOT
BRANCH   1   2
ATOM      2  C   UNL     1     175.628 191.548 188.794  1.00  0.00     0.000 C 
BRANCH   2   3
ATOM      3  C   UNL     1     176.528 191.441 187.553  1.00  0.00     0.000 C 
BRANCH   3   4
ATOM      4  C   UNL     1     176.466 190.055 186.888  1.00  0.00     0.000 C 
BRANCH   4   5
ATOM      5  C   UNL     1     176.331 190.074 185.353  1.00  0.00     0.000 C 
BRANCH   5   6
ATOM      6  C   UNL     1     175.066 189.357 184.828  1.00  0.00     0.006 C 
BRANCH   6   7
ATOM      7  C   UNL     1     174.655 189.800 183.415  1.00  0.00     0.053 C 
BRANCH   7   8
ATOM      8  C   UNL     1     175.647 189.357 182.382  1.00  0.00     0.041 C 
ATOM      9  O   UNL     1     175.983 188.146 182.306  1.00  0.00    -0.550 OA
ATOM     10  O   UNL     1     176.219 190.285 181.521  1.00  0.00    -0.550 OA
ENDBRANCH   7   8
ENDBRANCH   6   7
ENDBRANCH   5   6
ENDBRANCH   4   5
ENDBRANCH   3   4
ENDBRANCH   2   3
ENDBRANCH   1   2
BRANCH   1  11
ATOM     11  C   UNL     1     173.199 190.613 188.788  1.00  0.00     0.000 C 
BRANCH  11  12
ATOM     12  C   UNL     1     172.604 190.154 187.445  1.00  0.00     0.000 C 
BRANCH  12  13
ATOM     13  C   UNL     1     172.377 191.315 186.466  1.00  0.00     0.000 C 
BRANCH  13  14
ATOM     14  C   UNL     1     172.405 192.663 187.197  1.00  0.00     0.000 C 
BRANCH  14  15
ATOM     15  C   UNL     1     173.401 193.627 186.534  1.00  0.00     0.000 C 
BRANCH  15  16
ATOM     16  C   UNL     1     174.040 193.048 185.259  1.00  0.00     0.006 C 
BRANCH  16  17
ATOM     17  C   UNL     1     175.379 193.705 184.877  1.00  0.00     0.053 C 
BRANCH  17  18
ATOM     18  C   UNL     1     175.853 193.301 183.515  1.00  0.00     0.041 C 
ATOM     19  O   UNL     1     175.053 193.281 182.543  1.00  0.00    -0.550 OA
ATOM     20  O   UNL     1     177.176 192.921 183.324  1.00  0.00    -0.550 OA
ENDBRANCH  17  18
ENDBRANCH  16  17
ENDBRANCH  15  16
ENDBRANCH  14  15
ENDBRANCH  13  14
ENDBRANCH  12  13
ENDBRANCH  11  12
ENDBRANCH   1  11
TORSDOF 15
ENDMDL
MODEL 9
REMARK VINA RESULT:     0.025      5.160      6.822
REMARK INTER + INTRA:          -3.060
REMARK INTER:                   0.000
REMARK INTRA:                  -3.060
REMARK UNBOUND:                -3.106
REMARK SMILES O=C([O-])CCCCCCCCCCCCCCC(=O)[O-]
REMARK SMILES IDX 10 1 9 2 8 3 7 4 6 5 5 6 4 7 2 8 1 9 3 10 11 11 12 12 13 13
REMARK SMILES IDX 14 14 15 15 16 16 17 17 18 18 19 19 20 20
REMARK H PARENT
REMARK Flexibility Score: inf
ROOT
ATOM      1  C   UNL     1     185.471 182.055 189.987  1.00  0.00     0.000 C 
ENDROOT
BRANCH   1   2
ATOM      2  C   UNL     1     183.938 182.138 190.091  1.00  0.00     0.000 C 
BRANCH   2   3
ATOM      3  C   UNL     1     183.432 182.024 191.538  1.00  0.00     0.000 C 
BRANCH   3   4
ATOM      4  C   UNL     1     184.554 181.700 192.539  1.00  0.00     0.000 C 
BRANCH   4   5
ATOM      5  C   UNL     1     184.753 182.744 193.655  1.00  0.00     0.000 C 
BRANCH   5   6
ATOM      6  C   UNL     1     183.698 183.873 193.650  1.00  0.00     0.006 C 
BRANCH   6   7
ATOM      7  C   UNL     1     184.152 185.138 194.396  1.00  0.00     0.053 C 
BRANCH   7   8
ATOM      8  C   UNL     1     183.023 186.103 194.595  1.00  0.00     0.041 C 
ATOM      9  O   UNL     1     181.929 185.707 195.076  1.00  0.00    -0.550 OA
ATOM     10  O   UNL     1     183.171 187.434 194.225  1.00  0.00    -0.550 OA
ENDBRANCH   7   8
ENDBRANCH   6   7
ENDBRANCH   5   6
ENDBRANCH   4   5
ENDBRANCH   3   4
ENDBRANCH   2   3
ENDBRANCH   1   2
BRANCH   1  11
ATOM     11  C   UNL     1     186.184 183.390 189.690  1.00  0.00     0.000 C 
BRANCH  11  12
ATOM     12  C   UNL     1     186.984 183.980 190.865  1.00  0.00     0.000 C 
BRANCH  12  13
ATOM     13  C   UNL     1     186.383 185.289 191.397  1.00  0.00     0.000 C 
BRANCH  13  14
ATOM     14  C   UNL     1     185.518 185.970 190.329  1.00  0.00     0.000 C 
BRANCH  14  15
ATOM     15  C   UNL     1     184.178 186.434 190.920  1.00  0.00     0.000 C 
BRANCH  15  16
ATOM     16  C   UNL     1     182.978 185.618 190.405  1.00  0.00     0.006 C 
BRANCH  16  17
ATOM     17  C   UNL     1     181.674 185.865 191.184  1.00  0.00     0.053 C 
BRANCH  17  18
ATOM     18  C   UNL     1     180.828 184.634 191.300  1.00  0.00     0.041 C 
ATOM     19  O   UNL     1     180.358 184.288 192.415  1.00  0.00    -0.550 OA
ATOM     20  O   UNL     1     180.579 183.853 190.177  1.00  0.00    -0.550 OA
ENDBRANCH  17  18
ENDBRANCH  16  17
ENDBRANCH  15  16
ENDBRANCH  14  15
ENDBRANCH  13  14
ENDBRANCH  12  13
ENDBRANCH  11  12
ENDBRANCH   1  11
TORSDOF 15
ENDMDL
