MODEL 1
REMARK VINA RESULT:    -4.388      0.000      0.000
REMARK INTER + INTRA:          -6.029
REMARK INTER:                  -5.670
REMARK INTRA:                  -0.359
REMARK UNBOUND:                -0.359
REMARK SMILES C=CC(=O)CCCCC
REMARK SMILES IDX 6 1 7 2 8 3 9 4 5 5 3 6 4 7 2 8 1 9
REMARK H PARENT
REMARK Flexibility Score: inf
ROOT
ATOM      1  C   UNL     1      -6.400  -0.558   0.381  1.00  0.00     0.008 C 
ENDROOT
BRANCH   1   2
ATOM      2  C   UNL     1      -5.216   0.412   0.242  1.00  0.00     0.000 C 
BRANCH   2   3
ATOM      3  C   UNL     1      -4.368   0.498   1.519  1.00  0.00    -0.003 C 
ATOM      4  C   UNL     1      -5.045   1.372   2.570  1.00  0.00     0.004 C 
ENDBRANCH   2   3
ENDBRANCH   1   2
BRANCH   1   5
ATOM      5  C   UNL     1      -5.965  -2.030   0.346  1.00  0.00     0.080 C 
BRANCH   5   6
ATOM      6  C   UNL     1      -6.157  -2.602  -1.027  1.00  0.00     0.155 C 
ATOM      7  O   UNL     1      -7.315  -2.628  -1.528  1.00  0.00    -0.295 OA
BRANCH   6   8
ATOM      8  C   UNL     1      -4.994  -3.085  -1.797  1.00  0.00     0.039 C 
ATOM      9  C   UNL     1      -3.792  -2.519  -1.707  1.00  0.00     0.012 C 
ENDBRANCH   6   8
ENDBRANCH   5   6
ENDBRANCH   1   5
TORSDOF 5
ENDMDL
MODEL 2
REMARK VINA RESULT:    -4.353      1.704      4.235
REMARK INTER + INTRA:          -5.984
REMARK INTER:                  -5.566
REMARK INTRA:                  -0.418
REMARK UNBOUND:                -0.359
REMARK SMILES C=CC(=O)CCCCC
REMARK SMILES IDX 6 1 7 2 8 3 9 4 5 5 3 6 4 7 2 8 1 9
REMARK H PARENT
REMARK Flexibility Score: inf
ROOT
ATOM      1  C   UNL     1      -6.568  -1.334  -0.587  1.00  0.00     0.008 C 
ENDROOT
BRANCH   1   2
ATOM      2  C   UNL     1      -5.731  -2.523  -0.090  1.00  0.00     0.000 C 
BRANCH   2   3
ATOM      3  C   UNL     1      -4.569  -2.864  -1.035  1.00  0.00    -0.003 C 
ATOM      4  C   UNL     1      -5.085  -3.325  -2.395  1.00  0.00     0.004 C 
ENDBRANCH   2   3
ENDBRANCH   1   2
BRANCH   1   5
ATOM      5  C   UNL     1      -5.897   0.019  -0.310  1.00  0.00     0.080 C 
BRANCH   5   6
ATOM      6  C   UNL     1      -6.073   0.408   1.127  1.00  0.00     0.155 C 
ATOM      7  O   UNL     1      -7.228   0.389   1.634  1.00  0.00    -0.295 OA
BRANCH   6   8
ATOM      8  C   UNL     1      -4.899   0.767   1.946  1.00  0.00     0.039 C 
ATOM      9  C   UNL     1      -3.789   0.031   1.965  1.00  0.00     0.012 C 
ENDBRANCH   6   8
ENDBRANCH   5   6
ENDBRANCH   1   5
TORSDOF 5
ENDMDL
MODEL 3
REMARK VINA RESULT:    -4.330      1.129      1.695
REMARK INTER + INTRA:          -5.955
REMARK INTER:                  -5.400
REMARK INTRA:                  -0.555
REMARK UNBOUND:                -0.359
REMARK SMILES C=CC(=O)CCCCC
REMARK SMILES IDX 6 1 7 2 8 3 9 4 5 5 3 6 4 7 2 8 1 9
REMARK H PARENT
REMARK Flexibility Score: inf
ROOT
ATOM      1  C   UNL     1      -6.026  -1.946   0.269  1.00  0.00     0.008 C 
ENDROOT
BRANCH   1   2
ATOM      2  C   UNL     1      -6.478  -0.490   0.457  1.00  0.00     0.000 C 
BRANCH   2   3
ATOM      3  C   UNL     1      -5.319   0.511   0.335  1.00  0.00    -0.003 C 
ATOM      4  C   UNL     1      -4.185   0.156   1.292  1.00  0.00     0.004 C 
ENDBRANCH   2   3
ENDBRANCH   1   2
BRANCH   1   5
ATOM      5  C   UNL     1      -6.384  -2.503  -1.116  1.00  0.00     0.080 C 
BRANCH   5   6
ATOM      6  C   UNL     1      -5.157  -3.018  -1.808  1.00  0.00     0.155 C 
ATOM      7  O   UNL     1      -5.264  -3.971  -2.628  1.00  0.00    -0.295 OA
BRANCH   6   8
ATOM      8  C   UNL     1      -3.847  -2.383  -1.562  1.00  0.00     0.039 C 
ATOM      9  C   UNL     1      -3.342  -1.452  -2.368  1.00  0.00     0.012 C 
ENDBRANCH   6   8
ENDBRANCH   5   6
ENDBRANCH   1   5
TORSDOF 5
ENDMDL
MODEL 4
REMARK VINA RESULT:    -4.328      2.308      4.336
REMARK INTER + INTRA:          -5.952
REMARK INTER:                  -5.543
REMARK INTRA:                  -0.410
REMARK UNBOUND:                -0.359
REMARK SMILES C=CC(=O)CCCCC
REMARK SMILES IDX 6 1 7 2 8 3 9 4 5 5 3 6 4 7 2 8 1 9
REMARK H PARENT
REMARK Flexibility Score: inf
ROOT
ATOM      1  C   UNL     1      -6.081  -0.361  -0.430  1.00  0.00     0.008 C 
ENDROOT
BRANCH   1   2
ATOM      2  C   UNL     1      -6.541  -1.815  -0.616  1.00  0.00     0.000 C 
BRANCH   2   3
ATOM      3  C   UNL     1      -5.368  -2.801  -0.713  1.00  0.00    -0.003 C 
ATOM      4  C   UNL     1      -5.188  -3.302  -2.142  1.00  0.00     0.004 C 
ENDBRANCH   2   3
ENDBRANCH   1   2
BRANCH   1   5
ATOM      5  C   UNL     1      -6.386   0.181   0.974  1.00  0.00     0.080 C 
BRANCH   5   6
ATOM      6  C   UNL     1      -5.129   0.659   1.636  1.00  0.00     0.155 C 
ATOM      7  O   UNL     1      -5.193   1.593   2.483  1.00  0.00    -0.295 OA
BRANCH   6   8
ATOM      8  C   UNL     1      -3.838   0.011   1.330  1.00  0.00     0.039 C 
ATOM      9  C   UNL     1      -3.354  -0.996   2.055  1.00  0.00     0.012 C 
ENDBRANCH   6   8
ENDBRANCH   5   6
ENDBRANCH   1   5
TORSDOF 5
ENDMDL
MODEL 5
REMARK VINA RESULT:    -4.237      1.682      1.846
REMARK INTER + INTRA:          -5.836
REMARK INTER:                  -5.550
REMARK INTRA:                  -0.285
REMARK UNBOUND:                -0.359
REMARK SMILES C=CC(=O)CCCCC
REMARK SMILES IDX 6 1 7 2 8 3 9 4 5 5 3 6 4 7 2 8 1 9
REMARK H PARENT
REMARK Flexibility Score: inf
ROOT
ATOM      1  C   UNL     1      -6.626  -1.075  -0.549  1.00  0.00     0.008 C 
ENDROOT
BRANCH   1   2
ATOM      2  C   UNL     1      -5.965   0.209  -0.022  1.00  0.00     0.000 C 
BRANCH   2   3
ATOM      3  C   UNL     1      -6.334   0.509   1.437  1.00  0.00    -0.003 C 
ATOM      4  C   UNL     1      -5.148   1.097   2.194  1.00  0.00     0.004 C 
ENDBRANCH   2   3
ENDBRANCH   1   2
BRANCH   1   5
ATOM      5  C   UNL     1      -5.992  -2.347   0.031  1.00  0.00     0.080 C 
BRANCH   5   6
ATOM      6  C   UNL     1      -4.563  -2.468  -0.407  1.00  0.00     0.155 C 
ATOM      7  O   UNL     1      -3.641  -2.260   0.429  1.00  0.00    -0.295 OA
BRANCH   6   8
ATOM      8  C   UNL     1      -4.245  -2.871  -1.791  1.00  0.00     0.039 C 
ATOM      9  C   UNL     1      -5.054  -3.642  -2.515  1.00  0.00     0.012 C 
ENDBRANCH   6   8
ENDBRANCH   5   6
ENDBRANCH   1   5
TORSDOF 5
ENDMDL
MODEL 6
REMARK VINA RESULT:    -4.235      1.429      3.483
REMARK INTER + INTRA:          -5.833
REMARK INTER:                  -5.387
REMARK INTRA:                  -0.446
REMARK UNBOUND:                -0.359
REMARK SMILES C=CC(=O)CCCCC
REMARK SMILES IDX 6 1 7 2 8 3 9 4 5 5 3 6 4 7 2 8 1 9
REMARK H PARENT
REMARK Flexibility Score: inf
ROOT
ATOM      1  C   UNL     1      -4.080  -2.418  -0.455  1.00  0.00     0.008 C 
ENDROOT
BRANCH   1   2
ATOM      2  C   UNL     1      -4.000  -2.628  -1.975  1.00  0.00     0.000 C 
BRANCH   2   3
ATOM      3  C   UNL     1      -3.179  -1.538  -2.681  1.00  0.00    -0.003 C 
ATOM      4  C   UNL     1      -3.272  -0.211  -1.934  1.00  0.00     0.004 C 
ENDBRANCH   2   3
ENDBRANCH   1   2
BRANCH   1   5
ATOM      5  C   UNL     1      -5.476  -2.714   0.110  1.00  0.00     0.080 C 
BRANCH   5   6
ATOM      6  C   UNL     1      -6.513  -1.893  -0.596  1.00  0.00     0.155 C 
ATOM      7  O   UNL     1      -7.292  -2.453  -1.415  1.00  0.00    -0.295 OA
BRANCH   6   8
ATOM      8  C   UNL     1      -6.644  -0.453  -0.299  1.00  0.00     0.039 C 
ATOM      9  C   UNL     1      -6.590   0.029   0.941  1.00  0.00     0.012 C 
ENDBRANCH   6   8
ENDBRANCH   5   6
ENDBRANCH   1   5
TORSDOF 5
ENDMDL
MODEL 7
REMARK VINA RESULT:    -4.170      1.409      2.708
REMARK INTER + INTRA:          -5.748
REMARK INTER:                  -5.187
REMARK INTRA:                  -0.561
REMARK UNBOUND:                -0.359
REMARK SMILES C=CC(=O)CCCCC
REMARK SMILES IDX 6 1 7 2 8 3 9 4 5 5 3 6 4 7 2 8 1 9
REMARK H PARENT
REMARK Flexibility Score: inf
ROOT
ATOM      1  C   UNL     1      -3.786  -2.136  -0.689  1.00  0.00     0.008 C 
ENDROOT
BRANCH   1   2
ATOM      2  C   UNL     1      -2.847  -1.383   0.266  1.00  0.00     0.000 C 
BRANCH   2   3
ATOM      3  C   UNL     1      -3.288  -1.486   1.733  1.00  0.00    -0.003 C 
ATOM      4  C   UNL     1      -3.435  -0.103   2.360  1.00  0.00     0.004 C 
ENDBRANCH   2   3
ENDBRANCH   1   2
BRANCH   1   5
ATOM      5  C   UNL     1      -5.076  -2.607  -0.001  1.00  0.00     0.080 C 
BRANCH   5   6
ATOM      6  C   UNL     1      -6.256  -1.842  -0.520  1.00  0.00     0.155 C 
ATOM      7  O   UNL     1      -7.143  -2.448  -1.182  1.00  0.00    -0.295 OA
BRANCH   6   8
ATOM      8  C   UNL     1      -6.397  -0.404  -0.218  1.00  0.00     0.039 C 
ATOM      9  C   UNL     1      -6.818   0.040   0.965  1.00  0.00     0.012 C 
ENDBRANCH   6   8
ENDBRANCH   5   6
ENDBRANCH   1   5
TORSDOF 5
ENDMDL
MODEL 8
REMARK VINA RESULT:    -3.923      2.274      4.520
REMARK INTER + INTRA:          -5.429
REMARK INTER:                  -5.016
REMARK INTRA:                  -0.413
REMARK UNBOUND:                -0.359
REMARK SMILES C=CC(=O)CCCCC
REMARK SMILES IDX 6 1 7 2 8 3 9 4 5 5 3 6 4 7 2 8 1 9
REMARK H PARENT
REMARK Flexibility Score: inf
ROOT
ATOM      1  C   UNL     1      -3.478  -0.290  -1.714  1.00  0.00     0.008 C 
ENDROOT
BRANCH   1   2
ATOM      2  C   UNL     1      -3.371  -1.514  -2.637  1.00  0.00     0.000 C 
BRANCH   2   3
ATOM      3  C   UNL     1      -3.625  -2.836  -1.899  1.00  0.00    -0.003 C 
ATOM      4  C   UNL     1      -4.963  -3.444  -2.310  1.00  0.00     0.004 C 
ENDBRANCH   2   3
ENDBRANCH   1   2
BRANCH   1   5
ATOM      5  C   UNL     1      -3.157  -0.623  -0.250  1.00  0.00     0.080 C 
BRANCH   5   6
ATOM      6  C   UNL     1      -4.303  -0.241   0.639  1.00  0.00     0.155 C 
ATOM      7  O   UNL     1      -4.066   0.291   1.758  1.00  0.00    -0.295 OA
BRANCH   6   8
ATOM      8  C   UNL     1      -5.692  -0.445   0.184  1.00  0.00     0.039 C 
ATOM      9  C   UNL     1      -6.737   0.088   0.814  1.00  0.00     0.012 C 
ENDBRANCH   6   8
ENDBRANCH   5   6
ENDBRANCH   1   5
TORSDOF 5
ENDMDL
MODEL 9
REMARK VINA RESULT:    -3.876      1.738      3.526
REMARK INTER + INTRA:          -5.368
REMARK INTER:                  -4.745
REMARK INTRA:                  -0.623
REMARK UNBOUND:                -0.359
REMARK SMILES C=CC(=O)CCCCC
REMARK SMILES IDX 6 1 7 2 8 3 9 4 5 5 3 6 4 7 2 8 1 9
REMARK H PARENT
REMARK Flexibility Score: inf
ROOT
ATOM      1  C   UNL     1      -3.524  -1.557   0.931  1.00  0.00     0.008 C 
ENDROOT
BRANCH   1   2
ATOM      2  C   UNL     1      -2.539  -1.262  -0.210  1.00  0.00     0.000 C 
BRANCH   2   3
ATOM      3  C   UNL     1      -2.722  -2.204  -1.409  1.00  0.00    -0.003 C 
ATOM      4  C   UNL     1      -3.247  -1.449  -2.625  1.00  0.00     0.004 C 
ENDBRANCH   2   3
ENDBRANCH   1   2
BRANCH   1   5
ATOM      5  C   UNL     1      -4.577  -0.453   1.104  1.00  0.00     0.080 C 
BRANCH   5   6
ATOM      6  C   UNL     1      -5.743  -0.692   0.193  1.00  0.00     0.155 C 
ATOM      7  O   UNL     1      -6.248   0.281  -0.432  1.00  0.00    -0.295 OA
BRANCH   6   8
ATOM      8  C   UNL     1      -6.261  -2.060  -0.003  1.00  0.00     0.039 C 
ATOM      9  C   UNL     1      -6.646  -2.516  -1.193  1.00  0.00     0.012 C 
ENDBRANCH   6   8
ENDBRANCH   5   6
ENDBRANCH   1   5
TORSDOF 5
ENDMDL
