MODEL 1
REMARK VINA RESULT:    -3.305      0.000      0.000
REMARK INTER + INTRA:          -5.355
REMARK INTER:                  -4.851
REMARK INTRA:                  -0.504
REMARK UNBOUND:                -0.504
REMARK SMILES C=C1C=C[C@@H](C(C)C)CCC(C)=CCC1
REMARK SMILES IDX 3 1 4 2 5 3 9 4 10 5 11 6 12 7 13 8 6 10 7 11 8 12 2 13 1 14
REMARK SMILES IDX 15 15 14 16
REMARK H PARENT
REMARK Flexibility Score: 70.00
ROOT
ATOM      1  C   UNL     1      19.787  63.171  13.835  1.00  0.00    -0.001 C 
ATOM      2  C   UNL     1      18.838  63.528  14.712  1.00  0.00    -0.023 C 
ENDROOT
BRANCH   2   3
ATOM      3  C   UNL     1      18.976  64.665  15.706  1.00  0.00     0.014 C 
BRANCH   3   4
ATOM      4  C   UNL     1      19.525  64.099  17.048  1.00  0.00     0.012 C 
BRANCH   4   5
ATOM      5  C   UNL     1      20.811  64.810  17.538  1.00  0.00     0.031 C 
BRANCH   5   6
ATOM      6  C   UNL     1      21.953  63.839  17.801  1.00  0.00    -0.077 C 
ATOM      7  C   UNL     1      22.045  63.166  19.146  1.00  0.00     0.039 C 
ATOM      8  C   UNL     1      22.917  63.568  16.887  1.00  0.00    -0.028 CG0
ATOM      9  G   UNL     1      22.953  64.111  15.480  1.00  0.00     0.000 G0
ENDBRANCH   5   6
ENDBRANCH   4   5
ENDBRANCH   3   4
BRANCH   3  10
ATOM     10  C   UNL     1      17.607  65.398  15.877  1.00  0.00    -0.010 C 
ATOM     11  C   UNL     1      16.587  64.988  14.803  1.00  0.00     0.008 C 
ATOM     12  C   UNL     1      16.998  65.124  17.267  1.00  0.00     0.008 C 
ENDBRANCH   3  10
ENDBRANCH   2   3
BRANCH   1  13
ATOM     13  C   UNL     1      21.125  63.794  13.766  1.00  0.00    -0.055 C 
ATOM     14  C   UNL     1      21.318  64.842  12.963  1.00  0.00     0.012 C 
BRANCH  13  15
ATOM     15  C   UNL     1      22.288  63.152  14.480  1.00  0.00     0.039 C 
BRANCH  15  16
ATOM     16  C   UNL     1      22.969  64.112  15.475  1.00  0.00     0.032 CG0
ATOM     17  G   UNL     1      22.914  63.568  16.881  1.00  0.00     0.000 G0
ENDBRANCH  15  16
ENDBRANCH  13  15
ENDBRANCH   1  13
TORSDOF 1
ENDMDL
MODEL 2
REMARK VINA RESULT:    -3.282      1.863      4.582
REMARK INTER + INTRA:          -5.321
REMARK INTER:                  -4.844
REMARK INTRA:                  -0.477
REMARK UNBOUND:                -0.504
REMARK SMILES C=C1C=C[C@@H](C(C)C)CCC(C)=CCC1
REMARK SMILES IDX 3 1 4 2 5 3 9 4 10 5 11 6 12 7 13 8 6 10 7 11 8 12 2 13 1 14
REMARK SMILES IDX 15 15 14 16
REMARK H PARENT
REMARK Flexibility Score: 70.00
ROOT
ATOM      1  C   UNL     1      21.677  64.247  13.926  1.00  0.00    -0.001 C 
ATOM      2  C   UNL     1      22.917  63.853  14.249  1.00  0.00    -0.023 C 
ENDROOT
BRANCH   2   3
ATOM      3  C   UNL     1      23.236  62.809  15.303  1.00  0.00     0.014 C 
BRANCH   3   4
ATOM      4  C   UNL     1      23.478  63.524  16.665  1.00  0.00     0.012 C 
BRANCH   4   5
ATOM      5  C   UNL     1      22.617  62.958  17.821  1.00  0.00     0.031 C 
BRANCH   5   6
ATOM      6  C   UNL     1      21.800  64.033  18.524  1.00  0.00    -0.077 C 
ATOM      7  C   UNL     1      22.422  64.789  19.670  1.00  0.00     0.039 C 
ATOM      8  C   UNL     1      20.521  64.327  18.187  1.00  0.00    -0.028 CG0
ATOM      9  G   UNL     1      19.764  63.705  17.040  1.00  0.00     0.000 G0
ENDBRANCH   5   6
ENDBRANCH   4   5
ENDBRANCH   3   4
BRANCH   3  10
ATOM     10  C   UNL     1      24.457  61.946  14.853  1.00  0.00    -0.010 C 
ATOM     11  C   UNL     1      24.819  60.864  15.884  1.00  0.00     0.008 C 
ATOM     12  C   UNL     1      24.188  61.265  13.496  1.00  0.00     0.008 C 
ENDBRANCH   3  10
ENDBRANCH   2   3
BRANCH   1  13
ATOM     13  C   UNL     1      20.455  63.768  14.604  1.00  0.00    -0.055 C 
ATOM     14  C   UNL     1      19.794  62.724  14.100  1.00  0.00     0.012 C 
BRANCH  13  15
ATOM     15  C   UNL     1      19.884  64.550  15.761  1.00  0.00     0.039 C 
BRANCH  15  16
ATOM     16  C   UNL     1      19.757  63.698  17.039  1.00  0.00     0.032 CG0
ATOM     17  G   UNL     1      20.517  64.320  18.185  1.00  0.00     0.000 G0
ENDBRANCH  15  16
ENDBRANCH  13  15
ENDBRANCH   1  13
TORSDOF 1
ENDMDL
MODEL 3
REMARK VINA RESULT:    -2.862      1.764      4.315
REMARK INTER + INTRA:          -4.705
REMARK INTER:                  -4.219
REMARK INTRA:                  -0.485
REMARK UNBOUND:                -0.504
REMARK SMILES C=C1C=C[C@@H](C(C)C)CCC(C)=CCC1
REMARK SMILES IDX 3 1 4 2 5 3 9 4 10 5 11 6 12 7 13 8 6 10 7 11 8 12 2 13 1 14
REMARK SMILES IDX 15 15 14 16
REMARK H PARENT
REMARK Flexibility Score: 70.00
ROOT
ATOM      1  C   UNL     1      20.003  63.389  17.550  1.00  0.00    -0.001 C 
ATOM      2  C   UNL     1      21.010  63.129  18.395  1.00  0.00    -0.023 C 
ENDROOT
BRANCH   2   3
ATOM      3  C   UNL     1      22.171  64.069  18.658  1.00  0.00     0.014 C 
BRANCH   3   4
ATOM      4  C   UNL     1      23.475  63.431  18.096  1.00  0.00     0.012 C 
BRANCH   4   5
ATOM      5  C   UNL     1      23.222  62.391  16.977  1.00  0.00     0.031 C 
BRANCH   5   6
ATOM      6  C   UNL     1      23.535  62.936  15.590  1.00  0.00    -0.077 C 
ATOM      7  C   UNL     1      24.975  63.087  15.174  1.00  0.00     0.039 C 
ATOM      8  C   UNL     1      22.576  63.321  14.715  1.00  0.00    -0.028 CG0
ATOM      9  G   UNL     1      21.090  63.193  14.946  1.00  0.00     0.000 G0
ENDBRANCH   5   6
ENDBRANCH   4   5
ENDBRANCH   3   4
BRANCH   3  10
ATOM     10  C   UNL     1      22.268  64.390  20.184  1.00  0.00    -0.010 C 
ATOM     11  C   UNL     1      20.972  65.011  20.733  1.00  0.00     0.008 C 
ATOM     12  C   UNL     1      22.594  63.124  21.001  1.00  0.00     0.008 C 
ENDBRANCH   3  10
ENDBRANCH   2   3
BRANCH   1  13
ATOM     13  C   UNL     1      19.925  64.599  16.706  1.00  0.00    -0.055 C 
ATOM     14  C   UNL     1      19.258  65.666  17.151  1.00  0.00     0.012 C 
BRANCH  13  15
ATOM     15  C   UNL     1      20.463  64.566  15.297  1.00  0.00     0.039 C 
BRANCH  15  16
ATOM     16  C   UNL     1      21.075  63.199  14.933  1.00  0.00     0.032 CG0
ATOM     17  G   UNL     1      22.565  63.308  14.724  1.00  0.00     0.000 G0
ENDBRANCH  15  16
ENDBRANCH  13  15
ENDBRANCH   1  13
TORSDOF 1
ENDMDL
MODEL 4
REMARK VINA RESULT:    -2.803      1.922      5.158
REMARK INTER + INTRA:          -4.618
REMARK INTER:                  -4.193
REMARK INTRA:                  -0.425
REMARK UNBOUND:                -0.504
REMARK SMILES C=C1C=C[C@@H](C(C)C)CCC(C)=CCC1
REMARK SMILES IDX 3 1 4 2 5 3 9 4 10 5 11 6 12 7 13 8 6 10 7 11 8 12 2 13 1 14
REMARK SMILES IDX 15 15 14 16
REMARK H PARENT
REMARK Flexibility Score: 70.00
ROOT
ATOM      1  C   UNL     1      19.832  63.793  17.701  1.00  0.00    -0.001 C 
ATOM      2  C   UNL     1      20.830  63.128  17.103  1.00  0.00    -0.023 C 
ENDROOT
BRANCH   2   3
ATOM      3  C   UNL     1      22.076  63.783  16.537  1.00  0.00     0.014 C 
BRANCH   3   4
ATOM      4  C   UNL     1      22.184  63.439  15.023  1.00  0.00     0.012 C 
BRANCH   4   5
ATOM      5  C   UNL     1      20.817  63.413  14.296  1.00  0.00     0.031 C 
BRANCH   5   6
ATOM      6  C   UNL     1      20.428  64.772  13.732  1.00  0.00    -0.077 C 
ATOM      7  C   UNL     1      21.106  65.264  12.480  1.00  0.00     0.039 C 
ATOM      8  C   UNL     1      19.514  65.581  14.321  1.00  0.00    -0.028 CG0
ATOM      9  G   UNL     1      18.708  65.229  15.546  1.00  0.00     0.000 G0
ENDBRANCH   5   6
ENDBRANCH   4   5
ENDBRANCH   3   4
BRANCH   3  10
ATOM     10  C   UNL     1      23.334  63.335  17.347  1.00  0.00    -0.010 C 
ATOM     11  C   UNL     1      23.109  63.415  18.867  1.00  0.00     0.008 C 
ATOM     12  C   UNL     1      23.748  61.895  16.984  1.00  0.00     0.008 C 
ENDBRANCH   3  10
ENDBRANCH   2   3
BRANCH   1  13
ATOM     13  C   UNL     1      19.776  65.264  17.826  1.00  0.00    -0.055 C 
ATOM     14  C   UNL     1      20.189  65.840  18.957  1.00  0.00     0.012 C 
BRANCH  13  15
ATOM     15  C   UNL     1      19.118  66.084  16.745  1.00  0.00     0.039 C 
BRANCH  15  16
ATOM     16  C   UNL     1      18.691  65.229  15.536  1.00  0.00     0.032 CG0
ATOM     17  G   UNL     1      19.510  65.565  14.314  1.00  0.00     0.000 G0
ENDBRANCH  15  16
ENDBRANCH  13  15
ENDBRANCH   1  13
TORSDOF 1
ENDMDL
MODEL 5
REMARK VINA RESULT:    -2.788      1.905      3.829
REMARK INTER + INTRA:          -4.596
REMARK INTER:                  -4.518
REMARK INTRA:                  -0.078
REMARK UNBOUND:                -0.504
REMARK SMILES C=C1C=C[C@@H](C(C)C)CCC(C)=CCC1
REMARK SMILES IDX 3 1 4 2 5 3 9 4 10 5 11 6 12 7 13 8 6 10 7 11 8 12 2 13 1 14
REMARK SMILES IDX 15 15 14 16
REMARK H PARENT
REMARK Flexibility Score: 70.00
ROOT
ATOM      1  C   UNL     1      20.270  63.173  17.745  1.00  0.00    -0.001 C 
ATOM      2  C   UNL     1      20.133  63.465  16.444  1.00  0.00    -0.023 C 
ENDROOT
BRANCH   2   3
ATOM      3  C   UNL     1      21.288  63.776  15.511  1.00  0.00     0.014 C 
BRANCH   3   4
ATOM      4  C   UNL     1      21.663  65.280  15.655  1.00  0.00     0.012 C 
BRANCH   4   5
ATOM      5  C   UNL     1      23.142  65.512  16.055  1.00  0.00     0.031 C 
BRANCH   5   6
ATOM      6  C   UNL     1      24.059  64.392  15.584  1.00  0.00    -0.077 C 
ATOM      7  C   UNL     1      24.592  64.429  14.175  1.00  0.00     0.039 C 
ATOM      8  C   UNL     1      24.399  63.340  16.366  1.00  0.00    -0.028 CG0
ATOM      9  G   UNL     1      23.997  63.168  17.810  1.00  0.00     0.000 G0
ENDBRANCH   5   6
ENDBRANCH   4   5
ENDBRANCH   3   4
BRANCH   3  10
ATOM     10  C   UNL     1      20.915  63.387  14.045  1.00  0.00    -0.010 C 
ATOM     11  C   UNL     1      19.552  62.679  13.958  1.00  0.00     0.008 C 
ATOM     12  C   UNL     1      20.888  64.626  13.129  1.00  0.00     0.008 C 
ENDBRANCH   3  10
ENDBRANCH   2   3
BRANCH   1  13
ATOM     13  C   UNL     1      21.560  63.185  18.464  1.00  0.00    -0.055 C 
ATOM     14  C   UNL     1      21.737  64.035  19.476  1.00  0.00     0.012 C 
BRANCH  13  15
ATOM     15  C   UNL     1      22.709  62.350  17.955  1.00  0.00     0.039 C 
BRANCH  15  16
ATOM     16  C   UNL     1      24.010  63.165  17.814  1.00  0.00     0.032 CG0
ATOM     17  G   UNL     1      24.394  63.332  16.365  1.00  0.00     0.000 G0
ENDBRANCH  15  16
ENDBRANCH  13  15
ENDBRANCH   1  13
TORSDOF 1
ENDMDL
MODEL 6
REMARK VINA RESULT:    -2.643      1.280      1.830
REMARK INTER + INTRA:          -4.384
REMARK INTER:                  -4.364
REMARK INTRA:                  -0.020
REMARK UNBOUND:                -0.504
REMARK SMILES C=C1C=C[C@@H](C(C)C)CCC(C)=CCC1
REMARK SMILES IDX 3 1 4 2 5 3 9 4 10 5 11 6 12 7 13 8 6 10 7 11 8 12 2 13 1 14
REMARK SMILES IDX 15 15 14 16
REMARK H PARENT
REMARK Flexibility Score: 70.00
ROOT
ATOM      1  C   UNL     1      21.355  63.048  14.212  1.00  0.00    -0.001 C 
ATOM      2  C   UNL     1      20.228  63.366  14.863  1.00  0.00    -0.023 C 
ENDROOT
BRANCH   2   3
ATOM      3  C   UNL     1      20.183  64.129  16.174  1.00  0.00     0.014 C 
BRANCH   3   4
ATOM      4  C   UNL     1      20.218  63.111  17.352  1.00  0.00     0.012 C 
BRANCH   4   5
ATOM      5  C   UNL     1      21.550  63.127  18.143  1.00  0.00     0.031 C 
BRANCH   5   6
ATOM      6  C   UNL     1      22.014  64.537  18.480  1.00  0.00    -0.077 C 
ATOM      7  C   UNL     1      21.358  65.268  19.622  1.00  0.00     0.039 C 
ATOM      8  C   UNL     1      22.976  65.184  17.779  1.00  0.00    -0.028 CG0
ATOM      9  G   UNL     1      23.769  64.588  16.642  1.00  0.00     0.000 G0
ENDBRANCH   5   6
ENDBRANCH   4   5
ENDBRANCH   3   4
BRANCH   3  10
ATOM     10  C   UNL     1      18.925  65.053  16.216  1.00  0.00    -0.010 C 
ATOM     11  C   UNL     1      17.851  64.624  15.202  1.00  0.00     0.008 C 
ATOM     12  C   UNL     1      18.295  65.074  17.623  1.00  0.00     0.008 C 
ENDBRANCH   3  10
ENDBRANCH   2   3
BRANCH   1  13
ATOM     13  C   UNL     1      22.712  63.335  14.720  1.00  0.00    -0.055 C 
ATOM     14  C   UNL     1      23.610  62.349  14.780  1.00  0.00     0.012 C 
BRANCH  13  15
ATOM     15  C   UNL     1      23.023  64.690  15.303  1.00  0.00     0.039 C 
BRANCH  15  16
ATOM     16  C   UNL     1      23.776  64.594  16.644  1.00  0.00     0.032 CG0
ATOM     17  G   UNL     1      22.968  65.197  17.767  1.00  0.00     0.000 G0
ENDBRANCH  15  16
ENDBRANCH  13  15
ENDBRANCH   1  13
TORSDOF 1
ENDMDL
MODEL 7
REMARK VINA RESULT:    -2.618      1.800      4.140
REMARK INTER + INTRA:          -4.347
REMARK INTER:                  -4.431
REMARK INTRA:                   0.084
REMARK UNBOUND:                -0.504
REMARK SMILES C=C1C=C[C@@H](C(C)C)CCC(C)=CCC1
REMARK SMILES IDX 3 1 4 2 5 3 9 4 10 5 11 6 12 7 13 8 6 10 7 11 8 12 2 13 1 14
REMARK SMILES IDX 15 15 14 16
REMARK H PARENT
REMARK Flexibility Score: 70.00
ROOT
ATOM      1  C   UNL     1      22.206  62.869  13.971  1.00  0.00    -0.001 C 
ATOM      2  C   UNL     1      22.905  62.748  15.108  1.00  0.00    -0.023 C 
ENDROOT
BRANCH   2   3
ATOM      3  C   UNL     1      22.491  63.356  16.435  1.00  0.00     0.014 C 
BRANCH   3   4
ATOM      4  C   UNL     1      22.716  64.895  16.377  1.00  0.00     0.012 C 
BRANCH   4   5
ATOM      5  C   UNL     1      21.512  65.715  16.904  1.00  0.00     0.031 C 
BRANCH   5   6
ATOM      6  C   UNL     1      20.459  64.845  17.574  1.00  0.00    -0.077 C 
ATOM      7  C   UNL     1      20.558  64.590  19.056  1.00  0.00     0.039 C 
ATOM      8  C   UNL     1      19.444  64.259  16.895  1.00  0.00    -0.028 CG0
ATOM      9  G   UNL     1      19.166  64.444  15.424  1.00  0.00     0.000 G0
ENDBRANCH   5   6
ENDBRANCH   4   5
ENDBRANCH   3   4
BRANCH   3  10
ATOM     10  C   UNL     1      23.273  62.677  17.605  1.00  0.00    -0.010 C 
ATOM     11  C   UNL     1      24.086  61.459  17.134  1.00  0.00     0.008 C 
ATOM     12  C   UNL     1      24.230  63.675  18.288  1.00  0.00     0.008 C 
ENDBRANCH   3  10
ENDBRANCH   2   3
BRANCH   1  13
ATOM     13  C   UNL     1      20.974  63.671  13.839  1.00  0.00    -0.055 C 
ATOM     14  C   UNL     1      21.010  64.821  13.162  1.00  0.00     0.012 C 
BRANCH  13  15
ATOM     15  C   UNL     1      19.731  63.266  14.593  1.00  0.00     0.039 C 
BRANCH  15  16
ATOM     16  C   UNL     1      19.143  64.424  15.422  1.00  0.00     0.032 CG0
ATOM     17  G   UNL     1      19.455  64.256  16.889  1.00  0.00     0.000 G0
ENDBRANCH  15  16
ENDBRANCH  13  15
ENDBRANCH   1  13
TORSDOF 1
ENDMDL
MODEL 8
REMARK VINA RESULT:    -2.598      1.761      4.398
REMARK INTER + INTRA:          -4.317
REMARK INTER:                  -4.180
REMARK INTRA:                  -0.137
REMARK UNBOUND:                -0.504
REMARK SMILES C=C1C=C[C@@H](C(C)C)CCC(C)=CCC1
REMARK SMILES IDX 3 1 4 2 5 3 9 4 10 5 11 6 12 7 13 8 6 10 7 11 8 12 2 13 1 14
REMARK SMILES IDX 15 15 14 16
REMARK H PARENT
REMARK Flexibility Score: 70.00
ROOT
ATOM      1  C   UNL     1      20.594  63.256  14.599  1.00  0.00    -0.001 C 
ATOM      2  C   UNL     1      21.899  63.027  14.400  1.00  0.00    -0.023 C 
ENDROOT
BRANCH   2   3
ATOM      3  C   UNL     1      22.978  63.262  15.440  1.00  0.00     0.014 C 
BRANCH   3   4
ATOM      4  C   UNL     1      23.386  64.764  15.416  1.00  0.00     0.012 C 
BRANCH   4   5
ATOM      5  C   UNL     1      23.058  65.515  16.730  1.00  0.00     0.031 C 
BRANCH   5   6
ATOM      6  C   UNL     1      23.236  64.641  17.964  1.00  0.00    -0.077 C 
ATOM      7  C   UNL     1      24.626  64.393  18.488  1.00  0.00     0.039 C 
ATOM      8  C   UNL     1      22.199  64.047  18.602  1.00  0.00    -0.028 CG0
ATOM      9  G   UNL     1      20.745  64.226  18.245  1.00  0.00     0.000 G0
ENDBRANCH   5   6
ENDBRANCH   4   5
ENDBRANCH   3   4
BRANCH   3  10
ATOM     10  C   UNL     1      24.188  62.307  15.186  1.00  0.00    -0.010 C 
ATOM     11  C   UNL     1      24.385  61.298  16.330  1.00  0.00     0.008 C 
ATOM     12  C   UNL     1      24.017  61.530  13.865  1.00  0.00     0.008 C 
ENDBRANCH   3  10
ENDBRANCH   2   3
BRANCH   1  13
ATOM     13  C   UNL     1      20.037  63.836  15.838  1.00  0.00    -0.055 C 
ATOM     14  C   UNL     1      19.394  65.004  15.782  1.00  0.00     0.012 C 
BRANCH  13  15
ATOM     15  C   UNL     1      20.328  63.186  17.168  1.00  0.00     0.039 C 
BRANCH  15  16
ATOM     16  C   UNL     1      20.746  64.207  18.243  1.00  0.00     0.032 CG0
ATOM     17  G   UNL     1      22.200  64.046  18.611  1.00  0.00     0.000 G0
ENDBRANCH  15  16
ENDBRANCH  13  15
ENDBRANCH   1  13
TORSDOF 1
ENDMDL
MODEL 9
REMARK VINA RESULT:    -2.452      2.056      4.566
REMARK INTER + INTRA:          -4.103
REMARK INTER:                  -4.188
REMARK INTRA:                   0.085
REMARK UNBOUND:                -0.504
REMARK SMILES C=C1C=C[C@@H](C(C)C)CCC(C)=CCC1
REMARK SMILES IDX 3 1 4 2 5 3 9 4 10 5 11 6 12 7 13 8 6 10 7 11 8 12 2 13 1 14
REMARK SMILES IDX 15 15 14 16
REMARK H PARENT
REMARK Flexibility Score: 70.00
ROOT
ATOM      1  C   UNL     1      19.924  63.532  16.255  1.00  0.00    -0.001 C 
ATOM      2  C   UNL     1      21.066  63.611  16.952  1.00  0.00    -0.023 C 
ENDROOT
BRANCH   2   3
ATOM      3  C   UNL     1      22.399  64.035  16.365  1.00  0.00     0.014 C 
BRANCH   3   4
ATOM      4  C   UNL     1      23.075  62.799  15.703  1.00  0.00     0.012 C 
BRANCH   4   5
ATOM      5  C   UNL     1      22.962  62.786  14.158  1.00  0.00     0.031 C 
BRANCH   5   6
ATOM      6  C   UNL     1      23.435  64.088  13.526  1.00  0.00    -0.077 C 
ATOM      7  C   UNL     1      24.909  64.402  13.517  1.00  0.00     0.039 C 
ATOM      8  C   UNL     1      22.587  65.000  12.992  1.00  0.00    -0.028 CG0
ATOM      9  G   UNL     1      21.093  64.827  12.873  1.00  0.00     0.000 G0
ENDBRANCH   5   6
ENDBRANCH   4   5
ENDBRANCH   3   4
BRANCH   3  10
ATOM     10  C   UNL     1      23.289  64.687  17.470  1.00  0.00    -0.010 C 
ATOM     11  C   UNL     1      22.819  64.325  18.888  1.00  0.00     0.008 C 
ATOM     12  C   UNL     1      24.765  64.268  17.316  1.00  0.00     0.008 C 
ENDBRANCH   3  10
ENDBRANCH   2   3
BRANCH   1  13
ATOM     13  C   UNL     1      19.823  63.781  14.802  1.00  0.00    -0.055 C 
ATOM     14  C   UNL     1      19.364  62.815  14.004  1.00  0.00     0.012 C 
BRANCH  13  15
ATOM     15  C   UNL     1      20.377  65.057  14.220  1.00  0.00     0.039 C 
BRANCH  15  16
ATOM     16  C   UNL     1      21.088  64.828  12.871  1.00  0.00     0.032 CG0
ATOM     17  G   UNL     1      22.578  65.027  13.000  1.00  0.00     0.000 G0
ENDBRANCH  15  16
ENDBRANCH  13  15
ENDBRANCH   1  13
TORSDOF 1
ENDMDL
