MODEL 1
REMARK VINA RESULT:    -1.143      0.000      0.000
REMARK INTER + INTRA:          -2.754
REMARK INTER:                  -2.146
REMARK INTRA:                  -0.608
REMARK UNBOUND:                -0.608
REMARK SMILES O=C([O-])CCCCCCCCCCCCCCC(=O)[O-]
REMARK SMILES IDX 10 1 9 2 8 3 7 4 6 5 5 6 4 7 2 8 1 9 3 10 11 11 12 12 13 13
REMARK SMILES IDX 14 14 15 15 16 16 17 17 18 18 19 19 20 20
REMARK H PARENT
REMARK Flexibility Score: inf
ROOT
ATOM      1  C   UNL     1      34.881 104.745 264.273  1.00  0.00     0.000 C 
ENDROOT
BRANCH   1   2
ATOM      2  C   UNL     1      35.739 105.790 265.001  1.00  0.00     0.000 C 
BRANCH   2   3
ATOM      3  C   UNL     1      34.898 106.825 265.769  1.00  0.00     0.000 C 
BRANCH   3   4
ATOM      4  C   UNL     1      34.878 108.240 265.155  1.00  0.00     0.000 C 
BRANCH   4   5
ATOM      5  C   UNL     1      34.875 109.394 266.173  1.00  0.00     0.000 C 
BRANCH   5   6
ATOM      6  C   UNL     1      35.754 109.111 267.399  1.00  0.00     0.006 C 
BRANCH   6   7
ATOM      7  C   UNL     1      34.895 108.844 268.638  1.00  0.00     0.053 C 
BRANCH   7   8
ATOM      8  C   UNL     1      35.262 107.532 269.258  1.00  0.00     0.041 C 
ATOM      9  O   UNL     1      34.976 106.454 268.674  1.00  0.00    -0.550 OA
ATOM     10  O   UNL     1      35.876 107.498 270.503  1.00  0.00    -0.550 OA
ENDBRANCH   7   8
ENDBRANCH   6   7
ENDBRANCH   5   6
ENDBRANCH   4   5
ENDBRANCH   3   4
ENDBRANCH   2   3
ENDBRANCH   1   2
BRANCH   1  11
ATOM     11  C   UNL     1      35.730 103.930 263.287  1.00  0.00     0.000 C 
BRANCH  11  12
ATOM     12  C   UNL     1      35.395 104.238 261.819  1.00  0.00     0.000 C 
BRANCH  12  13
ATOM     13  C   UNL     1      36.084 105.514 261.310  1.00  0.00     0.000 C 
BRANCH  13  14
ATOM     14  C   UNL     1      36.781 105.263 259.967  1.00  0.00     0.000 C 
BRANCH  14  15
ATOM     15  C   UNL     1      37.892 106.295 259.721  1.00  0.00     0.000 C 
BRANCH  15  16
ATOM     16  C   UNL     1      39.140 106.055 260.589  1.00  0.00     0.006 C 
BRANCH  16  17
ATOM     17  C   UNL     1      39.564 107.274 261.427  1.00  0.00     0.053 C 
BRANCH  17  18
ATOM     18  C   UNL     1      39.185 107.145 262.871  1.00  0.00     0.041 C 
ATOM     19  O   UNL     1      38.057 107.535 263.270  1.00  0.00    -0.550 OA
ATOM     20  O   UNL     1      40.093 106.621 263.783  1.00  0.00    -0.550 OA
ENDBRANCH  17  18
ENDBRANCH  16  17
ENDBRANCH  15  16
ENDBRANCH  14  15
ENDBRANCH  13  14
ENDBRANCH  12  13
ENDBRANCH  11  12
ENDBRANCH   1  11
TORSDOF 15
ENDMDL
MODEL 2
REMARK VINA RESULT:    -1.128      1.897      7.578
REMARK INTER + INTRA:          -2.726
REMARK INTER:                  -4.774
REMARK INTRA:                   2.048
REMARK UNBOUND:                -0.608
REMARK SMILES O=C([O-])CCCCCCCCCCCCCCC(=O)[O-]
REMARK SMILES IDX 10 1 9 2 8 3 7 4 6 5 5 6 4 7 2 8 1 9 3 10 11 11 12 12 13 13
REMARK SMILES IDX 14 14 15 15 16 16 17 17 18 18 19 19 20 20
REMARK H PARENT
REMARK Flexibility Score: inf
ROOT
ATOM      1  C   UNL     1      38.010 107.425 263.687  1.00  0.00     0.000 C 
ENDROOT
BRANCH   1   2
ATOM      2  C   UNL     1      39.330 107.281 262.916  1.00  0.00     0.000 C 
BRANCH   2   3
ATOM      3  C   UNL     1      39.134 107.272 261.389  1.00  0.00     0.000 C 
BRANCH   3   4
ATOM      4  C   UNL     1      39.106 105.873 260.740  1.00  0.00     0.000 C 
BRANCH   4   5
ATOM      5  C   UNL     1      37.763 105.475 260.104  1.00  0.00     0.000 C 
BRANCH   5   6
ATOM      6  C   UNL     1      37.846 105.326 258.578  1.00  0.00     0.006 C 
BRANCH   6   7
ATOM      7  C   UNL     1      37.218 106.533 257.875  1.00  0.00     0.053 C 
BRANCH   7   8
ATOM      8  C   UNL     1      36.401 107.335 258.839  1.00  0.00     0.041 C 
ATOM      9  O   UNL     1      36.299 106.969 260.039  1.00  0.00    -0.550 OA
ATOM     10  O   UNL     1      35.713 108.458 258.401  1.00  0.00    -0.550 OA
ENDBRANCH   7   8
ENDBRANCH   6   7
ENDBRANCH   5   6
ENDBRANCH   4   5
ENDBRANCH   3   4
ENDBRANCH   2   3
ENDBRANCH   1   2
BRANCH   1  11
ATOM     11  C   UNL     1      37.013 106.332 263.274  1.00  0.00     0.000 C 
BRANCH  11  12
ATOM     12  C   UNL     1      35.553 106.732 263.536  1.00  0.00     0.000 C 
BRANCH  12  13
ATOM     13  C   UNL     1      34.876 105.846 264.593  1.00  0.00     0.000 C 
BRANCH  13  14
ATOM     14  C   UNL     1      34.951 106.491 265.982  1.00  0.00     0.000 C 
BRANCH  14  15
ATOM     15  C   UNL     1      34.967 108.023 265.878  1.00  0.00     0.000 C 
BRANCH  15  16
ATOM     16  C   UNL     1      34.915 108.721 267.250  1.00  0.00     0.006 C 
BRANCH  16  17
ATOM     17  C   UNL     1      35.990 108.237 268.239  1.00  0.00     0.053 C 
BRANCH  17  18
ATOM     18  C   UNL     1      35.471 107.218 269.206  1.00  0.00     0.041 C 
ATOM     19  O   UNL     1      35.210 106.049 268.820  1.00  0.00    -0.550 OA
ATOM     20  O   UNL     1      35.243 107.570 270.532  1.00  0.00    -0.550 OA
ENDBRANCH  17  18
ENDBRANCH  16  17
ENDBRANCH  15  16
ENDBRANCH  14  15
ENDBRANCH  13  14
ENDBRANCH  12  13
ENDBRANCH  11  12
ENDBRANCH   1  11
TORSDOF 15
ENDMDL
MODEL 3
REMARK VINA RESULT:    -0.767      2.613      7.621
REMARK INTER + INTRA:          -2.048
REMARK INTER:                  -2.453
REMARK INTRA:                   0.405
REMARK UNBOUND:                -0.608
REMARK SMILES O=C([O-])CCCCCCCCCCCCCCC(=O)[O-]
REMARK SMILES IDX 10 1 9 2 8 3 7 4 6 5 5 6 4 7 2 8 1 9 3 10 11 11 12 12 13 13
REMARK SMILES IDX 14 14 15 15 16 16 17 17 18 18 19 19 20 20
REMARK H PARENT
REMARK Flexibility Score: inf
ROOT
ATOM      1  C   UNL     1      34.883 106.581 264.800  1.00  0.00     0.000 C 
ENDROOT
BRANCH   1   2
ATOM      2  C   UNL     1      35.453 106.904 263.412  1.00  0.00     0.000 C 
BRANCH   2   3
ATOM      3  C   UNL     1      36.834 106.267 263.169  1.00  0.00     0.000 C 
BRANCH   3   4
ATOM      4  C   UNL     1      37.940 107.249 262.732  1.00  0.00     0.000 C 
BRANCH   4   5
ATOM      5  C   UNL     1      39.191 106.594 262.121  1.00  0.00     0.000 C 
BRANCH   5   6
ATOM      6  C   UNL     1      38.981 106.148 260.667  1.00  0.00     0.006 C 
BRANCH   6   7
ATOM      7  C   UNL     1      38.044 107.108 259.929  1.00  0.00     0.053 C 
BRANCH   7   8
ATOM      8  C   UNL     1      37.353 106.406 258.803  1.00  0.00     0.041 C 
ATOM      9  O   UNL     1      37.947 105.496 258.166  1.00  0.00    -0.550 OA
ATOM     10  O   UNL     1      36.074 106.788 258.425  1.00  0.00    -0.550 OA
ENDBRANCH   7   8
ENDBRANCH   6   7
ENDBRANCH   5   6
ENDBRANCH   4   5
ENDBRANCH   3   4
ENDBRANCH   2   3
ENDBRANCH   1   2
BRANCH   1  11
ATOM     11  C   UNL     1      35.482 105.278 265.349  1.00  0.00     0.000 C 
BRANCH  11  12
ATOM     12  C   UNL     1      35.086 105.012 266.810  1.00  0.00     0.000 C 
BRANCH  12  13
ATOM     13  C   UNL     1      34.875 106.306 267.611  1.00  0.00     0.000 C 
BRANCH  13  14
ATOM     14  C   UNL     1      35.632 106.257 268.945  1.00  0.00     0.000 C 
BRANCH  14  15
ATOM     15  C   UNL     1      35.195 107.402 269.870  1.00  0.00     0.000 C 
BRANCH  15  16
ATOM     16  C   UNL     1      35.306 108.788 269.207  1.00  0.00     0.006 C 
BRANCH  16  17
ATOM     17  C   UNL     1      35.300 108.748 267.669  1.00  0.00     0.053 C 
BRANCH  17  18
ATOM     18  C   UNL     1      35.234 110.113 267.056  1.00  0.00     0.041 C 
ATOM     19  O   UNL     1      35.236 110.249 265.804  1.00  0.00    -0.550 OA
ATOM     20  O   UNL     1      35.202 111.240 267.868  1.00  0.00    -0.550 OA
ENDBRANCH  17  18
ENDBRANCH  16  17
ENDBRANCH  15  16
ENDBRANCH  14  15
ENDBRANCH  13  14
ENDBRANCH  12  13
ENDBRANCH  11  12
ENDBRANCH   1  11
TORSDOF 15
ENDMDL
MODEL 4
REMARK VINA RESULT:    -0.126      1.844      3.669
REMARK INTER + INTRA:          -0.846
REMARK INTER:                  -1.250
REMARK INTRA:                   0.405
REMARK UNBOUND:                -0.608
REMARK SMILES O=C([O-])CCCCCCCCCCCCCCC(=O)[O-]
REMARK SMILES IDX 10 1 9 2 8 3 7 4 6 5 5 6 4 7 2 8 1 9 3 10 11 11 12 12 13 13
REMARK SMILES IDX 14 14 15 15 16 16 17 17 18 18 19 19 20 20
REMARK H PARENT
REMARK Flexibility Score: inf
ROOT
ATOM      1  C   UNL     1      38.838 106.527 262.104  1.00  0.00     0.000 C 
ENDROOT
BRANCH   1   2
ATOM      2  C   UNL     1      38.015 107.608 262.818  1.00  0.00     0.000 C 
BRANCH   2   3
ATOM      3  C   UNL     1      36.983 107.024 263.800  1.00  0.00     0.000 C 
BRANCH   3   4
ATOM      4  C   UNL     1      35.853 107.988 264.213  1.00  0.00     0.000 C 
BRANCH   4   5
ATOM      5  C   UNL     1      35.239 107.720 265.598  1.00  0.00     0.000 C 
BRANCH   5   6
ATOM      6  C   UNL     1      35.890 108.553 266.711  1.00  0.00     0.006 C 
BRANCH   6   7
ATOM      7  C   UNL     1      35.002 108.593 267.957  1.00  0.00     0.053 C 
BRANCH   7   8
ATOM      8  C   UNL     1      35.223 107.375 268.798  1.00  0.00     0.041 C 
ATOM      9  O   UNL     1      35.740 107.481 269.942  1.00  0.00    -0.550 OA
ATOM     10  O   UNL     1      34.904 106.119 268.301  1.00  0.00    -0.550 OA
ENDBRANCH   7   8
ENDBRANCH   6   7
ENDBRANCH   5   6
ENDBRANCH   4   5
ENDBRANCH   3   4
ENDBRANCH   2   3
ENDBRANCH   1   2
BRANCH   1  11
ATOM     11  C   UNL     1      38.616 106.583 260.585  1.00  0.00     0.000 C 
BRANCH  11  12
ATOM     12  C   UNL     1      37.190 106.177 260.180  1.00  0.00     0.000 C 
BRANCH  12  13
ATOM     13  C   UNL     1      36.751 104.847 260.810  1.00  0.00     0.000 C 
BRANCH  13  14
ATOM     14  C   UNL     1      35.389 104.989 261.502  1.00  0.00     0.000 C 
BRANCH  14  15
ATOM     15  C   UNL     1      35.149 103.838 262.489  1.00  0.00     0.000 C 
BRANCH  15  16
ATOM     16  C   UNL     1      34.876 104.322 263.925  1.00  0.00     0.006 C 
BRANCH  16  17
ATOM     17  C   UNL     1      36.144 104.696 264.712  1.00  0.00     0.053 C 
BRANCH  17  18
ATOM     18  C   UNL     1      36.336 103.853 265.935  1.00  0.00     0.041 C 
ATOM     19  O   UNL     1      35.504 103.902 266.879  1.00  0.00    -0.550 OA
ATOM     20  O   UNL     1      37.453 103.033 266.047  1.00  0.00    -0.550 OA
ENDBRANCH  17  18
ENDBRANCH  16  17
ENDBRANCH  15  16
ENDBRANCH  14  15
ENDBRANCH  13  14
ENDBRANCH  12  13
ENDBRANCH  11  12
ENDBRANCH   1  11
TORSDOF 15
ENDMDL
MODEL 5
REMARK VINA RESULT:     1.739      0.963      6.819
REMARK INTER + INTRA:           2.655
REMARK INTER:                   2.732
REMARK INTRA:                  -0.077
REMARK UNBOUND:                -0.608
REMARK SMILES O=C([O-])CCCCCCCCCCCCCCC(=O)[O-]
REMARK SMILES IDX 10 1 9 2 8 3 7 4 6 5 5 6 4 7 2 8 1 9 3 10 11 11 12 12 13 13
REMARK SMILES IDX 14 14 15 15 16 16 17 17 18 18 19 19 20 20
REMARK H PARENT
REMARK Flexibility Score: inf
ROOT
ATOM      1  C   UNL     1      36.102 104.490 263.577  1.00  0.00     0.000 C 
ENDROOT
BRANCH   1   2
ATOM      2  C   UNL     1      35.698 103.920 262.209  1.00  0.00     0.000 C 
BRANCH   2   3
ATOM      3  C   UNL     1      35.681 104.986 261.098  1.00  0.00     0.000 C 
BRANCH   3   4
ATOM      4  C   UNL     1      36.306 106.343 261.482  1.00  0.00     0.000 C 
BRANCH   4   5
ATOM      5  C   UNL     1      37.087 107.044 260.356  1.00  0.00     0.000 C 
BRANCH   5   6
ATOM      6  C   UNL     1      38.356 106.283 259.948  1.00  0.00     0.006 C 
BRANCH   6   7
ATOM      7  C   UNL     1      39.112 105.778 261.179  1.00  0.00     0.053 C 
BRANCH   7   8
ATOM      8  C   UNL     1      39.465 106.917 262.083  1.00  0.00     0.041 C 
ATOM      9  O   UNL     1      40.157 107.877 261.650  1.00  0.00    -0.550 OA
ATOM     10  O   UNL     1      39.073 106.897 263.414  1.00  0.00    -0.550 OA
ENDBRANCH   7   8
ENDBRANCH   6   7
ENDBRANCH   5   6
ENDBRANCH   4   5
ENDBRANCH   3   4
ENDBRANCH   2   3
ENDBRANCH   1   2
BRANCH   1  11
ATOM     11  C   UNL     1      34.881 105.054 264.317  1.00  0.00     0.000 C 
BRANCH  11  12
ATOM     12  C   UNL     1      35.036 104.997 265.845  1.00  0.00     0.000 C 
BRANCH  12  13
ATOM     13  C   UNL     1      34.875 106.373 266.509  1.00  0.00     0.000 C 
BRANCH  13  14
ATOM     14  C   UNL     1      34.916 107.496 265.464  1.00  0.00     0.000 C 
BRANCH  14  15
ATOM     15  C   UNL     1      35.257 108.844 266.117  1.00  0.00     0.000 C 
BRANCH  15  16
ATOM     16  C   UNL     1      35.911 108.694 267.503  1.00  0.00     0.006 C 
BRANCH  16  17
ATOM     17  C   UNL     1      34.904 108.541 268.656  1.00  0.00     0.053 C 
BRANCH  17  18
ATOM     18  C   UNL     1      35.390 107.615 269.729  1.00  0.00     0.041 C 
ATOM     19  O   UNL     1      35.717 106.432 269.449  1.00  0.00    -0.550 OA
ATOM     20  O   UNL     1      35.451 108.051 271.048  1.00  0.00    -0.550 OA
ENDBRANCH  17  18
ENDBRANCH  16  17
ENDBRANCH  15  16
ENDBRANCH  14  15
ENDBRANCH  13  14
ENDBRANCH  12  13
ENDBRANCH  11  12
ENDBRANCH   1  11
TORSDOF 15
ENDMDL
