MODEL 1
REMARK VINA RESULT:    -4.658      0.000      0.000
REMARK INTER + INTRA:          -7.351
REMARK INTER:                  -6.837
REMARK INTRA:                  -0.515
REMARK UNBOUND:                -0.515
REMARK SMILES O=C([O-])CCCCCCCC(=O)[O-]
REMARK SMILES IDX 7 1 6 2 5 3 4 4 2 5 1 6 3 7 8 8 9 9 10 10 11 11 12 12 13 13
REMARK H PARENT
REMARK Flexibility Score: inf
ROOT
ATOM      1  C   UNL     1     -13.040 -28.066 -34.734  1.00  0.00     0.000 C 
ENDROOT
BRANCH   1   2
ATOM      2  C   UNL     1     -13.773 -27.806 -33.412  1.00  0.00     0.000 C 
BRANCH   2   3
ATOM      3  C   UNL     1     -12.994 -28.384 -32.226  1.00  0.00     0.006 C 
BRANCH   3   4
ATOM      4  C   UNL     1     -12.599 -27.283 -31.238  1.00  0.00     0.053 C 
BRANCH   4   5
ATOM      5  C   UNL     1     -11.178 -27.452 -30.805  1.00  0.00     0.041 C 
ATOM      6  O   UNL     1     -10.877 -28.312 -29.937  1.00  0.00    -0.550 OA
ATOM      7  O   UNL     1     -10.176 -26.693 -31.398  1.00  0.00    -0.550 OA
ENDBRANCH   4   5
ENDBRANCH   3   4
ENDBRANCH   2   3
ENDBRANCH   1   2
BRANCH   1   8
ATOM      8  C   UNL     1     -11.544 -27.754 -34.604  1.00  0.00     0.000 C 
BRANCH   8   9
ATOM      9  C   UNL     1     -11.196 -26.429 -35.299  1.00  0.00     0.006 C 
BRANCH   9  10
ATOM     10  C   UNL     1     -11.948 -25.239 -34.690  1.00  0.00     0.053 C 
BRANCH  10  11
ATOM     11  C   UNL     1     -12.689 -24.458 -35.732  1.00  0.00     0.041 C 
ATOM     12  O   UNL     1     -13.350 -25.055 -36.622  1.00  0.00    -0.550 OA
ATOM     13  O   UNL     1     -12.676 -23.069 -35.698  1.00  0.00    -0.550 OA
ENDBRANCH  10  11
ENDBRANCH   9  10
ENDBRANCH   8   9
ENDBRANCH   1   8
TORSDOF 8
ENDMDL
MODEL 2
REMARK VINA RESULT:    -4.536      1.050      4.943
REMARK INTER + INTRA:          -7.171
REMARK INTER:                  -6.571
REMARK INTRA:                  -0.600
REMARK UNBOUND:                -0.515
REMARK SMILES O=C([O-])CCCCCCCC(=O)[O-]
REMARK SMILES IDX 7 1 6 2 5 3 4 4 2 5 1 6 3 7 8 8 9 9 10 10 11 11 12 12 13 13
REMARK H PARENT
REMARK Flexibility Score: inf
ROOT
ATOM      1  C   UNL     1     -12.206 -28.567 -33.670  1.00  0.00     0.000 C 
ENDROOT
BRANCH   1   2
ATOM      2  C   UNL     1     -12.447 -27.722 -34.927  1.00  0.00     0.000 C 
BRANCH   2   3
ATOM      3  C   UNL     1     -11.505 -26.513 -34.967  1.00  0.00     0.006 C 
BRANCH   3   4
ATOM      4  C   UNL     1     -12.226 -25.241 -34.515  1.00  0.00     0.053 C 
BRANCH   4   5
ATOM      5  C   UNL     1     -12.689 -24.452 -35.698  1.00  0.00     0.041 C 
ATOM      6  O   UNL     1     -13.198 -25.037 -36.690  1.00  0.00    -0.550 OA
ATOM      7  O   UNL     1     -12.606 -23.065 -35.685  1.00  0.00    -0.550 OA
ENDBRANCH   4   5
ENDBRANCH   3   4
ENDBRANCH   2   3
ENDBRANCH   1   2
BRANCH   1   8
ATOM      8  C   UNL     1     -13.173 -28.173 -32.547  1.00  0.00     0.000 C 
BRANCH   8   9
ATOM      9  C   UNL     1     -12.487 -28.255 -31.175  1.00  0.00     0.006 C 
BRANCH   9  10
ATOM     10  C   UNL     1     -11.029 -27.780 -31.226  1.00  0.00     0.053 C 
BRANCH  10  11
ATOM     11  C   UNL     1     -10.923 -26.293 -31.077  1.00  0.00     0.041 C 
ATOM     12  O   UNL     1      -9.944 -25.674 -31.570  1.00  0.00    -0.550 OA
ATOM     13  O   UNL     1     -11.925 -25.588 -30.420  1.00  0.00    -0.550 OA
ENDBRANCH  10  11
ENDBRANCH   9  10
ENDBRANCH   8   9
ENDBRANCH   1   8
TORSDOF 8
ENDMDL
MODEL 3
REMARK VINA RESULT:    -4.489      1.372      2.065
REMARK INTER + INTRA:          -7.103
REMARK INTER:                  -6.314
REMARK INTRA:                  -0.789
REMARK UNBOUND:                -0.515
REMARK SMILES O=C([O-])CCCCCCCC(=O)[O-]
REMARK SMILES IDX 7 1 6 2 5 3 4 4 2 5 1 6 3 7 8 8 9 9 10 10 11 11 12 12 13 13
REMARK H PARENT
REMARK Flexibility Score: inf
ROOT
ATOM      1  C   UNL     1     -13.137 -28.093 -32.847  1.00  0.00     0.000 C 
ENDROOT
BRANCH   1   2
ATOM      2  C   UNL     1     -12.912 -28.628 -31.427  1.00  0.00     0.000 C 
BRANCH   2   3
ATOM      3  C   UNL     1     -11.694 -27.964 -30.775  1.00  0.00     0.006 C 
BRANCH   3   4
ATOM      4  C   UNL     1     -11.916 -26.460 -30.599  1.00  0.00     0.053 C 
BRANCH   4   5
ATOM      5  C   UNL     1     -10.783 -25.689 -31.198  1.00  0.00     0.041 C 
ATOM      6  O   UNL     1      -9.650 -26.222 -31.323  1.00  0.00    -0.550 OA
ATOM      7  O   UNL     1     -10.992 -24.398 -31.666  1.00  0.00    -0.550 OA
ENDBRANCH   4   5
ENDBRANCH   3   4
ENDBRANCH   2   3
ENDBRANCH   1   2
BRANCH   1   8
ATOM      8  C   UNL     1     -11.956 -28.442 -33.761  1.00  0.00     0.000 C 
BRANCH   8   9
ATOM      9  C   UNL     1     -11.517 -27.221 -34.583  1.00  0.00     0.006 C 
BRANCH   9  10
ATOM     10  C   UNL     1     -12.518 -26.063 -34.483  1.00  0.00     0.053 C 
BRANCH  10  11
ATOM     11  C   UNL     1     -13.375 -25.963 -35.708  1.00  0.00     0.041 C 
ATOM     12  O   UNL     1     -13.109 -25.118 -36.602  1.00  0.00    -0.550 OA
ATOM     13  O   UNL     1     -14.449 -26.829 -35.876  1.00  0.00    -0.550 OA
ENDBRANCH  10  11
ENDBRANCH   9  10
ENDBRANCH   8   9
ENDBRANCH   1   8
TORSDOF 8
ENDMDL
MODEL 4
REMARK VINA RESULT:    -4.465      1.939      2.695
REMARK INTER + INTRA:          -7.067
REMARK INTER:                  -6.204
REMARK INTRA:                  -0.864
REMARK UNBOUND:                -0.515
REMARK SMILES O=C([O-])CCCCCCCC(=O)[O-]
REMARK SMILES IDX 7 1 6 2 5 3 4 4 2 5 1 6 3 7 8 8 9 9 10 10 11 11 12 12 13 13
REMARK H PARENT
REMARK Flexibility Score: inf
ROOT
ATOM      1  C   UNL     1     -13.017 -28.192 -32.530  1.00  0.00     0.000 C 
ENDROOT
BRANCH   1   2
ATOM      2  C   UNL     1     -11.541 -27.821 -32.725  1.00  0.00     0.000 C 
BRANCH   2   3
ATOM      3  C   UNL     1     -11.066 -26.859 -31.630  1.00  0.00     0.006 C 
BRANCH   3   4
ATOM      4  C   UNL     1     -10.825 -25.458 -32.197  1.00  0.00     0.053 C 
BRANCH   4   5
ATOM      5  C   UNL     1     -12.046 -24.610 -32.034  1.00  0.00     0.041 C 
ATOM      6  O   UNL     1     -12.895 -24.884 -31.146  1.00  0.00    -0.550 OA
ATOM      7  O   UNL     1     -12.223 -23.486 -32.831  1.00  0.00    -0.550 OA
ENDBRANCH   4   5
ENDBRANCH   3   4
ENDBRANCH   2   3
ENDBRANCH   1   2
BRANCH   1   8
ATOM      8  C   UNL     1     -13.902 -27.495 -33.570  1.00  0.00     0.000 C 
BRANCH   8   9
ATOM      9  C   UNL     1     -13.326 -27.663 -34.984  1.00  0.00     0.006 C 
BRANCH   9  10
ATOM     10  C   UNL     1     -13.648 -26.465 -35.888  1.00  0.00     0.053 C 
BRANCH  10  11
ATOM     11  C   UNL     1     -12.572 -25.424 -35.834  1.00  0.00     0.041 C 
ATOM     12  O   UNL     1     -11.373 -25.758 -35.651  1.00  0.00    -0.550 OA
ATOM     13  O   UNL     1     -12.893 -24.084 -36.020  1.00  0.00    -0.550 OA
ENDBRANCH  10  11
ENDBRANCH   9  10
ENDBRANCH   8   9
ENDBRANCH   1   8
TORSDOF 8
ENDMDL
MODEL 5
REMARK VINA RESULT:    -4.395      2.136      3.931
REMARK INTER + INTRA:          -6.965
REMARK INTER:                  -6.112
REMARK INTRA:                  -0.852
REMARK UNBOUND:                -0.515
REMARK SMILES O=C([O-])CCCCCCCC(=O)[O-]
REMARK SMILES IDX 7 1 6 2 5 3 4 4 2 5 1 6 3 7 8 8 9 9 10 10 11 11 12 12 13 13
REMARK H PARENT
REMARK Flexibility Score: inf
ROOT
ATOM      1  C   UNL     1     -12.022 -28.086 -30.393  1.00  0.00     0.000 C 
ENDROOT
BRANCH   1   2
ATOM      2  C   UNL     1     -13.017 -28.628 -31.425  1.00  0.00     0.000 C 
BRANCH   2   3
ATOM      3  C   UNL     1     -12.492 -28.433 -32.853  1.00  0.00     0.006 C 
BRANCH   3   4
ATOM      4  C   UNL     1     -13.452 -27.573 -33.678  1.00  0.00     0.053 C 
BRANCH   4   5
ATOM      5  C   UNL     1     -12.754 -27.012 -34.876  1.00  0.00     0.041 C 
ATOM      6  O   UNL     1     -11.536 -27.260 -35.074  1.00  0.00    -0.550 OA
ATOM      7  O   UNL     1     -13.462 -26.257 -35.803  1.00  0.00    -0.550 OA
ENDBRANCH   4   5
ENDBRANCH   3   4
ENDBRANCH   2   3
ENDBRANCH   1   2
BRANCH   1   8
ATOM      8  C   UNL     1     -10.724 -27.625 -31.067  1.00  0.00     0.000 C 
BRANCH   8   9
ATOM      9  C   UNL     1     -10.505 -26.118 -30.869  1.00  0.00     0.006 C 
BRANCH   9  10
ATOM     10  C   UNL     1     -10.709 -25.326 -32.167  1.00  0.00     0.053 C 
BRANCH  10  11
ATOM     11  C   UNL     1     -11.975 -24.526 -32.136  1.00  0.00     0.041 C 
ATOM     12  O   UNL     1     -12.902 -24.834 -31.342  1.00  0.00    -0.550 OA
ATOM     13  O   UNL     1     -12.117 -23.418 -32.963  1.00  0.00    -0.550 OA
ENDBRANCH  10  11
ENDBRANCH   9  10
ENDBRANCH   8   9
ENDBRANCH   1   8
TORSDOF 8
ENDMDL
MODEL 6
REMARK VINA RESULT:    -4.350      1.697      5.397
REMARK INTER + INTRA:          -6.898
REMARK INTER:                  -6.530
REMARK INTRA:                  -0.368
REMARK UNBOUND:                -0.515
REMARK SMILES O=C([O-])CCCCCCCC(=O)[O-]
REMARK SMILES IDX 7 1 6 2 5 3 4 4 2 5 1 6 3 7 8 8 9 9 10 10 11 11 12 12 13 13
REMARK H PARENT
REMARK Flexibility Score: inf
ROOT
ATOM      1  C   UNL     1     -13.652 -26.944 -35.435  1.00  0.00     0.000 C 
ENDROOT
BRANCH   1   2
ATOM      2  C   UNL     1     -13.421 -25.634 -36.200  1.00  0.00     0.000 C 
BRANCH   2   3
ATOM      3  C   UNL     1     -12.365 -24.768 -35.503  1.00  0.00     0.006 C 
BRANCH   3   4
ATOM      4  C   UNL     1     -12.560 -23.288 -35.839  1.00  0.00     0.053 C 
BRANCH   4   5
ATOM      5  C   UNL     1     -12.865 -22.505 -34.602  1.00  0.00     0.041 C 
ATOM      6  O   UNL     1     -13.646 -21.518 -34.653  1.00  0.00    -0.550 OA
ATOM      7  O   UNL     1     -12.328 -22.894 -33.382  1.00  0.00    -0.550 OA
ENDBRANCH   4   5
ENDBRANCH   3   4
ENDBRANCH   2   3
ENDBRANCH   1   2
BRANCH   1   8
ATOM      8  C   UNL     1     -12.324 -27.547 -34.963  1.00  0.00     0.000 C 
BRANCH   8   9
ATOM      9  C   UNL     1     -12.497 -28.277 -33.623  1.00  0.00     0.006 C 
BRANCH   9  10
ATOM     10  C   UNL     1     -11.820 -27.534 -32.465  1.00  0.00     0.053 C 
BRANCH  10  11
ATOM     11  C   UNL     1     -11.970 -28.270 -31.168  1.00  0.00     0.041 C 
ATOM     12  O   UNL     1     -12.982 -28.990 -30.960  1.00  0.00    -0.550 OA
ATOM     13  O   UNL     1     -10.973 -28.187 -30.203  1.00  0.00    -0.550 OA
ENDBRANCH  10  11
ENDBRANCH   9  10
ENDBRANCH   8   9
ENDBRANCH   1   8
TORSDOF 8
ENDMDL
MODEL 7
REMARK VINA RESULT:    -4.152      1.649      2.446
REMARK INTER + INTRA:          -6.608
REMARK INTER:                  -6.036
REMARK INTRA:                  -0.571
REMARK UNBOUND:                -0.515
REMARK SMILES O=C([O-])CCCCCCCC(=O)[O-]
REMARK SMILES IDX 7 1 6 2 5 3 4 4 2 5 1 6 3 7 8 8 9 9 10 10 11 11 12 12 13 13
REMARK H PARENT
REMARK Flexibility Score: inf
ROOT
ATOM      1  C   UNL     1     -13.575 -26.663 -35.116  1.00  0.00     0.000 C 
ENDROOT
BRANCH   1   2
ATOM      2  C   UNL     1     -12.617 -27.843 -35.317  1.00  0.00     0.000 C 
BRANCH   2   3
ATOM      3  C   UNL     1     -11.959 -28.250 -33.993  1.00  0.00     0.006 C 
BRANCH   3   4
ATOM      4  C   UNL     1     -12.616 -27.534 -32.811  1.00  0.00     0.053 C 
BRANCH   4   5
ATOM      5  C   UNL     1     -12.319 -28.253 -31.533  1.00  0.00     0.041 C 
ATOM      6  O   UNL     1     -11.211 -28.092 -30.957  1.00  0.00    -0.550 OA
ATOM      7  O   UNL     1     -13.287 -29.062 -30.950  1.00  0.00    -0.550 OA
ENDBRANCH   4   5
ENDBRANCH   3   4
ENDBRANCH   2   3
ENDBRANCH   1   2
BRANCH   1   8
ATOM      8  C   UNL     1     -13.340 -25.576 -36.172  1.00  0.00     0.000 C 
BRANCH   8   9
ATOM      9  C   UNL     1     -12.295 -24.559 -35.691  1.00  0.00     0.006 C 
BRANCH   9  10
ATOM     10  C   UNL     1     -12.520 -24.140 -34.232  1.00  0.00     0.053 C 
BRANCH  10  11
ATOM     11  C   UNL     1     -12.558 -22.650 -34.081  1.00  0.00     0.041 C 
ATOM     12  O   UNL     1     -13.309 -21.956 -34.814  1.00  0.00    -0.550 OA
ATOM     13  O   UNL     1     -11.786 -22.032 -33.104  1.00  0.00    -0.550 OA
ENDBRANCH  10  11
ENDBRANCH   9  10
ENDBRANCH   8   9
ENDBRANCH   1   8
TORSDOF 8
ENDMDL
MODEL 8
REMARK VINA RESULT:    -4.110      2.020      5.185
REMARK INTER + INTRA:          -6.547
REMARK INTER:                  -5.920
REMARK INTRA:                  -0.626
REMARK UNBOUND:                -0.515
REMARK SMILES O=C([O-])CCCCCCCC(=O)[O-]
REMARK SMILES IDX 7 1 6 2 5 3 4 4 2 5 1 6 3 7 8 8 9 9 10 10 11 11 12 12 13 13
REMARK H PARENT
REMARK Flexibility Score: inf
ROOT
ATOM      1  C   UNL     1     -11.190 -24.980 -32.527  1.00  0.00     0.000 C 
ENDROOT
BRANCH   1   2
ATOM      2  C   UNL     1     -12.291 -24.651 -33.544  1.00  0.00     0.000 C 
BRANCH   2   3
ATOM      3  C   UNL     1     -12.064 -25.399 -34.863  1.00  0.00     0.006 C 
BRANCH   3   4
ATOM      4  C   UNL     1     -11.315 -26.713 -34.627  1.00  0.00     0.053 C 
BRANCH   4   5
ATOM      5  C   UNL     1     -12.256 -27.873 -34.699  1.00  0.00     0.041 C 
ATOM      6  O   UNL     1     -13.205 -27.869 -35.526  1.00  0.00    -0.550 OA
ATOM      7  O   UNL     1     -12.056 -28.982 -33.887  1.00  0.00    -0.550 OA
ENDBRANCH   4   5
ENDBRANCH   3   4
ENDBRANCH   2   3
ENDBRANCH   1   2
BRANCH   1   8
ATOM      8  C   UNL     1     -11.729 -24.920 -31.093  1.00  0.00     0.000 C 
BRANCH   8   9
ATOM      9  C   UNL     1     -13.039 -25.712 -30.963  1.00  0.00     0.006 C 
BRANCH   9  10
ATOM     10  C   UNL     1     -12.942 -26.826 -29.914  1.00  0.00     0.053 C 
BRANCH  10  11
ATOM     11  C   UNL     1     -12.448 -28.109 -30.509  1.00  0.00     0.041 C 
ATOM     12  O   UNL     1     -11.214 -28.306 -30.659  1.00  0.00    -0.550 OA
ATOM     13  O   UNL     1     -13.353 -29.102 -30.867  1.00  0.00    -0.550 OA
ENDBRANCH  10  11
ENDBRANCH   9  10
ENDBRANCH   8   9
ENDBRANCH   1   8
TORSDOF 8
ENDMDL
MODEL 9
REMARK VINA RESULT:    -4.101      2.198      4.515
REMARK INTER + INTRA:          -6.534
REMARK INTER:                  -5.772
REMARK INTRA:                  -0.761
REMARK UNBOUND:                -0.515
REMARK SMILES O=C([O-])CCCCCCCC(=O)[O-]
REMARK SMILES IDX 7 1 6 2 5 3 4 4 2 5 1 6 3 7 8 8 9 9 10 10 11 11 12 12 13 13
REMARK H PARENT
REMARK Flexibility Score: inf
ROOT
ATOM      1  C   UNL     1     -10.944 -26.873 -31.290  1.00  0.00     0.000 C 
ENDROOT
BRANCH   1   2
ATOM      2  C   UNL     1     -10.725 -25.582 -32.088  1.00  0.00     0.000 C 
BRANCH   2   3
ATOM      3  C   UNL     1     -12.017 -24.761 -32.172  1.00  0.00     0.006 C 
BRANCH   3   4
ATOM      4  C   UNL     1     -12.292 -24.316 -33.611  1.00  0.00     0.053 C 
BRANCH   4   5
ATOM      5  C   UNL     1     -12.410 -22.827 -33.686  1.00  0.00     0.041 C 
ATOM      6  O   UNL     1     -11.797 -22.100 -32.861  1.00  0.00    -0.550 OA
ATOM      7  O   UNL     1     -13.156 -22.239 -34.700  1.00  0.00    -0.550 OA
ENDBRANCH   4   5
ENDBRANCH   3   4
ENDBRANCH   2   3
ENDBRANCH   1   2
BRANCH   1   8
ATOM      8  C   UNL     1     -12.427 -27.263 -31.268  1.00  0.00     0.000 C 
BRANCH   8   9
ATOM      9  C   UNL     1     -12.727 -28.345 -32.316  1.00  0.00     0.006 C 
BRANCH   9  10
ATOM     10  C   UNL     1     -13.567 -27.807 -33.481  1.00  0.00     0.053 C 
BRANCH  10  11
ATOM     11  C   UNL     1     -12.815 -27.853 -34.776  1.00  0.00     0.041 C 
ATOM     12  O   UNL     1     -13.436 -27.856 -35.871  1.00  0.00    -0.550 OA
ATOM     13  O   UNL     1     -11.426 -27.857 -34.772  1.00  0.00    -0.550 OA
ENDBRANCH  10  11
ENDBRANCH   9  10
ENDBRANCH   8   9
ENDBRANCH   1   8
TORSDOF 8
ENDMDL
