MODEL 1
REMARK VINA RESULT:    -4.527      0.000      0.000
REMARK INTER + INTRA:          -4.527
REMARK INTER:                  -4.527
REMARK INTRA:                   0.000
REMARK UNBOUND:                 0.000
REMARK SMILES CC(C)=C1CC[C@H](C)CC1=O
REMARK SMILES IDX 8 1 7 2 6 3 5 4 4 5 2 6 1 7 3 8 10 9 11 10 9 11
REMARK H PARENT
REMARK Flexibility Score: inf
ROOT
ATOM      1  C   UNL     1     -17.654  19.102  42.196  1.00  0.00     0.008 C 
ATOM      2  C   UNL     1     -18.667  20.073  41.579  1.00  0.00    -0.006 C 
ATOM      3  C   UNL     1     -19.930  20.162  42.452  1.00  0.00     0.008 C 
ATOM      4  C   UNL     1     -20.997  21.050  41.798  1.00  0.00     0.039 C 
ATOM      5  C   UNL     1     -20.458  22.419  41.407  1.00  0.00    -0.006 C 
ATOM      6  C   UNL     1     -21.255  23.528  41.426  1.00  0.00    -0.070 C 
ATOM      7  C   UNL     1     -22.713  23.439  41.819  1.00  0.00     0.039 C 
ATOM      8  C   UNL     1     -20.717  24.901  41.095  1.00  0.00     0.039 C 
ATOM      9  C   UNL     1     -19.055  22.451  40.897  1.00  0.00     0.159 C 
ATOM     10  O   UNL     1     -18.692  23.289  40.030  1.00  0.00    -0.295 OA
ATOM     11  C   UNL     1     -18.044  21.467  41.413  1.00  0.00     0.084 C 
ENDROOT
TORSDOF 0
ENDMDL
MODEL 2
REMARK VINA RESULT:    -4.381     14.882     16.204
REMARK INTER + INTRA:          -4.381
REMARK INTER:                  -4.381
REMARK INTRA:                   0.000
REMARK UNBOUND:                 0.000
REMARK SMILES CC(C)=C1CC[C@H](C)CC1=O
REMARK SMILES IDX 8 1 7 2 6 3 5 4 4 5 2 6 1 7 3 8 10 9 11 10 9 11
REMARK H PARENT
REMARK Flexibility Score: inf
ROOT
ATOM      1  C   UNL     1      -5.764  32.752  47.877  1.00  0.00     0.008 C 
ATOM      2  C   UNL     1      -6.392  31.385  47.587  1.00  0.00    -0.006 C 
ATOM      3  C   UNL     1      -7.586  31.531  46.628  1.00  0.00     0.008 C 
ATOM      4  C   UNL     1      -8.290  30.186  46.407  1.00  0.00     0.039 C 
ATOM      5  C   UNL     1      -7.328  29.086  45.980  1.00  0.00    -0.006 C 
ATOM      6  C   UNL     1      -7.727  28.076  45.152  1.00  0.00    -0.070 C 
ATOM      7  C   UNL     1      -9.147  27.998  44.639  1.00  0.00     0.039 C 
ATOM      8  C   UNL     1      -6.767  27.010  44.676  1.00  0.00     0.039 C 
ATOM      9  C   UNL     1      -5.974  29.118  46.609  1.00  0.00     0.159 C 
ATOM     10  O   UNL     1      -5.335  28.058  46.841  1.00  0.00    -0.295 OA
ATOM     11  C   UNL     1      -5.350  30.431  46.985  1.00  0.00     0.084 C 
ENDROOT
TORSDOF 0
ENDMDL
MODEL 3
REMARK VINA RESULT:    -4.142     15.717     17.072
REMARK INTER + INTRA:          -4.142
REMARK INTER:                  -4.142
REMARK INTRA:                   0.000
REMARK UNBOUND:                 0.000
REMARK SMILES CC(C)=C1CC[C@H](C)CC1=O
REMARK SMILES IDX 8 1 7 2 6 3 5 4 4 5 2 6 1 7 3 8 10 9 11 10 9 11
REMARK H PARENT
REMARK Flexibility Score: inf
ROOT
ATOM      1  C   UNL     1      -6.243  33.582  47.756  1.00  0.00     0.008 C 
ATOM      2  C   UNL     1      -6.321  32.056  47.647  1.00  0.00    -0.006 C 
ATOM      3  C   UNL     1      -7.580  31.633  46.874  1.00  0.00     0.008 C 
ATOM      4  C   UNL     1      -7.729  30.106  46.843  1.00  0.00     0.039 C 
ATOM      5  C   UNL     1      -6.472  29.406  46.343  1.00  0.00    -0.006 C 
ATOM      6  C   UNL     1      -6.542  28.233  45.647  1.00  0.00    -0.070 C 
ATOM      7  C   UNL     1      -7.870  27.569  45.361  1.00  0.00     0.039 C 
ATOM      8  C   UNL     1      -5.306  27.559  45.096  1.00  0.00     0.039 C 
ATOM      9  C   UNL     1      -5.173  30.016  46.756  1.00  0.00     0.159 C 
ATOM     10  O   UNL     1      -4.151  29.307  46.953  1.00  0.00    -0.295 OA
ATOM     11  C   UNL     1      -5.068  31.501  46.954  1.00  0.00     0.084 C 
ENDROOT
TORSDOF 0
ENDMDL
MODEL 4
REMARK VINA RESULT:    -4.110     16.502     17.523
REMARK INTER + INTRA:          -4.110
REMARK INTER:                  -4.110
REMARK INTRA:                   0.000
REMARK UNBOUND:                 0.000
REMARK SMILES CC(C)=C1CC[C@H](C)CC1=O
REMARK SMILES IDX 8 1 7 2 6 3 5 4 4 5 2 6 1 7 3 8 10 9 11 10 9 11
REMARK H PARENT
REMARK Flexibility Score: inf
ROOT
ATOM      1  C   UNL     1      -7.253  27.972  45.812  1.00  0.00     0.008 C 
ATOM      2  C   UNL     1      -6.829  29.440  45.935  1.00  0.00    -0.006 C 
ATOM      3  C   UNL     1      -7.992  30.297  46.458  1.00  0.00     0.008 C 
ATOM      4  C   UNL     1      -7.618  31.785  46.490  1.00  0.00     0.039 C 
ATOM      5  C   UNL     1      -6.318  32.044  47.239  1.00  0.00    -0.006 C 
ATOM      6  C   UNL     1      -6.116  33.204  47.931  1.00  0.00    -0.070 C 
ATOM      7  C   UNL     1      -7.170  34.287  47.968  1.00  0.00     0.039 C 
ATOM      8  C   UNL     1      -4.853  33.448  48.725  1.00  0.00     0.039 C 
ATOM      9  C   UNL     1      -5.249  31.015  47.072  1.00  0.00     0.159 C 
ATOM     10  O   UNL     1      -4.029  31.329  47.092  1.00  0.00    -0.295 OA
ATOM     11  C   UNL     1      -5.617  29.573  46.868  1.00  0.00     0.084 C 
ENDROOT
TORSDOF 0
ENDMDL
MODEL 5
REMARK VINA RESULT:    -4.070     14.570     15.655
REMARK INTER + INTRA:          -4.070
REMARK INTER:                  -4.070
REMARK INTRA:                   0.000
REMARK UNBOUND:                 0.000
REMARK SMILES CC(C)=C1CC[C@H](C)CC1=O
REMARK SMILES IDX 8 1 7 2 6 3 5 4 4 5 2 6 1 7 3 8 10 9 11 10 9 11
REMARK H PARENT
REMARK Flexibility Score: inf
ROOT
ATOM      1  C   UNL     1      -5.799  26.297  45.669  1.00  0.00     0.008 C 
ATOM      2  C   UNL     1      -6.532  27.549  46.162  1.00  0.00    -0.006 C 
ATOM      3  C   UNL     1      -5.528  28.598  46.668  1.00  0.00     0.008 C 
ATOM      4  C   UNL     1      -6.248  29.817  47.261  1.00  0.00     0.039 C 
ATOM      5  C   UNL     1      -7.280  30.406  46.308  1.00  0.00    -0.006 C 
ATOM      6  C   UNL     1      -7.555  31.744  46.299  1.00  0.00    -0.070 C 
ATOM      7  C   UNL     1      -6.859  32.694  47.248  1.00  0.00     0.039 C 
ATOM      8  C   UNL     1      -8.535  32.349  45.320  1.00  0.00     0.039 C 
ATOM      9  C   UNL     1      -8.043  29.426  45.480  1.00  0.00     0.159 C 
ATOM     10  O   UNL     1      -9.236  29.644  45.142  1.00  0.00    -0.295 OA
ATOM     11  C   UNL     1      -7.393  28.146  45.040  1.00  0.00     0.084 C 
ENDROOT
TORSDOF 0
ENDMDL
MODEL 6
REMARK VINA RESULT:    -4.001     14.564     15.954
REMARK INTER + INTRA:          -4.001
REMARK INTER:                  -4.001
REMARK INTRA:                   0.000
REMARK UNBOUND:                 0.000
REMARK SMILES CC(C)=C1CC[C@H](C)CC1=O
REMARK SMILES IDX 8 1 7 2 6 3 5 4 4 5 2 6 1 7 3 8 10 9 11 10 9 11
REMARK H PARENT
REMARK Flexibility Score: inf
ROOT
ATOM      1  C   UNL     1      -6.570  33.129  47.724  1.00  0.00     0.008 C 
ATOM      2  C   UNL     1      -6.565  31.925  46.776  1.00  0.00    -0.006 C 
ATOM      3  C   UNL     1      -6.210  30.638  47.538  1.00  0.00     0.008 C 
ATOM      4  C   UNL     1      -6.099  29.440  46.586  1.00  0.00     0.039 C 
ATOM      5  C   UNL     1      -7.331  29.277  45.707  1.00  0.00    -0.006 C 
ATOM      6  C   UNL     1      -7.752  28.045  45.294  1.00  0.00    -0.070 C 
ATOM      7  C   UNL     1      -7.000  26.791  45.680  1.00  0.00     0.039 C 
ATOM      8  C   UNL     1      -9.005  27.866  44.468  1.00  0.00     0.039 C 
ATOM      9  C   UNL     1      -7.972  30.541  45.234  1.00  0.00     0.159 C 
ATOM     10  O   UNL     1      -8.546  30.605  44.115  1.00  0.00    -0.295 OA
ATOM     11  C   UNL     1      -7.932  31.771  46.094  1.00  0.00     0.084 C 
ENDROOT
TORSDOF 0
ENDMDL
MODEL 7
REMARK VINA RESULT:    -3.998      1.967      2.724
REMARK INTER + INTRA:          -3.998
REMARK INTER:                  -3.998
REMARK INTRA:                   0.000
REMARK UNBOUND:                 0.000
REMARK SMILES CC(C)=C1CC[C@H](C)CC1=O
REMARK SMILES IDX 8 1 7 2 6 3 5 4 4 5 2 6 1 7 3 8 10 9 11 10 9 11
REMARK H PARENT
REMARK Flexibility Score: inf
ROOT
ATOM      1  C   UNL     1     -17.453  19.664  43.355  1.00  0.00     0.008 C 
ATOM      2  C   UNL     1     -18.379  20.721  42.743  1.00  0.00    -0.006 C 
ATOM      3  C   UNL     1     -17.790  21.261  41.430  1.00  0.00     0.008 C 
ATOM      4  C   UNL     1     -18.653  22.392  40.856  1.00  0.00     0.039 C 
ATOM      5  C   UNL     1     -20.118  21.999  40.722  1.00  0.00    -0.006 C 
ATOM      6  C   UNL     1     -20.901  22.508  39.725  1.00  0.00    -0.070 C 
ATOM      7  C   UNL     1     -20.350  23.497  38.723  1.00  0.00     0.039 C 
ATOM      8  C   UNL     1     -22.340  22.082  39.548  1.00  0.00     0.039 C 
ATOM      9  C   UNL     1     -20.664  21.127  41.804  1.00  0.00     0.159 C 
ATOM     10  O   UNL     1     -21.868  21.210  42.166  1.00  0.00    -0.295 OA
ATOM     11  C   UNL     1     -19.774  20.131  42.490  1.00  0.00     0.084 C 
ENDROOT
TORSDOF 0
ENDMDL
MODEL 8
REMARK VINA RESULT:    -3.995     15.864     17.074
REMARK INTER + INTRA:          -3.995
REMARK INTER:                  -3.995
REMARK INTRA:                   0.000
REMARK UNBOUND:                 0.000
REMARK SMILES CC(C)=C1CC[C@H](C)CC1=O
REMARK SMILES IDX 8 1 7 2 6 3 5 4 4 5 2 6 1 7 3 8 10 9 11 10 9 11
REMARK H PARENT
REMARK Flexibility Score: inf
ROOT
ATOM      1  C   UNL     1      -6.289  26.494  45.252  1.00  0.00     0.008 C 
ATOM      2  C   UNL     1      -6.082  27.715  46.155  1.00  0.00    -0.006 C 
ATOM      3  C   UNL     1      -4.699  28.340  45.910  1.00  0.00     0.008 C 
ATOM      4  C   UNL     1      -4.433  29.502  46.877  1.00  0.00     0.039 C 
ATOM      5  C   UNL     1      -5.552  30.535  46.870  1.00  0.00    -0.006 C 
ATOM      6  C   UNL     1      -5.298  31.857  47.098  1.00  0.00    -0.070 C 
ATOM      7  C   UNL     1      -3.897  32.349  47.383  1.00  0.00     0.039 C 
ATOM      8  C   UNL     1      -6.392  32.899  47.038  1.00  0.00     0.039 C 
ATOM      9  C   UNL     1      -6.938  30.000  46.719  1.00  0.00     0.159 C 
ATOM     10  O   UNL     1      -7.922  30.566  47.265  1.00  0.00    -0.295 OA
ATOM     11  C   UNL     1      -7.181  28.759  45.909  1.00  0.00     0.084 C 
ENDROOT
TORSDOF 0
ENDMDL
MODEL 9
REMARK VINA RESULT:    -3.974     13.867     15.284
REMARK INTER + INTRA:          -3.974
REMARK INTER:                  -3.974
REMARK INTRA:                   0.000
REMARK UNBOUND:                 0.000
REMARK SMILES CC(C)=C1CC[C@H](C)CC1=O
REMARK SMILES IDX 8 1 7 2 6 3 5 4 4 5 2 6 1 7 3 8 10 9 11 10 9 11
REMARK H PARENT
REMARK Flexibility Score: inf
ROOT
ATOM      1  C   UNL     1     -10.169  27.760  43.479  1.00  0.00     0.008 C 
ATOM      2  C   UNL     1      -9.176  27.983  44.625  1.00  0.00    -0.006 C 
ATOM      3  C   UNL     1      -7.785  27.449  44.247  1.00  0.00     0.008 C 
ATOM      4  C   UNL     1      -6.804  27.572  45.421  1.00  0.00     0.039 C 
ATOM      5  C   UNL     1      -6.754  28.981  45.996  1.00  0.00    -0.006 C 
ATOM      6  C   UNL     1      -5.606  29.486  46.537  1.00  0.00    -0.070 C 
ATOM      7  C   UNL     1      -4.341  28.660  46.605  1.00  0.00     0.039 C 
ATOM      8  C   UNL     1      -5.528  30.903  47.059  1.00  0.00     0.039 C 
ATOM      9  C   UNL     1      -8.050  29.720  46.035  1.00  0.00     0.159 C 
ATOM     10  O   UNL     1      -8.304  30.550  46.947  1.00  0.00    -0.295 OA
ATOM     11  C   UNL     1      -9.088  29.475  44.977  1.00  0.00     0.084 C 
ENDROOT
TORSDOF 0
ENDMDL
