MODEL 1
REMARK VINA RESULT:    -4.842      0.000      0.000
REMARK INTER + INTRA:          -4.842
REMARK INTER:                  -4.842
REMARK INTRA:                   0.000
REMARK UNBOUND:                 0.000
REMARK SMILES CC(C)=C1CC[C@@H](C)CC1=O
REMARK SMILES IDX 8 1 7 2 6 3 5 4 4 5 2 6 1 7 3 8 10 9 11 10 9 11
REMARK H PARENT
REMARK Flexibility Score: inf
ROOT
ATOM      1  C   UNL     1       7.873 -13.373 -47.687  1.00  0.00     0.008 C 
ATOM      2  C   UNL     1       8.402 -12.588 -46.481  1.00  0.00    -0.006 C 
ATOM      3  C   UNL     1       7.878 -11.144 -46.503  1.00  0.00     0.008 C 
ATOM      4  C   UNL     1       8.314 -10.373 -45.250  1.00  0.00     0.039 C 
ATOM      5  C   UNL     1       9.816 -10.447 -45.013  1.00  0.00    -0.006 C 
ATOM      6  C   UNL     1      10.493  -9.415 -44.428  1.00  0.00    -0.070 C 
ATOM      7  C   UNL     1      11.993  -9.453 -44.239  1.00  0.00     0.039 C 
ATOM      8  C   UNL     1       9.776  -8.164 -43.975  1.00  0.00     0.039 C 
ATOM      9  C   UNL     1      10.470 -11.746 -45.348  1.00  0.00     0.159 C 
ATOM     10  O   UNL     1      11.468 -12.163 -44.701  1.00  0.00    -0.295 OA
ATOM     11  C   UNL     1       9.938 -12.589 -46.471  1.00  0.00     0.084 C 
ENDROOT
TORSDOF 0
ENDMDL
MODEL 2
REMARK VINA RESULT:    -4.664      1.576      4.113
REMARK INTER + INTRA:          -4.664
REMARK INTER:                  -4.664
REMARK INTRA:                   0.000
REMARK UNBOUND:                 0.000
REMARK SMILES CC(C)=C1CC[C@@H](C)CC1=O
REMARK SMILES IDX 8 1 7 2 6 3 5 4 4 5 2 6 1 7 3 8 10 9 11 10 9 11
REMARK H PARENT
REMARK Flexibility Score: inf
ROOT
ATOM      1  C   UNL     1       9.747  -7.484 -43.423  1.00  0.00     0.008 C 
ATOM      2  C   UNL     1      10.301  -8.664 -44.229  1.00  0.00    -0.006 C 
ATOM      3  C   UNL     1       9.169  -9.620 -44.638  1.00  0.00     0.008 C 
ATOM      4  C   UNL     1       9.691 -10.752 -45.531  1.00  0.00     0.039 C 
ATOM      5  C   UNL     1      10.878 -11.481 -44.916  1.00  0.00    -0.006 C 
ATOM      6  C   UNL     1      11.092 -12.810 -45.148  1.00  0.00    -0.070 C 
ATOM      7  C   UNL     1      12.235 -13.557 -44.498  1.00  0.00     0.039 C 
ATOM      8  C   UNL     1      10.168 -13.609 -46.039  1.00  0.00     0.039 C 
ATOM      9  C   UNL     1      11.844 -10.635 -44.153  1.00  0.00     0.159 C 
ATOM     10  O   UNL     1      13.073 -10.914 -44.118  1.00  0.00    -0.295 OA
ATOM     11  C   UNL     1      11.359  -9.422 -43.413  1.00  0.00     0.084 C 
ENDROOT
TORSDOF 0
ENDMDL
MODEL 3
REMARK VINA RESULT:    -4.574      1.760      4.453
REMARK INTER + INTRA:          -4.574
REMARK INTER:                  -4.574
REMARK INTRA:                   0.000
REMARK UNBOUND:                 0.000
REMARK SMILES CC(C)=C1CC[C@@H](C)CC1=O
REMARK SMILES IDX 8 1 7 2 6 3 5 4 4 5 2 6 1 7 3 8 10 9 11 10 9 11
REMARK H PARENT
REMARK Flexibility Score: inf
ROOT
ATOM      1  C   UNL     1      10.126  -7.775 -43.867  1.00  0.00     0.008 C 
ATOM      2  C   UNL     1      10.390  -9.284 -43.891  1.00  0.00    -0.006 C 
ATOM      3  C   UNL     1      11.876  -9.569 -44.166  1.00  0.00     0.008 C 
ATOM      4  C   UNL     1      12.178 -11.072 -44.093  1.00  0.00     0.039 C 
ATOM      5  C   UNL     1      11.251 -11.897 -44.976  1.00  0.00    -0.006 C 
ATOM      6  C   UNL     1      11.677 -13.054 -45.563  1.00  0.00    -0.070 C 
ATOM      7  C   UNL     1      10.785 -13.852 -46.487  1.00  0.00     0.039 C 
ATOM      8  C   UNL     1      13.081 -13.572 -45.349  1.00  0.00     0.039 C 
ATOM      9  C   UNL     1       9.836 -11.430 -45.058  1.00  0.00     0.159 C 
ATOM     10  O   UNL     1       8.885 -12.244 -45.206  1.00  0.00    -0.295 OA
ATOM     11  C   UNL     1       9.520  -9.965 -44.958  1.00  0.00     0.084 C 
ENDROOT
TORSDOF 0
ENDMDL
MODEL 4
REMARK VINA RESULT:    -4.484      2.190      3.801
REMARK INTER + INTRA:          -4.484
REMARK INTER:                  -4.484
REMARK INTRA:                   0.000
REMARK UNBOUND:                 0.000
REMARK SMILES CC(C)=C1CC[C@@H](C)CC1=O
REMARK SMILES IDX 8 1 7 2 6 3 5 4 4 5 2 6 1 7 3 8 10 9 11 10 9 11
REMARK H PARENT
REMARK Flexibility Score: inf
ROOT
ATOM      1  C   UNL     1      13.767 -14.422 -43.876  1.00  0.00     0.008 C 
ATOM      2  C   UNL     1      13.067 -13.191 -44.461  1.00  0.00    -0.006 C 
ATOM      3  C   UNL     1      12.985 -12.067 -43.416  1.00  0.00     0.008 C 
ATOM      4  C   UNL     1      12.379 -10.791 -44.015  1.00  0.00     0.039 C 
ATOM      5  C   UNL     1      11.045 -11.047 -44.703  1.00  0.00    -0.006 C 
ATOM      6  C   UNL     1      10.067 -10.095 -44.729  1.00  0.00    -0.070 C 
ATOM      7  C   UNL     1       8.718 -10.357 -45.361  1.00  0.00     0.039 C 
ATOM      8  C   UNL     1      10.273  -8.741 -44.089  1.00  0.00     0.039 C 
ATOM      9  C   UNL     1      10.924 -12.341 -45.439  1.00  0.00     0.159 C 
ATOM     10  O   UNL     1      10.218 -12.439 -46.479  1.00  0.00    -0.295 OA
ATOM     11  C   UNL     1      11.657 -13.556 -44.949  1.00  0.00     0.084 C 
ENDROOT
TORSDOF 0
ENDMDL
MODEL 5
REMARK VINA RESULT:    -4.294      2.024      4.491
REMARK INTER + INTRA:          -4.294
REMARK INTER:                  -4.294
REMARK INTRA:                   0.000
REMARK UNBOUND:                 0.000
REMARK SMILES CC(C)=C1CC[C@@H](C)CC1=O
REMARK SMILES IDX 8 1 7 2 6 3 5 4 4 5 2 6 1 7 3 8 10 9 11 10 9 11
REMARK H PARENT
REMARK Flexibility Score: inf
ROOT
ATOM      1  C   UNL     1      14.302 -11.868 -43.409  1.00  0.00     0.008 C 
ATOM      2  C   UNL     1      12.770 -11.864 -43.473  1.00  0.00    -0.006 C 
ATOM      3  C   UNL     1      12.254 -13.142 -44.153  1.00  0.00     0.008 C 
ATOM      4  C   UNL     1      10.721 -13.203 -44.134  1.00  0.00     0.039 C 
ATOM      5  C   UNL     1      10.080 -11.941 -44.696  1.00  0.00    -0.006 C 
ATOM      6  C   UNL     1       8.884 -11.986 -45.354  1.00  0.00    -0.070 C 
ATOM      7  C   UNL     1       8.265 -10.749 -45.965  1.00  0.00     0.039 C 
ATOM      8  C   UNL     1       8.138 -13.288 -45.537  1.00  0.00     0.039 C 
ATOM      9  C   UNL     1      10.774 -10.657 -44.382  1.00  0.00     0.159 C 
ATOM     10  O   UNL     1      10.129  -9.584 -44.233  1.00  0.00    -0.295 OA
ATOM     11  C   UNL     1      12.267 -10.626 -44.230  1.00  0.00     0.084 C 
ENDROOT
TORSDOF 0
ENDMDL
MODEL 6
REMARK VINA RESULT:    -4.277     12.648     13.225
REMARK INTER + INTRA:          -4.277
REMARK INTER:                  -4.277
REMARK INTRA:                   0.000
REMARK UNBOUND:                 0.000
REMARK SMILES CC(C)=C1CC[C@@H](C)CC1=O
REMARK SMILES IDX 8 1 7 2 6 3 5 4 4 5 2 6 1 7 3 8 10 9 11 10 9 11
REMARK H PARENT
REMARK Flexibility Score: inf
ROOT
ATOM      1  C   UNL     1      -1.059 -20.111 -46.755  1.00  0.00     0.008 C 
ATOM      2  C   UNL     1       0.360 -20.139 -47.334  1.00  0.00    -0.006 C 
ATOM      3  C   UNL     1       0.333 -20.548 -48.815  1.00  0.00     0.008 C 
ATOM      4  C   UNL     1       1.734 -20.482 -49.437  1.00  0.00     0.039 C 
ATOM      5  C   UNL     1       2.766 -21.262 -48.634  1.00  0.00    -0.006 C 
ATOM      6  C   UNL     1       3.826 -21.871 -49.244  1.00  0.00    -0.070 C 
ATOM      7  C   UNL     1       4.826 -22.695 -48.465  1.00  0.00     0.039 C 
ATOM      8  C   UNL     1       4.027 -21.782 -50.740  1.00  0.00     0.039 C 
ATOM      9  C   UNL     1       2.613 -21.218 -47.150  1.00  0.00     0.159 C 
ATOM     10  O   UNL     1       3.615 -21.264 -46.386  1.00  0.00    -0.295 OA
ATOM     11  C   UNL     1       1.246 -21.110 -46.538  1.00  0.00     0.084 C 
ENDROOT
TORSDOF 0
ENDMDL
MODEL 7
REMARK VINA RESULT:    -4.242      2.174      3.542
REMARK INTER + INTRA:          -4.242
REMARK INTER:                  -4.242
REMARK INTRA:                   0.000
REMARK UNBOUND:                 0.000
REMARK SMILES CC(C)=C1CC[C@@H](C)CC1=O
REMARK SMILES IDX 8 1 7 2 6 3 5 4 4 5 2 6 1 7 3 8 10 9 11 10 9 11
REMARK H PARENT
REMARK Flexibility Score: inf
ROOT
ATOM      1  C   UNL     1       7.894 -10.801 -45.776  1.00  0.00     0.008 C 
ATOM      2  C   UNL     1       9.390 -11.134 -45.754  1.00  0.00    -0.006 C 
ATOM      3  C   UNL     1       9.605 -12.645 -45.576  1.00  0.00     0.008 C 
ATOM      4  C   UNL     1      11.094 -13.009 -45.652  1.00  0.00     0.039 C 
ATOM      5  C   UNL     1      11.947 -12.181 -44.701  1.00  0.00    -0.006 C 
ATOM      6  C   UNL     1      13.076 -12.696 -44.131  1.00  0.00    -0.070 C 
ATOM      7  C   UNL     1      13.900 -11.903 -43.142  1.00  0.00     0.039 C 
ATOM      8  C   UNL     1      13.534 -14.105 -44.432  1.00  0.00     0.039 C 
ATOM      9  C   UNL     1      11.542 -10.755 -44.530  1.00  0.00     0.159 C 
ATOM     10  O   UNL     1      12.395  -9.853 -44.311  1.00  0.00    -0.295 OA
ATOM     11  C   UNL     1      10.094 -10.367 -44.624  1.00  0.00     0.084 C 
ENDROOT
TORSDOF 0
ENDMDL
MODEL 8
REMARK VINA RESULT:    -4.173      1.767      4.053
REMARK INTER + INTRA:          -4.173
REMARK INTER:                  -4.173
REMARK INTRA:                   0.000
REMARK UNBOUND:                 0.000
REMARK SMILES CC(C)=C1CC[C@@H](C)CC1=O
REMARK SMILES IDX 8 1 7 2 6 3 5 4 4 5 2 6 1 7 3 8 10 9 11 10 9 11
REMARK H PARENT
REMARK Flexibility Score: inf
ROOT
ATOM      1  C   UNL     1      13.608 -12.024 -43.253  1.00  0.00     0.008 C 
ATOM      2  C   UNL     1      12.518 -11.701 -44.280  1.00  0.00    -0.006 C 
ATOM      3  C   UNL     1      11.311 -11.037 -43.598  1.00  0.00     0.008 C 
ATOM      4  C   UNL     1      10.253 -10.615 -44.626  1.00  0.00     0.039 C 
ATOM      5  C   UNL     1       9.848 -11.757 -45.549  1.00  0.00    -0.006 C 
ATOM      6  C   UNL     1       8.583 -11.843 -46.057  1.00  0.00    -0.070 C 
ATOM      7  C   UNL     1       8.153 -13.001 -46.929  1.00  0.00     0.039 C 
ATOM      8  C   UNL     1       7.536 -10.800 -45.737  1.00  0.00     0.039 C 
ATOM      9  C   UNL     1      10.939 -12.693 -45.952  1.00  0.00     0.159 C 
ATOM     10  O   UNL     1      10.937 -13.254 -47.081  1.00  0.00    -0.295 OA
ATOM     11  C   UNL     1      12.072 -12.978 -45.009  1.00  0.00     0.084 C 
ENDROOT
TORSDOF 0
ENDMDL
MODEL 9
REMARK VINA RESULT:    -4.158     13.607     14.445
REMARK INTER + INTRA:          -4.158
REMARK INTER:                  -4.158
REMARK INTRA:                   0.000
REMARK UNBOUND:                 0.000
REMARK SMILES CC(C)=C1CC[C@@H](C)CC1=O
REMARK SMILES IDX 8 1 7 2 6 3 5 4 4 5 2 6 1 7 3 8 10 9 11 10 9 11
REMARK H PARENT
REMARK Flexibility Score: inf
ROOT
ATOM      1  C   UNL     1       5.221 -19.053 -37.255  1.00  0.00     0.008 C 
ATOM      2  C   UNL     1       6.435 -19.989 -37.243  1.00  0.00    -0.006 C 
ATOM      3  C   UNL     1       5.998 -21.444 -37.478  1.00  0.00     0.008 C 
ATOM      4  C   UNL     1       7.209 -22.381 -37.571  1.00  0.00     0.039 C 
ATOM      5  C   UNL     1       8.151 -22.238 -36.383  1.00  0.00    -0.006 C 
ATOM      6  C   UNL     1       8.870 -23.301 -35.916  1.00  0.00    -0.070 C 
ATOM      7  C   UNL     1       9.765 -23.184 -34.703  1.00  0.00     0.039 C 
ATOM      8  C   UNL     1       8.773 -24.661 -36.569  1.00  0.00     0.039 C 
ATOM      9  C   UNL     1       8.324 -20.855 -35.847  1.00  0.00     0.159 C 
ATOM     10  O   UNL     1       9.417 -20.481 -35.342  1.00  0.00    -0.295 OA
ATOM     11  C   UNL     1       7.188 -19.876 -35.910  1.00  0.00     0.084 C 
ENDROOT
TORSDOF 0
ENDMDL
