MODEL 1
REMARK VINA RESULT:    -3.949      0.000      0.000
REMARK INTER + INTRA:          -5.196
REMARK INTER:                  -5.103
REMARK INTRA:                  -0.093
REMARK UNBOUND:                -0.093
REMARK SMILES CCCCCCC(=O)[O-]
REMARK SMILES IDX 5 1 6 2 7 3 8 4 9 5 4 6 3 7 2 8 1 9
REMARK H PARENT
REMARK Flexibility Score: inf
ROOT
ATOM      1  C   UNL     1     -22.591   0.266  23.994  1.00  0.00     0.006 C 
ENDROOT
BRANCH   1   2
ATOM      2  C   UNL     1     -23.084   1.689  23.723  1.00  0.00     0.053 C 
BRANCH   2   3
ATOM      3  C   UNL     1     -22.646   2.147  22.368  1.00  0.00     0.041 C 
ATOM      4  O   UNL     1     -21.508   1.833  21.931  1.00  0.00    -0.550 OA
ATOM      5  O   UNL     1     -23.513   2.879  21.567  1.00  0.00    -0.550 OA
ENDBRANCH   2   3
ENDBRANCH   1   2
BRANCH   1   6
ATOM      6  C   UNL     1     -23.762  -0.669  24.320  1.00  0.00     0.000 C 
BRANCH   6   7
ATOM      7  C   UNL     1     -23.502  -1.446  25.616  1.00  0.00    -0.000 C 
BRANCH   7   8
ATOM      8  C   UNL     1     -24.819  -1.824  26.304  1.00  0.00    -0.003 C 
ATOM      9  C   UNL     1     -24.586  -2.225  27.758  1.00  0.00     0.004 C 
ENDBRANCH   7   8
ENDBRANCH   6   7
ENDBRANCH   1   6
TORSDOF 5
ENDMDL
MODEL 2
REMARK VINA RESULT:    -3.928      3.405      5.452
REMARK INTER + INTRA:          -5.169
REMARK INTER:                  -5.013
REMARK INTRA:                  -0.156
REMARK UNBOUND:                -0.093
REMARK SMILES CCCCCCC(=O)[O-]
REMARK SMILES IDX 5 1 6 2 7 3 8 4 9 5 4 6 3 7 2 8 1 9
REMARK H PARENT
REMARK Flexibility Score: inf
ROOT
ATOM      1  C   UNL     1     -24.067  -0.353  24.019  1.00  0.00     0.006 C 
ENDROOT
BRANCH   1   2
ATOM      2  C   UNL     1     -23.367  -1.008  25.213  1.00  0.00     0.053 C 
BRANCH   2   3
ATOM      3  C   UNL     1     -24.219  -2.096  25.788  1.00  0.00     0.041 C 
ATOM      4  O   UNL     1     -25.048  -1.836  26.700  1.00  0.00    -0.550 OA
ATOM      5  O   UNL     1     -24.135  -3.386  25.282  1.00  0.00    -0.550 OA
ENDBRANCH   2   3
ENDBRANCH   1   2
BRANCH   1   6
ATOM      6  C   UNL     1     -23.513   1.053  23.761  1.00  0.00     0.000 C 
BRANCH   6   7
ATOM      7  C   UNL     1     -22.105   0.989  23.158  1.00  0.00    -0.000 C 
BRANCH   7   8
ATOM      8  C   UNL     1     -21.952   1.995  22.011  1.00  0.00    -0.003 C 
ATOM      9  C   UNL     1     -23.293   2.628  21.651  1.00  0.00     0.004 C 
ENDBRANCH   7   8
ENDBRANCH   6   7
ENDBRANCH   1   6
TORSDOF 5
ENDMDL
MODEL 3
REMARK VINA RESULT:    -3.912     10.849     12.357
REMARK INTER + INTRA:          -5.148
REMARK INTER:                  -4.944
REMARK INTRA:                  -0.204
REMARK UNBOUND:                -0.093
REMARK SMILES CCCCCCC(=O)[O-]
REMARK SMILES IDX 5 1 6 2 7 3 8 4 9 5 4 6 3 7 2 8 1 9
REMARK H PARENT
REMARK Flexibility Score: inf
ROOT
ATOM      1  C   UNL     1     -16.857  -1.484  35.265  1.00  0.00     0.006 C 
ENDROOT
BRANCH   1   2
ATOM      2  C   UNL     1     -17.597  -0.853  36.448  1.00  0.00     0.053 C 
BRANCH   2   3
ATOM      3  C   UNL     1     -18.108   0.505  36.083  1.00  0.00     0.041 C 
ATOM      4  O   UNL     1     -19.341   0.754  36.139  1.00  0.00    -0.550 OA
ATOM      5  O   UNL     1     -17.218   1.511  35.731  1.00  0.00    -0.550 OA
ENDBRANCH   2   3
ENDBRANCH   1   2
BRANCH   1   6
ATOM      6  C   UNL     1     -17.749  -1.525  34.018  1.00  0.00     0.000 C 
BRANCH   6   7
ATOM      7  C   UNL     1     -16.940  -1.223  32.752  1.00  0.00    -0.000 C 
BRANCH   7   8
ATOM      8  C   UNL     1     -17.545  -1.926  31.532  1.00  0.00    -0.003 C 
ATOM      9  C   UNL     1     -19.046  -2.142  31.708  1.00  0.00     0.004 C 
ENDBRANCH   7   8
ENDBRANCH   6   7
ENDBRANCH   1   6
TORSDOF 5
ENDMDL
MODEL 4
REMARK VINA RESULT:    -3.904      0.586      1.353
REMARK INTER + INTRA:          -5.139
REMARK INTER:                  -4.903
REMARK INTRA:                  -0.236
REMARK UNBOUND:                -0.093
REMARK SMILES CCCCCCC(=O)[O-]
REMARK SMILES IDX 5 1 6 2 7 3 8 4 9 5 4 6 3 7 2 8 1 9
REMARK H PARENT
REMARK Flexibility Score: inf
ROOT
ATOM      1  C   UNL     1     -22.953   0.406  24.100  1.00  0.00     0.006 C 
ENDROOT
BRANCH   1   2
ATOM      2  C   UNL     1     -23.091   1.896  23.773  1.00  0.00     0.053 C 
BRANCH   2   3
ATOM      3  C   UNL     1     -22.708   2.159  22.351  1.00  0.00     0.041 C 
ATOM      4  O   UNL     1     -23.503   2.761  21.583  1.00  0.00    -0.550 OA
ATOM      5  O   UNL     1     -21.454   1.785  21.888  1.00  0.00    -0.550 OA
ENDBRANCH   2   3
ENDBRANCH   1   2
BRANCH   1   6
ATOM      6  C   UNL     1     -24.124  -0.395  23.517  1.00  0.00     0.000 C 
BRANCH   6   7
ATOM      7  C   UNL     1     -24.555  -1.513  24.473  1.00  0.00    -0.000 C 
BRANCH   7   8
ATOM      8  C   UNL     1     -23.665  -1.544  25.720  1.00  0.00    -0.003 C 
ATOM      9  C   UNL     1     -24.440  -2.040  26.938  1.00  0.00     0.004 C 
ENDBRANCH   7   8
ENDBRANCH   6   7
ENDBRANCH   1   6
TORSDOF 5
ENDMDL
MODEL 5
REMARK VINA RESULT:    -3.894     11.701     12.605
REMARK INTER + INTRA:          -5.126
REMARK INTER:                  -4.873
REMARK INTRA:                  -0.252
REMARK UNBOUND:                -0.093
REMARK SMILES CCCCCCC(=O)[O-]
REMARK SMILES IDX 5 1 6 2 7 3 8 4 9 5 4 6 3 7 2 8 1 9
REMARK H PARENT
REMARK Flexibility Score: inf
ROOT
ATOM      1  C   UNL     1     -15.439   9.039  29.358  1.00  0.00     0.006 C 
ENDROOT
BRANCH   1   2
ATOM      2  C   UNL     1     -16.444   9.504  28.301  1.00  0.00     0.053 C 
BRANCH   2   3
ATOM      3  C   UNL     1     -17.482   8.453  28.067  1.00  0.00     0.041 C 
ATOM      4  O   UNL     1     -17.455   7.379  28.723  1.00  0.00    -0.550 OA
ATOM      5  O   UNL     1     -18.510   8.680  27.161  1.00  0.00    -0.550 OA
ENDBRANCH   2   3
ENDBRANCH   1   2
BRANCH   1   6
ATOM      6  C   UNL     1     -15.370  10.032  30.526  1.00  0.00     0.000 C 
BRANCH   6   7
ATOM      7  C   UNL     1     -16.718  10.125  31.249  1.00  0.00    -0.000 C 
BRANCH   7   8
ATOM      8  C   UNL     1     -16.613   9.583  32.679  1.00  0.00    -0.003 C 
ATOM      9  C   UNL     1     -16.752   8.063  32.704  1.00  0.00     0.004 C 
ENDBRANCH   7   8
ENDBRANCH   6   7
ENDBRANCH   1   6
TORSDOF 5
ENDMDL
MODEL 6
REMARK VINA RESULT:    -3.872     11.905     13.560
REMARK INTER + INTRA:          -5.096
REMARK INTER:                  -4.829
REMARK INTRA:                  -0.268
REMARK UNBOUND:                -0.093
REMARK SMILES CCCCCCC(=O)[O-]
REMARK SMILES IDX 5 1 6 2 7 3 8 4 9 5 4 6 3 7 2 8 1 9
REMARK H PARENT
REMARK Flexibility Score: inf
ROOT
ATOM      1  C   UNL     1     -17.107  -1.185  36.486  1.00  0.00     0.006 C 
ENDROOT
BRANCH   1   2
ATOM      2  C   UNL     1     -17.661  -0.682  35.151  1.00  0.00     0.053 C 
BRANCH   2   3
ATOM      3  C   UNL     1     -17.849  -1.821  34.199  1.00  0.00     0.041 C 
ATOM      4  O   UNL     1     -18.732  -1.758  33.303  1.00  0.00    -0.550 OA
ATOM      5  O   UNL     1     -17.017  -2.930  34.268  1.00  0.00    -0.550 OA
ENDBRANCH   2   3
ENDBRANCH   1   2
BRANCH   1   6
ATOM      6  C   UNL     1     -17.928  -0.641  37.662  1.00  0.00     0.000 C 
BRANCH   6   7
ATOM      7  C   UNL     1     -18.933   0.415  37.190  1.00  0.00    -0.000 C 
BRANCH   7   8
ATOM      8  C   UNL     1     -18.956   1.617  38.141  1.00  0.00    -0.003 C 
ATOM      9  C   UNL     1     -17.592   2.301  38.197  1.00  0.00     0.004 C 
ENDBRANCH   7   8
ENDBRANCH   6   7
ENDBRANCH   1   6
TORSDOF 5
ENDMDL
MODEL 7
REMARK VINA RESULT:    -3.870      1.508      2.169
REMARK INTER + INTRA:          -5.094
REMARK INTER:                  -4.879
REMARK INTRA:                  -0.216
REMARK UNBOUND:                -0.093
REMARK SMILES CCCCCCC(=O)[O-]
REMARK SMILES IDX 5 1 6 2 7 3 8 4 9 5 4 6 3 7 2 8 1 9
REMARK H PARENT
REMARK Flexibility Score: inf
ROOT
ATOM      1  C   UNL     1     -22.391   0.698  24.485  1.00  0.00     0.006 C 
ENDROOT
BRANCH   1   2
ATOM      2  C   UNL     1     -23.391   1.562  23.713  1.00  0.00     0.053 C 
BRANCH   2   3
ATOM      3  C   UNL     1     -22.780   2.062  22.441  1.00  0.00     0.041 C 
ATOM      4  O   UNL     1     -21.628   1.684  22.101  1.00  0.00    -0.550 OA
ATOM      5  O   UNL     1     -23.503   2.904  21.606  1.00  0.00    -0.550 OA
ENDBRANCH   2   3
ENDBRANCH   1   2
BRANCH   1   6
ATOM      6  C   UNL     1     -23.016  -0.644  24.883  1.00  0.00     0.000 C 
BRANCH   6   7
ATOM      7  C   UNL     1     -24.491  -0.708  24.471  1.00  0.00    -0.000 C 
BRANCH   7   8
ATOM      8  C   UNL     1     -24.713  -1.768  23.386  1.00  0.00    -0.003 C 
ATOM      9  C   UNL     1     -25.962  -1.462  22.564  1.00  0.00     0.004 C 
ENDBRANCH   7   8
ENDBRANCH   6   7
ENDBRANCH   1   6
TORSDOF 5
ENDMDL
MODEL 8
REMARK VINA RESULT:    -3.830     12.069     12.972
REMARK INTER + INTRA:          -5.043
REMARK INTER:                  -4.659
REMARK INTRA:                  -0.384
REMARK UNBOUND:                -0.093
REMARK SMILES CCCCCCC(=O)[O-]
REMARK SMILES IDX 5 1 6 2 7 3 8 4 9 5 4 6 3 7 2 8 1 9
REMARK H PARENT
REMARK Flexibility Score: inf
ROOT
ATOM      1  C   UNL     1     -18.688   8.708  30.345  1.00  0.00     0.006 C 
ENDROOT
BRANCH   1   2
ATOM      2  C   UNL     1     -18.334   9.378  31.675  1.00  0.00     0.053 C 
BRANCH   2   3
ATOM      3  C   UNL     1     -16.930   9.048  32.071  1.00  0.00     0.041 C 
ATOM      4  O   UNL     1     -15.977   9.777  31.690  1.00  0.00    -0.550 OA
ATOM      5  O   UNL     1     -16.677   7.964  32.902  1.00  0.00    -0.550 OA
ENDBRANCH   2   3
ENDBRANCH   1   2
BRANCH   1   6
ATOM      6  C   UNL     1     -18.624   9.713  29.188  1.00  0.00     0.000 C 
BRANCH   6   7
ATOM      7  C   UNL     1     -17.919   9.107  27.970  1.00  0.00    -0.000 C 
BRANCH   7   8
ATOM      8  C   UNL     1     -16.820   8.128  28.401  1.00  0.00    -0.003 C 
ATOM      9  C   UNL     1     -15.441   8.777  28.318  1.00  0.00     0.004 C 
ENDBRANCH   7   8
ENDBRANCH   6   7
ENDBRANCH   1   6
TORSDOF 5
ENDMDL
MODEL 9
REMARK VINA RESULT:    -3.786     11.950     13.451
REMARK INTER + INTRA:          -4.987
REMARK INTER:                  -4.801
REMARK INTRA:                  -0.186
REMARK UNBOUND:                -0.093
REMARK SMILES CCCCCCC(=O)[O-]
REMARK SMILES IDX 5 1 6 2 7 3 8 4 9 5 4 6 3 7 2 8 1 9
REMARK H PARENT
REMARK Flexibility Score: inf
ROOT
ATOM      1  C   UNL     1     -17.674  -0.405  35.830  1.00  0.00     0.006 C 
ENDROOT
BRANCH   1   2
ATOM      2  C   UNL     1     -18.049   0.070  37.236  1.00  0.00     0.053 C 
BRANCH   2   3
ATOM      3  C   UNL     1     -18.199   1.558  37.264  1.00  0.00     0.041 C 
ATOM      4  O   UNL     1     -17.909   2.243  36.248  1.00  0.00    -0.550 OA
ATOM      5  O   UNL     1     -18.707   2.186  38.394  1.00  0.00    -0.550 OA
ENDBRANCH   2   3
ENDBRANCH   1   2
BRANCH   1   6
ATOM      6  C   UNL     1     -16.799  -1.663  35.890  1.00  0.00     0.000 C 
BRANCH   6   7
ATOM      7  C   UNL     1     -16.883  -2.456  34.581  1.00  0.00    -0.000 C 
BRANCH   7   8
ATOM      8  C   UNL     1     -17.844  -1.784  33.593  1.00  0.00    -0.003 C 
ATOM      9  C   UNL     1     -17.158  -1.510  32.257  1.00  0.00     0.004 C 
ENDBRANCH   7   8
ENDBRANCH   6   7
ENDBRANCH   1   6
TORSDOF 5
ENDMDL
