MODEL 1
REMARK VINA RESULT:    -3.705      0.000      0.000
REMARK INTER + INTRA:          -4.477
REMARK INTER:                  -4.354
REMARK INTRA:                  -0.123
REMARK UNBOUND:                -0.123
REMARK SMILES O=c1c(O)c(-c2ccc(O)cc2)oc2cc(O)cc(O)c12
REMARK SMILES IDX 5 1 3 2 2 3 1 4 21 5 19 6 18 7 16 8 15 9 14 10 13 11 6 12
REMARK SMILES IDX 7 13 8 14 9 15 12 16 11 17 10 18 4 20 20 22 17 24
REMARK H PARENT 10 19 4 21 20 23 17 25
REMARK Flexibility Score: inf
ROOT
ATOM      1  C   UNL     1      -2.056  10.093 -28.593  1.00  0.00     0.180 A 
ATOM      2  C   UNL     1      -2.577   8.853 -29.002  1.00  0.00     0.208 A 
ATOM      3  C   UNL     1      -3.880   8.501 -28.614  1.00  0.00     0.238 A 
ATOM      4  O   UNL     1      -4.322   7.368 -28.936  1.00  0.00    -0.285 OA
ATOM      5  C   UNL     1      -4.650   9.400 -27.837  1.00  0.00     0.111 A 
ATOM      6  C   UNL     1      -5.995   9.164 -27.421  1.00  0.00     0.134 A 
ATOM      7  C   UNL     1      -6.615  10.064 -26.545  1.00  0.00     0.093 A 
ATOM      8  C   UNL     1      -5.962  11.224 -26.122  1.00  0.00     0.123 A 
ATOM      9  C   UNL     1      -4.670  11.492 -26.571  1.00  0.00     0.094 A 
ATOM     10  C   UNL     1      -4.012  10.595 -27.416  1.00  0.00     0.146 A 
ATOM     11  O   UNL     1      -2.778  10.885 -27.811  1.00  0.00    -0.452 OA
ENDROOT
BRANCH   1  12
ATOM     12  C   UNL     1      -0.701  10.544 -28.984  1.00  0.00     0.021 A 
ATOM     13  C   UNL     1       0.425   9.858 -28.495  1.00  0.00     0.016 A 
ATOM     14  C   UNL     1       1.713  10.280 -28.833  1.00  0.00     0.047 A 
ATOM     15  C   UNL     1       1.896  11.400 -29.650  1.00  0.00     0.115 A 
ATOM     16  C   UNL     1      -0.510  11.681 -29.789  1.00  0.00     0.016 A 
ATOM     17  C   UNL     1       0.781  12.103 -30.125  1.00  0.00     0.047 A 
BRANCH  15  18
ATOM     18  O   UNL     1       3.187  11.809 -29.979  1.00  0.00    -0.508 OA
ATOM     19  H   UNL     1       3.386  12.276 -30.856  1.00  0.00     0.293 HD
ENDBRANCH  15  18
ENDBRANCH   1  12
BRANCH   2  20
ATOM     20  O   UNL     1      -1.792   7.972 -29.750  1.00  0.00    -0.502 OA
ATOM     21  H   UNL     1      -0.843   7.730 -29.486  1.00  0.00     0.293 HD
ENDBRANCH   2  20
BRANCH   6  22
ATOM     22  O   UNL     1      -6.769   8.085 -27.858  1.00  0.00    -0.507 OA
ATOM     23  H   UNL     1      -7.568   8.161 -28.468  1.00  0.00     0.293 HD
ENDBRANCH   6  22
BRANCH   8  24
ATOM     24  O   UNL     1      -6.591  12.122 -25.264  1.00  0.00    -0.508 OA
ATOM     25  H   UNL     1      -6.161  12.414 -24.395  1.00  0.00     0.293 HD
ENDBRANCH   8  24
TORSDOF 5
ENDMDL
MODEL 2
REMARK VINA RESULT:    -2.307      3.699      6.706
REMARK INTER + INTRA:          -2.835
REMARK INTER:                  -3.339
REMARK INTRA:                   0.504
REMARK UNBOUND:                -0.123
REMARK SMILES O=c1c(O)c(-c2ccc(O)cc2)oc2cc(O)cc(O)c12
REMARK SMILES IDX 5 1 3 2 2 3 1 4 21 5 19 6 18 7 16 8 15 9 14 10 13 11 6 12
REMARK SMILES IDX 7 13 8 14 9 15 12 16 11 17 10 18 4 20 20 22 17 24
REMARK H PARENT 10 19 4 21 20 23 17 25
REMARK Flexibility Score: inf
ROOT
ATOM      1  C   UNL     1      -1.870  11.579 -25.018  1.00  0.00     0.180 A 
ATOM      2  C   UNL     1      -3.027  11.766 -25.795  1.00  0.00     0.208 A 
ATOM      3  C   UNL     1      -2.939  11.630 -27.189  1.00  0.00     0.238 A 
ATOM      4  O   UNL     1      -3.965  11.852 -27.884  1.00  0.00    -0.285 OA
ATOM      5  C   UNL     1      -1.702  11.293 -27.788  1.00  0.00     0.111 A 
ATOM      6  C   UNL     1      -1.506  11.091 -29.187  1.00  0.00     0.134 A 
ATOM      7  C   UNL     1      -0.212  10.889 -29.683  1.00  0.00     0.093 A 
ATOM      8  C   UNL     1       0.886  10.818 -28.822  1.00  0.00     0.123 A 
ATOM      9  C   UNL     1       0.697  10.955 -27.448  1.00  0.00     0.094 A 
ATOM     10  C   UNL     1      -0.577  11.193 -26.928  1.00  0.00     0.146 A 
ATOM     11  O   UNL     1      -0.711  11.327 -25.614  1.00  0.00    -0.452 OA
ENDROOT
BRANCH   1  12
ATOM     12  C   UNL     1      -1.889  11.680 -23.541  1.00  0.00     0.021 A 
ATOM     13  C   UNL     1      -0.740  11.333 -22.808  1.00  0.00     0.016 A 
ATOM     14  C   UNL     1      -0.743  11.399 -21.413  1.00  0.00     0.047 A 
ATOM     15  C   UNL     1      -1.896  11.797 -20.729  1.00  0.00     0.115 A 
ATOM     16  C   UNL     1      -3.051  12.060 -22.846  1.00  0.00     0.016 A 
ATOM     17  C   UNL     1      -3.052  12.125 -21.449  1.00  0.00     0.047 A 
BRANCH  15  18
ATOM     18  O   UNL     1      -1.884  11.860 -19.337  1.00  0.00    -0.508 OA
ATOM     19  H   UNL     1      -1.119  11.473 -18.797  1.00  0.00     0.293 HD
ENDBRANCH  15  18
ENDBRANCH   1  12
BRANCH   2  20
ATOM     20  O   UNL     1      -4.233  12.120 -25.185  1.00  0.00    -0.502 OA
ATOM     21  H   UNL     1      -4.413  13.054 -24.836  1.00  0.00     0.293 HD
ENDBRANCH   2  20
BRANCH   6  22
ATOM     22  O   UNL     1      -2.545  11.051 -30.122  1.00  0.00    -0.507 OA
ATOM     23  H   UNL     1      -2.421  10.917 -31.114  1.00  0.00     0.293 HD
ENDBRANCH   6  22
BRANCH   8  24
ATOM     24  O   UNL     1       2.168  10.601 -29.321  1.00  0.00    -0.508 OA
ATOM     25  H   UNL     1       2.377  10.704 -30.307  1.00  0.00     0.293 HD
ENDBRANCH   8  24
TORSDOF 5
ENDMDL
MODEL 3
REMARK VINA RESULT:    -1.538      1.916      3.507
REMARK INTER + INTRA:          -1.930
REMARK INTER:                  -1.856
REMARK INTRA:                  -0.074
REMARK UNBOUND:                -0.123
REMARK SMILES O=c1c(O)c(-c2ccc(O)cc2)oc2cc(O)cc(O)c12
REMARK SMILES IDX 5 1 3 2 2 3 1 4 21 5 19 6 18 7 16 8 15 9 14 10 13 11 6 12
REMARK SMILES IDX 7 13 8 14 9 15 12 16 11 17 10 18 4 20 20 22 17 24
REMARK H PARENT 10 19 4 21 20 23 17 25
REMARK Flexibility Score: inf
ROOT
ATOM      1  C   UNL     1       0.032  10.792 -28.227  1.00  0.00     0.180 A 
ATOM      2  C   UNL     1      -0.288  11.416 -27.008  1.00  0.00     0.208 A 
ATOM      3  C   UNL     1      -1.621  11.409 -26.569  1.00  0.00     0.238 A 
ATOM      4  O   UNL     1      -1.911  12.016 -25.506  1.00  0.00    -0.285 OA
ATOM      5  C   UNL     1      -2.615  10.764 -27.344  1.00  0.00     0.111 A 
ATOM      6  C   UNL     1      -3.990  10.661 -26.976  1.00  0.00     0.134 A 
ATOM      7  C   UNL     1      -4.909  10.115 -27.881  1.00  0.00     0.093 A 
ATOM      8  C   UNL     1      -4.491   9.609 -29.115  1.00  0.00     0.123 A 
ATOM      9  C   UNL     1      -3.141   9.652 -29.458  1.00  0.00     0.094 A 
ATOM     10  C   UNL     1      -2.207  10.224 -28.591  1.00  0.00     0.146 A 
ATOM     11  O   UNL     1      -0.932  10.252 -28.962  1.00  0.00    -0.452 OA
ENDROOT
BRANCH   1  12
ATOM     12  C   UNL     1       1.419  10.736 -28.742  1.00  0.00     0.021 A 
ATOM     13  C   UNL     1       2.045   9.488 -28.910  1.00  0.00     0.016 A 
ATOM     14  C   UNL     1       3.361   9.413 -29.374  1.00  0.00     0.047 A 
ATOM     15  C   UNL     1       4.074  10.581 -29.662  1.00  0.00     0.115 A 
ATOM     16  C   UNL     1       2.148  11.907 -29.015  1.00  0.00     0.016 A 
ATOM     17  C   UNL     1       3.466  11.829 -29.478  1.00  0.00     0.047 A 
BRANCH  15  18
ATOM     18  O   UNL     1       5.384  10.490 -30.125  1.00  0.00    -0.508 OA
ATOM     19  H   UNL     1       5.708   9.681 -30.642  1.00  0.00     0.293 HD
ENDBRANCH  15  18
ENDBRANCH   1  12
BRANCH   2  20
ATOM     20  O   UNL     1       0.705  12.066 -26.270  1.00  0.00    -0.502 OA
ATOM     21  H   UNL     1       0.715  12.069 -25.256  1.00  0.00     0.293 HD
ENDBRANCH   2  20
BRANCH   6  22
ATOM     22  O   UNL     1      -4.496  11.051 -25.733  1.00  0.00    -0.507 OA
ATOM     23  H   UNL     1      -4.091  11.763 -25.145  1.00  0.00     0.293 HD
ENDBRANCH   6  22
BRANCH   8  24
ATOM     24  O   UNL     1      -5.409   9.054 -30.003  1.00  0.00    -0.508 OA
ATOM     25  H   UNL     1      -5.115   8.445 -30.757  1.00  0.00     0.293 HD
ENDBRANCH   8  24
TORSDOF 5
ENDMDL
MODEL 4
REMARK VINA RESULT:    -1.502      2.075      6.838
REMARK INTER + INTRA:          -1.888
REMARK INTER:                  -1.588
REMARK INTRA:                  -0.300
REMARK UNBOUND:                -0.123
REMARK SMILES O=c1c(O)c(-c2ccc(O)cc2)oc2cc(O)cc(O)c12
REMARK SMILES IDX 5 1 3 2 2 3 1 4 21 5 19 6 18 7 16 8 15 9 14 10 13 11 6 12
REMARK SMILES IDX 7 13 8 14 9 15 12 16 11 17 10 18 4 20 20 22 17 24
REMARK H PARENT 10 19 4 21 20 23 17 25
REMARK Flexibility Score: inf
ROOT
ATOM      1  C   UNL     1      -2.651  11.113 -27.506  1.00  0.00     0.180 A 
ATOM      2  C   UNL     1      -2.213  11.606 -28.748  1.00  0.00     0.208 A 
ATOM      3  C   UNL     1      -0.838  11.604 -29.034  1.00  0.00     0.238 A 
ATOM      4  O   UNL     1      -0.447  12.095 -30.124  1.00  0.00    -0.285 OA
ATOM      5  C   UNL     1       0.079  11.094 -28.084  1.00  0.00     0.111 A 
ATOM      6  C   UNL     1       1.489  11.007 -28.284  1.00  0.00     0.134 A 
ATOM      7  C   UNL     1       2.314  10.607 -27.225  1.00  0.00     0.093 A 
ATOM      8  C   UNL     1       1.773  10.230 -25.993  1.00  0.00     0.123 A 
ATOM      9  C   UNL     1       0.393  10.256 -25.807  1.00  0.00     0.094 A 
ATOM     10  C   UNL     1      -0.453  10.685 -26.833  1.00  0.00     0.146 A 
ATOM     11  O   UNL     1      -1.762  10.703 -26.610  1.00  0.00    -0.452 OA
ENDROOT
BRANCH   1  12
ATOM     12  C   UNL     1      -4.085  11.060 -27.142  1.00  0.00     0.021 A 
ATOM     13  C   UNL     1      -4.657  12.125 -26.425  1.00  0.00     0.016 A 
ATOM     14  C   UNL     1      -6.003  12.085 -26.051  1.00  0.00     0.047 A 
ATOM     15  C   UNL     1      -6.792  10.977 -26.375  1.00  0.00     0.115 A 
ATOM     16  C   UNL     1      -4.878   9.939 -27.447  1.00  0.00     0.016 A 
ATOM     17  C   UNL     1      -6.225   9.901 -27.071  1.00  0.00     0.047 A 
BRANCH  15  18
ATOM     18  O   UNL     1      -8.132  10.951 -25.997  1.00  0.00    -0.508 OA
ATOM     19  H   UNL     1      -8.479  10.280 -25.323  1.00  0.00     0.293 HD
ENDBRANCH  15  18
ENDBRANCH   1  12
BRANCH   2  20
ATOM     20  O   UNL     1      -3.133  12.124 -29.663  1.00  0.00    -0.502 OA
ATOM     21  H   UNL     1      -3.728  11.532 -30.231  1.00  0.00     0.293 HD
ENDBRANCH   2  20
BRANCH   6  22
ATOM     22  O   UNL     1       2.122  11.271 -29.502  1.00  0.00    -0.507 OA
ATOM     23  H   UNL     1       2.991  11.773 -29.601  1.00  0.00     0.293 HD
ENDBRANCH   6  22
BRANCH   8  24
ATOM     24  O   UNL     1       2.600   9.820 -24.950  1.00  0.00    -0.508 OA
ATOM     25  H   UNL     1       2.704   8.841 -24.710  1.00  0.00     0.293 HD
ENDBRANCH   8  24
TORSDOF 5
ENDMDL
MODEL 5
REMARK VINA RESULT:    -1.061      1.553      3.315
REMARK INTER + INTRA:          -1.369
REMARK INTER:                  -1.275
REMARK INTRA:                  -0.095
REMARK UNBOUND:                -0.123
REMARK SMILES O=c1c(O)c(-c2ccc(O)cc2)oc2cc(O)cc(O)c12
REMARK SMILES IDX 5 1 3 2 2 3 1 4 21 5 19 6 18 7 16 8 15 9 14 10 13 11 6 12
REMARK SMILES IDX 7 13 8 14 9 15 12 16 11 17 10 18 4 20 20 22 17 24
REMARK H PARENT 10 19 4 21 20 23 17 25
REMARK Flexibility Score: inf
ROOT
ATOM      1  C   UNL     1      -1.460  10.011 -28.839  1.00  0.00     0.180 A 
ATOM      2  C   UNL     1      -2.461  10.792 -28.235  1.00  0.00     0.208 A 
ATOM      3  C   UNL     1      -3.725  10.224 -28.010  1.00  0.00     0.238 A 
ATOM      4  O   UNL     1      -4.633  10.944 -27.518  1.00  0.00    -0.285 OA
ATOM      5  C   UNL     1      -3.968   8.879 -28.377  1.00  0.00     0.111 A 
ATOM      6  C   UNL     1      -5.198   8.189 -28.160  1.00  0.00     0.134 A 
ATOM      7  C   UNL     1      -5.370   6.900 -28.681  1.00  0.00     0.093 A 
ATOM      8  C   UNL     1      -4.332   6.252 -29.356  1.00  0.00     0.123 A 
ATOM      9  C   UNL     1      -3.107   6.895 -29.521  1.00  0.00     0.094 A 
ATOM     10  C   UNL     1      -2.919   8.195 -29.043  1.00  0.00     0.146 A 
ATOM     11  O   UNL     1      -1.739   8.774 -29.231  1.00  0.00    -0.452 OA
ENDROOT
BRANCH   1  12
ATOM     12  C   UNL     1      -0.096  10.532 -29.085  1.00  0.00     0.021 A 
ATOM     13  C   UNL     1       0.997   9.950 -28.419  1.00  0.00     0.016 A 
ATOM     14  C   UNL     1       2.290  10.441 -28.618  1.00  0.00     0.047 A 
ATOM     15  C   UNL     1       2.508  11.526 -29.473  1.00  0.00     0.115 A 
ATOM     16  C   UNL     1       0.127  11.635 -29.927  1.00  0.00     0.016 A 
ATOM     17  C   UNL     1       1.423  12.125 -30.125  1.00  0.00     0.047 A 
BRANCH  15  18
ATOM     18  O   UNL     1       3.803  12.003 -29.663  1.00  0.00    -0.508 OA
ATOM     19  H   UNL     1       4.579  11.374 -29.834  1.00  0.00     0.293 HD
ENDBRANCH  15  18
ENDBRANCH   1  12
BRANCH   2  20
ATOM     20  O   UNL     1      -2.206  12.125 -27.900  1.00  0.00    -0.502 OA
ATOM     21  H   UNL     1      -2.732  12.617 -27.188  1.00  0.00     0.293 HD
ENDBRANCH   2  20
BRANCH   6  22
ATOM     22  O   UNL     1      -6.265   8.709 -27.420  1.00  0.00    -0.507 OA
ATOM     23  H   UNL     1      -6.189   9.464 -26.756  1.00  0.00     0.293 HD
ENDBRANCH   6  22
BRANCH   8  24
ATOM     24  O   UNL     1      -4.506   4.965 -29.858  1.00  0.00    -0.508 OA
ATOM     25  H   UNL     1      -5.172   4.321 -29.447  1.00  0.00     0.293 HD
ENDBRANCH   8  24
TORSDOF 5
ENDMDL
