MODEL 1
REMARK VINA RESULT:    -1.908      0.000      0.000
REMARK INTER + INTRA:          -2.044
REMARK INTER:                  -2.912
REMARK INTRA:                   0.868
REMARK UNBOUND:                 0.868
REMARK SMILES CC1=CCC[C@H](C)C(=O)C[C@@H](C(C)C)C(=O)C1
REMARK SMILES IDX 8 1 9 2 6 3 7 4 5 5 4 6 3 7 2 8 1 9 10 11 11 12 15 13 16 14
REMARK SMILES IDX 17 15 12 17 13 18 14 19
REMARK H PARENT
REMARK Flexibility Score: 70.00
ROOT
ATOM      1  C   UNL     1      27.306  29.101  29.011  1.00  0.00     0.136 C 
ATOM      2  O   UNL     1      27.199  30.319  29.044  1.00  0.00    -0.299 OA
ENDROOT
BRANCH   1   3
ATOM      3  C   UNL     1      26.380  28.271  29.879  1.00  0.00     0.053 C 
ATOM      4  C   UNL     1      25.006  28.946  29.972  1.00  0.00     0.016 C 
BRANCH   3   5
ATOM      5  C   UNL     1      26.237  26.806  29.396  1.00  0.00     0.015 C 
BRANCH   5   6
ATOM      6  C   UNL     1      24.945  26.431  28.623  1.00  0.00     0.028 C 
BRANCH   6   7
ATOM      7  C   UNL     1      25.099  25.354  27.570  1.00  0.00    -0.028 C 
ATOM      8  C   UNL     1      26.252  25.002  26.951  1.00  0.00    -0.070 CG0
ATOM      9  C   UNL     1      26.199  23.876  25.950  1.00  0.00     0.039 C 
ATOM     10  G   UNL     1      27.600  25.639  27.243  1.00  0.00     0.000 G0
ENDBRANCH   6   7
ENDBRANCH   5   6
ENDBRANCH   3   5
ENDBRANCH   1   3
BRANCH   1  11
ATOM     11  C   UNL     1      28.304  28.486  28.052  1.00  0.00     0.087 C 
BRANCH  11  12
ATOM     12  C   UNL     1      27.712  28.189  26.648  1.00  0.00     0.066 C 
BRANCH  12  13
ATOM     13  C   UNL     1      27.937  26.737  26.264  1.00  0.00     0.140 C 
ATOM     14  O   UNL     1      28.393  26.465  25.162  1.00  0.00    -0.299 OA
BRANCH  13  15
ATOM     15  C   UNL     1      27.634  25.621  27.229  1.00  0.00     0.106 CG0
ATOM     16  G   UNL     1      26.272  25.016  26.940  1.00  0.00     0.000 G0
ENDBRANCH  13  15
ENDBRANCH  12  13
BRANCH  12  17
ATOM     17  C   UNL     1      28.285  29.142  25.555  1.00  0.00    -0.006 C 
ATOM     18  C   UNL     1      27.210  29.502  24.511  1.00  0.00     0.008 C 
ATOM     19  C   UNL     1      28.849  30.441  26.158  1.00  0.00     0.008 C 
ENDBRANCH  12  17
ENDBRANCH  11  12
ENDBRANCH   1  11
TORSDOF 1
ENDMDL
MODEL 2
REMARK VINA RESULT:    -1.613     14.189     16.188
REMARK INTER + INTRA:          -1.594
REMARK INTER:                  -3.236
REMARK INTRA:                   1.642
REMARK UNBOUND:                 0.868
REMARK SMILES CC1=CCC[C@H](C)C(=O)C[C@@H](C(C)C)C(=O)C1
REMARK SMILES IDX 8 1 9 2 6 3 7 4 5 5 4 6 3 7 2 8 1 9 10 11 11 12 15 13 16 14
REMARK SMILES IDX 17 15 12 17 13 18 14 19
REMARK H PARENT
REMARK Flexibility Score: 70.00
ROOT
ATOM      1  C   UNL     1      26.642  39.433  19.673  1.00  0.00     0.136 C 
ATOM      2  O   UNL     1      25.762  38.767  20.200  1.00  0.00    -0.299 OA
ENDROOT
BRANCH   1   3
ATOM      3  C   UNL     1      28.042  38.856  19.606  1.00  0.00     0.053 C 
ATOM      4  C   UNL     1      28.743  39.333  18.328  1.00  0.00     0.016 C 
BRANCH   3   5
ATOM      5  C   UNL     1      28.900  39.184  20.854  1.00  0.00     0.015 C 
BRANCH   5   6
ATOM      6  C   UNL     1      29.125  40.683  21.193  1.00  0.00     0.028 C 
BRANCH   6   7
ATOM      7  C   UNL     1      28.848  41.080  22.627  1.00  0.00    -0.028 C 
ATOM      8  C   UNL     1      28.080  42.122  23.033  1.00  0.00    -0.070 CG0
ATOM      9  C   UNL     1      27.903  42.330  24.515  1.00  0.00     0.039 C 
ATOM     10  G   UNL     1      27.349  43.056  22.085  1.00  0.00     0.000 G0
ENDBRANCH   6   7
ENDBRANCH   5   6
ENDBRANCH   3   5
ENDBRANCH   1   3
BRANCH   1  11
ATOM     11  C   UNL     1      26.271  40.763  19.051  1.00  0.00     0.087 C 
BRANCH  11  12
ATOM     12  C   UNL     1      27.020  41.970  19.678  1.00  0.00     0.066 C 
BRANCH  12  13
ATOM     13  C   UNL     1      26.536  42.228  21.094  1.00  0.00     0.140 C 
ATOM     14  O   UNL     1      25.477  41.746  21.470  1.00  0.00    -0.299 OA
BRANCH  13  15
ATOM     15  C   UNL     1      27.352  43.049  22.058  1.00  0.00     0.106 CG0
ATOM     16  G   UNL     1      28.062  42.155  23.058  1.00  0.00     0.000 G0
ENDBRANCH  13  15
ENDBRANCH  12  13
BRANCH  12  17
ATOM     17  C   UNL     1      26.891  43.258  18.809  1.00  0.00    -0.006 C 
ATOM     18  C   UNL     1      25.700  44.122  19.266  1.00  0.00     0.008 C 
ATOM     19  C   UNL     1      28.171  44.113  18.848  1.00  0.00     0.008 C 
ENDBRANCH  12  17
ENDBRANCH  11  12
ENDBRANCH   1  11
TORSDOF 1
ENDMDL
MODEL 3
REMARK VINA RESULT:    -1.594      2.758      5.076
REMARK INTER + INTRA:          -1.565
REMARK INTER:                  -2.076
REMARK INTRA:                   0.511
REMARK UNBOUND:                 0.868
REMARK SMILES CC1=CCC[C@H](C)C(=O)C[C@@H](C(C)C)C(=O)C1
REMARK SMILES IDX 8 1 9 2 6 3 7 4 5 5 4 6 3 7 2 8 1 9 10 11 11 12 15 13 16 14
REMARK SMILES IDX 17 15 12 17 13 18 14 19
REMARK H PARENT
REMARK Flexibility Score: 70.00
ROOT
ATOM      1  C   UNL     1      25.251  24.223  26.596  1.00  0.00     0.136 C 
ATOM      2  O   UNL     1      24.197  23.933  26.048  1.00  0.00    -0.299 OA
ENDROOT
BRANCH   1   3
ATOM      3  C   UNL     1      26.514  24.259  25.757  1.00  0.00     0.053 C 
ATOM      4  C   UNL     1      26.173  23.976  24.288  1.00  0.00     0.016 C 
BRANCH   3   5
ATOM      5  C   UNL     1      27.299  25.588  25.889  1.00  0.00     0.015 C 
BRANCH   5   6
ATOM      6  C   UNL     1      28.805  25.496  26.255  1.00  0.00     0.028 C 
BRANCH   6   7
ATOM      7  C   UNL     1      29.114  24.907  27.615  1.00  0.00    -0.028 C 
ATOM      8  C   UNL     1      28.737  25.420  28.812  1.00  0.00    -0.070 CG0
ATOM      9  C   UNL     1      29.120  24.659  30.056  1.00  0.00     0.039 C 
ATOM     10  G   UNL     1      27.909  26.682  28.970  1.00  0.00     0.000 G0
ENDBRANCH   6   7
ENDBRANCH   5   6
ENDBRANCH   3   5
ENDBRANCH   1   3
BRANCH   1  11
ATOM     11  C   UNL     1      25.228  24.601  28.062  1.00  0.00     0.087 C 
BRANCH  11  12
ATOM     12  C   UNL     1      25.413  26.121  28.313  1.00  0.00     0.066 C 
BRANCH  12  13
ATOM     13  C   UNL     1      26.478  26.368  29.366  1.00  0.00     0.140 C 
ATOM     14  O   UNL     1      26.188  26.292  30.551  1.00  0.00    -0.299 OA
BRANCH  13  15
ATOM     15  C   UNL     1      27.899  26.681  28.977  1.00  0.00     0.106 CG0
ATOM     16  G   UNL     1      28.705  25.405  28.813  1.00  0.00     0.000 G0
ENDBRANCH  13  15
ENDBRANCH  12  13
BRANCH  12  17
ATOM     17  C   UNL     1      24.076  26.819  28.709  1.00  0.00    -0.006 C 
ATOM     18  C   UNL     1      24.111  28.322  28.373  1.00  0.00     0.008 C 
ATOM     19  C   UNL     1      22.861  26.181  28.011  1.00  0.00     0.008 C 
ENDBRANCH  12  17
ENDBRANCH  11  12
ENDBRANCH   1  11
TORSDOF 1
ENDMDL
MODEL 4
REMARK VINA RESULT:    -1.154      1.638      2.463
REMARK INTER + INTRA:          -0.893
REMARK INTER:                  -3.528
REMARK INTRA:                   2.635
REMARK UNBOUND:                 0.868
REMARK SMILES CC1=CCC[C@H](C)C(=O)C[C@@H](C(C)C)C(=O)C1
REMARK SMILES IDX 8 1 9 2 6 3 7 4 5 5 4 6 3 7 2 8 1 9 10 11 11 12 15 13 16 14
REMARK SMILES IDX 17 15 12 17 13 18 14 19
REMARK H PARENT
REMARK Flexibility Score: 70.00
ROOT
ATOM      1  C   UNL     1      25.735  27.425  28.692  1.00  0.00     0.136 C 
ATOM      2  O   UNL     1      25.283  28.542  28.899  1.00  0.00    -0.299 OA
ENDROOT
BRANCH   1   3
ATOM      3  C   UNL     1      24.768  26.261  28.591  1.00  0.00     0.053 C 
ATOM      4  C   UNL     1      23.347  26.784  28.342  1.00  0.00     0.016 C 
BRANCH   3   5
ATOM      5  C   UNL     1      25.166  25.225  27.511  1.00  0.00     0.015 C 
BRANCH   5   6
ATOM      6  C   UNL     1      25.917  23.951  27.984  1.00  0.00     0.028 C 
BRANCH   6   7
ATOM      7  C   UNL     1      26.947  24.163  29.073  1.00  0.00    -0.028 C 
ATOM      8  C   UNL     1      28.228  24.568  28.891  1.00  0.00    -0.070 CG0
ATOM      9  C   UNL     1      29.088  24.751  30.116  1.00  0.00     0.039 C 
ATOM     10  G   UNL     1      28.830  24.898  27.537  1.00  0.00     0.000 G0
ENDBRANCH   6   7
ENDBRANCH   5   6
ENDBRANCH   3   5
ENDBRANCH   1   3
BRANCH   1  11
ATOM     11  C   UNL     1      27.226  27.274  28.474  1.00  0.00     0.087 C 
BRANCH  11  12
ATOM     12  C   UNL     1      27.624  27.145  26.979  1.00  0.00     0.066 C 
BRANCH  12  13
ATOM     13  C   UNL     1      27.987  25.710  26.640  1.00  0.00     0.140 C 
ATOM     14  O   UNL     1      27.565  25.205  25.610  1.00  0.00    -0.299 OA
BRANCH  13  15
ATOM     15  C   UNL     1      28.883  24.901  27.541  1.00  0.00     0.106 CG0
ATOM     16  G   UNL     1      28.197  24.610  28.863  1.00  0.00     0.000 G0
ENDBRANCH  13  15
ENDBRANCH  12  13
BRANCH  12  17
ATOM     17  C   UNL     1      28.785  28.112  26.593  1.00  0.00    -0.006 C 
ATOM     18  C   UNL     1      28.513  28.796  25.240  1.00  0.00     0.008 C 
ATOM     19  C   UNL     1      29.015  29.195  27.662  1.00  0.00     0.008 C 
ENDBRANCH  12  17
ENDBRANCH  11  12
ENDBRANCH   1  11
TORSDOF 1
ENDMDL
MODEL 5
REMARK VINA RESULT:    -0.765      1.877      3.551
REMARK INTER + INTRA:          -0.300
REMARK INTER:                  -3.106
REMARK INTRA:                   2.806
REMARK UNBOUND:                 0.868
REMARK SMILES CC1=CCC[C@H](C)C(=O)C[C@@H](C(C)C)C(=O)C1
REMARK SMILES IDX 8 1 9 2 6 3 7 4 5 5 4 6 3 7 2 8 1 9 10 11 11 12 15 13 16 14
REMARK SMILES IDX 17 15 12 17 13 18 14 19
REMARK H PARENT
REMARK Flexibility Score: 70.00
ROOT
ATOM      1  C   UNL     1      28.420  24.897  28.095  1.00  0.00     0.136 C 
ATOM      2  O   UNL     1      28.496  24.543  26.926  1.00  0.00    -0.299 OA
ENDROOT
BRANCH   1   3
ATOM      3  C   UNL     1      27.732  23.978  29.085  1.00  0.00     0.053 C 
ATOM      4  C   UNL     1      28.290  24.218  30.494  1.00  0.00     0.016 C 
BRANCH   3   5
ATOM      5  C   UNL     1      26.189  24.114  29.078  1.00  0.00     0.015 C 
BRANCH   5   6
ATOM      6  C   UNL     1      25.535  24.768  27.831  1.00  0.00     0.028 C 
BRANCH   6   7
ATOM      7  C   UNL     1      24.704  26.005  28.098  1.00  0.00    -0.028 C 
ATOM      8  C   UNL     1      25.141  27.151  28.675  1.00  0.00    -0.070 CG0
ATOM      9  C   UNL     1      24.157  28.284  28.823  1.00  0.00     0.039 C 
ATOM     10  G   UNL     1      26.570  27.379  29.132  1.00  0.00     0.000 G0
ENDBRANCH   6   7
ENDBRANCH   5   6
ENDBRANCH   3   5
ENDBRANCH   1   3
BRANCH   1  11
ATOM     11  C   UNL     1      29.080  26.198  28.502  1.00  0.00     0.087 C 
BRANCH  11  12
ATOM     12  C   UNL     1      28.687  27.400  27.602  1.00  0.00     0.066 C 
BRANCH  12  13
ATOM     13  C   UNL     1      27.385  28.023  28.073  1.00  0.00     0.140 C 
ATOM     14  O   UNL     1      26.985  29.056  27.554  1.00  0.00    -0.299 OA
BRANCH  13  15
ATOM     15  C   UNL     1      26.558  27.376  29.152  1.00  0.00     0.106 CG0
ATOM     16  G   UNL     1      25.139  27.132  28.670  1.00  0.00     0.000 G0
ENDBRANCH  13  15
ENDBRANCH  12  13
BRANCH  12  17
ATOM     17  C   UNL     1      28.595  27.002  26.097  1.00  0.00    -0.006 C 
ATOM     18  C   UNL     1      27.145  26.669  25.697  1.00  0.00     0.008 C 
ATOM     19  C   UNL     1      29.125  28.112  25.172  1.00  0.00     0.008 C 
ENDBRANCH  12  17
ENDBRANCH  11  12
ENDBRANCH   1  11
TORSDOF 1
ENDMDL
MODEL 6
REMARK VINA RESULT:    -0.601      1.835      3.653
REMARK INTER + INTRA:          -0.049
REMARK INTER:                  -2.364
REMARK INTRA:                   2.315
REMARK UNBOUND:                 0.868
REMARK SMILES CC1=CCC[C@H](C)C(=O)C[C@@H](C(C)C)C(=O)C1
REMARK SMILES IDX 8 1 9 2 6 3 7 4 5 5 4 6 3 7 2 8 1 9 10 11 11 12 15 13 16 14
REMARK SMILES IDX 17 15 12 17 13 18 14 19
REMARK H PARENT
REMARK Flexibility Score: 70.00
ROOT
ATOM      1  C   UNL     1      27.530  26.298  25.454  1.00  0.00     0.136 C 
ATOM      2  O   UNL     1      26.710  27.169  25.203  1.00  0.00    -0.299 OA
ENDROOT
BRANCH   1   3
ATOM      3  C   UNL     1      27.081  24.850  25.414  1.00  0.00     0.053 C 
ATOM      4  C   UNL     1      28.293  23.922  25.564  1.00  0.00     0.016 C 
BRANCH   3   5
ATOM      5  C   UNL     1      26.001  24.514  26.472  1.00  0.00     0.015 C 
BRANCH   5   6
ATOM      6  C   UNL     1      25.925  25.422  27.729  1.00  0.00     0.028 C 
BRANCH   6   7
ATOM      7  C   UNL     1      26.586  24.874  28.976  1.00  0.00    -0.028 C 
ATOM      8  C   UNL     1      27.919  24.825  29.217  1.00  0.00    -0.070 CG0
ATOM      9  C   UNL     1      28.375  24.268  30.541  1.00  0.00     0.039 C 
ATOM     10  G   UNL     1      28.974  25.344  28.256  1.00  0.00     0.000 G0
ENDBRANCH   6   7
ENDBRANCH   5   6
ENDBRANCH   3   5
ENDBRANCH   1   3
BRANCH   1  11
ATOM     11  C   UNL     1      28.964  26.705  25.721  1.00  0.00     0.087 C 
BRANCH  11  12
ATOM     12  C   UNL     1      29.123  27.643  26.948  1.00  0.00     0.066 C 
BRANCH  12  13
ATOM     13  C   UNL     1      29.022  26.857  28.243  1.00  0.00     0.140 C 
ATOM     14  O   UNL     1      28.948  27.452  29.309  1.00  0.00    -0.299 OA
BRANCH  13  15
ATOM     15  C   UNL     1      28.982  25.351  28.239  1.00  0.00     0.106 CG0
ATOM     16  G   UNL     1      27.934  24.838  29.211  1.00  0.00     0.000 G0
ENDBRANCH  13  15
ENDBRANCH  12  13
BRANCH  12  17
ATOM     17  C   UNL     1      28.092  28.813  26.932  1.00  0.00    -0.006 C 
ATOM     18  C   UNL     1      27.183  28.771  28.175  1.00  0.00     0.008 C 
ATOM     19  C   UNL     1      28.779  30.188  26.863  1.00  0.00     0.008 C 
ENDBRANCH  12  17
ENDBRANCH  11  12
ENDBRANCH   1  11
TORSDOF 1
ENDMDL
MODEL 7
REMARK VINA RESULT:     0.038     12.769     15.581
REMARK INTER + INTRA:           0.926
REMARK INTER:                  -0.512
REMARK INTRA:                   1.438
REMARK UNBOUND:                 0.868
REMARK SMILES CC1=CCC[C@H](C)C(=O)C[C@@H](C(C)C)C(=O)C1
REMARK SMILES IDX 8 1 9 2 6 3 7 4 5 5 4 6 3 7 2 8 1 9 10 11 11 12 15 13 16 14
REMARK SMILES IDX 17 15 12 17 13 18 14 19
REMARK H PARENT
REMARK Flexibility Score: 70.00
ROOT
ATOM      1  C   UNL     1      26.381  42.298  21.675  1.00  0.00     0.136 C 
ATOM      2  O   UNL     1      26.182  42.219  22.880  1.00  0.00    -0.299 OA
ENDROOT
BRANCH   1   3
ATOM      3  C   UNL     1      26.960  43.586  21.123  1.00  0.00     0.053 C 
ATOM      4  C   UNL     1      28.075  44.095  22.045  1.00  0.00     0.016 C 
BRANCH   3   5
ATOM      5  C   UNL     1      27.474  43.451  19.667  1.00  0.00     0.015 C 
BRANCH   5   6
ATOM      6  C   UNL     1      28.667  42.491  19.416  1.00  0.00     0.028 C 
BRANCH   6   7
ATOM      7  C   UNL     1      28.425  41.395  18.400  1.00  0.00    -0.028 C 
ATOM      8  C   UNL     1      28.631  40.069  18.592  1.00  0.00    -0.070 CG0
ATOM      9  C   UNL     1      28.295  39.134  17.457  1.00  0.00     0.039 C 
ATOM     10  G   UNL     1      29.128  39.467  19.894  1.00  0.00     0.000 G0
ENDBRANCH   6   7
ENDBRANCH   5   6
ENDBRANCH   3   5
ENDBRANCH   1   3
BRANCH   1  11
ATOM     11  C   UNL     1      26.108  41.084  20.813  1.00  0.00     0.087 C 
BRANCH  11  12
ATOM     12  C   UNL     1      26.890  39.819  21.260  1.00  0.00     0.066 C 
BRANCH  12  13
ATOM     13  C   UNL     1      28.384  40.019  21.083  1.00  0.00     0.140 C 
ATOM     14  O   UNL     1      29.019  40.631  21.930  1.00  0.00    -0.299 OA
BRANCH  13  15
ATOM     15  C   UNL     1      29.109  39.451  19.891  1.00  0.00     0.106 CG0
ATOM     16  G   UNL     1      28.613  40.089  18.606  1.00  0.00     0.000 G0
ENDBRANCH  13  15
ENDBRANCH  12  13
BRANCH  12  17
ATOM     17  C   UNL     1      26.413  38.538  20.510  1.00  0.00    -0.006 C 
ATOM     18  C   UNL     1      26.863  37.261  21.246  1.00  0.00     0.008 C 
ATOM     19  C   UNL     1      24.883  38.502  20.340  1.00  0.00     0.008 C 
ENDBRANCH  12  17
ENDBRANCH  11  12
ENDBRANCH   1  11
TORSDOF 1
ENDMDL
MODEL 8
REMARK VINA RESULT:     0.047      1.862      4.477
REMARK INTER + INTRA:           0.941
REMARK INTER:                  -0.414
REMARK INTRA:                   1.355
REMARK UNBOUND:                 0.868
REMARK SMILES CC1=CCC[C@H](C)C(=O)C[C@@H](C(C)C)C(=O)C1
REMARK SMILES IDX 8 1 9 2 6 3 7 4 5 5 4 6 3 7 2 8 1 9 10 11 11 12 15 13 16 14
REMARK SMILES IDX 17 15 12 17 13 18 14 19
REMARK H PARENT
REMARK Flexibility Score: 70.00
ROOT
ATOM      1  C   UNL     1      26.562  25.138  28.671  1.00  0.00     0.136 C 
ATOM      2  O   UNL     1      27.585  25.221  29.336  1.00  0.00    -0.299 OA
ENDROOT
BRANCH   1   3
ATOM      3  C   UNL     1      26.535  24.169  27.505  1.00  0.00     0.053 C 
ATOM      4  C   UNL     1      25.111  24.071  26.941  1.00  0.00     0.016 C 
BRANCH   3   5
ATOM      5  C   UNL     1      27.543  24.528  26.386  1.00  0.00     0.015 C 
BRANCH   5   6
ATOM      6  C   UNL     1      28.860  25.233  26.809  1.00  0.00     0.028 C 
BRANCH   6   7
ATOM      7  C   UNL     1      29.121  26.578  26.163  1.00  0.00    -0.028 C 
ATOM      8  C   UNL     1      28.708  27.781  26.630  1.00  0.00    -0.070 CG0
ATOM      9  C   UNL     1      29.103  29.011  25.852  1.00  0.00     0.039 C 
ATOM     10  G   UNL     1      27.919  27.968  27.913  1.00  0.00     0.000 G0
ENDBRANCH   6   7
ENDBRANCH   5   6
ENDBRANCH   3   5
ENDBRANCH   1   3
BRANCH   1  11
ATOM     11  C   UNL     1      25.356  25.953  29.090  1.00  0.00     0.087 C 
BRANCH  11  12
ATOM     12  C   UNL     1      25.533  27.479  28.869  1.00  0.00     0.066 C 
BRANCH  12  13
ATOM     13  C   UNL     1      26.465  27.750  27.702  1.00  0.00     0.140 C 
ATOM     14  O   UNL     1      26.013  27.813  26.567  1.00  0.00    -0.299 OA
BRANCH  13  15
ATOM     15  C   UNL     1      27.939  27.972  27.918  1.00  0.00     0.106 CG0
ATOM     16  G   UNL     1      28.707  27.780  26.622  1.00  0.00     0.000 G0
ENDBRANCH  13  15
ENDBRANCH  12  13
BRANCH  12  17
ATOM     17  C   UNL     1      26.036  28.205  30.155  1.00  0.00    -0.006 C 
ATOM     18  C   UNL     1      25.235  29.495  30.416  1.00  0.00     0.008 C 
ATOM     19  C   UNL     1      25.950  27.304  31.400  1.00  0.00     0.008 C 
ENDBRANCH  12  17
ENDBRANCH  11  12
ENDBRANCH   1  11
TORSDOF 1
ENDMDL
MODEL 9
REMARK VINA RESULT:     0.202      1.627      3.995
REMARK INTER + INTRA:           1.176
REMARK INTER:                  -3.708
REMARK INTRA:                   4.883
REMARK UNBOUND:                 0.868
REMARK SMILES CC1=CCC[C@H](C)C(=O)C[C@@H](C(C)C)C(=O)C1
REMARK SMILES IDX 8 1 9 2 6 3 7 4 5 5 4 6 3 7 2 8 1 9 10 11 11 12 15 13 16 14
REMARK SMILES IDX 17 15 12 17 13 18 14 19
REMARK H PARENT
REMARK Flexibility Score: 70.00
ROOT
ATOM      1  C   UNL     1      26.605  26.922  28.408  1.00  0.00     0.136 C 
ATOM      2  O   UNL     1      25.575  26.302  28.187  1.00  0.00    -0.299 OA
ENDROOT
BRANCH   1   3
ATOM      3  C   UNL     1      26.517  28.424  28.600  1.00  0.00     0.053 C 
ATOM      4  C   UNL     1      25.457  28.753  29.659  1.00  0.00     0.016 C 
BRANCH   3   5
ATOM      5  C   UNL     1      27.874  29.075  28.965  1.00  0.00     0.015 C 
BRANCH   5   6
ATOM      6  C   UNL     1      28.999  29.032  27.896  1.00  0.00     0.028 C 
BRANCH   6   7
ATOM      7  C   UNL     1      28.598  29.472  26.504  1.00  0.00    -0.028 C 
ATOM      8  C   UNL     1      27.841  28.765  25.630  1.00  0.00    -0.070 CG0
ATOM      9  C   UNL     1      27.526  29.398  24.298  1.00  0.00     0.039 C 
ATOM     10  G   UNL     1      27.251  27.399  25.931  1.00  0.00     0.000 G0
ENDBRANCH   6   7
ENDBRANCH   5   6
ENDBRANCH   3   5
ENDBRANCH   1   3
BRANCH   1  11
ATOM     11  C   UNL     1      27.900  26.150  28.550  1.00  0.00     0.087 C 
BRANCH  11  12
ATOM     12  C   UNL     1      28.318  25.398  27.259  1.00  0.00     0.066 C 
BRANCH  12  13
ATOM     13  C   UNL     1      28.264  26.322  26.055  1.00  0.00     0.140 C 
ATOM     14  O   UNL     1      29.072  26.184  25.147  1.00  0.00    -0.299 OA
BRANCH  13  15
ATOM     15  C   UNL     1      27.212  27.394  25.944  1.00  0.00     0.106 CG0
ATOM     16  G   UNL     1      27.844  28.736  25.621  1.00  0.00     0.000 G0
ENDBRANCH  13  15
ENDBRANCH  12  13
BRANCH  12  17
ATOM     17  C   UNL     1      27.451  24.124  27.013  1.00  0.00    -0.006 C 
ATOM     18  C   UNL     1      26.477  23.880  28.182  1.00  0.00     0.008 C 
ATOM     19  C   UNL     1      26.647  24.215  25.704  1.00  0.00     0.008 C 
ENDBRANCH  12  17
ENDBRANCH  11  12
ENDBRANCH   1  11
TORSDOF 1
ENDMDL
