MODEL 1
REMARK VINA RESULT:    -3.485      0.000      0.000
REMARK INTER + INTRA:          -8.276
REMARK INTER:                  -6.542
REMARK INTRA:                  -1.735
REMARK UNBOUND:                -1.735
REMARK SMILES O=C([O-])CCCCCCCCCCCCCCC(=O)[O-]
REMARK SMILES IDX 10 1 9 2 8 3 7 4 6 5 5 6 4 7 2 8 1 9 3 10 11 11 12 12 13 13
REMARK SMILES IDX 14 14 15 15 16 16 17 17 18 18 19 19 20 20
REMARK H PARENT
REMARK Flexibility Score: inf
ROOT
ATOM      1  C   UNL     1       1.728  67.627  13.023  1.00  0.00     0.000 C 
ENDROOT
BRANCH   1   2
ATOM      2  C   UNL     1       1.205  67.884  14.449  1.00  0.00     0.000 C 
BRANCH   2   3
ATOM      3  C   UNL     1       1.379  69.346  14.897  1.00  0.00     0.000 C 
BRANCH   3   4
ATOM      4  C   UNL     1       2.476  69.508  15.962  1.00  0.00     0.000 C 
BRANCH   4   5
ATOM      5  C   UNL     1       2.161  70.621  16.972  1.00  0.00     0.000 C 
BRANCH   5   6
ATOM      6  C   UNL     1       2.747  70.292  18.351  1.00  0.00     0.006 C 
BRANCH   6   7
ATOM      7  C   UNL     1       3.436  71.516  18.963  1.00  0.00     0.053 C 
BRANCH   7   8
ATOM      8  C   UNL     1       2.618  72.746  18.735  1.00  0.00     0.041 C 
ATOM      9  O   UNL     1       3.047  73.663  17.986  1.00  0.00    -0.550 OA
ATOM     10  O   UNL     1       1.402  72.904  19.388  1.00  0.00    -0.550 OA
ENDBRANCH   7   8
ENDBRANCH   6   7
ENDBRANCH   5   6
ENDBRANCH   4   5
ENDBRANCH   3   4
ENDBRANCH   2   3
ENDBRANCH   1   2
BRANCH   1  11
ATOM     11  C   UNL     1       3.117  66.970  12.941  1.00  0.00     0.000 C 
BRANCH  11  12
ATOM     12  C   UNL     1       4.056  67.674  11.947  1.00  0.00     0.000 C 
BRANCH  12  13
ATOM     13  C   UNL     1       5.317  68.238  12.623  1.00  0.00     0.000 C 
BRANCH  13  14
ATOM     14  C   UNL     1       5.069  69.608  13.280  1.00  0.00     0.000 C 
BRANCH  14  15
ATOM     15  C   UNL     1       4.233  70.545  12.395  1.00  0.00     0.000 C 
BRANCH  15  16
ATOM     16  C   UNL     1       3.631  71.722  13.177  1.00  0.00     0.006 C 
BRANCH  16  17
ATOM     17  C   UNL     1       2.358  72.237  12.497  1.00  0.00     0.053 C 
BRANCH  17  18
ATOM     18  C   UNL     1       2.695  73.276  11.474  1.00  0.00     0.041 C 
ATOM     19  O   UNL     1       1.946  73.448  10.476  1.00  0.00    -0.550 OA
ATOM     20  O   UNL     1       3.861  74.020  11.596  1.00  0.00    -0.550 OA
ENDBRANCH  17  18
ENDBRANCH  16  17
ENDBRANCH  15  16
ENDBRANCH  14  15
ENDBRANCH  13  14
ENDBRANCH  12  13
ENDBRANCH  11  12
ENDBRANCH   1  11
TORSDOF 15
ENDMDL
MODEL 2
REMARK VINA RESULT:    -3.362      6.342      9.268
REMARK INTER + INTRA:          -8.045
REMARK INTER:                  -7.136
REMARK INTRA:                  -0.909
REMARK UNBOUND:                -1.735
REMARK SMILES O=C([O-])CCCCCCCCCCCCCCC(=O)[O-]
REMARK SMILES IDX 10 1 9 2 8 3 7 4 6 5 5 6 4 7 2 8 1 9 3 10 11 11 12 12 13 13
REMARK SMILES IDX 14 14 15 15 16 16 17 17 18 18 19 19 20 20
REMARK H PARENT
REMARK Flexibility Score: inf
ROOT
ATOM      1  C   UNL     1       5.573  69.247  22.697  1.00  0.00     0.000 C 
ENDROOT
BRANCH   1   2
ATOM      2  C   UNL     1       4.223  69.277  23.437  1.00  0.00     0.000 C 
BRANCH   2   3
ATOM      3  C   UNL     1       3.129  68.462  22.724  1.00  0.00     0.000 C 
BRANCH   3   4
ATOM      4  C   UNL     1       3.321  68.429  21.199  1.00  0.00     0.000 C 
BRANCH   4   5
ATOM      5  C   UNL     1       2.461  69.473  20.470  1.00  0.00     0.000 C 
BRANCH   5   6
ATOM      6  C   UNL     1       3.339  70.444  19.670  1.00  0.00     0.006 C 
BRANCH   6   7
ATOM      7  C   UNL     1       2.558  71.056  18.502  1.00  0.00     0.053 C 
BRANCH   7   8
ATOM      8  C   UNL     1       2.263  72.497  18.768  1.00  0.00     0.041 C 
ATOM      9  O   UNL     1       3.000  73.395  18.283  1.00  0.00    -0.550 OA
ATOM     10  O   UNL     1       1.201  72.848  19.592  1.00  0.00    -0.550 OA
ENDBRANCH   7   8
ENDBRANCH   6   7
ENDBRANCH   5   6
ENDBRANCH   4   5
ENDBRANCH   3   4
ENDBRANCH   2   3
ENDBRANCH   1   2
BRANCH   1  11
ATOM     11  C   UNL     1       6.812  69.096  23.597  1.00  0.00     0.000 C 
BRANCH  11  12
ATOM     12  C   UNL     1       7.669  67.871  23.238  1.00  0.00     0.000 C 
BRANCH  12  13
ATOM     13  C   UNL     1       9.169  68.108  23.481  1.00  0.00     0.000 C 
BRANCH  13  14
ATOM     14  C   UNL     1      10.049  67.019  22.841  1.00  0.00     0.000 C 
BRANCH  14  15
ATOM     15  C   UNL     1       9.790  66.861  21.335  1.00  0.00     0.000 C 
BRANCH  15  16
ATOM     16  C   UNL     1       9.220  65.482  20.970  1.00  0.00     0.006 C 
BRANCH  16  17
ATOM     17  C   UNL     1       8.343  65.566  19.717  1.00  0.00     0.053 C 
BRANCH  17  18
ATOM     18  C   UNL     1       9.159  65.311  18.489  1.00  0.00     0.041 C 
ATOM     19  O   UNL     1       9.967  64.346  18.455  1.00  0.00    -0.550 OA
ATOM     20  O   UNL     1       9.062  66.167  17.399  1.00  0.00    -0.550 OA
ENDBRANCH  17  18
ENDBRANCH  16  17
ENDBRANCH  15  16
ENDBRANCH  14  15
ENDBRANCH  13  14
ENDBRANCH  12  13
ENDBRANCH  11  12
ENDBRANCH   1  11
TORSDOF 15
ENDMDL
MODEL 3
REMARK VINA RESULT:    -3.336      6.205      9.726
REMARK INTER + INTRA:          -7.996
REMARK INTER:                  -6.647
REMARK INTRA:                  -1.349
REMARK UNBOUND:                -1.735
REMARK SMILES O=C([O-])CCCCCCCCCCCCCCC(=O)[O-]
REMARK SMILES IDX 10 1 9 2 8 3 7 4 6 5 5 6 4 7 2 8 1 9 3 10 11 11 12 12 13 13
REMARK SMILES IDX 14 14 15 15 16 16 17 17 18 18 19 19 20 20
REMARK H PARENT
REMARK Flexibility Score: inf
ROOT
ATOM      1  C   UNL     1      -2.750  70.778  20.974  1.00  0.00     0.000 C 
ENDROOT
BRANCH   1   2
ATOM      2  C   UNL     1      -2.913  69.510  20.116  1.00  0.00     0.000 C 
BRANCH   2   3
ATOM      3  C   UNL     1      -1.678  69.210  19.248  1.00  0.00     0.000 C 
BRANCH   3   4
ATOM      4  C   UNL     1      -0.494  70.137  19.569  1.00  0.00     0.000 C 
BRANCH   4   5
ATOM      5  C   UNL     1       0.867  69.462  19.342  1.00  0.00     0.000 C 
BRANCH   5   6
ATOM      6  C   UNL     1       2.005  70.318  19.910  1.00  0.00     0.006 C 
BRANCH   6   7
ATOM      7  C   UNL     1       2.846  70.931  18.786  1.00  0.00     0.053 C 
BRANCH   7   8
ATOM      8  C   UNL     1       2.556  72.392  18.651  1.00  0.00     0.041 C 
ATOM      9  O   UNL     1       3.280  73.117  17.919  1.00  0.00    -0.550 OA
ATOM     10  O   UNL     1       1.515  72.963  19.372  1.00  0.00    -0.550 OA
ENDBRANCH   7   8
ENDBRANCH   6   7
ENDBRANCH   5   6
ENDBRANCH   4   5
ENDBRANCH   3   4
ENDBRANCH   2   3
ENDBRANCH   1   2
BRANCH   1  11
ATOM     11  C   UNL     1      -2.987  70.584  22.483  1.00  0.00     0.000 C 
BRANCH  11  12
ATOM     12  C   UNL     1      -2.913  71.899  23.276  1.00  0.00     0.000 C 
BRANCH  12  13
ATOM     13  C   UNL     1      -4.301  72.506  23.542  1.00  0.00     0.000 C 
BRANCH  13  14
ATOM     14  C   UNL     1      -4.326  74.032  23.338  1.00  0.00     0.000 C 
BRANCH  14  15
ATOM     15  C   UNL     1      -5.313  74.465  22.243  1.00  0.00     0.000 C 
BRANCH  15  16
ATOM     16  C   UNL     1      -5.837  73.284  21.412  1.00  0.00     0.006 C 
BRANCH  16  17
ATOM     17  C   UNL     1      -5.231  73.293  20.005  1.00  0.00     0.053 C 
BRANCH  17  18
ATOM     18  C   UNL     1      -5.810  72.187  19.179  1.00  0.00     0.041 C 
ATOM     19  O   UNL     1      -6.016  72.358  17.948  1.00  0.00    -0.550 OA
ATOM     20  O   UNL     1      -6.167  70.986  19.777  1.00  0.00    -0.550 OA
ENDBRANCH  17  18
ENDBRANCH  16  17
ENDBRANCH  15  16
ENDBRANCH  14  15
ENDBRANCH  13  14
ENDBRANCH  12  13
ENDBRANCH  11  12
ENDBRANCH   1  11
TORSDOF 15
ENDMDL
MODEL 4
REMARK VINA RESULT:    -3.305      4.599      6.370
REMARK INTER + INTRA:          -7.938
REMARK INTER:                  -5.521
REMARK INTRA:                  -2.418
REMARK UNBOUND:                -1.735
REMARK SMILES O=C([O-])CCCCCCCCCCCCCCC(=O)[O-]
REMARK SMILES IDX 10 1 9 2 8 3 7 4 6 5 5 6 4 7 2 8 1 9 3 10 11 11 12 12 13 13
REMARK SMILES IDX 14 14 15 15 16 16 17 17 18 18 19 19 20 20
REMARK H PARENT
REMARK Flexibility Score: inf
ROOT
ATOM      1  C   UNL     1       1.056  64.211  14.757  1.00  0.00     0.000 C 
ENDROOT
BRANCH   1   2
ATOM      2  C   UNL     1       2.378  63.538  15.169  1.00  0.00     0.000 C 
BRANCH   2   3
ATOM      3  C   UNL     1       3.489  63.704  14.118  1.00  0.00     0.000 C 
BRANCH   3   4
ATOM      4  C   UNL     1       4.345  64.957  14.360  1.00  0.00     0.000 C 
BRANCH   4   5
ATOM      5  C   UNL     1       4.529  65.272  15.852  1.00  0.00     0.000 C 
BRANCH   5   6
ATOM      6  C   UNL     1       5.015  66.712  16.054  1.00  0.00     0.006 C 
BRANCH   6   7
ATOM      7  C   UNL     1       3.838  67.660  16.309  1.00  0.00     0.053 C 
BRANCH   7   8
ATOM      8  C   UNL     1       3.822  68.760  15.296  1.00  0.00     0.041 C 
ATOM      9  O   UNL     1       2.910  69.628  15.317  1.00  0.00    -0.550 OA
ATOM     10  O   UNL     1       4.787  68.799  14.297  1.00  0.00    -0.550 OA
ENDBRANCH   7   8
ENDBRANCH   6   7
ENDBRANCH   5   6
ENDBRANCH   4   5
ENDBRANCH   3   4
ENDBRANCH   2   3
ENDBRANCH   1   2
BRANCH   1  11
ATOM     11  C   UNL     1       0.780  65.575  15.414  1.00  0.00     0.000 C 
BRANCH  11  12
ATOM     12  C   UNL     1       0.775  66.737  14.407  1.00  0.00     0.000 C 
BRANCH  12  13
ATOM     13  C   UNL     1       1.136  66.284  12.982  1.00  0.00     0.000 C 
BRANCH  13  14
ATOM     14  C   UNL     1       2.259  67.135  12.360  1.00  0.00     0.000 C 
BRANCH  14  15
ATOM     15  C   UNL     1       2.807  66.529  11.059  1.00  0.00     0.000 C 
BRANCH  15  16
ATOM     16  C   UNL     1       2.354  65.077  10.841  1.00  0.00     0.006 C 
BRANCH  16  17
ATOM     17  C   UNL     1       1.952  64.843   9.381  1.00  0.00     0.053 C 
BRANCH  17  18
ATOM     18  C   UNL     1       2.961  63.980   8.692  1.00  0.00     0.041 C 
ATOM     19  O   UNL     1       3.547  64.393   7.657  1.00  0.00    -0.550 OA
ATOM     20  O   UNL     1       3.219  62.699   9.164  1.00  0.00    -0.550 OA
ENDBRANCH  17  18
ENDBRANCH  16  17
ENDBRANCH  15  16
ENDBRANCH  14  15
ENDBRANCH  13  14
ENDBRANCH  12  13
ENDBRANCH  11  12
ENDBRANCH   1  11
TORSDOF 15
ENDMDL
MODEL 5
REMARK VINA RESULT:    -3.272      5.465      8.658
REMARK INTER + INTRA:          -7.876
REMARK INTER:                  -6.133
REMARK INTRA:                  -1.743
REMARK UNBOUND:                -1.735
REMARK SMILES O=C([O-])CCCCCCCCCCCCCCC(=O)[O-]
REMARK SMILES IDX 10 1 9 2 8 3 7 4 6 5 5 6 4 7 2 8 1 9 3 10 11 11 12 12 13 13
REMARK SMILES IDX 14 14 15 15 16 16 17 17 18 18 19 19 20 20
REMARK H PARENT
REMARK Flexibility Score: inf
ROOT
ATOM      1  C   UNL     1       6.331  69.328  23.024  1.00  0.00     0.000 C 
ENDROOT
BRANCH   1   2
ATOM      2  C   UNL     1       5.255  69.746  24.043  1.00  0.00     0.000 C 
BRANCH   2   3
ATOM      3  C   UNL     1       3.927  68.989  23.857  1.00  0.00     0.000 C 
BRANCH   3   4
ATOM      4  C   UNL     1       3.836  68.287  22.493  1.00  0.00     0.000 C 
BRANCH   4   5
ATOM      5  C   UNL     1       2.955  69.048  21.492  1.00  0.00     0.000 C 
BRANCH   5   6
ATOM      6  C   UNL     1       3.811  69.740  20.423  1.00  0.00     0.006 C 
BRANCH   6   7
ATOM      7  C   UNL     1       3.006  69.976  19.141  1.00  0.00     0.053 C 
BRANCH   7   8
ATOM      8  C   UNL     1       2.633  71.419  19.015  1.00  0.00     0.041 C 
ATOM      9  O   UNL     1       1.483  71.808  19.350  1.00  0.00    -0.550 OA
ATOM     10  O   UNL     1       3.539  72.327  18.483  1.00  0.00    -0.550 OA
ENDBRANCH   7   8
ENDBRANCH   6   7
ENDBRANCH   5   6
ENDBRANCH   4   5
ENDBRANCH   3   4
ENDBRANCH   2   3
ENDBRANCH   1   2
BRANCH   1  11
ATOM     11  C   UNL     1       7.523  68.548  23.610  1.00  0.00     0.000 C 
BRANCH  11  12
ATOM     12  C   UNL     1       7.611  67.105  23.086  1.00  0.00     0.000 C 
BRANCH  12  13
ATOM     13  C   UNL     1       8.481  66.988  21.824  1.00  0.00     0.000 C 
BRANCH  13  14
ATOM     14  C   UNL     1       7.837  66.098  20.745  1.00  0.00     0.000 C 
BRANCH  14  15
ATOM     15  C   UNL     1       6.301  66.115  20.806  1.00  0.00     0.000 C 
BRANCH  15  16
ATOM     16  C   UNL     1       5.648  65.927  19.429  1.00  0.00     0.006 C 
BRANCH  16  17
ATOM     17  C   UNL     1       4.124  66.052  19.524  1.00  0.00     0.053 C 
BRANCH  17  18
ATOM     18  C   UNL     1       3.463  65.209  18.479  1.00  0.00     0.041 C 
ATOM     19  O   UNL     1       2.421  65.616  17.902  1.00  0.00    -0.550 OA
ATOM     20  O   UNL     1       3.970  63.951  18.178  1.00  0.00    -0.550 OA
ENDBRANCH  17  18
ENDBRANCH  16  17
ENDBRANCH  15  16
ENDBRANCH  14  15
ENDBRANCH  13  14
ENDBRANCH  12  13
ENDBRANCH  11  12
ENDBRANCH   1  11
TORSDOF 15
ENDMDL
MODEL 6
REMARK VINA RESULT:    -3.245      7.256     10.189
REMARK INTER + INTRA:          -7.825
REMARK INTER:                  -7.003
REMARK INTRA:                  -0.822
REMARK UNBOUND:                -1.735
REMARK SMILES O=C([O-])CCCCCCCCCCCCCCC(=O)[O-]
REMARK SMILES IDX 10 1 9 2 8 3 7 4 6 5 5 6 4 7 2 8 1 9 3 10 11 11 12 12 13 13
REMARK SMILES IDX 14 14 15 15 16 16 17 17 18 18 19 19 20 20
REMARK H PARENT
REMARK Flexibility Score: inf
ROOT
ATOM      1  C   UNL     1       6.430  67.791   4.631  1.00  0.00     0.000 C 
ENDROOT
BRANCH   1   2
ATOM      2  C   UNL     1       7.158  68.831   5.501  1.00  0.00     0.000 C 
BRANCH   2   3
ATOM      3  C   UNL     1       8.686  68.804   5.317  1.00  0.00     0.000 C 
BRANCH   3   4
ATOM      4  C   UNL     1       9.438  69.289   6.566  1.00  0.00     0.000 C 
BRANCH   4   5
ATOM      5  C   UNL     1       9.345  70.810   6.761  1.00  0.00     0.000 C 
BRANCH   5   6
ATOM      6  C   UNL     1       9.657  71.197   8.212  1.00  0.00     0.006 C 
BRANCH   6   7
ATOM      7  C   UNL     1       8.618  70.613   9.174  1.00  0.00     0.053 C 
BRANCH   7   8
ATOM      8  C   UNL     1       7.875  71.708   9.871  1.00  0.00     0.041 C 
ATOM      9  O   UNL     1       8.352  72.872   9.908  1.00  0.00    -0.550 OA
ATOM     10  O   UNL     1       6.679  71.432  10.521  1.00  0.00    -0.550 OA
ENDBRANCH   7   8
ENDBRANCH   6   7
ENDBRANCH   5   6
ENDBRANCH   4   5
ENDBRANCH   3   4
ENDBRANCH   2   3
ENDBRANCH   1   2
BRANCH   1  11
ATOM     11  C   UNL     1       5.377  66.941   5.365  1.00  0.00     0.000 C 
BRANCH  11  12
ATOM     12  C   UNL     1       4.234  66.477   4.447  1.00  0.00     0.000 C 
BRANCH  12  13
ATOM     13  C   UNL     1       2.847  66.688   5.078  1.00  0.00     0.000 C 
BRANCH  13  14
ATOM     14  C   UNL     1       2.909  67.524   6.370  1.00  0.00     0.000 C 
BRANCH  14  15
ATOM     15  C   UNL     1       2.855  66.657   7.637  1.00  0.00     0.000 C 
BRANCH  15  16
ATOM     16  C   UNL     1       2.258  65.264   7.381  1.00  0.00     0.006 C 
BRANCH  16  17
ATOM     17  C   UNL     1       3.034  64.187   8.146  1.00  0.00     0.053 C 
BRANCH  17  18
ATOM     18  C   UNL     1       2.212  62.944   8.277  1.00  0.00     0.041 C 
ATOM     19  O   UNL     1       2.609  61.996   9.004  1.00  0.00    -0.550 OA
ATOM     20  O   UNL     1       1.032  62.811   7.556  1.00  0.00    -0.550 OA
ENDBRANCH  17  18
ENDBRANCH  16  17
ENDBRANCH  15  16
ENDBRANCH  14  15
ENDBRANCH  13  14
ENDBRANCH  12  13
ENDBRANCH  11  12
ENDBRANCH   1  11
TORSDOF 15
ENDMDL
MODEL 7
REMARK VINA RESULT:    -3.201      1.770      2.827
REMARK INTER + INTRA:          -7.743
REMARK INTER:                  -6.363
REMARK INTRA:                  -1.380
REMARK UNBOUND:                -1.735
REMARK SMILES O=C([O-])CCCCCCCCCCCCCCC(=O)[O-]
REMARK SMILES IDX 10 1 9 2 8 3 7 4 6 5 5 6 4 7 2 8 1 9 3 10 11 11 12 12 13 13
REMARK SMILES IDX 14 14 15 15 16 16 17 17 18 18 19 19 20 20
REMARK H PARENT
REMARK Flexibility Score: inf
ROOT
ATOM      1  C   UNL     1       2.745  66.838  17.295  1.00  0.00     0.000 C 
ENDROOT
BRANCH   1   2
ATOM      2  C   UNL     1       3.970  66.993  18.216  1.00  0.00     0.000 C 
BRANCH   2   3
ATOM      3  C   UNL     1       3.588  67.278  19.680  1.00  0.00     0.000 C 
BRANCH   3   4
ATOM      4  C   UNL     1       3.717  68.766  20.042  1.00  0.00     0.000 C 
BRANCH   4   5
ATOM      5  C   UNL     1       2.435  69.338  20.666  1.00  0.00     0.000 C 
BRANCH   5   6
ATOM      6  C   UNL     1       1.783  70.366  19.733  1.00  0.00     0.006 C 
BRANCH   6   7
ATOM      7  C   UNL     1       2.842  71.186  18.990  1.00  0.00     0.053 C 
BRANCH   7   8
ATOM      8  C   UNL     1       2.375  72.593  18.796  1.00  0.00     0.041 C 
ATOM      9  O   UNL     1       3.066  73.404  18.125  1.00  0.00    -0.550 OA
ATOM     10  O   UNL     1       1.199  73.024  19.397  1.00  0.00    -0.550 OA
ENDBRANCH   7   8
ENDBRANCH   6   7
ENDBRANCH   5   6
ENDBRANCH   4   5
ENDBRANCH   3   4
ENDBRANCH   2   3
ENDBRANCH   1   2
BRANCH   1  11
ATOM     11  C   UNL     1       2.243  68.141  16.647  1.00  0.00     0.000 C 
BRANCH  11  12
ATOM     12  C   UNL     1       3.383  69.018  16.103  1.00  0.00     0.000 C 
BRANCH  12  13
ATOM     13  C   UNL     1       4.155  68.341  14.959  1.00  0.00     0.000 C 
BRANCH  13  14
ATOM     14  C   UNL     1       4.452  69.306  13.796  1.00  0.00     0.000 C 
BRANCH  14  15
ATOM     15  C   UNL     1       3.350  70.360  13.608  1.00  0.00     0.000 C 
BRANCH  15  16
ATOM     16  C   UNL     1       3.491  71.141  12.292  1.00  0.00     0.006 C 
BRANCH  16  17
ATOM     17  C   UNL     1       2.594  72.382  12.293  1.00  0.00     0.053 C 
BRANCH  17  18
ATOM     18  C   UNL     1       3.164  73.441  11.403  1.00  0.00     0.041 C 
ATOM     19  O   UNL     1       2.702  73.609  10.243  1.00  0.00    -0.550 OA
ATOM     20  O   UNL     1       4.238  74.209  11.834  1.00  0.00    -0.550 OA
ENDBRANCH  17  18
ENDBRANCH  16  17
ENDBRANCH  15  16
ENDBRANCH  14  15
ENDBRANCH  13  14
ENDBRANCH  12  13
ENDBRANCH  11  12
ENDBRANCH   1  11
TORSDOF 15
ENDMDL
MODEL 8
REMARK VINA RESULT:    -3.183      6.109      9.460
REMARK INTER + INTRA:          -7.708
REMARK INTER:                  -5.842
REMARK INTRA:                  -1.866
REMARK UNBOUND:                -1.735
REMARK SMILES O=C([O-])CCCCCCCCCCCCCCC(=O)[O-]
REMARK SMILES IDX 10 1 9 2 8 3 7 4 6 5 5 6 4 7 2 8 1 9 3 10 11 11 12 12 13 13
REMARK SMILES IDX 14 14 15 15 16 16 17 17 18 18 19 19 20 20
REMARK H PARENT
REMARK Flexibility Score: inf
ROOT
ATOM      1  C   UNL     1       1.536  65.844  11.338  1.00  0.00     0.000 C 
ENDROOT
BRANCH   1   2
ATOM      2  C   UNL     1       0.539  66.911  10.849  1.00  0.00     0.000 C 
BRANCH   2   3
ATOM      3  C   UNL     1       0.621  67.158   9.332  1.00  0.00     0.000 C 
BRANCH   3   4
ATOM      4  C   UNL     1       0.108  65.963   8.513  1.00  0.00     0.000 C 
BRANCH   4   5
ATOM      5  C   UNL     1       1.077  65.549   7.396  1.00  0.00     0.000 C 
BRANCH   5   6
ATOM      6  C   UNL     1       2.530  65.584   7.890  1.00  0.00     0.006 C 
BRANCH   6   7
ATOM      7  C   UNL     1       3.208  64.223   7.701  1.00  0.00     0.053 C 
BRANCH   7   8
ATOM      8  C   UNL     1       2.640  63.219   8.653  1.00  0.00     0.041 C 
ATOM      9  O   UNL     1       3.150  63.071   9.795  1.00  0.00    -0.550 OA
ATOM     10  O   UNL     1       1.580  62.412   8.263  1.00  0.00    -0.550 OA
ENDBRANCH   7   8
ENDBRANCH   6   7
ENDBRANCH   5   6
ENDBRANCH   4   5
ENDBRANCH   3   4
ENDBRANCH   2   3
ENDBRANCH   1   2
BRANCH   1  11
ATOM     11  C   UNL     1       3.001  66.307  11.430  1.00  0.00     0.000 C 
BRANCH  11  12
ATOM     12  C   UNL     1       3.155  67.678  12.109  1.00  0.00     0.000 C 
BRANCH  12  13
ATOM     13  C   UNL     1       3.411  67.562  13.621  1.00  0.00     0.000 C 
BRANCH  13  14
ATOM     14  C   UNL     1       4.427  66.458  13.964  1.00  0.00     0.000 C 
BRANCH  14  15
ATOM     15  C   UNL     1       3.955  65.558  15.117  1.00  0.00     0.000 C 
BRANCH  15  16
ATOM     16  C   UNL     1       2.508  65.075  14.942  1.00  0.00     0.006 C 
BRANCH  16  17
ATOM     17  C   UNL     1       2.471  63.653  14.374  1.00  0.00     0.053 C 
BRANCH  17  18
ATOM     18  C   UNL     1       2.704  62.650  15.460  1.00  0.00     0.041 C 
ATOM     19  O   UNL     1       1.934  62.603  16.455  1.00  0.00    -0.550 OA
ATOM     20  O   UNL     1       3.800  61.799  15.397  1.00  0.00    -0.550 OA
ENDBRANCH  17  18
ENDBRANCH  16  17
ENDBRANCH  15  16
ENDBRANCH  14  15
ENDBRANCH  13  14
ENDBRANCH  12  13
ENDBRANCH  11  12
ENDBRANCH   1  11
TORSDOF 15
ENDMDL
MODEL 9
REMARK VINA RESULT:    -3.150      4.894      8.209
REMARK INTER + INTRA:          -7.648
REMARK INTER:                  -5.711
REMARK INTRA:                  -1.937
REMARK UNBOUND:                -1.735
REMARK SMILES O=C([O-])CCCCCCCCCCCCCCC(=O)[O-]
REMARK SMILES IDX 10 1 9 2 8 3 7 4 6 5 5 6 4 7 2 8 1 9 3 10 11 11 12 12 13 13
REMARK SMILES IDX 14 14 15 15 16 16 17 17 18 18 19 19 20 20
REMARK H PARENT
REMARK Flexibility Score: inf
ROOT
ATOM      1  C   UNL     1       0.951  66.090  14.507  1.00  0.00     0.000 C 
ENDROOT
BRANCH   1   2
ATOM      2  C   UNL     1       0.791  66.894  13.203  1.00  0.00     0.000 C 
BRANCH   2   3
ATOM      3  C   UNL     1       2.138  67.326  12.596  1.00  0.00     0.000 C 
BRANCH   3   4
ATOM      4  C   UNL     1       2.228  67.030  11.091  1.00  0.00     0.000 C 
BRANCH   4   5
ATOM      5  C   UNL     1       2.394  65.533  10.790  1.00  0.00     0.000 C 
BRANCH   5   6
ATOM      6  C   UNL     1       1.688  65.154   9.482  1.00  0.00     0.006 C 
BRANCH   6   7
ATOM      7  C   UNL     1       2.616  64.347   8.569  1.00  0.00     0.053 C 
BRANCH   7   8
ATOM      8  C   UNL     1       2.116  62.945   8.421  1.00  0.00     0.041 C 
ATOM      9  O   UNL     1       2.693  62.000   9.021  1.00  0.00    -0.550 OA
ATOM     10  O   UNL     1       1.042  62.675   7.583  1.00  0.00    -0.550 OA
ENDBRANCH   7   8
ENDBRANCH   6   7
ENDBRANCH   5   6
ENDBRANCH   4   5
ENDBRANCH   3   4
ENDBRANCH   2   3
ENDBRANCH   1   2
BRANCH   1  11
ATOM     11  C   UNL     1       1.081  64.567  14.328  1.00  0.00     0.000 C 
BRANCH  11  12
ATOM     12  C   UNL     1       2.542  64.093  14.261  1.00  0.00     0.000 C 
BRANCH  12  13
ATOM     13  C   UNL     1       3.233  64.116  15.635  1.00  0.00     0.000 C 
BRANCH  13  14
ATOM     14  C   UNL     1       4.652  64.710  15.571  1.00  0.00     0.000 C 
BRANCH  14  15
ATOM     15  C   UNL     1       4.833  65.680  14.393  1.00  0.00     0.000 C 
BRANCH  15  16
ATOM     16  C   UNL     1       5.126  67.118  14.846  1.00  0.00     0.006 C 
BRANCH  16  17
ATOM     17  C   UNL     1       4.221  67.519  16.015  1.00  0.00     0.053 C 
BRANCH  17  18
ATOM     18  C   UNL     1       3.534  68.817  15.725  1.00  0.00     0.041 C 
ATOM     19  O   UNL     1       2.607  69.224  16.473  1.00  0.00    -0.550 OA
ATOM     20  O   UNL     1       3.885  69.552  14.599  1.00  0.00    -0.550 OA
ENDBRANCH  17  18
ENDBRANCH  16  17
ENDBRANCH  15  16
ENDBRANCH  14  15
ENDBRANCH  13  14
ENDBRANCH  12  13
ENDBRANCH  11  12
ENDBRANCH   1  11
TORSDOF 15
ENDMDL
