MODEL 1
REMARK VINA RESULT:    -3.805      0.000      0.000
REMARK INTER + INTRA:          -5.332
REMARK INTER:                  -4.917
REMARK INTRA:                  -0.415
REMARK UNBOUND:                -0.415
REMARK SMILES CCO[C@@H]1O[C@@H](CO)[C@H](O)[C@H](O)[C@H]1O
REMARK SMILES IDX 4 1 13 2 11 3 9 4 6 5 5 6 3 7 2 8 1 9 14 10 12 12 7 14 8 15
REMARK SMILES IDX 10 17
REMARK H PARENT 14 11 12 13 8 16 10 18
REMARK Flexibility Score: inf
ROOT
ATOM      1  C   UNL     1       7.956  31.659  33.591  1.00  0.00     0.281 C 
ATOM      2  C   UNL     1       7.502  32.708  32.553  1.00  0.00     0.202 C 
ATOM      3  C   UNL     1       7.705  34.138  33.098  1.00  0.00     0.179 C 
ATOM      4  C   UNL     1       9.133  34.300  33.640  1.00  0.00     0.177 C 
ATOM      5  C   UNL     1       9.459  33.150  34.624  1.00  0.00     0.178 C 
ATOM      6  O   UNL     1       9.299  31.888  33.989  1.00  0.00    -0.341 OA
ENDROOT
BRANCH   1   7
ATOM      7  O   UNL     1       7.101  31.661  34.728  1.00  0.00    -0.350 OA
BRANCH   7   8
ATOM      8  C   UNL     1       5.984  30.820  34.527  1.00  0.00     0.160 C 
ATOM      9  C   UNL     1       6.377  29.386  34.845  1.00  0.00     0.035 C 
ENDBRANCH   7   8
ENDBRANCH   1   7
BRANCH   2  10
ATOM     10  O   UNL     1       8.247  32.535  31.374  1.00  0.00    -0.385 OA
ATOM     11  H   UNL     1       7.615  32.218  30.678  1.00  0.00     0.211 HD
ENDBRANCH   2  10
BRANCH   3  12
ATOM     12  O   UNL     1       6.773  34.408  34.115  1.00  0.00    -0.387 OA
ATOM     13  H   UNL     1       5.914  33.997  33.836  1.00  0.00     0.211 HD
ENDBRANCH   3  12
BRANCH   5  14
ATOM     14  C   UNL     1      10.907  33.254  35.125  1.00  0.00     0.191 C 
BRANCH  14  15
ATOM     15  O   UNL     1      11.743  33.747  34.113  1.00  0.00    -0.394 OA
ATOM     16  H   UNL     1      11.856  33.012  33.454  1.00  0.00     0.210 HD
ENDBRANCH  14  15
ENDBRANCH   5  14
BRANCH   4  17
ATOM     17  O   UNL     1       9.239  35.544  34.287  1.00  0.00    -0.387 OA
ATOM     18  H   UNL     1       8.666  35.506  35.097  1.00  0.00     0.211 HD
ENDBRANCH   4  17
TORSDOF 7
ENDMDL
MODEL 2
REMARK VINA RESULT:    -3.356      1.786      4.678
REMARK INTER + INTRA:          -4.752
REMARK INTER:                  -4.318
REMARK INTRA:                  -0.434
REMARK UNBOUND:                -0.415
REMARK SMILES CCO[C@@H]1O[C@@H](CO)[C@H](O)[C@H](O)[C@H]1O
REMARK SMILES IDX 4 1 13 2 11 3 9 4 6 5 5 6 3 7 2 8 1 9 14 10 12 12 7 14 8 15
REMARK SMILES IDX 10 17
REMARK H PARENT 14 11 12 13 8 16 10 18
REMARK Flexibility Score: inf
ROOT
ATOM      1  C   UNL     1       7.240  34.162  33.235  1.00  0.00     0.281 C 
ATOM      2  C   UNL     1       8.366  33.163  32.890  1.00  0.00     0.202 C 
ATOM      3  C   UNL     1       8.315  31.939  33.828  1.00  0.00     0.179 C 
ATOM      4  C   UNL     1       6.892  31.363  33.870  1.00  0.00     0.177 C 
ATOM      5  C   UNL     1       5.874  32.488  34.173  1.00  0.00     0.178 C 
ATOM      6  O   UNL     1       5.972  33.525  33.206  1.00  0.00    -0.341 OA
ENDROOT
BRANCH   1   7
ATOM      7  O   UNL     1       7.459  34.761  34.506  1.00  0.00    -0.350 OA
BRANCH   7   8
ATOM      8  C   UNL     1       8.152  35.985  34.380  1.00  0.00     0.160 C 
ATOM      9  C   UNL     1       7.464  36.841  33.327  1.00  0.00     0.035 C 
ENDBRANCH   7   8
ENDBRANCH   1   7
BRANCH   2  10
ATOM     10  O   UNL     1       8.217  32.749  31.556  1.00  0.00    -0.385 OA
ATOM     11  H   UNL     1       7.282  32.955  31.293  1.00  0.00     0.211 HD
ENDBRANCH   2  10
BRANCH   3  12
ATOM     12  O   UNL     1       8.723  32.301  35.124  1.00  0.00    -0.387 OA
ATOM     13  H   UNL     1       8.024  31.972  35.748  1.00  0.00     0.211 HD
ENDBRANCH   3  12
BRANCH   5  14
ATOM     14  C   UNL     1       4.437  31.946  34.150  1.00  0.00     0.191 C 
BRANCH  14  15
ATOM     15  O   UNL     1       4.307  30.941  33.182  1.00  0.00    -0.394 OA
ATOM     16  H   UNL     1       4.786  31.262  32.373  1.00  0.00     0.210 HD
ENDBRANCH  14  15
ENDBRANCH   5  14
BRANCH   4  17
ATOM     17  O   UNL     1       6.830  30.365  34.859  1.00  0.00    -0.387 OA
ATOM     18  H   UNL     1       6.950  30.812  35.737  1.00  0.00     0.211 HD
ENDBRANCH   4  17
TORSDOF 7
ENDMDL
MODEL 3
REMARK VINA RESULT:    -3.291      1.390      4.392
REMARK INTER + INTRA:          -4.668
REMARK INTER:                  -4.244
REMARK INTRA:                  -0.424
REMARK UNBOUND:                -0.415
REMARK SMILES CCO[C@@H]1O[C@@H](CO)[C@H](O)[C@H](O)[C@H]1O
REMARK SMILES IDX 4 1 13 2 11 3 9 4 6 5 5 6 3 7 2 8 1 9 14 10 12 12 7 14 8 15
REMARK SMILES IDX 10 17
REMARK H PARENT 14 11 12 13 8 16 10 18
REMARK Flexibility Score: inf
ROOT
ATOM      1  C   UNL     1       9.801  33.716  35.085  1.00  0.00     0.281 C 
ATOM      2  C   UNL     1       9.203  34.945  34.366  1.00  0.00     0.202 C 
ATOM      3  C   UNL     1       8.741  34.573  32.941  1.00  0.00     0.179 C 
ATOM      4  C   UNL     1       7.855  33.319  32.982  1.00  0.00     0.177 C 
ATOM      5  C   UNL     1       8.564  32.196  33.778  1.00  0.00     0.178 C 
ATOM      6  O   UNL     1       8.880  32.637  35.092  1.00  0.00    -0.341 OA
ENDROOT
BRANCH   1   7
ATOM      7  O   UNL     1      11.023  33.313  34.480  1.00  0.00    -0.350 OA
BRANCH   7   8
ATOM      8  C   UNL     1      12.094  34.132  34.901  1.00  0.00     0.160 C 
ATOM      9  C   UNL     1      13.311  33.845  34.034  1.00  0.00     0.035 C 
ENDBRANCH   7   8
ENDBRANCH   1   7
BRANCH   2  10
ATOM     10  O   UNL     1       8.113  35.425  35.112  1.00  0.00    -0.385 OA
ATOM     11  H   UNL     1       8.123  36.414  35.034  1.00  0.00     0.211 HD
ENDBRANCH   2  10
BRANCH   3  12
ATOM     12  O   UNL     1       9.854  34.345  32.113  1.00  0.00    -0.387 OA
ATOM     13  H   UNL     1       9.683  34.825  31.261  1.00  0.00     0.211 HD
ENDBRANCH   3  12
BRANCH   5  14
ATOM     14  C   UNL     1       7.665  30.956  33.891  1.00  0.00     0.191 C 
BRANCH  14  15
ATOM     15  O   UNL     1       6.315  31.331  33.937  1.00  0.00    -0.394 OA
ATOM     16  H   UNL     1       6.075  31.413  34.898  1.00  0.00     0.210 HD
ENDBRANCH  14  15
ENDBRANCH   5  14
BRANCH   4  17
ATOM     17  O   UNL     1       7.593  32.899  31.666  1.00  0.00    -0.387 OA
ATOM     18  H   UNL     1       8.337  32.299  31.395  1.00  0.00     0.211 HD
ENDBRANCH   4  17
TORSDOF 7
ENDMDL
MODEL 4
REMARK VINA RESULT:    -3.283      1.823      3.585
REMARK INTER + INTRA:          -4.657
REMARK INTER:                  -4.316
REMARK INTRA:                  -0.342
REMARK UNBOUND:                -0.415
REMARK SMILES CCO[C@@H]1O[C@@H](CO)[C@H](O)[C@H](O)[C@H]1O
REMARK SMILES IDX 4 1 13 2 11 3 9 4 6 5 5 6 3 7 2 8 1 9 14 10 12 12 7 14 8 15
REMARK SMILES IDX 10 17
REMARK H PARENT 14 11 12 13 8 16 10 18
REMARK Flexibility Score: inf
ROOT
ATOM      1  C   UNL     1       6.823  33.664  34.951  1.00  0.00     0.281 C 
ATOM      2  C   UNL     1       6.402  32.293  34.380  1.00  0.00     0.202 C 
ATOM      3  C   UNL     1       6.799  32.176  32.893  1.00  0.00     0.179 C 
ATOM      4  C   UNL     1       8.275  32.559  32.708  1.00  0.00     0.177 C 
ATOM      5  C   UNL     1       8.555  33.926  33.376  1.00  0.00     0.178 C 
ATOM      6  O   UNL     1       8.211  33.889  34.755  1.00  0.00    -0.341 OA
ENDROOT
BRANCH   1   7
ATOM      7  O   UNL     1       6.068  34.717  34.366  1.00  0.00    -0.350 OA
BRANCH   7   8
ATOM      8  C   UNL     1       6.176  35.904  35.125  1.00  0.00     0.160 C 
ATOM      9  C   UNL     1       6.716  37.014  34.237  1.00  0.00     0.035 C 
ENDBRANCH   7   8
ENDBRANCH   1   7
BRANCH   2  10
ATOM     10  O   UNL     1       7.027  31.277  35.123  1.00  0.00    -0.385 OA
ATOM     11  H   UNL     1       6.592  31.262  36.015  1.00  0.00     0.211 HD
ENDBRANCH   2  10
BRANCH   3  12
ATOM     12  O   UNL     1       5.986  33.010  32.106  1.00  0.00    -0.387 OA
ATOM     13  H   UNL     1       5.078  32.990  32.507  1.00  0.00     0.211 HD
ENDBRANCH   3  12
BRANCH   5  14
ATOM     14  C   UNL     1      10.042  34.296  33.263  1.00  0.00     0.191 C 
BRANCH  14  15
ATOM     15  O   UNL     1      10.315  34.851  32.005  1.00  0.00    -0.394 OA
ATOM     16  H   UNL     1      10.966  35.586  32.154  1.00  0.00     0.210 HD
ENDBRANCH  14  15
ENDBRANCH   5  14
BRANCH   4  17
ATOM     17  O   UNL     1       8.565  32.615  31.333  1.00  0.00    -0.387 OA
ATOM     18  H   UNL     1       8.757  31.688  31.034  1.00  0.00     0.211 HD
ENDBRANCH   4  17
TORSDOF 7
ENDMDL
MODEL 5
REMARK VINA RESULT:    -3.276      1.780      3.150
REMARK INTER + INTRA:          -4.648
REMARK INTER:                  -4.273
REMARK INTRA:                  -0.376
REMARK UNBOUND:                -0.415
REMARK SMILES CCO[C@@H]1O[C@@H](CO)[C@H](O)[C@H](O)[C@H]1O
REMARK SMILES IDX 4 1 13 2 11 3 9 4 6 5 5 6 3 7 2 8 1 9 14 10 12 12 7 14 8 15
REMARK SMILES IDX 10 17
REMARK H PARENT 14 11 12 13 8 16 10 18
REMARK Flexibility Score: inf
ROOT
ATOM      1  C   UNL     1       6.376  32.431  33.984  1.00  0.00     0.281 C 
ATOM      2  C   UNL     1       7.818  31.896  33.845  1.00  0.00     0.202 C 
ATOM      3  C   UNL     1       8.666  32.835  32.963  1.00  0.00     0.179 C 
ATOM      4  C   UNL     1       8.530  34.286  33.449  1.00  0.00     0.177 C 
ATOM      5  C   UNL     1       7.034  34.659  33.589  1.00  0.00     0.178 C 
ATOM      6  O   UNL     1       6.376  33.763  34.475  1.00  0.00    -0.341 OA
ENDROOT
BRANCH   1   7
ATOM      7  O   UNL     1       5.684  32.367  32.743  1.00  0.00    -0.350 OA
BRANCH   7   8
ATOM      8  C   UNL     1       4.377  31.861  32.915  1.00  0.00     0.160 C 
ATOM      9  C   UNL     1       4.414  30.714  33.913  1.00  0.00     0.035 C 
ENDBRANCH   7   8
ENDBRANCH   1   7
BRANCH   2  10
ATOM     10  O   UNL     1       8.392  31.794  35.124  1.00  0.00    -0.385 OA
ATOM     11  H   UNL     1       8.256  32.669  35.572  1.00  0.00     0.211 HD
ENDBRANCH   2  10
BRANCH   3  12
ATOM     12  O   UNL     1       8.259  32.741  31.620  1.00  0.00    -0.387 OA
ATOM     13  H   UNL     1       7.793  33.589  31.400  1.00  0.00     0.211 HD
ENDBRANCH   3  12
BRANCH   5  14
ATOM     14  C   UNL     1       6.875  36.083  34.141  1.00  0.00     0.191 C 
BRANCH  14  15
ATOM     15  O   UNL     1       6.902  37.020  33.099  1.00  0.00    -0.394 OA
ATOM     16  H   UNL     1       7.531  37.737  33.377  1.00  0.00     0.210 HD
ENDBRANCH  14  15
ENDBRANCH   5  14
BRANCH   4  17
ATOM     17  O   UNL     1       9.165  35.140  32.530  1.00  0.00    -0.387 OA
ATOM     18  H   UNL     1      10.050  34.742  32.321  1.00  0.00     0.211 HD
ENDBRANCH   4  17
TORSDOF 7
ENDMDL
MODEL 6
REMARK VINA RESULT:    -3.202      7.795     10.407
REMARK INTER + INTRA:          -4.553
REMARK INTER:                  -4.179
REMARK INTRA:                  -0.374
REMARK UNBOUND:                -0.415
REMARK SMILES CCO[C@@H]1O[C@@H](CO)[C@H](O)[C@H](O)[C@H]1O
REMARK SMILES IDX 4 1 13 2 11 3 9 4 6 5 5 6 3 7 2 8 1 9 14 10 12 12 7 14 8 15
REMARK SMILES IDX 10 17
REMARK H PARENT 14 11 12 13 8 16 10 18
REMARK Flexibility Score: inf
ROOT
ATOM      1  C   UNL     1      16.616  36.970  32.262  1.00  0.00     0.281 C 
ATOM      2  C   UNL     1      17.190  38.261  32.884  1.00  0.00     0.202 C 
ATOM      3  C   UNL     1      18.291  37.929  33.912  1.00  0.00     0.179 C 
ATOM      4  C   UNL     1      19.316  36.965  33.297  1.00  0.00     0.177 C 
ATOM      5  C   UNL     1      18.590  35.750  32.669  1.00  0.00     0.178 C 
ATOM      6  O   UNL     1      17.649  36.180  31.694  1.00  0.00    -0.341 OA
ENDROOT
BRANCH   1   7
ATOM      7  O   UNL     1      15.895  36.213  33.226  1.00  0.00    -0.350 OA
BRANCH   7   8
ATOM      8  C   UNL     1      14.533  36.586  33.251  1.00  0.00     0.160 C 
ATOM      9  C   UNL     1      13.698  35.393  33.689  1.00  0.00     0.035 C 
ENDBRANCH   7   8
ENDBRANCH   1   7
BRANCH   2  10
ATOM     10  O   UNL     1      17.718  39.066  31.860  1.00  0.00    -0.385 OA
ATOM     11  H   UNL     1      18.401  38.521  31.389  1.00  0.00     0.211 HD
ENDBRANCH   2  10
BRANCH   3  12
ATOM     12  O   UNL     1      17.725  37.354  35.064  1.00  0.00    -0.387 OA
ATOM     13  H   UNL     1      18.206  36.501  35.227  1.00  0.00     0.211 HD
ENDBRANCH   3  12
BRANCH   5  14
ATOM     14  C   UNL     1      19.592  34.807  31.986  1.00  0.00     0.191 C 
BRANCH  14  15
ATOM     15  O   UNL     1      20.835  35.438  31.836  1.00  0.00    -0.394 OA
ATOM     16  H   UNL     1      21.481  34.733  31.569  1.00  0.00     0.210 HD
ENDBRANCH  14  15
ENDBRANCH   5  14
BRANCH   4  17
ATOM     17  O   UNL     1      20.206  36.540  34.300  1.00  0.00    -0.387 OA
ATOM     18  H   UNL     1      20.200  35.547  34.298  1.00  0.00     0.211 HD
ENDBRANCH   4  17
TORSDOF 7
ENDMDL
MODEL 7
REMARK VINA RESULT:    -3.148      7.984     10.432
REMARK INTER + INTRA:          -4.484
REMARK INTER:                  -4.100
REMARK INTRA:                  -0.384
REMARK UNBOUND:                -0.415
REMARK SMILES CCO[C@@H]1O[C@@H](CO)[C@H](O)[C@H](O)[C@H]1O
REMARK SMILES IDX 4 1 13 2 11 3 9 4 6 5 5 6 3 7 2 8 1 9 14 10 12 12 7 14 8 15
REMARK SMILES IDX 10 17
REMARK H PARENT 14 11 12 13 8 16 10 18
REMARK Flexibility Score: inf
ROOT
ATOM      1  C   UNL     1      18.418  36.755  33.134  1.00  0.00     0.281 C 
ATOM      2  C   UNL     1      18.235  37.930  32.148  1.00  0.00     0.202 C 
ATOM      3  C   UNL     1      16.762  38.048  31.707  1.00  0.00     0.179 C 
ATOM      4  C   UNL     1      15.840  38.049  32.936  1.00  0.00     0.177 C 
ATOM      5  C   UNL     1      16.177  36.848  33.852  1.00  0.00     0.178 C 
ATOM      6  O   UNL     1      17.543  36.885  34.243  1.00  0.00    -0.341 OA
ENDROOT
BRANCH   1   7
ATOM      7  O   UNL     1      18.208  35.506  32.487  1.00  0.00    -0.350 OA
BRANCH   7   8
ATOM      8  C   UNL     1      19.414  34.999  31.954  1.00  0.00     0.160 C 
ATOM      9  C   UNL     1      20.564  35.381  32.875  1.00  0.00     0.035 C 
ENDBRANCH   7   8
ENDBRANCH   1   7
BRANCH   2  10
ATOM     10  O   UNL     1      18.644  39.120  32.775  1.00  0.00    -0.385 OA
ATOM     11  H   UNL     1      18.382  39.866  32.176  1.00  0.00     0.211 HD
ENDBRANCH   2  10
BRANCH   3  12
ATOM     12  O   UNL     1      16.421  36.982  30.856  1.00  0.00    -0.387 OA
ATOM     13  H   UNL     1      16.424  36.158  31.410  1.00  0.00     0.211 HD
ENDBRANCH   3  12
BRANCH   5  14
ATOM     14  C   UNL     1      15.313  36.870  35.122  1.00  0.00     0.191 C 
BRANCH  14  15
ATOM     15  O   UNL     1      14.056  36.302  34.871  1.00  0.00    -0.394 OA
ATOM     16  H   UNL     1      13.919  35.599  35.559  1.00  0.00     0.210 HD
ENDBRANCH  14  15
ENDBRANCH   5  14
BRANCH   4  17
ATOM     17  O   UNL     1      14.503  37.980  32.506  1.00  0.00    -0.387 OA
ATOM     18  H   UNL     1      14.019  38.741  32.923  1.00  0.00     0.211 HD
ENDBRANCH   4  17
TORSDOF 7
ENDMDL
MODEL 8
REMARK VINA RESULT:    -3.134     10.137     11.862
REMARK INTER + INTRA:          -4.464
REMARK INTER:                  -4.055
REMARK INTRA:                  -0.409
REMARK UNBOUND:                -0.415
REMARK SMILES CCO[C@@H]1O[C@@H](CO)[C@H](O)[C@H](O)[C@H]1O
REMARK SMILES IDX 4 1 13 2 11 3 9 4 6 5 5 6 3 7 2 8 1 9 14 10 12 12 7 14 8 15
REMARK SMILES IDX 10 17
REMARK H PARENT 14 11 12 13 8 16 10 18
REMARK Flexibility Score: inf
ROOT
ATOM      1  C   UNL     1      17.710  38.519  33.293  1.00  0.00     0.281 C 
ATOM      2  C   UNL     1      17.270  37.066  33.575  1.00  0.00     0.202 C 
ATOM      3  C   UNL     1      18.193  36.066  32.849  1.00  0.00     0.179 C 
ATOM      4  C   UNL     1      19.665  36.394  33.142  1.00  0.00     0.177 C 
ATOM      5  C   UNL     1      19.939  37.891  32.863  1.00  0.00     0.178 C 
ATOM      6  O   UNL     1      19.073  38.711  33.637  1.00  0.00    -0.341 OA
ENDROOT
BRANCH   1   7
ATOM      7  O   UNL     1      17.495  38.864  31.930  1.00  0.00    -0.350 OA
BRANCH   7   8
ATOM      8  C   UNL     1      16.127  39.110  31.676  1.00  0.00     0.160 C 
ATOM      9  C   UNL     1      15.895  39.124  30.173  1.00  0.00     0.035 C 
ENDBRANCH   7   8
ENDBRANCH   1   7
BRANCH   2  10
ATOM     10  O   UNL     1      17.314  36.837  34.961  1.00  0.00    -0.385 OA
ATOM     11  H   UNL     1      17.773  37.617  35.368  1.00  0.00     0.211 HD
ENDBRANCH   2  10
BRANCH   3  12
ATOM     12  O   UNL     1      17.961  36.108  31.463  1.00  0.00    -0.387 OA
ATOM     13  H   UNL     1      18.719  36.605  31.058  1.00  0.00     0.211 HD
ENDBRANCH   3  12
BRANCH   5  14
ATOM     14  C   UNL     1      21.388  38.257  33.216  1.00  0.00     0.191 C 
BRANCH  14  15
ATOM     15  O   UNL     1      22.211  38.152  32.086  1.00  0.00    -0.394 OA
ATOM     16  H   UNL     1      21.692  38.519  31.322  1.00  0.00     0.210 HD
ENDBRANCH  14  15
ENDBRANCH   5  14
BRANCH   4  17
ATOM     17  O   UNL     1      20.485  35.585  32.335  1.00  0.00    -0.387 OA
ATOM     18  H   UNL     1      21.197  35.213  32.918  1.00  0.00     0.211 HD
ENDBRANCH   4  17
TORSDOF 7
ENDMDL
MODEL 9
REMARK VINA RESULT:    -2.975      2.827      3.774
REMARK INTER + INTRA:          -4.260
REMARK INTER:                  -3.856
REMARK INTRA:                  -0.405
REMARK UNBOUND:                -0.415
REMARK SMILES CCO[C@@H]1O[C@@H](CO)[C@H](O)[C@H](O)[C@H]1O
REMARK SMILES IDX 4 1 13 2 11 3 9 4 6 5 5 6 3 7 2 8 1 9 14 10 12 12 7 14 8 15
REMARK SMILES IDX 10 17
REMARK H PARENT 14 11 12 13 8 16 10 18
REMARK Flexibility Score: inf
ROOT
ATOM      1  C   UNL     1       9.436  34.486  33.840  1.00  0.00     0.281 C 
ATOM      2  C   UNL     1      10.192  35.565  33.034  1.00  0.00     0.202 C 
ATOM      3  C   UNL     1      11.520  35.934  33.729  1.00  0.00     0.179 C 
ATOM      4  C   UNL     1      12.314  34.663  34.063  1.00  0.00     0.177 C 
ATOM      5  C   UNL     1      11.411  33.659  34.821  1.00  0.00     0.178 C 
ATOM      6  O   UNL     1      10.256  33.348  34.054  1.00  0.00    -0.341 OA
ENDROOT
BRANCH   1   7
ATOM      7  O   UNL     1       8.979  35.002  35.084  1.00  0.00    -0.350 OA
BRANCH   7   8
ATOM      8  C   UNL     1       7.854  35.838  34.906  1.00  0.00     0.160 C 
ATOM      9  C   UNL     1       6.636  34.976  34.614  1.00  0.00     0.035 C 
ENDBRANCH   7   8
ENDBRANCH   1   7
BRANCH   2  10
ATOM     10  O   UNL     1      10.449  35.074  31.742  1.00  0.00    -0.385 OA
ATOM     11  H   UNL     1       9.576  34.795  31.362  1.00  0.00     0.211 HD
ENDBRANCH   2  10
BRANCH   3  12
ATOM     12  O   UNL     1      11.268  36.663  34.904  1.00  0.00    -0.387 OA
ATOM     13  H   UNL     1      12.103  36.641  35.441  1.00  0.00     0.211 HD
ENDBRANCH   3  12
BRANCH   5  14
ATOM     14  C   UNL     1      12.166  32.351  35.104  1.00  0.00     0.191 C 
BRANCH  14  15
ATOM     15  O   UNL     1      13.393  32.336  34.426  1.00  0.00    -0.394 OA
ATOM     16  H   UNL     1      13.284  31.721  33.654  1.00  0.00     0.210 HD
ENDBRANCH  14  15
ENDBRANCH   5  14
BRANCH   4  17
ATOM     17  O   UNL     1      13.428  35.010  34.847  1.00  0.00    -0.387 OA
ATOM     18  H   UNL     1      14.018  35.578  34.285  1.00  0.00     0.211 HD
ENDBRANCH   4  17
TORSDOF 7
ENDMDL
