MODEL 1
REMARK VINA RESULT:    -1.959      0.000      0.000
REMARK INTER + INTRA:          -1.959
REMARK INTER:                  -1.959
REMARK INTRA:                   0.000
REMARK UNBOUND:                 0.000
REMARK SMILES CC(=O)[O-]
REMARK SMILES IDX 1 1 2 2 3 3 4 4
REMARK H PARENT
REMARK Flexibility Score: inf
ROOT
ATOM      1  C   UNL     1       2.840 -10.746 -41.931  1.00  0.00     0.063 C 
ATOM      2  C   UNL     1       1.644  -9.856 -41.943  1.00  0.00     0.038 C 
ATOM      3  O   UNL     1       1.457  -9.063 -42.903  1.00  0.00    -0.550 OA
ATOM      4  O   UNL     1       0.705  -9.938 -40.924  1.00  0.00    -0.550 OA
ENDROOT
TORSDOF 0
ENDMDL
MODEL 2
REMARK VINA RESULT:    -1.914      2.321      2.566
REMARK INTER + INTRA:          -1.914
REMARK INTER:                  -1.914
REMARK INTRA:                   0.000
REMARK UNBOUND:                 0.000
REMARK SMILES CC(=O)[O-]
REMARK SMILES IDX 1 1 2 2 3 3 4 4
REMARK H PARENT
REMARK Flexibility Score: inf
ROOT
ATOM      1  C   UNL     1       1.728  -9.852 -42.074  1.00  0.00     0.063 C 
ATOM      2  C   UNL     1       2.687 -10.988 -42.185  1.00  0.00     0.038 C 
ATOM      3  O   UNL     1       3.814 -10.920 -41.627  1.00  0.00    -0.550 OA
ATOM      4  O   UNL     1       2.319 -12.146 -42.856  1.00  0.00    -0.550 OA
ENDROOT
TORSDOF 0
ENDMDL
MODEL 3
REMARK VINA RESULT:    -1.907      2.324      2.580
REMARK INTER + INTRA:          -1.907
REMARK INTER:                  -1.907
REMARK INTRA:                   0.000
REMARK UNBOUND:                 0.000
REMARK SMILES CC(=O)[O-]
REMARK SMILES IDX 1 1 2 2 3 3 4 4
REMARK H PARENT
REMARK Flexibility Score: inf
ROOT
ATOM      1  C   UNL     1       1.753  -9.884 -42.020  1.00  0.00     0.063 C 
ATOM      2  C   UNL     1       2.682 -11.044 -42.140  1.00  0.00     0.038 C 
ATOM      3  O   UNL     1       2.314 -12.089 -42.738  1.00  0.00    -0.550 OA
ATOM      4  O   UNL     1       3.975 -10.954 -41.642  1.00  0.00    -0.550 OA
ENDROOT
TORSDOF 0
ENDMDL
MODEL 4
REMARK VINA RESULT:    -1.905      2.535      2.844
REMARK INTER + INTRA:          -1.905
REMARK INTER:                  -1.905
REMARK INTRA:                   0.000
REMARK UNBOUND:                 0.000
REMARK SMILES CC(=O)[O-]
REMARK SMILES IDX 1 1 2 2 3 3 4 4
REMARK H PARENT
REMARK Flexibility Score: inf
ROOT
ATOM      1  C   UNL     1       2.652 -10.943 -42.432  1.00  0.00     0.063 C 
ATOM      2  C   UNL     1       2.345 -11.280 -43.852  1.00  0.00     0.038 C 
ATOM      3  O   UNL     1       2.309 -10.371 -44.723  1.00  0.00    -0.550 OA
ATOM      4  O   UNL     1       2.153 -12.602 -44.228  1.00  0.00    -0.550 OA
ENDROOT
TORSDOF 0
ENDMDL
MODEL 5
REMARK VINA RESULT:    -1.899      1.242      1.674
REMARK INTER + INTRA:          -1.899
REMARK INTER:                  -1.899
REMARK INTRA:                   0.000
REMARK UNBOUND:                 0.000
REMARK SMILES CC(=O)[O-]
REMARK SMILES IDX 1 1 2 2 3 3 4 4
REMARK H PARENT
REMARK Flexibility Score: inf
ROOT
ATOM      1  C   UNL     1       2.943 -10.792 -41.886  1.00  0.00     0.063 C 
ATOM      2  C   UNL     1       1.782 -10.398 -42.734  1.00  0.00     0.038 C 
ATOM      3  O   UNL     1       1.085 -11.281 -43.300  1.00  0.00    -0.550 OA
ATOM      4  O   UNL     1       1.432  -9.060 -42.857  1.00  0.00    -0.550 OA
ENDROOT
TORSDOF 0
ENDMDL
MODEL 6
REMARK VINA RESULT:    -1.878      1.351      2.240
REMARK INTER + INTRA:          -1.878
REMARK INTER:                  -1.878
REMARK INTRA:                   0.000
REMARK UNBOUND:                 0.000
REMARK SMILES CC(=O)[O-]
REMARK SMILES IDX 1 1 2 2 3 3 4 4
REMARK H PARENT
REMARK Flexibility Score: inf
ROOT
ATOM      1  C   UNL     1       0.116  -9.586 -41.192  1.00  0.00     0.063 C 
ATOM      2  C   UNL     1       1.334  -9.611 -42.052  1.00  0.00     0.038 C 
ATOM      3  O   UNL     1       2.357 -10.245 -41.680  1.00  0.00    -0.550 OA
ATOM      4  O   UNL     1       1.325  -8.982 -43.289  1.00  0.00    -0.550 OA
ENDROOT
TORSDOF 0
ENDMDL
MODEL 7
REMARK VINA RESULT:    -1.873      2.479      2.577
REMARK INTER + INTRA:          -1.873
REMARK INTER:                  -1.873
REMARK INTRA:                   0.000
REMARK UNBOUND:                 0.000
REMARK SMILES CC(=O)[O-]
REMARK SMILES IDX 1 1 2 2 3 3 4 4
REMARK H PARENT
REMARK Flexibility Score: inf
ROOT
ATOM      1  C   UNL     1       2.931 -11.088 -42.428  1.00  0.00     0.063 C 
ATOM      2  C   UNL     1       1.879 -11.700 -43.292  1.00  0.00     0.038 C 
ATOM      3  O   UNL     1       2.200 -12.514 -44.197  1.00  0.00    -0.550 OA
ATOM      4  O   UNL     1       0.540 -11.415 -43.063  1.00  0.00    -0.550 OA
ENDROOT
TORSDOF 0
ENDMDL
MODEL 8
REMARK VINA RESULT:    -1.725     17.173     17.370
REMARK INTER + INTRA:          -1.725
REMARK INTER:                  -1.725
REMARK INTRA:                   0.000
REMARK UNBOUND:                 0.000
REMARK SMILES CC(=O)[O-]
REMARK SMILES IDX 1 1 2 2 3 3 4 4
REMARK H PARENT
REMARK Flexibility Score: inf
ROOT
ATOM      1  C   UNL     1      -0.638 -27.038 -47.593  1.00  0.00     0.063 C 
ATOM      2  C   UNL     1      -1.675 -26.000 -47.327  1.00  0.00     0.038 C 
ATOM      3  O   UNL     1      -1.378 -24.778 -47.397  1.00  0.00    -0.550 OA
ATOM      4  O   UNL     1      -2.984 -26.376 -47.057  1.00  0.00    -0.550 OA
ENDROOT
TORSDOF 0
ENDMDL
MODEL 9
REMARK VINA RESULT:    -1.705      7.307      7.721
REMARK INTER + INTRA:          -1.705
REMARK INTER:                  -1.705
REMARK INTRA:                   0.000
REMARK UNBOUND:                 0.000
REMARK SMILES CC(=O)[O-]
REMARK SMILES IDX 1 1 2 2 3 3 4 4
REMARK H PARENT
REMARK Flexibility Score: inf
ROOT
ATOM      1  C   UNL     1       9.986  -9.791 -40.113  1.00  0.00     0.063 C 
ATOM      2  C   UNL     1       9.046  -8.769 -40.656  1.00  0.00     0.038 C 
ATOM      3  O   UNL     1       8.947  -7.643 -40.101  1.00  0.00    -0.550 OA
ATOM      4  O   UNL     1       8.318  -9.036 -41.808  1.00  0.00    -0.550 OA
ENDROOT
TORSDOF 0
ENDMDL
