MODEL 1
REMARK VINA RESULT:    -3.833      0.000      0.000
REMARK INTER + INTRA:          -5.523
REMARK INTER:                  -4.953
REMARK INTRA:                  -0.571
REMARK UNBOUND:                -0.571
REMARK SMILES CO[C@]1(CO)O[C@H](CO)[C@H](O)[C@H]1O
REMARK SMILES IDX 3 1 12 2 10 3 7 4 6 5 2 6 1 7 4 8 5 9 13 11 11 13 8 15 9 16
REMARK H PARENT 5 10 13 12 11 14 9 17
REMARK Flexibility Score: inf
ROOT
ATOM      1  C   UNL     1      14.444  43.634  19.341  1.00  0.00     0.221 C 
ATOM      2  C   UNL     1      14.107  43.152  20.766  1.00  0.00     0.207 C 
ATOM      3  C   UNL     1      13.219  41.956  20.506  1.00  0.00     0.180 C 
ATOM      4  C   UNL     1      13.748  41.454  19.155  1.00  0.00     0.179 C 
ATOM      5  O   UNL     1      14.472  42.484  18.513  1.00  0.00    -0.337 OA
ENDROOT
BRANCH   1   6
ATOM      6  O   UNL     1      13.391  44.508  18.936  1.00  0.00    -0.349 OA
ATOM      7  C   UNL     1      13.756  45.371  17.875  1.00  0.00     0.198 C 
ENDBRANCH   1   6
BRANCH   1   8
ATOM      8  C   UNL     1      15.820  44.351  19.290  1.00  0.00     0.224 C 
BRANCH   8   9
ATOM      9  O   UNL     1      16.833  43.465  18.895  1.00  0.00    -0.391 OA
ATOM     10  H   UNL     1      16.915  42.785  19.614  1.00  0.00     0.210 HD
ENDBRANCH   8   9
ENDBRANCH   1   8
BRANCH   2  11
ATOM     11  O   UNL     1      15.245  42.781  21.513  1.00  0.00    -0.385 OA
ATOM     12  H   UNL     1      15.318  41.791  21.504  1.00  0.00     0.211 HD
ENDBRANCH   2  11
BRANCH   3  13
ATOM     13  O   UNL     1      11.875  42.362  20.420  1.00  0.00    -0.387 OA
ATOM     14  H   UNL     1      11.710  42.961  21.194  1.00  0.00     0.211 HD
ENDBRANCH   3  13
BRANCH   4  15
ATOM     15  C   UNL     1      12.672  40.889  18.215  1.00  0.00     0.191 C 
BRANCH  15  16
ATOM     16  O   UNL     1      11.887  39.938  18.879  1.00  0.00    -0.394 OA
ATOM     17  H   UNL     1      12.495  39.469  19.507  1.00  0.00     0.210 HD
ENDBRANCH  15  16
ENDBRANCH   4  15
TORSDOF 7
ENDMDL
MODEL 2
REMARK VINA RESULT:    -3.663      1.487      2.838
REMARK INTER + INTRA:          -5.305
REMARK INTER:                  -4.982
REMARK INTRA:                  -0.323
REMARK UNBOUND:                -0.571
REMARK SMILES CO[C@]1(CO)O[C@H](CO)[C@H](O)[C@H]1O
REMARK SMILES IDX 3 1 12 2 10 3 7 4 6 5 2 6 1 7 4 8 5 9 13 11 11 13 8 15 9 16
REMARK H PARENT 5 10 13 12 11 14 9 17
REMARK Flexibility Score: inf
ROOT
ATOM      1  C   UNL     1      14.017  43.447  19.234  1.00  0.00     0.221 C 
ATOM      2  C   UNL     1      13.056  42.785  18.227  1.00  0.00     0.207 C 
ATOM      3  C   UNL     1      12.749  41.460  18.888  1.00  0.00     0.180 C 
ATOM      4  C   UNL     1      12.884  41.809  20.377  1.00  0.00     0.179 C 
ATOM      5  O   UNL     1      13.636  42.997  20.524  1.00  0.00    -0.337 OA
ENDROOT
BRANCH   1   6
ATOM      6  O   UNL     1      15.331  42.989  18.920  1.00  0.00    -0.349 OA
ATOM      7  C   UNL     1      16.351  43.865  19.362  1.00  0.00     0.198 C 
ENDBRANCH   1   6
BRANCH   1   8
ATOM      8  C   UNL     1      13.932  44.995  19.173  1.00  0.00     0.224 C 
BRANCH   8   9
ATOM      9  O   UNL     1      13.627  45.431  17.875  1.00  0.00    -0.391 OA
ATOM     10  H   UNL     1      12.683  45.739  17.891  1.00  0.00     0.210 HD
ENDBRANCH   8   9
ENDBRANCH   1   8
BRANCH   2  11
ATOM     11  O   UNL     1      11.875  43.526  18.012  1.00  0.00    -0.385 OA
ATOM     12  H   UNL     1      11.176  43.192  18.633  1.00  0.00     0.211 HD
ENDBRANCH   2  11
BRANCH   3  13
ATOM     13  O   UNL     1      13.690  40.493  18.493  1.00  0.00    -0.387 OA
ATOM     14  H   UNL     1      14.554  40.969  18.378  1.00  0.00     0.211 HD
ENDBRANCH   3  13
BRANCH   4  15
ATOM     15  C   UNL     1      13.477  40.690  21.247  1.00  0.00     0.191 C 
BRANCH  15  16
ATOM     16  O   UNL     1      12.969  39.443  20.861  1.00  0.00    -0.394 OA
ATOM     17  H   UNL     1      13.741  38.927  20.513  1.00  0.00     0.210 HD
ENDBRANCH  15  16
ENDBRANCH   4  15
TORSDOF 7
ENDMDL
MODEL 3
REMARK VINA RESULT:    -3.616      1.321      3.888
REMARK INTER + INTRA:          -5.243
REMARK INTER:                  -4.674
REMARK INTRA:                  -0.570
REMARK UNBOUND:                -0.571
REMARK SMILES CO[C@]1(CO)O[C@H](CO)[C@H](O)[C@H]1O
REMARK SMILES IDX 3 1 12 2 10 3 7 4 6 5 2 6 1 7 4 8 5 9 13 11 11 13 8 15 9 16
REMARK H PARENT 5 10 13 12 11 14 9 17
REMARK Flexibility Score: inf
ROOT
ATOM      1  C   UNL     1      12.930  41.685  19.871  1.00  0.00     0.221 C 
ATOM      2  C   UNL     1      14.361  41.981  20.362  1.00  0.00     0.207 C 
ATOM      3  C   UNL     1      14.736  43.207  19.559  1.00  0.00     0.180 C 
ATOM      4  C   UNL     1      13.371  43.875  19.343  1.00  0.00     0.179 C 
ATOM      5  O   UNL     1      12.339  42.932  19.549  1.00  0.00    -0.337 OA
ENDROOT
BRANCH   1   6
ATOM      6  O   UNL     1      13.050  40.877  18.701  1.00  0.00    -0.349 OA
ATOM      7  C   UNL     1      11.884  40.879  17.897  1.00  0.00     0.198 C 
ENDBRANCH   1   6
BRANCH   1   8
ATOM      8  C   UNL     1      12.088  40.972  20.962  1.00  0.00     0.224 C 
BRANCH   8   9
ATOM      9  O   UNL     1      12.687  39.764  21.350  1.00  0.00    -0.391 OA
ATOM     10  H   UNL     1      13.437  39.602  20.721  1.00  0.00     0.210 HD
ENDBRANCH   8   9
ENDBRANCH   1   8
BRANCH   2  11
ATOM     11  O   UNL     1      14.433  42.245  21.746  1.00  0.00    -0.385 OA
ATOM     12  H   UNL     1      14.321  41.389  22.237  1.00  0.00     0.211 HD
ENDBRANCH   2  11
BRANCH   3  13
ATOM     13  O   UNL     1      15.326  42.824  18.341  1.00  0.00    -0.387 OA
ATOM     14  H   UNL     1      14.603  42.829  17.662  1.00  0.00     0.211 HD
ENDBRANCH   3  13
BRANCH   4  15
ATOM     15  C   UNL     1      13.203  44.564  17.979  1.00  0.00     0.191 C 
BRANCH  15  16
ATOM     16  O   UNL     1      14.058  45.668  17.875  1.00  0.00    -0.394 OA
ATOM     17  H   UNL     1      13.884  46.068  16.984  1.00  0.00     0.210 HD
ENDBRANCH  15  16
ENDBRANCH   4  15
TORSDOF 7
ENDMDL
MODEL 4
REMARK VINA RESULT:    -2.958      1.500      3.874
REMARK INTER + INTRA:          -4.393
REMARK INTER:                  -3.811
REMARK INTRA:                  -0.582
REMARK UNBOUND:                -0.571
REMARK SMILES CO[C@]1(CO)O[C@H](CO)[C@H](O)[C@H]1O
REMARK SMILES IDX 3 1 12 2 10 3 7 4 6 5 2 6 1 7 4 8 5 9 13 11 11 13 8 15 9 16
REMARK H PARENT 5 10 13 12 11 14 9 17
REMARK Flexibility Score: inf
ROOT
ATOM      1  C   UNL     1      13.606  41.974  19.680  1.00  0.00     0.221 C 
ATOM      2  C   UNL     1      12.302  42.259  18.909  1.00  0.00     0.207 C 
ATOM      3  C   UNL     1      12.667  43.473  18.085  1.00  0.00     0.180 C 
ATOM      4  C   UNL     1      14.175  43.274  17.875  1.00  0.00     0.179 C 
ATOM      5  O   UNL     1      14.677  42.371  18.841  1.00  0.00    -0.337 OA
ENDROOT
BRANCH   1   6
ATOM      6  O   UNL     1      13.577  42.778  20.859  1.00  0.00    -0.349 OA
ATOM      7  C   UNL     1      14.838  42.888  21.493  1.00  0.00     0.198 C 
ENDBRANCH   1   6
BRANCH   1   8
ATOM      8  C   UNL     1      13.746  40.468  20.031  1.00  0.00     0.224 C 
BRANCH   8   9
ATOM      9  O   UNL     1      12.544  39.958  20.542  1.00  0.00    -0.391 OA
ATOM     10  H   UNL     1      12.662  38.976  20.626  1.00  0.00     0.210 HD
ENDBRANCH   8   9
ENDBRANCH   1   8
BRANCH   2  11
ATOM     11  O   UNL     1      11.899  41.190  18.079  1.00  0.00    -0.385 OA
ATOM     12  H   UNL     1      11.020  41.418  17.678  1.00  0.00     0.211 HD
ENDBRANCH   2  11
BRANCH   3  13
ATOM     13  O   UNL     1      12.393  44.648  18.808  1.00  0.00    -0.387 OA
ATOM     14  H   UNL     1      13.269  45.078  18.992  1.00  0.00     0.211 HD
ENDBRANCH   3  13
BRANCH   4  15
ATOM     15  C   UNL     1      14.999  44.571  17.875  1.00  0.00     0.191 C 
BRANCH  15  16
ATOM     16  O   UNL     1      15.388  44.908  19.178  1.00  0.00    -0.394 OA
ATOM     17  H   UNL     1      15.978  44.173  19.488  1.00  0.00     0.210 HD
ENDBRANCH  15  16
ENDBRANCH   4  15
TORSDOF 7
ENDMDL
MODEL 5
REMARK VINA RESULT:    -2.620      1.681      3.477
REMARK INTER + INTRA:          -3.956
REMARK INTER:                  -3.212
REMARK INTRA:                  -0.745
REMARK UNBOUND:                -0.571
REMARK SMILES CO[C@]1(CO)O[C@H](CO)[C@H](O)[C@H]1O
REMARK SMILES IDX 3 1 12 2 10 3 7 4 6 5 2 6 1 7 4 8 5 9 13 11 11 13 8 15 9 16
REMARK H PARENT 5 10 13 12 11 14 9 17
REMARK Flexibility Score: inf
ROOT
ATOM      1  C   UNL     1      13.634  41.722  20.848  1.00  0.00     0.221 C 
ATOM      2  C   UNL     1      14.886  42.575  20.560  1.00  0.00     0.207 C 
ATOM      3  C   UNL     1      14.471  43.363  19.338  1.00  0.00     0.180 C 
ATOM      4  C   UNL     1      12.952  43.476  19.532  1.00  0.00     0.179 C 
ATOM      5  O   UNL     1      12.512  42.487  20.441  1.00  0.00    -0.337 OA
ENDROOT
BRANCH   1   6
ATOM      6  O   UNL     1      13.742  40.542  20.054  1.00  0.00    -0.349 OA
ATOM      7  C   UNL     1      12.595  39.714  20.122  1.00  0.00     0.198 C 
ENDBRANCH   1   6
BRANCH   1   8
ATOM      8  C   UNL     1      13.513  41.376  22.356  1.00  0.00     0.224 C 
BRANCH   8   9
ATOM      9  O   UNL     1      14.726  40.880  22.857  1.00  0.00    -0.391 OA
ATOM     10  H   UNL     1      14.501  40.308  23.637  1.00  0.00     0.210 HD
ENDBRANCH   8   9
ENDBRANCH   1   8
BRANCH   2  11
ATOM     11  O   UNL     1      15.230  43.437  21.622  1.00  0.00    -0.385 OA
ATOM     12  H   UNL     1      14.500  43.414  22.296  1.00  0.00     0.211 HD
ENDBRANCH   2  11
BRANCH   3  13
ATOM     13  O   UNL     1      14.795  42.650  18.170  1.00  0.00    -0.387 OA
ATOM     14  H   UNL     1      14.021  42.746  17.556  1.00  0.00     0.211 HD
ENDBRANCH   3  13
BRANCH   4  15
ATOM     15  C   UNL     1      12.134  43.411  18.233  1.00  0.00     0.191 C 
BRANCH  15  16
ATOM     16  O   UNL     1      11.877  42.081  17.878  1.00  0.00    -0.394 OA
ATOM     17  H   UNL     1      11.802  41.578  18.729  1.00  0.00     0.210 HD
ENDBRANCH  15  16
ENDBRANCH   4  15
TORSDOF 7
ENDMDL
MODEL 6
REMARK VINA RESULT:    -2.580      1.315      4.086
REMARK INTER + INTRA:          -3.905
REMARK INTER:                  -3.678
REMARK INTRA:                  -0.227
REMARK UNBOUND:                -0.571
REMARK SMILES CO[C@]1(CO)O[C@H](CO)[C@H](O)[C@H]1O
REMARK SMILES IDX 3 1 12 2 10 3 7 4 6 5 2 6 1 7 4 8 5 9 13 11 11 13 8 15 9 16
REMARK H PARENT 5 10 13 12 11 14 9 17
REMARK Flexibility Score: inf
ROOT
ATOM      1  C   UNL     1      13.137  41.926  18.960  1.00  0.00     0.221 C 
ATOM      2  C   UNL     1      12.839  43.175  19.814  1.00  0.00     0.207 C 
ATOM      3  C   UNL     1      14.188  43.854  19.883  1.00  0.00     0.180 C 
ATOM      4  C   UNL     1      14.831  43.423  18.557  1.00  0.00     0.179 C 
ATOM      5  O   UNL     1      14.164  42.284  18.051  1.00  0.00    -0.337 OA
ENDROOT
BRANCH   1   6
ATOM      6  O   UNL     1      13.598  40.912  19.851  1.00  0.00    -0.349 OA
ATOM      7  C   UNL     1      12.734  40.699  20.953  1.00  0.00     0.198 C 
ENDBRANCH   1   6
BRANCH   1   8
ATOM      8  C   UNL     1      11.883  41.457  18.175  1.00  0.00     0.224 C 
BRANCH   8   9
ATOM      9  O   UNL     1      11.961  40.089  17.875  1.00  0.00    -0.391 OA
ATOM     10  H   UNL     1      12.819  39.949  17.396  1.00  0.00     0.210 HD
ENDBRANCH   8   9
ENDBRANCH   1   8
BRANCH   2  11
ATOM     11  O   UNL     1      11.875  44.028  19.236  1.00  0.00    -0.385 OA
ATOM     12  H   UNL     1      12.263  44.940  19.168  1.00  0.00     0.211 HD
ENDBRANCH   2  11
BRANCH   3  13
ATOM     13  O   UNL     1      14.912  43.377  20.991  1.00  0.00    -0.387 OA
ATOM     14  H   UNL     1      14.791  42.392  21.006  1.00  0.00     0.211 HD
ENDBRANCH   3  13
BRANCH   4  15
ATOM     15  C   UNL     1      16.344  43.170  18.631  1.00  0.00     0.191 C 
BRANCH  15  16
ATOM     16  O   UNL     1      16.977  44.173  19.377  1.00  0.00    -0.394 OA
ATOM     17  H   UNL     1      16.989  43.852  20.315  1.00  0.00     0.210 HD
ENDBRANCH  15  16
ENDBRANCH   4  15
TORSDOF 7
ENDMDL
MODEL 7
REMARK VINA RESULT:    -1.771      1.583      2.472
REMARK INTER + INTRA:          -2.859
REMARK INTER:                  -2.815
REMARK INTRA:                  -0.044
REMARK UNBOUND:                -0.571
REMARK SMILES CO[C@]1(CO)O[C@H](CO)[C@H](O)[C@H]1O
REMARK SMILES IDX 3 1 12 2 10 3 7 4 6 5 2 6 1 7 4 8 5 9 13 11 11 13 8 15 9 16
REMARK H PARENT 5 10 13 12 11 14 9 17
REMARK Flexibility Score: inf
ROOT
ATOM      1  C   UNL     1      14.079  43.147  19.468  1.00  0.00     0.221 C 
ATOM      2  C   UNL     1      12.817  43.593  18.703  1.00  0.00     0.207 C 
ATOM      3  C   UNL     1      11.882  42.421  18.903  1.00  0.00     0.180 C 
ATOM      4  C   UNL     1      12.340  41.875  20.262  1.00  0.00     0.179 C 
ATOM      5  O   UNL     1      13.643  42.343  20.550  1.00  0.00    -0.337 OA
ENDROOT
BRANCH   1   6
ATOM      6  O   UNL     1      14.863  42.372  18.562  1.00  0.00    -0.349 OA
ATOM      7  C   UNL     1      15.841  43.132  17.875  1.00  0.00     0.198 C 
ENDBRANCH   1   6
BRANCH   1   8
ATOM      8  C   UNL     1      14.881  44.362  20.006  1.00  0.00     0.224 C 
BRANCH   8   9
ATOM      9  O   UNL     1      15.862  43.951  20.921  1.00  0.00    -0.391 OA
ATOM     10  H   UNL     1      16.518  44.693  20.989  1.00  0.00     0.210 HD
ENDBRANCH   8   9
ENDBRANCH   1   8
BRANCH   2  11
ATOM     11  O   UNL     1      12.249  44.781  19.210  1.00  0.00    -0.385 OA
ATOM     12  H   UNL     1      11.838  44.583  20.092  1.00  0.00     0.211 HD
ENDBRANCH   2  11
BRANCH   3  13
ATOM     13  O   UNL     1      12.065  41.478  17.875  1.00  0.00    -0.387 OA
ATOM     14  H   UNL     1      13.044  41.397  17.736  1.00  0.00     0.211 HD
ENDBRANCH   3  13
BRANCH   4  15
ATOM     15  C   UNL     1      12.280  40.346  20.393  1.00  0.00     0.191 C 
BRANCH  15  16
ATOM     16  O   UNL     1      13.511  39.838  20.828  1.00  0.00    -0.394 OA
ATOM     17  H   UNL     1      13.996  39.554  20.011  1.00  0.00     0.210 HD
ENDBRANCH  15  16
ENDBRANCH   4  15
TORSDOF 7
ENDMDL
MODEL 8
REMARK VINA RESULT:    -1.667      1.625      3.312
REMARK INTER + INTRA:          -2.724
REMARK INTER:                  -2.434
REMARK INTRA:                  -0.290
REMARK UNBOUND:                -0.571
REMARK SMILES CO[C@]1(CO)O[C@H](CO)[C@H](O)[C@H]1O
REMARK SMILES IDX 3 1 12 2 10 3 7 4 6 5 2 6 1 7 4 8 5 9 13 11 11 13 8 15 9 16
REMARK H PARENT 5 10 13 12 11 14 9 17
REMARK Flexibility Score: inf
ROOT
ATOM      1  C   UNL     1      13.098  41.986  19.290  1.00  0.00     0.221 C 
ATOM      2  C   UNL     1      14.412  42.792  19.261  1.00  0.00     0.207 C 
ATOM      3  C   UNL     1      14.971  42.558  20.646  1.00  0.00     0.180 C 
ATOM      4  C   UNL     1      14.415  41.167  20.984  1.00  0.00     0.179 C 
ATOM      5  O   UNL     1      13.314  40.876  20.146  1.00  0.00    -0.337 OA
ENDROOT
BRANCH   1   6
ATOM      6  O   UNL     1      12.095  42.842  19.836  1.00  0.00    -0.349 OA
ATOM      7  C   UNL     1      11.875  44.009  19.066  1.00  0.00     0.198 C 
ENDBRANCH   1   6
BRANCH   1   8
ATOM      8  C   UNL     1      12.701  41.486  17.875  1.00  0.00     0.224 C 
BRANCH   8   9
ATOM      9  O   UNL     1      11.898  40.339  17.954  1.00  0.00    -0.391 OA
ATOM     10  H   UNL     1      12.499  39.559  17.825  1.00  0.00     0.210 HD
ENDBRANCH   8   9
ENDBRANCH   1   8
BRANCH   2  11
ATOM     11  O   UNL     1      15.316  42.350  18.272  1.00  0.00    -0.385 OA
ATOM     12  H   UNL     1      16.044  41.841  18.716  1.00  0.00     0.211 HD
ENDBRANCH   2  11
BRANCH   3  13
ATOM     13  O   UNL     1      14.490  43.539  21.533  1.00  0.00    -0.387 OA
ATOM     14  H   UNL     1      15.074  44.334  21.418  1.00  0.00     0.211 HD
ENDBRANCH   3  13
BRANCH   4  15
ATOM     15  C   UNL     1      14.033  40.970  22.458  1.00  0.00     0.191 C 
BRANCH  15  16
ATOM     16  O   UNL     1      12.720  40.493  22.568  1.00  0.00    -0.394 OA
ATOM     17  H   UNL     1      12.427  40.705  23.492  1.00  0.00     0.210 HD
ENDBRANCH  15  16
ENDBRANCH   4  15
TORSDOF 7
ENDMDL
MODEL 9
REMARK VINA RESULT:    -0.941      1.635      3.875
REMARK INTER + INTRA:          -1.786
REMARK INTER:                  -1.945
REMARK INTRA:                   0.159
REMARK UNBOUND:                -0.571
REMARK SMILES CO[C@]1(CO)O[C@H](CO)[C@H](O)[C@H]1O
REMARK SMILES IDX 3 1 12 2 10 3 7 4 6 5 2 6 1 7 4 8 5 9 13 11 11 13 8 15 9 16
REMARK H PARENT 5 10 13 12 11 14 9 17
REMARK Flexibility Score: inf
ROOT
ATOM      1  C   UNL     1      12.871  41.749  20.660  1.00  0.00     0.221 C 
ATOM      2  C   UNL     1      13.533  40.661  19.791  1.00  0.00     0.207 C 
ATOM      3  C   UNL     1      14.625  41.429  19.081  1.00  0.00     0.180 C 
ATOM      4  C   UNL     1      14.957  42.528  20.100  1.00  0.00     0.179 C 
ATOM      5  O   UNL     1      13.889  42.669  21.015  1.00  0.00    -0.337 OA
ENDROOT
BRANCH   1   6
ATOM      6  O   UNL     1      11.887  42.390  19.849  1.00  0.00    -0.349 OA
ATOM      7  C   UNL     1      12.011  43.800  19.826  1.00  0.00     0.198 C 
ENDBRANCH   1   6
BRANCH   1   8
ATOM      8  C   UNL     1      12.236  41.149  21.943  1.00  0.00     0.224 C 
BRANCH   8   9
ATOM      9  O   UNL     1      13.226  40.725  22.842  1.00  0.00    -0.391 OA
ATOM     10  H   UNL     1      13.927  41.428  22.849  1.00  0.00     0.210 HD
ENDBRANCH   8   9
ENDBRANCH   1   8
BRANCH   2  11
ATOM     11  O   UNL     1      14.074  39.598  20.545  1.00  0.00    -0.385 OA
ATOM     12  H   UNL     1      15.049  39.753  20.653  1.00  0.00     0.211 HD
ENDBRANCH   2  11
BRANCH   3  13
ATOM     13  O   UNL     1      14.132  41.967  17.878  1.00  0.00    -0.387 OA
ATOM     14  H   UNL     1      14.461  41.378  17.149  1.00  0.00     0.211 HD
ENDBRANCH   3  13
BRANCH   4  15
ATOM     15  C   UNL     1      15.316  43.888  19.482  1.00  0.00     0.191 C 
BRANCH  15  16
ATOM     16  O   UNL     1      16.705  44.067  19.456  1.00  0.00    -0.394 OA
ATOM     17  H   UNL     1      17.089  43.200  19.167  1.00  0.00     0.210 HD
ENDBRANCH  15  16
ENDBRANCH   4  15
TORSDOF 7
ENDMDL
