MODEL 1
REMARK VINA RESULT:    -4.970      0.000      0.000
REMARK INTER + INTRA:         -10.858
REMARK INTER:                  -8.747
REMARK INTRA:                  -2.111
REMARK UNBOUND:                -2.111
REMARK SMILES CCCCCCC=CCCCCCCCC(=O)[O-]
REMARK SMILES IDX 10 1 11 2 12 3 13 4 14 5 15 6 16 7 17 8 18 9 9 10 8 11 7 12
REMARK SMILES IDX 6 13 5 14 4 15 3 16 2 17 1 18
REMARK H PARENT
REMARK Flexibility Score: inf
ROOT
ATOM      1  C   UNL     1     -31.091  40.781  43.022  1.00  0.00     0.004 C 
ENDROOT
BRANCH   1   2
ATOM      2  C   UNL     1     -31.781  41.729  44.019  1.00  0.00     0.000 C 
BRANCH   2   3
ATOM      3  C   UNL     1     -33.201  41.271  44.388  1.00  0.00     0.000 C 
BRANCH   3   4
ATOM      4  C   UNL     1     -34.295  42.105  43.699  1.00  0.00     0.000 C 
BRANCH   4   5
ATOM      5  C   UNL     1     -35.518  41.303  43.208  1.00  0.00     0.006 C 
BRANCH   5   6
ATOM      6  C   UNL     1     -35.172  40.024  42.429  1.00  0.00     0.053 C 
BRANCH   6   7
ATOM      7  C   UNL     1     -36.144  39.763  41.320  1.00  0.00     0.041 C 
ATOM      8  O   UNL     1     -36.073  38.698  40.652  1.00  0.00    -0.550 OA
ATOM      9  O   UNL     1     -37.104  40.714  40.997  1.00  0.00    -0.550 OA
ENDBRANCH   6   7
ENDBRANCH   5   6
ENDBRANCH   4   5
ENDBRANCH   3   4
ENDBRANCH   2   3
ENDBRANCH   1   2
BRANCH   1  10
ATOM     10  C   UNL     1     -30.847  41.391  41.630  1.00  0.00     0.027 C 
BRANCH  10  11
ATOM     11  C   UNL     1     -32.076  41.356  40.763  1.00  0.00    -0.031 C 
ATOM     12  C   UNL     1     -32.792  42.461  40.516  1.00  0.00    -0.031 C 
BRANCH  12  13
ATOM     13  C   UNL     1     -34.041  42.416  39.678  1.00  0.00     0.027 C 
BRANCH  13  14
ATOM     14  C   UNL     1     -35.051  43.506  40.081  1.00  0.00     0.004 C 
BRANCH  14  15
ATOM     15  C   UNL     1     -34.533  44.948  39.898  1.00  0.00     0.000 C 
BRANCH  15  16
ATOM     16  C   UNL     1     -34.949  45.631  38.579  1.00  0.00    -0.000 C 
BRANCH  16  17
ATOM     17  C   UNL     1     -33.802  45.853  37.578  1.00  0.00    -0.003 C 
ATOM     18  C   UNL     1     -32.439  45.452  38.140  1.00  0.00     0.004 C 
ENDBRANCH  16  17
ENDBRANCH  15  16
ENDBRANCH  14  15
ENDBRANCH  13  14
ENDBRANCH  12  13
ENDBRANCH  10  11
ENDBRANCH   1  10
TORSDOF 13
ENDMDL
MODEL 2
REMARK VINA RESULT:    -4.956      2.316      5.104
REMARK INTER + INTRA:         -10.833
REMARK INTER:                  -8.701
REMARK INTRA:                  -2.132
REMARK UNBOUND:                -2.111
REMARK SMILES CCCCCCC=CCCCCCCCC(=O)[O-]
REMARK SMILES IDX 10 1 11 2 12 3 13 4 14 5 15 6 16 7 17 8 18 9 9 10 8 11 7 12
REMARK SMILES IDX 6 13 5 14 4 15 3 16 2 17 1 18
REMARK H PARENT
REMARK Flexibility Score: inf
ROOT
ATOM      1  C   UNL     1     -35.635  39.954  42.826  1.00  0.00     0.004 C 
ENDROOT
BRANCH   1   2
ATOM      2  C   UNL     1     -36.402  41.111  42.162  1.00  0.00     0.000 C 
BRANCH   2   3
ATOM      3  C   UNL     1     -36.312  42.420  42.963  1.00  0.00     0.000 C 
BRANCH   3   4
ATOM      4  C   UNL     1     -35.530  43.520  42.223  1.00  0.00     0.000 C 
BRANCH   4   5
ATOM      5  C   UNL     1     -35.261  43.241  40.731  1.00  0.00     0.006 C 
BRANCH   5   6
ATOM      6  C   UNL     1     -34.132  44.083  40.117  1.00  0.00     0.053 C 
BRANCH   6   7
ATOM      7  C   UNL     1     -34.526  44.675  38.798  1.00  0.00     0.041 C 
ATOM      8  O   UNL     1     -35.119  45.785  38.753  1.00  0.00    -0.550 OA
ATOM      9  O   UNL     1     -34.277  43.980  37.621  1.00  0.00    -0.550 OA
ENDBRANCH   6   7
ENDBRANCH   5   6
ENDBRANCH   4   5
ENDBRANCH   3   4
ENDBRANCH   2   3
ENDBRANCH   1   2
BRANCH   1  10
ATOM     10  C   UNL     1     -35.141  40.256  44.252  1.00  0.00     0.027 C 
BRANCH  10  11
ATOM     11  C   UNL     1     -33.648  40.422  44.321  1.00  0.00    -0.031 C 
ATOM     12  C   UNL     1     -33.053  41.575  43.987  1.00  0.00    -0.031 C 
BRANCH  12  13
ATOM     13  C   UNL     1     -31.557  41.726  44.021  1.00  0.00     0.027 C 
BRANCH  13  14
ATOM     14  C   UNL     1     -30.892  41.228  42.725  1.00  0.00     0.004 C 
BRANCH  14  15
ATOM     15  C   UNL     1     -31.711  41.505  41.447  1.00  0.00     0.000 C 
BRANCH  15  16
ATOM     16  C   UNL     1     -32.134  40.250  40.656  1.00  0.00    -0.000 C 
BRANCH  16  17
ATOM     17  C   UNL     1     -33.373  40.437  39.764  1.00  0.00    -0.003 C 
ATOM     18  C   UNL     1     -34.132  39.133  39.522  1.00  0.00     0.004 C 
ENDBRANCH  16  17
ENDBRANCH  15  16
ENDBRANCH  14  15
ENDBRANCH  13  14
ENDBRANCH  12  13
ENDBRANCH  10  11
ENDBRANCH   1  10
TORSDOF 13
ENDMDL
MODEL 3
REMARK VINA RESULT:    -4.924      6.089      8.206
REMARK INTER + INTRA:         -10.776
REMARK INTER:                  -8.404
REMARK INTRA:                  -2.372
REMARK UNBOUND:                -2.111
REMARK SMILES CCCCCCC=CCCCCCCCC(=O)[O-]
REMARK SMILES IDX 10 1 11 2 12 3 13 4 14 5 15 6 16 7 17 8 18 9 9 10 8 11 7 12
REMARK SMILES IDX 6 13 5 14 4 15 3 16 2 17 1 18
REMARK H PARENT
REMARK Flexibility Score: inf
ROOT
ATOM      1  C   UNL     1     -37.897  38.491  42.725  1.00  0.00     0.004 C 
ENDROOT
BRANCH   1   2
ATOM      2  C   UNL     1     -37.755  40.016  42.876  1.00  0.00     0.000 C 
BRANCH   2   3
ATOM      3  C   UNL     1     -38.670  40.591  43.969  1.00  0.00     0.000 C 
BRANCH   3   4
ATOM      4  C   UNL     1     -39.584  39.529  44.603  1.00  0.00     0.000 C 
BRANCH   4   5
ATOM      5  C   UNL     1     -39.258  39.174  46.068  1.00  0.00     0.006 C 
BRANCH   5   6
ATOM      6  C   UNL     1     -40.362  38.392  46.797  1.00  0.00     0.053 C 
BRANCH   6   7
ATOM      7  C   UNL     1     -39.807  37.511  47.874  1.00  0.00     0.041 C 
ATOM      8  O   UNL     1     -39.833  36.258  47.745  1.00  0.00    -0.550 OA
ATOM      9  O   UNL     1     -39.299  38.071  49.040  1.00  0.00    -0.550 OA
ENDBRANCH   6   7
ENDBRANCH   5   6
ENDBRANCH   4   5
ENDBRANCH   3   4
ENDBRANCH   2   3
ENDBRANCH   1   2
BRANCH   1  10
ATOM     10  C   UNL     1     -36.566  37.746  42.521  1.00  0.00     0.027 C 
BRANCH  10  11
ATOM     11  C   UNL     1     -36.216  36.861  43.685  1.00  0.00    -0.031 C 
ATOM     12  C   UNL     1     -36.997  36.787  44.771  1.00  0.00    -0.031 C 
BRANCH  12  13
ATOM     13  C   UNL     1     -36.626  35.930  45.950  1.00  0.00     0.027 C 
BRANCH  13  14
ATOM     14  C   UNL     1     -35.617  36.626  46.881  1.00  0.00     0.004 C 
BRANCH  14  15
ATOM     15  C   UNL     1     -36.083  38.000  47.406  1.00  0.00     0.000 C 
BRANCH  15  16
ATOM     16  C   UNL     1     -35.142  39.178  47.082  1.00  0.00    -0.000 C 
BRANCH  16  17
ATOM     17  C   UNL     1     -35.662  40.141  46.001  1.00  0.00    -0.003 C 
ATOM     18  C   UNL     1     -36.109  41.486  46.570  1.00  0.00     0.004 C 
ENDBRANCH  16  17
ENDBRANCH  15  16
ENDBRANCH  14  15
ENDBRANCH  13  14
ENDBRANCH  12  13
ENDBRANCH  10  11
ENDBRANCH   1  10
TORSDOF 13
ENDMDL
MODEL 4
REMARK VINA RESULT:    -4.919      2.956      5.782
REMARK INTER + INTRA:         -10.767
REMARK INTER:                  -9.149
REMARK INTRA:                  -1.618
REMARK UNBOUND:                -2.111
REMARK SMILES CCCCCCC=CCCCCCCCC(=O)[O-]
REMARK SMILES IDX 10 1 11 2 12 3 13 4 14 5 15 6 16 7 17 8 18 9 9 10 8 11 7 12
REMARK SMILES IDX 6 13 5 14 4 15 3 16 2 17 1 18
REMARK H PARENT
REMARK Flexibility Score: inf
ROOT
ATOM      1  C   UNL     1     -35.822  42.684  43.509  1.00  0.00     0.004 C 
ENDROOT
BRANCH   1   2
ATOM      2  C   UNL     1     -35.515  43.587  42.302  1.00  0.00     0.000 C 
BRANCH   2   3
ATOM      3  C   UNL     1     -35.326  42.792  41.000  1.00  0.00     0.000 C 
BRANCH   3   4
ATOM      4  C   UNL     1     -34.051  43.191  40.236  1.00  0.00     0.000 C 
BRANCH   4   5
ATOM      5  C   UNL     1     -34.193  44.430  39.328  1.00  0.00     0.006 C 
BRANCH   5   6
ATOM      6  C   UNL     1     -34.248  44.116  37.825  1.00  0.00     0.053 C 
BRANCH   6   7
ATOM      7  C   UNL     1     -33.473  45.110  37.016  1.00  0.00     0.041 C 
ATOM      8  O   UNL     1     -32.248  45.295  37.242  1.00  0.00    -0.550 OA
ATOM      9  O   UNL     1     -34.112  45.863  36.038  1.00  0.00    -0.550 OA
ENDBRANCH   6   7
ENDBRANCH   5   6
ENDBRANCH   4   5
ENDBRANCH   3   4
ENDBRANCH   2   3
ENDBRANCH   1   2
BRANCH   1  10
ATOM     10  C   UNL     1     -34.617  42.421  44.430  1.00  0.00     0.027 C 
BRANCH  10  11
ATOM     11  C   UNL     1     -33.489  41.727  43.717  1.00  0.00    -0.031 C 
ATOM     12  C   UNL     1     -32.239  41.738  44.201  1.00  0.00    -0.031 C 
BRANCH  12  13
ATOM     13  C   UNL     1     -31.106  41.075  43.466  1.00  0.00     0.027 C 
BRANCH  13  14
ATOM     14  C   UNL     1     -30.960  41.600  42.026  1.00  0.00     0.004 C 
BRANCH  14  15
ATOM     15  C   UNL     1     -31.300  40.561  40.937  1.00  0.00     0.000 C 
BRANCH  15  16
ATOM     16  C   UNL     1     -32.120  39.348  41.422  1.00  0.00    -0.000 C 
BRANCH  16  17
ATOM     17  C   UNL     1     -33.572  39.308  40.917  1.00  0.00    -0.003 C 
ATOM     18  C   UNL     1     -33.698  39.687  39.442  1.00  0.00     0.004 C 
ENDBRANCH  16  17
ENDBRANCH  15  16
ENDBRANCH  14  15
ENDBRANCH  13  14
ENDBRANCH  12  13
ENDBRANCH  10  11
ENDBRANCH   1  10
TORSDOF 13
ENDMDL
MODEL 5
REMARK VINA RESULT:    -4.910      2.500      5.260
REMARK INTER + INTRA:         -10.751
REMARK INTER:                  -8.312
REMARK INTRA:                  -2.439
REMARK UNBOUND:                -2.111
REMARK SMILES CCCCCCC=CCCCCCCCC(=O)[O-]
REMARK SMILES IDX 10 1 11 2 12 3 13 4 14 5 15 6 16 7 17 8 18 9 9 10 8 11 7 12
REMARK SMILES IDX 6 13 5 14 4 15 3 16 2 17 1 18
REMARK H PARENT
REMARK Flexibility Score: inf
ROOT
ATOM      1  C   UNL     1     -34.402  42.381  44.445  1.00  0.00     0.004 C 
ENDROOT
BRANCH   1   2
ATOM      2  C   UNL     1     -35.608  41.602  43.890  1.00  0.00     0.000 C 
BRANCH   2   3
ATOM      3  C   UNL     1     -36.330  42.352  42.759  1.00  0.00     0.000 C 
BRANCH   3   4
ATOM      4  C   UNL     1     -35.426  43.375  42.050  1.00  0.00     0.000 C 
BRANCH   4   5
ATOM      5  C   UNL     1     -35.196  43.115  40.547  1.00  0.00     0.006 C 
BRANCH   5   6
ATOM      6  C   UNL     1     -33.797  43.498  40.040  1.00  0.00     0.053 C 
BRANCH   6   7
ATOM      7  C   UNL     1     -33.807  44.798  39.294  1.00  0.00     0.041 C 
ATOM      8  O   UNL     1     -34.882  45.438  39.151  1.00  0.00    -0.550 OA
ATOM      9  O   UNL     1     -32.638  45.281  38.721  1.00  0.00    -0.550 OA
ENDBRANCH   6   7
ENDBRANCH   5   6
ENDBRANCH   4   5
ENDBRANCH   3   4
ENDBRANCH   2   3
ENDBRANCH   1   2
BRANCH   1  10
ATOM     10  C   UNL     1     -33.044  41.693  44.221  1.00  0.00     0.027 C 
BRANCH  10  11
ATOM     11  C   UNL     1     -33.131  40.548  43.249  1.00  0.00    -0.031 C 
ATOM     12  C   UNL     1     -32.586  40.621  42.027  1.00  0.00    -0.031 C 
BRANCH  12  13
ATOM     13  C   UNL     1     -32.707  39.488  41.044  1.00  0.00     0.027 C 
BRANCH  13  14
ATOM     14  C   UNL     1     -33.484  39.896  39.780  1.00  0.00     0.004 C 
BRANCH  14  15
ATOM     15  C   UNL     1     -34.685  38.984  39.454  1.00  0.00     0.000 C 
BRANCH  15  16
ATOM     16  C   UNL     1     -36.014  39.383  40.130  1.00  0.00    -0.000 C 
BRANCH  16  17
ATOM     17  C   UNL     1     -36.250  38.750  41.511  1.00  0.00    -0.003 C 
ATOM     18  C   UNL     1     -37.687  38.918  42.003  1.00  0.00     0.004 C 
ENDBRANCH  16  17
ENDBRANCH  15  16
ENDBRANCH  14  15
ENDBRANCH  13  14
ENDBRANCH  12  13
ENDBRANCH  10  11
ENDBRANCH   1  10
TORSDOF 13
ENDMDL
MODEL 6
REMARK VINA RESULT:    -4.902      2.703      5.834
REMARK INTER + INTRA:         -10.738
REMARK INTER:                  -8.240
REMARK INTRA:                  -2.498
REMARK UNBOUND:                -2.111
REMARK SMILES CCCCCCC=CCCCCCCCC(=O)[O-]
REMARK SMILES IDX 10 1 11 2 12 3 13 4 14 5 15 6 16 7 17 8 18 9 9 10 8 11 7 12
REMARK SMILES IDX 6 13 5 14 4 15 3 16 2 17 1 18
REMARK H PARENT
REMARK Flexibility Score: inf
ROOT
ATOM      1  C   UNL     1     -34.589  38.990  39.593  1.00  0.00     0.004 C 
ENDROOT
BRANCH   1   2
ATOM      2  C   UNL     1     -33.678  39.467  40.738  1.00  0.00     0.000 C 
BRANCH   2   3
ATOM      3  C   UNL     1     -32.824  40.684  40.349  1.00  0.00     0.000 C 
BRANCH   3   4
ATOM      4  C   UNL     1     -33.143  41.931  41.193  1.00  0.00     0.000 C 
BRANCH   4   5
ATOM      5  C   UNL     1     -34.403  42.709  40.762  1.00  0.00     0.006 C 
BRANCH   5   6
ATOM      6  C   UNL     1     -34.398  43.171  39.297  1.00  0.00     0.053 C 
BRANCH   6   7
ATOM      7  C   UNL     1     -34.009  44.611  39.164  1.00  0.00     0.041 C 
ATOM      8  O   UNL     1     -32.816  44.966  39.356  1.00  0.00    -0.550 OA
ATOM      9  O   UNL     1     -34.972  45.569  38.869  1.00  0.00    -0.550 OA
ENDBRANCH   6   7
ENDBRANCH   5   6
ENDBRANCH   4   5
ENDBRANCH   3   4
ENDBRANCH   2   3
ENDBRANCH   1   2
BRANCH   1  10
ATOM     10  C   UNL     1     -36.083  39.297  39.800  1.00  0.00     0.027 C 
BRANCH  10  11
ATOM     11  C   UNL     1     -36.456  39.392  41.254  1.00  0.00    -0.031 C 
ATOM     12  C   UNL     1     -37.330  40.306  41.697  1.00  0.00    -0.031 C 
BRANCH  12  13
ATOM     13  C   UNL     1     -37.672  40.423  43.157  1.00  0.00     0.027 C 
BRANCH  13  14
ATOM     14  C   UNL     1     -37.252  41.782  43.746  1.00  0.00     0.004 C 
BRANCH  14  15
ATOM     15  C   UNL     1     -35.735  41.927  43.983  1.00  0.00     0.000 C 
BRANCH  15  16
ATOM     16  C   UNL     1     -35.122  40.896  44.954  1.00  0.00    -0.000 C 
BRANCH  16  17
ATOM     17  C   UNL     1     -34.011  40.021  44.348  1.00  0.00    -0.003 C 
ATOM     18  C   UNL     1     -34.394  38.544  44.273  1.00  0.00     0.004 C 
ENDBRANCH  16  17
ENDBRANCH  15  16
ENDBRANCH  14  15
ENDBRANCH  13  14
ENDBRANCH  12  13
ENDBRANCH  10  11
ENDBRANCH   1  10
TORSDOF 13
ENDMDL
MODEL 7
REMARK VINA RESULT:    -4.857      2.489      5.545
REMARK INTER + INTRA:         -10.659
REMARK INTER:                  -8.325
REMARK INTRA:                  -2.333
REMARK UNBOUND:                -2.111
REMARK SMILES CCCCCCC=CCCCCCCCC(=O)[O-]
REMARK SMILES IDX 10 1 11 2 12 3 13 4 14 5 15 6 16 7 17 8 18 9 9 10 8 11 7 12
REMARK SMILES IDX 6 13 5 14 4 15 3 16 2 17 1 18
REMARK H PARENT
REMARK Flexibility Score: inf
ROOT
ATOM      1  C   UNL     1     -35.694  38.943  40.869  1.00  0.00     0.004 C 
ENDROOT
BRANCH   1   2
ATOM      2  C   UNL     1     -36.951  39.830  40.896  1.00  0.00     0.000 C 
BRANCH   2   3
ATOM      3  C   UNL     1     -36.645  41.302  40.577  1.00  0.00     0.000 C 
BRANCH   3   4
ATOM      4  C   UNL     1     -35.893  42.016  41.714  1.00  0.00     0.000 C 
BRANCH   4   5
ATOM      5  C   UNL     1     -34.728  42.920  41.263  1.00  0.00     0.006 C 
BRANCH   5   6
ATOM      6  C   UNL     1     -34.692  43.210  39.754  1.00  0.00     0.053 C 
BRANCH   6   7
ATOM      7  C   UNL     1     -34.257  44.613  39.463  1.00  0.00     0.041 C 
ATOM      8  O   UNL     1     -33.052  44.860  39.193  1.00  0.00    -0.550 OA
ATOM      9  O   UNL     1     -35.174  45.655  39.530  1.00  0.00    -0.550 OA
ENDBRANCH   6   7
ENDBRANCH   5   6
ENDBRANCH   4   5
ENDBRANCH   3   4
ENDBRANCH   2   3
ENDBRANCH   1   2
BRANCH   1  10
ATOM     10  C   UNL     1     -34.958  38.925  39.517  1.00  0.00     0.027 C 
BRANCH  10  11
ATOM     11  C   UNL     1     -33.701  39.751  39.533  1.00  0.00    -0.031 C 
ATOM     12  C   UNL     1     -32.907  39.799  40.610  1.00  0.00    -0.031 C 
BRANCH  12  13
ATOM     13  C   UNL     1     -31.670  40.656  40.637  1.00  0.00     0.027 C 
BRANCH  13  14
ATOM     14  C   UNL     1     -30.957  40.606  42.000  1.00  0.00     0.004 C 
BRANCH  14  15
ATOM     15  C   UNL     1     -31.877  40.237  43.182  1.00  0.00     0.000 C 
BRANCH  15  16
ATOM     16  C   UNL     1     -32.395  41.433  44.008  1.00  0.00    -0.000 C 
BRANCH  16  17
ATOM     17  C   UNL     1     -33.843  41.293  44.508  1.00  0.00    -0.003 C 
ATOM     18  C   UNL     1     -34.367  39.861  44.414  1.00  0.00     0.004 C 
ENDBRANCH  16  17
ENDBRANCH  15  16
ENDBRANCH  14  15
ENDBRANCH  13  14
ENDBRANCH  12  13
ENDBRANCH  10  11
ENDBRANCH   1  10
TORSDOF 13
ENDMDL
MODEL 8
REMARK VINA RESULT:    -4.815      2.591      5.746
REMARK INTER + INTRA:         -10.586
REMARK INTER:                  -8.064
REMARK INTRA:                  -2.522
REMARK UNBOUND:                -2.111
REMARK SMILES CCCCCCC=CCCCCCCCC(=O)[O-]
REMARK SMILES IDX 10 1 11 2 12 3 13 4 14 5 15 6 16 7 17 8 18 9 9 10 8 11 7 12
REMARK SMILES IDX 6 13 5 14 4 15 3 16 2 17 1 18
REMARK H PARENT
REMARK Flexibility Score: inf
ROOT
ATOM      1  C   UNL     1     -33.985  40.379  44.517  1.00  0.00     0.004 C 
ENDROOT
BRANCH   1   2
ATOM      2  C   UNL     1     -34.082  41.892  44.253  1.00  0.00     0.000 C 
BRANCH   2   3
ATOM      3  C   UNL     1     -35.533  42.374  44.094  1.00  0.00     0.000 C 
BRANCH   3   4
ATOM      4  C   UNL     1     -35.761  43.165  42.794  1.00  0.00     0.000 C 
BRANCH   4   5
ATOM      5  C   UNL     1     -35.536  42.366  41.494  1.00  0.00     0.006 C 
BRANCH   5   6
ATOM      6  C   UNL     1     -34.393  42.892  40.612  1.00  0.00     0.053 C 
BRANCH   6   7
ATOM      7  C   UNL     1     -33.368  41.835  40.333  1.00  0.00     0.041 C 
ATOM      8  O   UNL     1     -32.196  41.956  40.778  1.00  0.00    -0.550 OA
ATOM      9  O   UNL     1     -33.695  40.736  39.548  1.00  0.00    -0.550 OA
ENDBRANCH   6   7
ENDBRANCH   5   6
ENDBRANCH   4   5
ENDBRANCH   3   4
ENDBRANCH   2   3
ENDBRANCH   1   2
BRANCH   1  10
ATOM     10  C   UNL     1     -33.393  39.567  43.351  1.00  0.00     0.027 C 
BRANCH  10  11
ATOM     11  C   UNL     1     -34.454  38.942  42.487  1.00  0.00    -0.031 C 
ATOM     12  C   UNL     1     -35.688  38.704  42.951  1.00  0.00    -0.031 C 
BRANCH  12  13
ATOM     13  C   UNL     1     -36.736  38.045  42.096  1.00  0.00     0.027 C 
BRANCH  13  14
ATOM     14  C   UNL     1     -38.066  38.821  42.105  1.00  0.00     0.004 C 
BRANCH  14  15
ATOM     15  C   UNL     1     -38.072  40.056  43.030  1.00  0.00     0.000 C 
BRANCH  15  16
ATOM     16  C   UNL     1     -39.009  39.954  44.252  1.00  0.00    -0.000 C 
BRANCH  16  17
ATOM     17  C   UNL     1     -38.447  39.138  45.428  1.00  0.00    -0.003 C 
ATOM     18  C   UNL     1     -37.368  39.889  46.209  1.00  0.00     0.004 C 
ENDBRANCH  16  17
ENDBRANCH  15  16
ENDBRANCH  14  15
ENDBRANCH  13  14
ENDBRANCH  12  13
ENDBRANCH  10  11
ENDBRANCH   1  10
TORSDOF 13
ENDMDL
MODEL 9
REMARK VINA RESULT:    -4.815      5.230      7.213
REMARK INTER + INTRA:         -10.584
REMARK INTER:                  -8.439
REMARK INTRA:                  -2.146
REMARK UNBOUND:                -2.111
REMARK SMILES CCCCCCC=CCCCCCCCC(=O)[O-]
REMARK SMILES IDX 10 1 11 2 12 3 13 4 14 5 15 6 16 7 17 8 18 9 9 10 8 11 7 12
REMARK SMILES IDX 6 13 5 14 4 15 3 16 2 17 1 18
REMARK H PARENT
REMARK Flexibility Score: inf
ROOT
ATOM      1  C   UNL     1     -34.672  38.840  47.388  1.00  0.00     0.004 C 
ENDROOT
BRANCH   1   2
ATOM      2  C   UNL     1     -35.617  37.685  47.762  1.00  0.00     0.000 C 
BRANCH   2   3
ATOM      3  C   UNL     1     -35.728  36.627  46.652  1.00  0.00     0.000 C 
BRANCH   3   4
ATOM      4  C   UNL     1     -37.150  36.516  46.074  1.00  0.00     0.000 C 
BRANCH   4   5
ATOM      5  C   UNL     1     -38.176  37.505  46.663  1.00  0.00     0.006 C 
BRANCH   5   6
ATOM      6  C   UNL     1     -39.325  36.845  47.441  1.00  0.00     0.053 C 
BRANCH   6   7
ATOM      7  C   UNL     1     -40.470  37.787  47.658  1.00  0.00     0.041 C 
ATOM      8  O   UNL     1     -40.830  38.569  46.738  1.00  0.00    -0.550 OA
ATOM      9  O   UNL     1     -41.111  37.832  48.889  1.00  0.00    -0.550 OA
ENDBRANCH   6   7
ENDBRANCH   5   6
ENDBRANCH   4   5
ENDBRANCH   3   4
ENDBRANCH   2   3
ENDBRANCH   1   2
BRANCH   1  10
ATOM     10  C   UNL     1     -35.369  40.043  46.726  1.00  0.00     0.027 C 
BRANCH  10  11
ATOM     11  C   UNL     1     -34.986  40.207  45.281  1.00  0.00    -0.031 C 
ATOM     12  C   UNL     1     -34.464  39.197  44.573  1.00  0.00    -0.031 C 
BRANCH  12  13
ATOM     13  C   UNL     1     -34.046  39.375  43.139  1.00  0.00     0.027 C 
BRANCH  13  14
ATOM     14  C   UNL     1     -35.012  38.682  42.161  1.00  0.00     0.004 C 
BRANCH  14  15
ATOM     15  C   UNL     1     -36.113  37.845  42.846  1.00  0.00     0.000 C 
BRANCH  15  16
ATOM     16  C   UNL     1     -37.557  38.309  42.567  1.00  0.00    -0.000 C 
BRANCH  16  17
ATOM     17  C   UNL     1     -37.837  39.784  42.902  1.00  0.00    -0.003 C 
ATOM     18  C   UNL     1     -38.866  39.954  44.019  1.00  0.00     0.004 C 
ENDBRANCH  16  17
ENDBRANCH  15  16
ENDBRANCH  14  15
ENDBRANCH  13  14
ENDBRANCH  12  13
ENDBRANCH  10  11
ENDBRANCH   1  10
TORSDOF 13
ENDMDL
