MODEL 1
REMARK VINA RESULT:    -6.294      0.000      0.000
REMARK INTER + INTRA:          -8.113
REMARK INTER:                  -7.766
REMARK INTRA:                  -0.348
REMARK UNBOUND:                -0.348
REMARK SMILES O=c1c(O)c(-c2cc(O)c(O)c(O)c2)oc2cc(O)cc(O)c12
REMARK SMILES IDX 5 1 3 2 2 3 1 4 23 5 21 6 20 7 18 8 17 9 16 10 15 11 6 12
REMARK SMILES IDX 7 13 8 14 14 15 10 16 12 17 9 18 11 20 13 22 4 24 22 26
REMARK SMILES IDX 19 28
REMARK H PARENT 9 19 11 21 13 23 4 25 22 27 19 29
REMARK Flexibility Score: inf
ROOT
ATOM      1  C   UNL     1     479.535  37.706 459.499  1.00  0.00     0.180 A 
ATOM      2  C   UNL     1     478.720  38.787 459.892  1.00  0.00     0.208 A 
ATOM      3  C   UNL     1     477.676  38.552 460.801  1.00  0.00     0.238 A 
ATOM      4  O   UNL     1     476.934  39.509 461.152  1.00  0.00    -0.285 OA
ATOM      5  C   UNL     1     477.477  37.255 461.314  1.00  0.00     0.111 A 
ATOM      6  C   UNL     1     476.450  36.936 462.236  1.00  0.00     0.134 A 
ATOM      7  C   UNL     1     476.323  35.622 462.708  1.00  0.00     0.093 A 
ATOM      8  C   UNL     1     477.198  34.622 462.279  1.00  0.00     0.123 A 
ATOM      9  C   UNL     1     478.214  34.930 461.369  1.00  0.00     0.094 A 
ATOM     10  C   UNL     1     478.357  36.234 460.885  1.00  0.00     0.146 A 
ATOM     11  O   UNL     1     479.326  36.499 460.016  1.00  0.00    -0.452 OA
ENDROOT
BRANCH   1  12
ATOM     12  C   UNL     1     480.644  37.869 458.532  1.00  0.00     0.029 A 
ATOM     13  C   UNL     1     481.911  38.317 458.941  1.00  0.00     0.062 A 
ATOM     14  C   UNL     1     482.941  38.488 458.011  1.00  0.00     0.162 A 
ATOM     15  C   UNL     1     480.412  37.628 457.169  1.00  0.00     0.062 A 
ATOM     16  C   UNL     1     482.709  38.223 456.650  1.00  0.00     0.200 A 
ATOM     17  C   UNL     1     481.438  37.795 456.230  1.00  0.00     0.162 A 
BRANCH  14  18
ATOM     18  O   UNL     1     484.188  38.929 458.455  1.00  0.00    -0.504 OA
ATOM     19  H   UNL     1     484.304  39.799 458.958  1.00  0.00     0.293 HD
ENDBRANCH  14  18
BRANCH  16  20
ATOM     20  O   UNL     1     483.744  38.392 455.728  1.00  0.00    -0.502 OA
ATOM     21  H   UNL     1     484.689  38.077 455.912  1.00  0.00     0.293 HD
ENDBRANCH  16  20
BRANCH  17  22
ATOM     22  O   UNL     1     481.199  37.537 454.881  1.00  0.00    -0.504 OA
ATOM     23  H   UNL     1     481.594  38.118 454.151  1.00  0.00     0.293 HD
ENDBRANCH  17  22
ENDBRANCH   1  12
BRANCH   2  24
ATOM     24  O   UNL     1     478.970  40.072 459.406  1.00  0.00    -0.502 OA
ATOM     25  H   UNL     1     479.906  40.402 459.202  1.00  0.00     0.293 HD
ENDBRANCH   2  24
BRANCH   6  26
ATOM     26  O   UNL     1     475.560  37.913 462.686  1.00  0.00    -0.507 OA
ATOM     27  H   UNL     1     475.300  38.704 462.108  1.00  0.00     0.293 HD
ENDBRANCH   6  26
BRANCH   8  28
ATOM     28  O   UNL     1     477.051  33.324 462.764  1.00  0.00    -0.508 OA
ATOM     29  H   UNL     1     477.238  32.516 462.183  1.00  0.00     0.293 HD
ENDBRANCH   8  28
TORSDOF 7
ENDMDL
MODEL 2
REMARK VINA RESULT:    -6.290      0.064      1.756
REMARK INTER + INTRA:          -8.109
REMARK INTER:                  -7.753
REMARK INTRA:                  -0.356
REMARK UNBOUND:                -0.348
REMARK SMILES O=c1c(O)c(-c2cc(O)c(O)c(O)c2)oc2cc(O)cc(O)c12
REMARK SMILES IDX 5 1 3 2 2 3 1 4 23 5 21 6 20 7 18 8 17 9 16 10 15 11 6 12
REMARK SMILES IDX 7 13 8 14 14 15 10 16 12 17 9 18 11 20 13 22 4 24 22 26
REMARK SMILES IDX 19 28
REMARK H PARENT 9 19 11 21 13 23 4 25 22 27 19 29
REMARK Flexibility Score: inf
ROOT
ATOM      1  C   UNL     1     479.489  37.742 459.509  1.00  0.00     0.180 A 
ATOM      2  C   UNL     1     478.662  38.813 459.903  1.00  0.00     0.208 A 
ATOM      3  C   UNL     1     477.625  38.566 460.817  1.00  0.00     0.238 A 
ATOM      4  O   UNL     1     476.871  39.514 461.168  1.00  0.00    -0.285 OA
ATOM      5  C   UNL     1     477.444  37.267 461.333  1.00  0.00     0.111 A 
ATOM      6  C   UNL     1     476.426  36.937 462.259  1.00  0.00     0.134 A 
ATOM      7  C   UNL     1     476.317  35.621 462.734  1.00  0.00     0.093 A 
ATOM      8  C   UNL     1     477.204  34.632 462.302  1.00  0.00     0.123 A 
ATOM      9  C   UNL     1     478.212  34.952 461.388  1.00  0.00     0.094 A 
ATOM     10  C   UNL     1     478.336  36.258 460.901  1.00  0.00     0.146 A 
ATOM     11  O   UNL     1     479.298  36.533 460.029  1.00  0.00    -0.452 OA
ENDROOT
BRANCH   1  12
ATOM     12  C   UNL     1     480.592  37.918 458.537  1.00  0.00     0.029 A 
ATOM     13  C   UNL     1     480.412  37.646 457.170  1.00  0.00     0.062 A 
ATOM     14  C   UNL     1     481.470  37.794 456.268  1.00  0.00     0.162 A 
ATOM     15  C   UNL     1     481.860  38.308 458.993  1.00  0.00     0.062 A 
ATOM     16  C   UNL     1     482.733  38.207 456.728  1.00  0.00     0.200 A 
ATOM     17  C   UNL     1     482.926  38.461 458.097  1.00  0.00     0.162 A 
BRANCH  14  18
ATOM     18  O   UNL     1     481.252  37.520 454.918  1.00  0.00    -0.504 OA
ATOM     19  H   UNL     1     480.458  37.893 454.414  1.00  0.00     0.293 HD
ENDBRANCH  14  18
BRANCH  16  20
ATOM     20  O   UNL     1     483.783  38.357 455.822  1.00  0.00    -0.502 OA
ATOM     21  H   UNL     1     484.735  38.095 456.050  1.00  0.00     0.293 HD
ENDBRANCH  16  20
BRANCH  17  22
ATOM     22  O   UNL     1     484.177  38.863 458.563  1.00  0.00    -0.504 OA
ATOM     23  H   UNL     1     485.001  38.824 457.974  1.00  0.00     0.293 HD
ENDBRANCH  17  22
ENDBRANCH   1  12
BRANCH   2  24
ATOM     24  O   UNL     1     478.893  40.101 459.414  1.00  0.00    -0.502 OA
ATOM     25  H   UNL     1     478.144  40.766 459.264  1.00  0.00     0.293 HD
ENDBRANCH   2  24
BRANCH   6  26
ATOM     26  O   UNL     1     475.525  37.902 462.710  1.00  0.00    -0.507 OA
ATOM     27  H   UNL     1     475.839  38.766 463.138  1.00  0.00     0.293 HD
ENDBRANCH   6  26
BRANCH   8  28
ATOM     28  O   UNL     1     477.075  33.334 462.790  1.00  0.00    -0.508 OA
ATOM     29  H   UNL     1     476.662  32.596 462.232  1.00  0.00     0.293 HD
ENDBRANCH   8  28
TORSDOF 7
ENDMDL
MODEL 3
REMARK VINA RESULT:    -5.867      1.599      7.105
REMARK INTER + INTRA:          -7.587
REMARK INTER:                  -7.243
REMARK INTRA:                  -0.343
REMARK UNBOUND:                -0.348
REMARK SMILES O=c1c(O)c(-c2cc(O)c(O)c(O)c2)oc2cc(O)cc(O)c12
REMARK SMILES IDX 5 1 3 2 2 3 1 4 23 5 21 6 20 7 18 8 17 9 16 10 15 11 6 12
REMARK SMILES IDX 7 13 8 14 14 15 10 16 12 17 9 18 11 20 13 22 4 24 22 26
REMARK SMILES IDX 19 28
REMARK H PARENT 9 19 11 21 13 23 4 25 22 27 19 29
REMARK Flexibility Score: inf
ROOT
ATOM      1  C   UNL     1     480.225  38.157 459.388  1.00  0.00     0.180 A 
ATOM      2  C   UNL     1     480.058  38.491 458.030  1.00  0.00     0.208 A 
ATOM      3  C   UNL     1     481.175  38.917 457.295  1.00  0.00     0.238 A 
ATOM      4  O   UNL     1     481.036  39.229 456.081  1.00  0.00    -0.285 OA
ATOM      5  C   UNL     1     482.437  38.984 457.920  1.00  0.00     0.111 A 
ATOM      6  C   UNL     1     483.612  39.400 457.249  1.00  0.00     0.134 A 
ATOM      7  C   UNL     1     484.833  39.429 457.938  1.00  0.00     0.093 A 
ATOM      8  C   UNL     1     484.902  39.053 459.282  1.00  0.00     0.123 A 
ATOM      9  C   UNL     1     483.745  38.641 459.950  1.00  0.00     0.094 A 
ATOM     10  C   UNL     1     482.518  38.606 459.280  1.00  0.00     0.146 A 
ATOM     11  O   UNL     1     481.433  38.217 459.940  1.00  0.00    -0.452 OA
ENDROOT
BRANCH   1  12
ATOM     12  C   UNL     1     479.092  37.717 460.235  1.00  0.00     0.029 A 
ATOM     13  C   UNL     1     478.188  38.642 460.784  1.00  0.00     0.062 A 
ATOM     14  C   UNL     1     477.137  38.212 461.601  1.00  0.00     0.162 A 
ATOM     15  C   UNL     1     478.950  36.356 460.544  1.00  0.00     0.062 A 
ATOM     16  C   UNL     1     476.986  36.844 461.889  1.00  0.00     0.200 A 
ATOM     17  C   UNL     1     477.899  35.916 461.360  1.00  0.00     0.162 A 
BRANCH  14  18
ATOM     18  O   UNL     1     476.256  39.158 462.124  1.00  0.00    -0.504 OA
ATOM     19  H   UNL     1     475.616  39.680 461.539  1.00  0.00     0.293 HD
ENDBRANCH  14  18
BRANCH  16  20
ATOM     20  O   UNL     1     475.933  36.423 462.702  1.00  0.00    -0.502 OA
ATOM     21  H   UNL     1     475.352  35.627 462.464  1.00  0.00     0.293 HD
ENDBRANCH  16  20
BRANCH  17  22
ATOM     22  O   UNL     1     477.760  34.559 461.647  1.00  0.00    -0.504 OA
ATOM     23  H   UNL     1     477.635  33.871 460.914  1.00  0.00     0.293 HD
ENDBRANCH  17  22
ENDBRANCH   1  12
BRANCH   2  24
ATOM     24  O   UNL     1     478.806  38.370 457.422  1.00  0.00    -0.502 OA
ATOM     25  H   UNL     1     478.224  39.173 457.215  1.00  0.00     0.293 HD
ENDBRANCH   2  24
BRANCH   6  26
ATOM     26  O   UNL     1     483.577  39.780 455.907  1.00  0.00    -0.507 OA
ATOM     27  H   UNL     1     484.381  39.672 455.300  1.00  0.00     0.293 HD
ENDBRANCH   6  26
BRANCH   8  28
ATOM     28  O   UNL     1     486.128  39.091 459.943  1.00  0.00    -0.508 OA
ATOM     29  H   UNL     1     486.968  38.709 459.525  1.00  0.00     0.293 HD
ENDBRANCH   8  28
TORSDOF 7
ENDMDL
MODEL 4
REMARK VINA RESULT:    -5.771      1.607      7.119
REMARK INTER + INTRA:          -7.469
REMARK INTER:                  -7.206
REMARK INTRA:                  -0.263
REMARK UNBOUND:                -0.348
REMARK SMILES O=c1c(O)c(-c2cc(O)c(O)c(O)c2)oc2cc(O)cc(O)c12
REMARK SMILES IDX 5 1 3 2 2 3 1 4 23 5 21 6 20 7 18 8 17 9 16 10 15 11 6 12
REMARK SMILES IDX 7 13 8 14 14 15 10 16 12 17 9 18 11 20 13 22 4 24 22 26
REMARK SMILES IDX 19 28
REMARK H PARENT 9 19 11 21 13 23 4 25 22 27 19 29
REMARK Flexibility Score: inf
ROOT
ATOM      1  C   UNL     1     480.169  38.205 459.444  1.00  0.00     0.180 A 
ATOM      2  C   UNL     1     479.931  38.652 458.129  1.00  0.00     0.208 A 
ATOM      3  C   UNL     1     481.013  39.121 457.367  1.00  0.00     0.238 A 
ATOM      4  O   UNL     1     480.810  39.534 456.193  1.00  0.00    -0.285 OA
ATOM      5  C   UNL     1     482.309  39.118 457.921  1.00  0.00     0.111 A 
ATOM      6  C   UNL     1     483.452  39.571 457.218  1.00  0.00     0.134 A 
ATOM      7  C   UNL     1     484.711  39.527 457.835  1.00  0.00     0.093 A 
ATOM      8  C   UNL     1     484.849  39.042 459.137  1.00  0.00     0.123 A 
ATOM      9  C   UNL     1     483.725  38.593 459.836  1.00  0.00     0.094 A 
ATOM     10  C   UNL     1     482.461  38.630 459.239  1.00  0.00     0.146 A 
ATOM     11  O   UNL     1     481.408  38.203 459.927  1.00  0.00    -0.452 OA
ENDROOT
BRANCH   1  12
ATOM     12  C   UNL     1     479.079  37.713 460.317  1.00  0.00     0.029 A 
ATOM     13  C   UNL     1     478.934  36.346 460.604  1.00  0.00     0.062 A 
ATOM     14  C   UNL     1     477.884  35.894 461.411  1.00  0.00     0.162 A 
ATOM     15  C   UNL     1     478.136  38.621 460.821  1.00  0.00     0.062 A 
ATOM     16  C   UNL     1     476.955  36.812 461.933  1.00  0.00     0.200 A 
ATOM     17  C   UNL     1     477.082  38.179 461.632  1.00  0.00     0.162 A 
BRANCH  14  18
ATOM     18  O   UNL     1     477.775  34.530 461.679  1.00  0.00    -0.504 OA
ATOM     19  H   UNL     1     477.769  34.165 462.622  1.00  0.00     0.293 HD
ENDBRANCH  14  18
BRANCH  16  20
ATOM     20  O   UNL     1     475.913  36.354 462.740  1.00  0.00    -0.502 OA
ATOM     21  H   UNL     1     475.570  35.402 462.692  1.00  0.00     0.293 HD
ENDBRANCH  16  20
BRANCH  17  22
ATOM     22  O   UNL     1     476.161  39.093 462.140  1.00  0.00    -0.504 OA
ATOM     23  H   UNL     1     475.253  38.799 462.482  1.00  0.00     0.293 HD
ENDBRANCH  17  22
ENDBRANCH   1  12
BRANCH   2  24
ATOM     24  O   UNL     1     478.645  38.598 457.587  1.00  0.00    -0.502 OA
ATOM     25  H   UNL     1     478.280  39.326 456.984  1.00  0.00     0.293 HD
ENDBRANCH   2  24
BRANCH   6  26
ATOM     26  O   UNL     1     483.347  40.061 455.915  1.00  0.00    -0.507 OA
ATOM     27  H   UNL     1     482.730  40.832 455.684  1.00  0.00     0.293 HD
ENDBRANCH   6  26
BRANCH   8  28
ATOM     28  O   UNL     1     486.111  39.007 459.727  1.00  0.00    -0.508 OA
ATOM     29  H   UNL     1     486.256  38.607 460.646  1.00  0.00     0.293 HD
ENDBRANCH   8  28
TORSDOF 7
ENDMDL
MODEL 5
REMARK VINA RESULT:    -5.581      1.383      7.033
REMARK INTER + INTRA:          -7.234
REMARK INTER:                  -6.987
REMARK INTRA:                  -0.247
REMARK UNBOUND:                -0.348
REMARK SMILES O=c1c(O)c(-c2cc(O)c(O)c(O)c2)oc2cc(O)cc(O)c12
REMARK SMILES IDX 5 1 3 2 2 3 1 4 23 5 21 6 20 7 18 8 17 9 16 10 15 11 6 12
REMARK SMILES IDX 7 13 8 14 14 15 10 16 12 17 9 18 11 20 13 22 4 24 22 26
REMARK SMILES IDX 19 28
REMARK H PARENT 9 19 11 21 13 23 4 25 22 27 19 29
REMARK Flexibility Score: inf
ROOT
ATOM      1  C   UNL     1     479.355  37.609 460.413  1.00  0.00     0.180 A 
ATOM      2  C   UNL     1     480.286  38.494 460.993  1.00  0.00     0.208 A 
ATOM      3  C   UNL     1     481.287  39.051 460.181  1.00  0.00     0.238 A 
ATOM      4  O   UNL     1     482.132  39.836 460.692  1.00  0.00    -0.285 OA
ATOM      5  C   UNL     1     481.331  38.732 458.809  1.00  0.00     0.111 A 
ATOM      6  C   UNL     1     482.305  39.253 457.923  1.00  0.00     0.134 A 
ATOM      7  C   UNL     1     482.275  38.895 456.568  1.00  0.00     0.093 A 
ATOM      8  C   UNL     1     481.294  38.029 456.081  1.00  0.00     0.123 A 
ATOM      9  C   UNL     1     480.329  37.511 456.950  1.00  0.00     0.094 A 
ATOM     10  C   UNL     1     480.342  37.854 458.306  1.00  0.00     0.146 A 
ATOM     11  O   UNL     1     479.418  37.344 459.111  1.00  0.00    -0.452 OA
ENDROOT
BRANCH   1  12
ATOM     12  C   UNL     1     478.282  36.967 461.205  1.00  0.00     0.029 A 
ATOM     13  C   UNL     1     477.206  37.712 461.717  1.00  0.00     0.062 A 
ATOM     14  C   UNL     1     476.213  37.095 462.484  1.00  0.00     0.162 A 
ATOM     15  C   UNL     1     478.367  35.599 461.501  1.00  0.00     0.062 A 
ATOM     16  C   UNL     1     476.291  35.718 462.758  1.00  0.00     0.200 A 
ATOM     17  C   UNL     1     477.375  34.971 462.267  1.00  0.00     0.162 A 
BRANCH  14  18
ATOM     18  O   UNL     1     475.157  37.866 462.971  1.00  0.00    -0.504 OA
ATOM     19  H   UNL     1     475.098  38.148 463.941  1.00  0.00     0.293 HD
ENDBRANCH  14  18
BRANCH  16  20
ATOM     20  O   UNL     1     475.294  35.109 463.521  1.00  0.00    -0.502 OA
ATOM     21  H   UNL     1     475.486  34.679 464.418  1.00  0.00     0.293 HD
ENDBRANCH  16  20
BRANCH  17  22
ATOM     22  O   UNL     1     477.464  33.607 462.541  1.00  0.00    -0.504 OA
ATOM     23  H   UNL     1     476.773  33.134 463.111  1.00  0.00     0.293 HD
ENDBRANCH  17  22
ENDBRANCH   1  12
BRANCH   2  24
ATOM     24  O   UNL     1     480.191  38.832 462.345  1.00  0.00    -0.502 OA
ATOM     25  H   UNL     1     480.938  39.306 462.839  1.00  0.00     0.293 HD
ENDBRANCH   2  24
BRANCH   6  26
ATOM     26  O   UNL     1     483.298  40.122 458.379  1.00  0.00    -0.507 OA
ATOM     27  H   UNL     1     484.009  39.822 459.036  1.00  0.00     0.293 HD
ENDBRANCH   6  26
BRANCH   8  28
ATOM     28  O   UNL     1     481.286  37.690 454.729  1.00  0.00    -0.508 OA
ATOM     29  H   UNL     1     481.407  36.732 454.422  1.00  0.00     0.293 HD
ENDBRANCH   8  28
TORSDOF 7
ENDMDL
MODEL 6
REMARK VINA RESULT:    -5.521      1.165      2.888
REMARK INTER + INTRA:          -7.160
REMARK INTER:                  -6.813
REMARK INTRA:                  -0.347
REMARK UNBOUND:                -0.348
REMARK SMILES O=c1c(O)c(-c2cc(O)c(O)c(O)c2)oc2cc(O)cc(O)c12
REMARK SMILES IDX 5 1 3 2 2 3 1 4 23 5 21 6 20 7 18 8 17 9 16 10 15 11 6 12
REMARK SMILES IDX 7 13 8 14 14 15 10 16 12 17 9 18 11 20 13 22 4 24 22 26
REMARK SMILES IDX 19 28
REMARK H PARENT 9 19 11 21 13 23 4 25 22 27 19 29
REMARK Flexibility Score: inf
ROOT
ATOM      1  C   UNL     1     479.598  37.555 459.474  1.00  0.00     0.180 A 
ATOM      2  C   UNL     1     479.265  36.278 459.969  1.00  0.00     0.208 A 
ATOM      3  C   UNL     1     478.213  36.163 460.892  1.00  0.00     0.238 A 
ATOM      4  O   UNL     1     477.913  35.027 461.350  1.00  0.00    -0.285 OA
ATOM      5  C   UNL     1     477.503  37.315 461.287  1.00  0.00     0.111 A 
ATOM      6  C   UNL     1     476.429  37.283 462.210  1.00  0.00     0.134 A 
ATOM      7  C   UNL     1     475.766  38.473 462.546  1.00  0.00     0.093 A 
ATOM      8  C   UNL     1     476.154  39.689 461.980  1.00  0.00     0.123 A 
ATOM      9  C   UNL     1     477.214  39.727 461.069  1.00  0.00     0.094 A 
ATOM     10  C   UNL     1     477.889  38.552 460.722  1.00  0.00     0.146 A 
ATOM     11  O   UNL     1     478.896  38.617 459.859  1.00  0.00    -0.452 OA
ENDROOT
BRANCH   1  12
ATOM     12  C   UNL     1     480.706  37.761 458.514  1.00  0.00     0.029 A 
ATOM     13  C   UNL     1     481.979  38.173 458.943  1.00  0.00     0.062 A 
ATOM     14  C   UNL     1     483.008  38.386 458.020  1.00  0.00     0.162 A 
ATOM     15  C   UNL     1     480.468  37.600 457.141  1.00  0.00     0.062 A 
ATOM     16  C   UNL     1     482.769  38.200 456.647  1.00  0.00     0.200 A 
ATOM     17  C   UNL     1     481.492  37.809 456.209  1.00  0.00     0.162 A 
BRANCH  14  18
ATOM     18  O   UNL     1     484.260  38.789 458.484  1.00  0.00    -0.504 OA
ATOM     19  H   UNL     1     484.443  38.956 459.465  1.00  0.00     0.293 HD
ENDBRANCH  14  18
BRANCH  16  20
ATOM     20  O   UNL     1     483.802  38.411 455.732  1.00  0.00    -0.502 OA
ATOM     21  H   UNL     1     484.774  38.451 456.015  1.00  0.00     0.293 HD
ENDBRANCH  16  20
BRANCH  17  22
ATOM     22  O   UNL     1     481.246  37.630 454.848  1.00  0.00    -0.504 OA
ATOM     23  H   UNL     1     481.144  36.706 454.444  1.00  0.00     0.293 HD
ENDBRANCH  17  22
ENDBRANCH   1  12
BRANCH   2  24
ATOM     24  O   UNL     1     479.952  35.147 459.523  1.00  0.00    -0.502 OA
ATOM     25  H   UNL     1     480.065  34.934 458.539  1.00  0.00     0.293 HD
ENDBRANCH   2  24
BRANCH   6  26
ATOM     26  O   UNL     1     476.016  36.083 462.791  1.00  0.00    -0.507 OA
ATOM     27  H   UNL     1     475.712  35.296 462.230  1.00  0.00     0.293 HD
ENDBRANCH   6  26
BRANCH   8  28
ATOM     28  O   UNL     1     475.478  40.856 462.330  1.00  0.00    -0.508 OA
ATOM     29  H   UNL     1     475.132  41.007 463.270  1.00  0.00     0.293 HD
ENDBRANCH   8  28
TORSDOF 7
ENDMDL
MODEL 7
REMARK VINA RESULT:    -5.283      1.404      7.126
REMARK INTER + INTRA:          -6.866
REMARK INTER:                  -6.534
REMARK INTRA:                  -0.332
REMARK UNBOUND:                -0.348
REMARK SMILES O=c1c(O)c(-c2cc(O)c(O)c(O)c2)oc2cc(O)cc(O)c12
REMARK SMILES IDX 5 1 3 2 2 3 1 4 23 5 21 6 20 7 18 8 17 9 16 10 15 11 6 12
REMARK SMILES IDX 7 13 8 14 14 15 10 16 12 17 9 18 11 20 13 22 4 24 22 26
REMARK SMILES IDX 19 28
REMARK H PARENT 9 19 11 21 13 23 4 25 22 27 19 29
REMARK Flexibility Score: inf
ROOT
ATOM      1  C   UNL     1     479.931  37.933 459.306  1.00  0.00     0.180 A 
ATOM      2  C   UNL     1     481.076  38.627 459.745  1.00  0.00     0.208 A 
ATOM      3  C   UNL     1     482.023  39.041 458.794  1.00  0.00     0.238 A 
ATOM      4  O   UNL     1     483.057  39.653 459.176  1.00  0.00    -0.285 OA
ATOM      5  C   UNL     1     481.802  38.773 457.428  1.00  0.00     0.111 A 
ATOM      6  C   UNL     1     482.705  39.159 456.408  1.00  0.00     0.134 A 
ATOM      7  C   UNL     1     482.408  38.864 455.069  1.00  0.00     0.093 A 
ATOM      8  C   UNL     1     481.231  38.193 454.731  1.00  0.00     0.123 A 
ATOM      9  C   UNL     1     480.335  37.810 455.733  1.00  0.00     0.094 A 
ATOM     10  C   UNL     1     480.613  38.093 457.074  1.00  0.00     0.146 A 
ATOM     11  O   UNL     1     479.749  37.712 458.008  1.00  0.00    -0.452 OA
ENDROOT
BRANCH   1  12
ATOM     12  C   UNL     1     478.896  37.448 460.249  1.00  0.00     0.029 A 
ATOM     13  C   UNL     1     478.839  36.100 460.641  1.00  0.00     0.062 A 
ATOM     14  C   UNL     1     477.841  35.654 461.513  1.00  0.00     0.162 A 
ATOM     15  C   UNL     1     477.917  38.337 460.716  1.00  0.00     0.062 A 
ATOM     16  C   UNL     1     476.876  36.555 461.996  1.00  0.00     0.200 A 
ATOM     17  C   UNL     1     476.915  37.900 461.591  1.00  0.00     0.162 A 
BRANCH  14  18
ATOM     18  O   UNL     1     477.820  34.310 461.885  1.00  0.00    -0.504 OA
ATOM     19  H   UNL     1     477.030  33.895 462.363  1.00  0.00     0.293 HD
ENDBRANCH  14  18
BRANCH  16  20
ATOM     20  O   UNL     1     475.886  36.102 462.870  1.00  0.00    -0.502 OA
ATOM     21  H   UNL     1     475.900  36.316 463.860  1.00  0.00     0.293 HD
ENDBRANCH  16  20
BRANCH  17  22
ATOM     22  O   UNL     1     475.956  38.798 462.060  1.00  0.00    -0.504 OA
ATOM     23  H   UNL     1     475.831  38.971 463.051  1.00  0.00     0.293 HD
ENDBRANCH  17  22
ENDBRANCH   1  12
BRANCH   2  24
ATOM     24  O   UNL     1     481.247  38.922 461.099  1.00  0.00    -0.502 OA
ATOM     25  H   UNL     1     480.492  38.844 461.771  1.00  0.00     0.293 HD
ENDBRANCH   2  24
BRANCH   6  26
ATOM     26  O   UNL     1     483.889  39.831 456.713  1.00  0.00    -0.507 OA
ATOM     27  H   UNL     1     484.761  39.617 456.242  1.00  0.00     0.293 HD
ENDBRANCH   6  26
BRANCH   8  28
ATOM     28  O   UNL     1     480.960  37.913 453.393  1.00  0.00    -0.508 OA
ATOM     29  H   UNL     1     481.659  37.504 452.784  1.00  0.00     0.293 HD
ENDBRANCH   8  28
TORSDOF 7
ENDMDL
MODEL 8
REMARK VINA RESULT:    -5.130      4.028      6.945
REMARK INTER + INTRA:          -6.678
REMARK INTER:                  -6.691
REMARK INTRA:                   0.014
REMARK UNBOUND:                -0.348
REMARK SMILES O=c1c(O)c(-c2cc(O)c(O)c(O)c2)oc2cc(O)cc(O)c12
REMARK SMILES IDX 5 1 3 2 2 3 1 4 23 5 21 6 20 7 18 8 17 9 16 10 15 11 6 12
REMARK SMILES IDX 7 13 8 14 14 15 10 16 12 17 9 18 11 20 13 22 4 24 22 26
REMARK SMILES IDX 19 28
REMARK H PARENT 9 19 11 21 13 23 4 25 22 27 19 29
REMARK Flexibility Score: inf
ROOT
ATOM      1  C   UNL     1     484.046  39.579 460.340  1.00  0.00     0.180 A 
ATOM      2  C   UNL     1     484.599  38.975 459.193  1.00  0.00     0.208 A 
ATOM      3  C   UNL     1     483.745  38.309 458.300  1.00  0.00     0.238 A 
ATOM      4  O   UNL     1     484.230  37.755 457.276  1.00  0.00    -0.285 OA
ATOM      5  C   UNL     1     482.359  38.274 458.555  1.00  0.00     0.111 A 
ATOM      6  C   UNL     1     481.431  37.627 457.703  1.00  0.00     0.134 A 
ATOM      7  C   UNL     1     480.065  37.646 458.022  1.00  0.00     0.093 A 
ATOM      8  C   UNL     1     479.610  38.295 459.171  1.00  0.00     0.123 A 
ATOM      9  C   UNL     1     480.521  38.936 460.016  1.00  0.00     0.094 A 
ATOM     10  C   UNL     1     481.887  38.928 459.717  1.00  0.00     0.146 A 
ATOM     11  O   UNL     1     482.732  39.539 460.540  1.00  0.00    -0.452 OA
ENDROOT
BRANCH   1  12
ATOM     12  C   UNL     1     484.882  40.283 461.338  1.00  0.00     0.029 A 
ATOM     13  C   UNL     1     484.740  40.039 462.714  1.00  0.00     0.062 A 
ATOM     14  C   UNL     1     485.521  40.731 463.646  1.00  0.00     0.162 A 
ATOM     15  C   UNL     1     485.796  41.258 460.909  1.00  0.00     0.062 A 
ATOM     16  C   UNL     1     486.452  41.689 463.208  1.00  0.00     0.200 A 
ATOM     17  C   UNL     1     486.584  41.954 461.834  1.00  0.00     0.162 A 
BRANCH  14  18
ATOM     18  O   UNL     1     485.356  40.457 465.003  1.00  0.00    -0.504 OA
ATOM     19  H   UNL     1     484.568  40.808 465.532  1.00  0.00     0.293 HD
ENDBRANCH  14  18
BRANCH  16  20
ATOM     20  O   UNL     1     487.231  42.372 464.143  1.00  0.00    -0.502 OA
ATOM     21  H   UNL     1     487.178  42.178 465.136  1.00  0.00     0.293 HD
ENDBRANCH  16  20
BRANCH  17  22
ATOM     22  O   UNL     1     487.500  42.909 461.393  1.00  0.00    -0.504 OA
ATOM     23  H   UNL     1     487.264  43.894 461.359  1.00  0.00     0.293 HD
ENDBRANCH  17  22
ENDBRANCH   1  12
BRANCH   2  24
ATOM     24  O   UNL     1     485.969  39.066 458.939  1.00  0.00    -0.502 OA
ATOM     25  H   UNL     1     486.586  39.647 459.493  1.00  0.00     0.293 HD
ENDBRANCH   2  24
BRANCH   6  26
ATOM     26  O   UNL     1     481.854  36.970 456.547  1.00  0.00    -0.507 OA
ATOM     27  H   UNL     1     481.986  35.965 456.523  1.00  0.00     0.293 HD
ENDBRANCH   6  26
BRANCH   8  28
ATOM     28  O   UNL     1     478.247  38.300 459.463  1.00  0.00    -0.508 OA
ATOM     29  H   UNL     1     477.712  39.160 459.485  1.00  0.00     0.293 HD
ENDBRANCH   8  28
TORSDOF 7
ENDMDL
MODEL 9
REMARK VINA RESULT:    -5.105      1.863      2.968
REMARK INTER + INTRA:          -6.646
REMARK INTER:                  -6.472
REMARK INTRA:                  -0.174
REMARK UNBOUND:                -0.348
REMARK SMILES O=c1c(O)c(-c2cc(O)c(O)c(O)c2)oc2cc(O)cc(O)c12
REMARK SMILES IDX 5 1 3 2 2 3 1 4 23 5 21 6 20 7 18 8 17 9 16 10 15 11 6 12
REMARK SMILES IDX 7 13 8 14 14 15 10 16 12 17 9 18 11 20 13 22 4 24 22 26
REMARK SMILES IDX 19 28
REMARK H PARENT 9 19 11 21 13 23 4 25 22 27 19 29
REMARK Flexibility Score: inf
ROOT
ATOM      1  C   UNL     1     480.659  39.157 460.259  1.00  0.00     0.180 A 
ATOM      2  C   UNL     1     479.874  40.327 460.247  1.00  0.00     0.208 A 
ATOM      3  C   UNL     1     478.540  40.252 460.678  1.00  0.00     0.238 A 
ATOM      4  O   UNL     1     477.824  41.290 460.660  1.00  0.00    -0.285 OA
ATOM      5  C   UNL     1     478.022  39.022 461.130  1.00  0.00     0.111 A 
ATOM      6  C   UNL     1     476.690  38.863 461.583  1.00  0.00     0.134 A 
ATOM      7  C   UNL     1     476.251  37.606 462.027  1.00  0.00     0.093 A 
ATOM      8  C   UNL     1     477.115  36.509 462.026  1.00  0.00     0.123 A 
ATOM      9  C   UNL     1     478.431  36.660 461.580  1.00  0.00     0.094 A 
ATOM     10  C   UNL     1     478.887  37.903 461.132  1.00  0.00     0.146 A 
ATOM     11  O   UNL     1     480.141  38.018 460.707  1.00  0.00    -0.452 OA
ENDROOT
BRANCH   1  12
ATOM     12  C   UNL     1     482.068  39.151 459.804  1.00  0.00     0.029 A 
ATOM     13  C   UNL     1     482.479  38.371 458.709  1.00  0.00     0.062 A 
ATOM     14  C   UNL     1     483.818  38.358 458.306  1.00  0.00     0.162 A 
ATOM     15  C   UNL     1     483.026  39.892 460.511  1.00  0.00     0.062 A 
ATOM     16  C   UNL     1     484.770  39.121 459.005  1.00  0.00     0.200 A 
ATOM     17  C   UNL     1     484.369  39.887 460.114  1.00  0.00     0.162 A 
BRANCH  14  18
ATOM     18  O   UNL     1     484.187  37.576 457.212  1.00  0.00    -0.504 OA
ATOM     19  H   UNL     1     483.734  37.661 456.311  1.00  0.00     0.293 HD
ENDBRANCH  14  18
BRANCH  16  20
ATOM     20  O   UNL     1     486.103  39.106 458.594  1.00  0.00    -0.502 OA
ATOM     21  H   UNL     1     486.816  39.663 459.051  1.00  0.00     0.293 HD
ENDBRANCH  16  20
BRANCH  17  22
ATOM     22  O   UNL     1     485.309  40.640 460.817  1.00  0.00    -0.504 OA
ATOM     23  H   UNL     1     486.234  40.280 461.019  1.00  0.00     0.293 HD
ENDBRANCH  17  22
ENDBRANCH   1  12
BRANCH   2  24
ATOM     24  O   UNL     1     480.427  41.544 459.840  1.00  0.00    -0.502 OA
ATOM     25  H   UNL     1     480.922  41.648 458.962  1.00  0.00     0.293 HD
ENDBRANCH   2  24
BRANCH   6  26
ATOM     26  O   UNL     1     475.803  39.940 461.597  1.00  0.00    -0.507 OA
ATOM     27  H   UNL     1     475.828  40.643 462.327  1.00  0.00     0.293 HD
ENDBRANCH   6  26
BRANCH   8  28
ATOM     28  O   UNL     1     476.655  35.272 462.474  1.00  0.00    -0.508 OA
ATOM     29  H   UNL     1     477.288  34.575 462.847  1.00  0.00     0.293 HD
ENDBRANCH   8  28
TORSDOF 7
ENDMDL
