MODEL 1
REMARK VINA RESULT:    -3.513      0.000      0.000
REMARK INTER + INTRA:          -3.579
REMARK INTER:                  -4.335
REMARK INTRA:                   0.756
REMARK UNBOUND:                 0.756
REMARK SMILES CC1=CC=CC(C)(C)CC1=O
REMARK SMILES IDX 1 1 2 2 3 3 10 4 11 5 9 6 4 8 5 9 6 10 7 11 8 12
REMARK H PARENT
REMARK Flexibility Score: 80.00
ROOT
ATOM      1  C   UNL     1      13.118  18.127  59.790  1.00  0.00     0.048 C 
ATOM      2  C   UNL     1      11.876  18.597  59.072  1.00  0.00    -0.008 C 
ATOM      3  C   UNL     1      10.680  18.255  59.600  1.00  0.00     0.007 C 
ENDROOT
BRANCH   2   4
ATOM      4  C   UNL     1      12.070  19.335  57.798  1.00  0.00     0.159 C 
ATOM      5  O   UNL     1      13.218  19.356  57.277  1.00  0.00    -0.295 OA
BRANCH   4   6
ATOM      6  C   UNL     1      10.973  20.075  57.097  1.00  0.00     0.091 CG0
ATOM      7  G   UNL     1       9.783  19.171  56.703  1.00  0.00     0.000 G0
ENDBRANCH   4   6
ENDBRANCH   2   4
BRANCH   3   8
ATOM      8  C   UNL     1       9.310  18.543  59.116  1.00  0.00    -0.003 C 
ATOM      9  C   UNL     1       8.906  18.916  57.895  1.00  0.00    -0.020 C 
BRANCH   9  10
ATOM     10  C   UNL     1       9.789  19.163  56.694  1.00  0.00    -0.010 CG0
ATOM     11  C   UNL     1       8.958  19.912  55.627  1.00  0.00     0.016 C 
ATOM     12  C   UNL     1      10.244  17.816  56.086  1.00  0.00     0.016 C 
ATOM     13  G   UNL     1      10.976  20.065  57.099  1.00  0.00     0.000 G0
ENDBRANCH   9  10
ENDBRANCH   3   8
TORSDOF 0
ENDMDL
MODEL 2
REMARK VINA RESULT:    -3.447      1.981      3.158
REMARK INTER + INTRA:          -3.496
REMARK INTER:                  -4.262
REMARK INTRA:                   0.766
REMARK UNBOUND:                 0.756
REMARK SMILES CC1=CC=CC(C)(C)CC1=O
REMARK SMILES IDX 1 1 2 2 3 3 10 4 11 5 9 6 4 8 5 9 6 10 7 11 8 12
REMARK H PARENT
REMARK Flexibility Score: 80.00
ROOT
ATOM      1  C   UNL     1       7.728  18.515  60.106  1.00  0.00     0.048 C 
ATOM      2  C   UNL     1       8.824  18.482  59.069  1.00  0.00    -0.008 C 
ATOM      3  C   UNL     1      10.102  18.473  59.508  1.00  0.00     0.007 C 
ENDROOT
BRANCH   2   4
ATOM      4  C   UNL     1       8.409  18.538  57.645  1.00  0.00     0.159 C 
ATOM      5  O   UNL     1       7.208  18.810  57.372  1.00  0.00    -0.295 OA
BRANCH   4   6
ATOM      6  C   UNL     1       9.340  18.274  56.502  1.00  0.00     0.091 CG0
ATOM      7  G   UNL     1      10.549  19.237  56.466  1.00  0.00     0.000 G0
ENDBRANCH   4   6
ENDBRANCH   2   4
BRANCH   3   8
ATOM      8  C   UNL     1      11.370  18.468  58.743  1.00  0.00    -0.003 C 
ATOM      9  C   UNL     1      11.586  18.799  57.463  1.00  0.00    -0.020 C 
BRANCH   9  10
ATOM     10  C   UNL     1      10.545  19.244  56.463  1.00  0.00    -0.010 CG0
ATOM     11  C   UNL     1      11.170  19.176  55.051  1.00  0.00     0.016 C 
ATOM     12  C   UNL     1      10.142  20.711  56.737  1.00  0.00     0.016 C 
ATOM     13  G   UNL     1       9.340  18.277  56.503  1.00  0.00     0.000 G0
ENDBRANCH   9  10
ENDBRANCH   3   8
TORSDOF 0
ENDMDL
MODEL 3
REMARK VINA RESULT:    -3.427      2.115      3.564
REMARK INTER + INTRA:          -3.472
REMARK INTER:                  -4.504
REMARK INTRA:                   1.032
REMARK UNBOUND:                 0.756
REMARK SMILES CC1=CC=CC(C)(C)CC1=O
REMARK SMILES IDX 1 1 2 2 3 3 10 4 11 5 9 6 4 8 5 9 6 10 7 11 8 12
REMARK H PARENT
REMARK Flexibility Score: 80.00
ROOT
ATOM      1  C   UNL     1       6.517  18.526  59.599  1.00  0.00     0.048 C 
ATOM      2  C   UNL     1       7.840  18.530  58.873  1.00  0.00    -0.008 C 
ATOM      3  C   UNL     1       7.823  18.318  57.539  1.00  0.00     0.007 C 
ENDROOT
BRANCH   2   4
ATOM      4  C   UNL     1       9.063  18.692  59.698  1.00  0.00     0.159 C 
ATOM      5  O   UNL     1       8.946  19.097  60.887  1.00  0.00    -0.295 OA
BRANCH   4   6
ATOM      6  C   UNL     1      10.445  18.413  59.192  1.00  0.00     0.091 CG0
ATOM      7  G   UNL     1      10.823  19.260  57.955  1.00  0.00     0.000 G0
ENDBRANCH   4   6
ENDBRANCH   2   4
BRANCH   3   8
ATOM      8  C   UNL     1       8.945  18.240  56.574  1.00  0.00    -0.003 C 
ATOM      9  C   UNL     1      10.220  18.616  56.730  1.00  0.00    -0.020 C 
BRANCH   9  10
ATOM     10  C   UNL     1      10.825  19.254  57.959  1.00  0.00    -0.010 CG0
ATOM     11  C   UNL     1      10.227  20.671  58.112  1.00  0.00     0.016 C 
ATOM     12  C   UNL     1      12.353  19.397  57.782  1.00  0.00     0.016 C 
ATOM     13  G   UNL     1      10.443  18.433  59.211  1.00  0.00     0.000 G0
ENDBRANCH   9  10
ENDBRANCH   3   8
TORSDOF 0
ENDMDL
MODEL 4
REMARK VINA RESULT:    -3.420      7.905      8.867
REMARK INTER + INTRA:          -3.464
REMARK INTER:                  -4.210
REMARK INTRA:                   0.746
REMARK UNBOUND:                 0.756
REMARK SMILES CC1=CC=CC(C)(C)CC1=O
REMARK SMILES IDX 1 1 2 2 3 3 10 4 11 5 9 6 4 8 5 9 6 10 7 11 8 12
REMARK H PARENT
REMARK Flexibility Score: 80.00
ROOT
ATOM      1  C   UNL     1       4.426  27.125  57.005  1.00  0.00     0.048 C 
ATOM      2  C   UNL     1       5.161  26.064  56.222  1.00  0.00    -0.008 C 
ATOM      3  C   UNL     1       6.499  26.196  56.090  1.00  0.00     0.007 C 
ENDROOT
BRANCH   2   4
ATOM      4  C   UNL     1       4.341  24.997  55.595  1.00  0.00     0.159 C 
ATOM      5  O   UNL     1       3.087  25.136  55.558  1.00  0.00    -0.295 OA
BRANCH   4   6
ATOM      6  C   UNL     1       4.919  23.746  55.009  1.00  0.00     0.091 CG0
ATOM      7  G   UNL     1       5.916  24.016  53.859  1.00  0.00     0.000 G0
ENDBRANCH   4   6
ENDBRANCH   2   4
BRANCH   3   8
ATOM      8  C   UNL     1       7.473  25.343  55.369  1.00  0.00    -0.003 C 
ATOM      9  C   UNL     1       7.251  24.427  54.418  1.00  0.00    -0.020 C 
BRANCH   9  10
ATOM     10  C   UNL     1       5.907  24.019  53.860  1.00  0.00    -0.010 CG0
ATOM     11  C   UNL     1       6.088  22.697  53.080  1.00  0.00     0.016 C 
ATOM     12  C   UNL     1       5.399  25.092  52.870  1.00  0.00     0.016 C 
ATOM     13  G   UNL     1       4.919  23.762  55.020  1.00  0.00     0.000 G0
ENDBRANCH   9  10
ENDBRANCH   3   8
TORSDOF 0
ENDMDL
MODEL 5
REMARK VINA RESULT:    -3.411     11.896     12.968
REMARK INTER + INTRA:          -3.452
REMARK INTER:                  -4.208
REMARK INTRA:                   0.756
REMARK UNBOUND:                 0.756
REMARK SMILES CC1=CC=CC(C)(C)CC1=O
REMARK SMILES IDX 1 1 2 2 3 3 10 4 11 5 9 6 4 8 5 9 6 10 7 11 8 12
REMARK H PARENT
REMARK Flexibility Score: 80.00
ROOT
ATOM      1  C   UNL     1      15.786   9.659  54.050  1.00  0.00     0.048 C 
ATOM      2  C   UNL     1      17.119  10.323  53.806  1.00  0.00    -0.008 C 
ATOM      3  C   UNL     1      17.111  11.592  53.342  1.00  0.00     0.007 C 
ENDROOT
BRANCH   2   4
ATOM      4  C   UNL     1      18.335   9.500  54.026  1.00  0.00     0.159 C 
ATOM      5  O   UNL     1      18.202   8.261  54.223  1.00  0.00    -0.295 OA
BRANCH   4   6
ATOM      6  C   UNL     1      19.723  10.063  54.040  1.00  0.00     0.091 CG0
ATOM      7  G   UNL     1      20.101  10.785  52.727  1.00  0.00     0.000 G0
ENDBRANCH   4   6
ENDBRANCH   2   4
BRANCH   3   8
ATOM      8  C   UNL     1      18.242  12.483  52.989  1.00  0.00    -0.003 C 
ATOM      9  C   UNL     1      19.513  12.165  52.716  1.00  0.00    -0.020 C 
BRANCH   9  10
ATOM     10  C   UNL     1      20.116  10.780  52.731  1.00  0.00    -0.010 CG0
ATOM     11  C   UNL     1      21.655  10.921  52.711  1.00  0.00     0.016 C 
ATOM     12  C   UNL     1      19.691  10.004  51.463  1.00  0.00     0.016 C 
ATOM     13  G   UNL     1      19.717  10.054  54.036  1.00  0.00     0.000 G0
ENDBRANCH   9  10
ENDBRANCH   3   8
TORSDOF 0
ENDMDL
MODEL 6
REMARK VINA RESULT:    -3.354      2.229      3.527
REMARK INTER + INTRA:          -3.383
REMARK INTER:                  -4.142
REMARK INTRA:                   0.759
REMARK UNBOUND:                 0.756
REMARK SMILES CC1=CC=CC(C)(C)CC1=O
REMARK SMILES IDX 1 1 2 2 3 3 10 4 11 5 9 6 4 8 5 9 6 10 7 11 8 12
REMARK H PARENT
REMARK Flexibility Score: 80.00
ROOT
ATOM      1  C   UNL     1      15.532  19.283  55.237  1.00  0.00     0.048 C 
ATOM      2  C   UNL     1      14.276  18.855  55.957  1.00  0.00    -0.008 C 
ATOM      3  C   UNL     1      13.267  18.353  55.212  1.00  0.00     0.007 C 
ENDROOT
BRANCH   2   4
ATOM      4  C   UNL     1      14.223  19.091  57.422  1.00  0.00     0.159 C 
ATOM      5  O   UNL     1      15.121  19.797  57.957  1.00  0.00    -0.295 OA
BRANCH   4   6
ATOM      6  C   UNL     1      13.161  18.523  58.312  1.00  0.00     0.091 CG0
ATOM      7  G   UNL     1      11.734  18.965  57.917  1.00  0.00     0.000 G0
ENDBRANCH   4   6
ENDBRANCH   2   4
BRANCH   3   8
ATOM      8  C   UNL     1      11.924  17.880  55.624  1.00  0.00    -0.003 C 
ATOM      9  C   UNL     1      11.252  18.129  56.755  1.00  0.00    -0.020 C 
BRANCH   9  10
ATOM     10  C   UNL     1      11.734  18.957  57.923  1.00  0.00    -0.010 CG0
ATOM     11  C   UNL     1      10.807  18.680  59.128  1.00  0.00     0.016 C 
ATOM     12  C   UNL     1      11.637  20.461  57.581  1.00  0.00     0.016 C 
ATOM     13  G   UNL     1      13.167  18.524  58.309  1.00  0.00     0.000 G0
ENDBRANCH   9  10
ENDBRANCH   3   8
TORSDOF 0
ENDMDL
MODEL 7
REMARK VINA RESULT:    -3.339      2.320      3.407
REMARK INTER + INTRA:          -3.363
REMARK INTER:                  -4.113
REMARK INTRA:                   0.750
REMARK UNBOUND:                 0.756
REMARK SMILES CC1=CC=CC(C)(C)CC1=O
REMARK SMILES IDX 1 1 2 2 3 3 10 4 11 5 9 6 4 8 5 9 6 10 7 11 8 12
REMARK H PARENT
REMARK Flexibility Score: 80.00
ROOT
ATOM      1  C   UNL     1      15.079  19.422  57.291  1.00  0.00     0.048 C 
ATOM      2  C   UNL     1      13.968  18.667  56.602  1.00  0.00    -0.008 C 
ATOM      3  C   UNL     1      14.306  17.846  55.584  1.00  0.00     0.007 C 
ENDROOT
BRANCH   2   4
ATOM      4  C   UNL     1      12.581  18.946  57.051  1.00  0.00     0.159 C 
ATOM      5  O   UNL     1      12.377  19.925  57.821  1.00  0.00    -0.295 OA
BRANCH   4   6
ATOM      6  C   UNL     1      11.400  18.117  56.651  1.00  0.00     0.091 CG0
ATOM      7  G   UNL     1      11.172  18.079  55.123  1.00  0.00     0.000 G0
ENDBRANCH   4   6
ENDBRANCH   2   4
BRANCH   3   8
ATOM      8  C   UNL     1      13.449  17.007  54.713  1.00  0.00    -0.003 C 
ATOM      9  C   UNL     1      12.131  17.091  54.494  1.00  0.00    -0.020 C 
BRANCH   9  10
ATOM     10  C   UNL     1      11.176  18.076  55.125  1.00  0.00    -0.010 CG0
ATOM     11  C   UNL     1       9.733  17.578  54.881  1.00  0.00     0.016 C 
ATOM     12  C   UNL     1      11.323  19.460  54.452  1.00  0.00     0.016 C 
ATOM     13  G   UNL     1      11.415  18.127  56.651  1.00  0.00     0.000 G0
ENDBRANCH   9  10
ENDBRANCH   3   8
TORSDOF 0
ENDMDL
MODEL 8
REMARK VINA RESULT:    -3.308      7.113      8.064
REMARK INTER + INTRA:          -3.325
REMARK INTER:                  -4.072
REMARK INTRA:                   0.747
REMARK UNBOUND:                 0.756
REMARK SMILES CC1=CC=CC(C)(C)CC1=O
REMARK SMILES IDX 1 1 2 2 3 3 10 4 11 5 9 6 4 8 5 9 6 10 7 11 8 12
REMARK H PARENT
REMARK Flexibility Score: 80.00
ROOT
ATOM      1  C   UNL     1       7.070  26.347  56.129  1.00  0.00     0.048 C 
ATOM      2  C   UNL     1       6.721  25.567  54.885  1.00  0.00    -0.008 C 
ATOM      3  C   UNL     1       5.681  26.004  54.142  1.00  0.00     0.007 C 
ENDROOT
BRANCH   2   4
ATOM      4  C   UNL     1       7.504  24.334  54.618  1.00  0.00     0.159 C 
ATOM      5  O   UNL     1       8.264  23.889  55.520  1.00  0.00    -0.295 OA
BRANCH   4   6
ATOM      6  C   UNL     1       7.453  23.587  53.320  1.00  0.00     0.091 CG0
ATOM      7  G   UNL     1       6.037  23.082  52.963  1.00  0.00     0.000 G0
ENDBRANCH   4   6
ENDBRANCH   2   4
BRANCH   3   8
ATOM      8  C   UNL     1       5.094  25.443  52.903  1.00  0.00    -0.003 C 
ATOM      9  C   UNL     1       5.220  24.212  52.391  1.00  0.00    -0.020 C 
BRANCH   9  10
ATOM     10  C   UNL     1       6.041  23.081  52.965  1.00  0.00    -0.010 CG0
ATOM     11  C   UNL     1       6.199  21.996  51.875  1.00  0.00     0.016 C 
ATOM     12  C   UNL     1       5.301  22.448  54.165  1.00  0.00     0.016 C 
ATOM     13  G   UNL     1       7.449  23.598  53.337  1.00  0.00     0.000 G0
ENDBRANCH   9  10
ENDBRANCH   3   8
TORSDOF 0
ENDMDL
MODEL 9
REMARK VINA RESULT:    -3.270      5.994      8.197
REMARK INTER + INTRA:          -3.279
REMARK INTER:                  -4.037
REMARK INTRA:                   0.758
REMARK UNBOUND:                 0.756
REMARK SMILES CC1=CC=CC(C)(C)CC1=O
REMARK SMILES IDX 1 1 2 2 3 3 10 4 11 5 9 6 4 8 5 9 6 10 7 11 8 12
REMARK H PARENT
REMARK Flexibility Score: 80.00
ROOT
ATOM      1  C   UNL     1       4.734  26.947  54.149  1.00  0.00     0.048 C 
ATOM      2  C   UNL     1       5.706  25.806  53.969  1.00  0.00    -0.008 C 
ATOM      3  C   UNL     1       5.492  24.957  52.941  1.00  0.00     0.007 C 
ENDROOT
BRANCH   2   4
ATOM      4  C   UNL     1       6.779  25.665  54.986  1.00  0.00     0.159 C 
ATOM      5  O   UNL     1       6.711  26.355  56.040  1.00  0.00    -0.295 OA
BRANCH   4   6
ATOM      6  C   UNL     1       7.956  24.753  54.825  1.00  0.00     0.091 CG0
ATOM      7  G   UNL     1       7.558  23.268  54.663  1.00  0.00     0.000 G0
ENDBRANCH   4   6
ENDBRANCH   2   4
BRANCH   3   8
ATOM      8  C   UNL     1       6.247  23.750  52.531  1.00  0.00    -0.003 C 
ATOM      9  C   UNL     1       7.116  23.016  53.239  1.00  0.00    -0.020 C 
BRANCH   9  10
ATOM     10  C   UNL     1       7.561  23.275  54.659  1.00  0.00    -0.010 CG0
ATOM     11  C   UNL     1       8.817  22.418  54.937  1.00  0.00     0.016 C 
ATOM     12  C   UNL     1       6.456  22.838  55.648  1.00  0.00     0.016 C 
ATOM     13  G   UNL     1       7.949  24.763  54.818  1.00  0.00     0.000 G0
ENDBRANCH   9  10
ENDBRANCH   3   8
TORSDOF 0
ENDMDL
