MODEL 1
REMARK VINA RESULT:    -3.113      0.000      0.000
REMARK INTER + INTRA:          -5.658
REMARK INTER:                  -4.751
REMARK INTRA:                  -0.906
REMARK UNBOUND:                -0.906
REMARK SMILES O=C([O-])CCCCCCCCC(=O)[O-]
REMARK SMILES IDX 7 1 6 2 5 3 4 4 2 5 1 6 3 7 8 8 9 9 10 10 11 11 12 12 13 13
REMARK SMILES IDX 14 14
REMARK H PARENT
REMARK Flexibility Score: inf
ROOT
ATOM      1  C   UNL     1       6.152  -8.594   5.440  1.00  0.00     0.000 C 
ENDROOT
BRANCH   1   2
ATOM      2  C   UNL     1       4.852  -8.462   6.247  1.00  0.00     0.000 C 
BRANCH   2   3
ATOM      3  C   UNL     1       4.749  -9.495   7.384  1.00  0.00     0.006 C 
BRANCH   3   4
ATOM      4  C   UNL     1       3.322 -10.000   7.653  1.00  0.00     0.053 C 
BRANCH   4   5
ATOM      5  C   UNL     1       2.828  -9.595   9.008  1.00  0.00     0.041 C 
ATOM      6  O   UNL     1       3.579  -8.955   9.790  1.00  0.00    -0.550 OA
ATOM      7  O   UNL     1       1.551  -9.954   9.419  1.00  0.00    -0.550 OA
ENDBRANCH   4   5
ENDBRANCH   3   4
ENDBRANCH   2   3
ENDBRANCH   1   2
BRANCH   1   8
ATOM      8  C   UNL     1       6.942  -9.837   5.869  1.00  0.00     0.000 C 
BRANCH   8   9
ATOM      9  C   UNL     1       8.354  -9.457   6.338  1.00  0.00     0.000 C 
BRANCH   9  10
ATOM     10  C   UNL     1       8.555  -9.676   7.847  1.00  0.00     0.006 C 
BRANCH  10  11
ATOM     11  C   UNL     1       8.876  -8.375   8.594  1.00  0.00     0.053 C 
BRANCH  11  12
ATOM     12  C   UNL     1       7.617  -7.628   8.904  1.00  0.00     0.041 C 
ATOM     13  O   UNL     1       7.252  -6.668   8.175  1.00  0.00    -0.550 OA
ATOM     14  O   UNL     1       6.820  -8.022   9.972  1.00  0.00    -0.550 OA
ENDBRANCH  11  12
ENDBRANCH  10  11
ENDBRANCH   9  10
ENDBRANCH   8   9
ENDBRANCH   1   8
TORSDOF 9
ENDMDL
MODEL 2
REMARK VINA RESULT:    -2.926      2.848      3.880
REMARK INTER + INTRA:          -5.372
REMARK INTER:                  -4.393
REMARK INTRA:                  -0.978
REMARK UNBOUND:                -0.906
REMARK SMILES O=C([O-])CCCCCCCCC(=O)[O-]
REMARK SMILES IDX 7 1 6 2 5 3 4 4 2 5 1 6 3 7 8 8 9 9 10 10 11 11 12 12 13 13
REMARK SMILES IDX 14 14
REMARK H PARENT
REMARK Flexibility Score: inf
ROOT
ATOM      1  C   UNL     1       3.769  -9.008   8.565  1.00  0.00     0.000 C 
ENDROOT
BRANCH   1   2
ATOM      2  C   UNL     1       4.232  -9.534   7.199  1.00  0.00     0.000 C 
BRANCH   2   3
ATOM      3  C   UNL     1       4.426  -8.411   6.162  1.00  0.00     0.006 C 
BRANCH   3   4
ATOM      4  C   UNL     1       5.895  -8.051   5.889  1.00  0.00     0.053 C 
BRANCH   4   5
ATOM      5  C   UNL     1       6.673  -9.218   5.364  1.00  0.00     0.041 C 
ATOM      6  O   UNL     1       7.626  -9.696   6.034  1.00  0.00    -0.550 OA
ATOM      7  O   UNL     1       6.367  -9.755   4.121  1.00  0.00    -0.550 OA
ENDBRANCH   4   5
ENDBRANCH   3   4
ENDBRANCH   2   3
ENDBRANCH   1   2
BRANCH   1   8
ATOM      8  C   UNL     1       4.930  -8.980   9.565  1.00  0.00     0.000 C 
BRANCH   8   9
ATOM      9  C   UNL     1       6.004 -10.012   9.190  1.00  0.00     0.000 C 
BRANCH   9  10
ATOM     10  C   UNL     1       7.396  -9.641   9.727  1.00  0.00     0.006 C 
BRANCH  10  11
ATOM     11  C   UNL     1       7.887  -8.284   9.205  1.00  0.00     0.053 C 
BRANCH  11  12
ATOM     12  C   UNL     1       9.359  -8.329   8.940  1.00  0.00     0.041 C 
ATOM     13  O   UNL     1      10.082  -7.333   9.205  1.00  0.00    -0.550 OA
ATOM     14  O   UNL     1       9.941  -9.489   8.445  1.00  0.00    -0.550 OA
ENDBRANCH  11  12
ENDBRANCH  10  11
ENDBRANCH   9  10
ENDBRANCH   8   9
ENDBRANCH   1   8
TORSDOF 9
ENDMDL
MODEL 3
REMARK VINA RESULT:    -2.821      1.167      4.446
REMARK INTER + INTRA:          -5.212
REMARK INTER:                  -4.286
REMARK INTRA:                  -0.926
REMARK UNBOUND:                -0.906
REMARK SMILES O=C([O-])CCCCCCCCC(=O)[O-]
REMARK SMILES IDX 7 1 6 2 5 3 4 4 2 5 1 6 3 7 8 8 9 9 10 10 11 11 12 12 13 13
REMARK SMILES IDX 14 14
REMARK H PARENT
REMARK Flexibility Score: inf
ROOT
ATOM      1  C   UNL     1       7.301 -10.125   5.102  1.00  0.00     0.000 C 
ENDROOT
BRANCH   1   2
ATOM      2  C   UNL     1       8.218  -9.280   5.998  1.00  0.00     0.000 C 
BRANCH   2   3
ATOM      3  C   UNL     1       8.682 -10.034   7.258  1.00  0.00     0.006 C 
BRANCH   3   4
ATOM      4  C   UNL     1       8.063  -9.519   8.567  1.00  0.00     0.053 C 
BRANCH   4   5
ATOM      5  C   UNL     1       8.506  -8.125   8.889  1.00  0.00     0.041 C 
ATOM      6  O   UNL     1       9.726  -7.876   9.076  1.00  0.00    -0.550 OA
ATOM      7  O   UNL     1       7.569  -7.108   9.016  1.00  0.00    -0.550 OA
ENDBRANCH   4   5
ENDBRANCH   3   4
ENDBRANCH   2   3
ENDBRANCH   1   2
BRANCH   1   8
ATOM      8  C   UNL     1       5.830  -9.943   5.495  1.00  0.00     0.000 C 
BRANCH   8   9
ATOM      9  C   UNL     1       5.491  -8.457   5.685  1.00  0.00     0.000 C 
BRANCH   9  10
ATOM     10  C   UNL     1       4.933  -8.152   7.084  1.00  0.00     0.006 C 
BRANCH  10  11
ATOM     11  C   UNL     1       4.057  -9.287   7.631  1.00  0.00     0.053 C 
BRANCH  11  12
ATOM     12  C   UNL     1       3.789  -9.083   9.089  1.00  0.00     0.041 C 
ATOM     13  O   UNL     1       2.627  -9.238   9.549  1.00  0.00    -0.550 OA
ATOM     14  O   UNL     1       4.833  -8.767   9.950  1.00  0.00    -0.550 OA
ENDBRANCH  11  12
ENDBRANCH  10  11
ENDBRANCH   9  10
ENDBRANCH   8   9
ENDBRANCH   1   8
TORSDOF 9
ENDMDL
MODEL 4
REMARK VINA RESULT:    -2.755      2.707      4.717
REMARK INTER + INTRA:          -5.110
REMARK INTER:                  -4.377
REMARK INTRA:                  -0.733
REMARK UNBOUND:                -0.906
REMARK SMILES O=C([O-])CCCCCCCCC(=O)[O-]
REMARK SMILES IDX 7 1 6 2 5 3 4 4 2 5 1 6 3 7 8 8 9 9 10 10 11 11 12 12 13 13
REMARK SMILES IDX 14 14
REMARK H PARENT
REMARK Flexibility Score: inf
ROOT
ATOM      1  C   UNL     1       4.084  -9.025   8.897  1.00  0.00     0.000 C 
ENDROOT
BRANCH   1   2
ATOM      2  C   UNL     1       4.683  -9.911  10.000  1.00  0.00     0.000 C 
BRANCH   2   3
ATOM      3  C   UNL     1       6.222  -9.956   9.959  1.00  0.00     0.006 C 
BRANCH   3   4
ATOM      4  C   UNL     1       6.872  -8.744   9.274  1.00  0.00     0.053 C 
BRANCH   4   5
ATOM      5  C   UNL     1       8.368  -8.807   9.318  1.00  0.00     0.041 C 
ATOM      6  O   UNL     1       9.035  -7.785   9.627  1.00  0.00    -0.550 OA
ATOM      7  O   UNL     1       9.024  -9.985   8.987  1.00  0.00    -0.550 OA
ENDBRANCH   4   5
ENDBRANCH   3   4
ENDBRANCH   2   3
ENDBRANCH   1   2
BRANCH   1   8
ATOM      8  C   UNL     1       3.428  -9.877   7.804  1.00  0.00     0.000 C 
BRANCH   8   9
ATOM      9  C   UNL     1       4.219  -9.790   6.490  1.00  0.00     0.000 C 
BRANCH   9  10
ATOM     10  C   UNL     1       4.516  -8.341   6.072  1.00  0.00     0.006 C 
BRANCH  10  11
ATOM     11  C   UNL     1       6.006  -8.100   5.795  1.00  0.00     0.053 C 
BRANCH  11  12
ATOM     12  C   UNL     1       6.645  -9.345   5.265  1.00  0.00     0.041 C 
ATOM     13  O   UNL     1       6.460  -9.692   4.068  1.00  0.00    -0.550 OA
ATOM     14  O   UNL     1       7.483 -10.097   6.077  1.00  0.00    -0.550 OA
ENDBRANCH  11  12
ENDBRANCH  10  11
ENDBRANCH   9  10
ENDBRANCH   8   9
ENDBRANCH   1   8
TORSDOF 9
ENDMDL
MODEL 5
REMARK VINA RESULT:    -2.754      2.371      4.375
REMARK INTER + INTRA:          -5.110
REMARK INTER:                  -4.267
REMARK INTRA:                  -0.843
REMARK UNBOUND:                -0.906
REMARK SMILES O=C([O-])CCCCCCCCC(=O)[O-]
REMARK SMILES IDX 7 1 6 2 5 3 4 4 2 5 1 6 3 7 8 8 9 9 10 10 11 11 12 12 13 13
REMARK SMILES IDX 14 14
REMARK H PARENT
REMARK Flexibility Score: inf
ROOT
ATOM      1  C   UNL     1       3.616  -9.969   8.807  1.00  0.00     0.000 C 
ENDROOT
BRANCH   1   2
ATOM      2  C   UNL     1       4.734  -8.955   9.094  1.00  0.00     0.000 C 
BRANCH   2   3
ATOM      3  C   UNL     1       5.877  -9.550   9.936  1.00  0.00     0.006 C 
BRANCH   3   4
ATOM      4  C   UNL     1       7.154  -9.860   9.140  1.00  0.00     0.053 C 
BRANCH   4   5
ATOM      5  C   UNL     1       8.081  -8.685   9.082  1.00  0.00     0.041 C 
ATOM      6  O   UNL     1       8.963  -8.617   8.185  1.00  0.00    -0.550 OA
ATOM      7  O   UNL     1       7.993  -7.681  10.038  1.00  0.00    -0.550 OA
ENDBRANCH   4   5
ENDBRANCH   3   4
ENDBRANCH   2   3
ENDBRANCH   1   2
BRANCH   1   8
ATOM      8  C   UNL     1       3.387 -10.122   7.299  1.00  0.00     0.000 C 
BRANCH   8   9
ATOM      9  C   UNL     1       4.029  -8.962   6.524  1.00  0.00     0.000 C 
BRANCH   9  10
ATOM     10  C   UNL     1       5.204  -9.416   5.643  1.00  0.00     0.006 C 
BRANCH  10  11
ATOM     11  C   UNL     1       6.409  -8.469   5.731  1.00  0.00     0.053 C 
BRANCH  11  12
ATOM     12  C   UNL     1       5.952  -7.068   5.987  1.00  0.00     0.041 C 
ATOM     13  O   UNL     1       6.193  -6.513   7.091  1.00  0.00    -0.550 OA
ATOM     14  O   UNL     1       5.301  -6.355   4.987  1.00  0.00    -0.550 OA
ENDBRANCH  11  12
ENDBRANCH  10  11
ENDBRANCH   9  10
ENDBRANCH   8   9
ENDBRANCH   1   8
TORSDOF 9
ENDMDL
MODEL 6
REMARK VINA RESULT:    -2.646      1.639      4.791
REMARK INTER + INTRA:          -4.944
REMARK INTER:                  -4.187
REMARK INTRA:                  -0.757
REMARK UNBOUND:                -0.906
REMARK SMILES O=C([O-])CCCCCCCCC(=O)[O-]
REMARK SMILES IDX 7 1 6 2 5 3 4 4 2 5 1 6 3 7 8 8 9 9 10 10 11 11 12 12 13 13
REMARK SMILES IDX 14 14
REMARK H PARENT
REMARK Flexibility Score: inf
ROOT
ATOM      1  C   UNL     1       5.865  -6.974   7.130  1.00  0.00     0.000 C 
ENDROOT
BRANCH   1   2
ATOM      2  C   UNL     1       7.207  -6.890   7.872  1.00  0.00     0.000 C 
BRANCH   2   3
ATOM      3  C   UNL     1       7.153  -7.523   9.275  1.00  0.00     0.006 C 
BRANCH   3   4
ATOM      4  C   UNL     1       8.415  -8.311   9.662  1.00  0.00     0.053 C 
BRANCH   4   5
ATOM      5  C   UNL     1       8.939  -9.130   8.523  1.00  0.00     0.041 C 
ATOM      6  O   UNL     1      10.085  -8.900   8.054  1.00  0.00    -0.550 OA
ATOM      7  O   UNL     1       8.150 -10.124   7.960  1.00  0.00    -0.550 OA
ENDBRANCH   4   5
ENDBRANCH   3   4
ENDBRANCH   2   3
ENDBRANCH   1   2
BRANCH   1   8
ATOM      8  C   UNL     1       5.767  -8.270   6.317  1.00  0.00     0.000 C 
BRANCH   8   9
ATOM      9  C   UNL     1       4.301  -8.663   6.084  1.00  0.00     0.000 C 
BRANCH   9  10
ATOM     10  C   UNL     1       3.912  -9.960   6.813  1.00  0.00     0.006 C 
BRANCH  10  11
ATOM     11  C   UNL     1       4.483 -10.031   8.235  1.00  0.00     0.053 C 
BRANCH  11  12
ATOM     12  C   UNL     1       3.518  -9.441   9.214  1.00  0.00     0.041 C 
ATOM     13  O   UNL     1       3.921  -8.639  10.098  1.00  0.00    -0.550 OA
ATOM     14  O   UNL     1       2.164  -9.739   9.122  1.00  0.00    -0.550 OA
ENDBRANCH  11  12
ENDBRANCH  10  11
ENDBRANCH   9  10
ENDBRANCH   8   9
ENDBRANCH   1   8
TORSDOF 9
ENDMDL
MODEL 7
REMARK VINA RESULT:    -2.449      1.901      2.586
REMARK INTER + INTRA:          -4.644
REMARK INTER:                  -3.827
REMARK INTRA:                  -0.817
REMARK UNBOUND:                -0.906
REMARK SMILES O=C([O-])CCCCCCCCC(=O)[O-]
REMARK SMILES IDX 7 1 6 2 5 3 4 4 2 5 1 6 3 7 8 8 9 9 10 10 11 11 12 12 13 13
REMARK SMILES IDX 14 14
REMARK H PARENT
REMARK Flexibility Score: inf
ROOT
ATOM      1  C   UNL     1       4.928  -9.812   6.356  1.00  0.00     0.000 C 
ENDROOT
BRANCH   1   2
ATOM      2  C   UNL     1       3.608  -9.618   7.115  1.00  0.00     0.000 C 
BRANCH   2   3
ATOM      3  C   UNL     1       3.692 -10.070   8.584  1.00  0.00     0.006 C 
BRANCH   3   4
ATOM      4  C   UNL     1       4.118  -8.965   9.563  1.00  0.00     0.053 C 
BRANCH   4   5
ATOM      5  C   UNL     1       5.597  -8.960   9.798  1.00  0.00     0.041 C 
ATOM      6  O   UNL     1       6.183  -7.894  10.125  1.00  0.00    -0.550 OA
ATOM      7  O   UNL     1       6.333 -10.125   9.625  1.00  0.00    -0.550 OA
ENDBRANCH   4   5
ENDBRANCH   3   4
ENDBRANCH   2   3
ENDBRANCH   1   2
BRANCH   1   8
ATOM      8  C   UNL     1       5.608  -8.466   6.081  1.00  0.00     0.000 C 
BRANCH   8   9
ATOM      9  C   UNL     1       7.081  -8.662   5.693  1.00  0.00     0.000 C 
BRANCH   9  10
ATOM     10  C   UNL     1       7.761  -9.782   6.497  1.00  0.00     0.006 C 
BRANCH  10  11
ATOM     11  C   UNL     1       9.231  -9.475   6.810  1.00  0.00     0.053 C 
BRANCH  11  12
ATOM     12  C   UNL     1       9.394  -9.125   8.256  1.00  0.00     0.041 C 
ATOM     13  O   UNL     1       9.160  -7.954   8.656  1.00  0.00    -0.550 OA
ATOM     14  O   UNL     1       9.758 -10.104   9.171  1.00  0.00    -0.550 OA
ENDBRANCH  11  12
ENDBRANCH  10  11
ENDBRANCH   9  10
ENDBRANCH   8   9
ENDBRANCH   1   8
TORSDOF 9
ENDMDL
MODEL 8
REMARK VINA RESULT:    -2.446     26.233     27.789
REMARK INTER + INTRA:          -4.639
REMARK INTER:                  -3.706
REMARK INTRA:                  -0.933
REMARK UNBOUND:                -0.906
REMARK SMILES O=C([O-])CCCCCCCCC(=O)[O-]
REMARK SMILES IDX 7 1 6 2 5 3 4 4 2 5 1 6 3 7 8 8 9 9 10 10 11 11 12 12 13 13
REMARK SMILES IDX 14 14
REMARK H PARENT
REMARK Flexibility Score: inf
ROOT
ATOM      1  C   UNL     1      -8.625   7.343  -5.199  1.00  0.00     0.000 C 
ENDROOT
BRANCH   1   2
ATOM      2  C   UNL     1      -9.735   6.679  -6.026  1.00  0.00     0.000 C 
BRANCH   2   3
ATOM      3  C   UNL     1      -9.236   6.165  -7.389  1.00  0.00     0.006 C 
BRANCH   3   4
ATOM      4  C   UNL     1      -7.801   6.590  -7.739  1.00  0.00     0.053 C 
BRANCH   4   5
ATOM      5  C   UNL     1      -7.539   6.529  -9.213  1.00  0.00     0.041 C 
ATOM      6  O   UNL     1      -6.365   6.645  -9.652  1.00  0.00    -0.550 OA
ATOM      7  O   UNL     1      -8.596   6.378 -10.102  1.00  0.00    -0.550 OA
ENDBRANCH   4   5
ENDBRANCH   3   4
ENDBRANCH   2   3
ENDBRANCH   1   2
BRANCH   1   8
ATOM      8  C   UNL     1      -8.688   8.870  -5.319  1.00  0.00     0.000 C 
BRANCH   8   9
ATOM      9  C   UNL     1     -10.100   9.333  -5.708  1.00  0.00     0.000 C 
BRANCH   9  10
ATOM     10  C   UNL     1     -10.122  10.125  -7.026  1.00  0.00     0.006 C 
BRANCH  10  11
ATOM     11  C   UNL     1      -8.773  10.091  -7.756  1.00  0.00     0.053 C 
BRANCH  11  12
ATOM     12  C   UNL     1      -8.974   9.785  -9.207  1.00  0.00     0.041 C 
ATOM     13  O   UNL     1     -10.070   9.314  -9.611  1.00  0.00    -0.550 OA
ATOM     14  O   UNL     1      -7.967  10.065 -10.122  1.00  0.00    -0.550 OA
ENDBRANCH  11  12
ENDBRANCH  10  11
ENDBRANCH   9  10
ENDBRANCH   8   9
ENDBRANCH   1   8
TORSDOF 9
ENDMDL
MODEL 9
REMARK VINA RESULT:    -2.386      1.742      3.128
REMARK INTER + INTRA:          -4.548
REMARK INTER:                  -4.015
REMARK INTRA:                  -0.534
REMARK UNBOUND:                -0.906
REMARK SMILES O=C([O-])CCCCCCCCC(=O)[O-]
REMARK SMILES IDX 7 1 6 2 5 3 4 4 2 5 1 6 3 7 8 8 9 9 10 10 11 11 12 12 13 13
REMARK SMILES IDX 14 14
REMARK H PARENT
REMARK Flexibility Score: inf
ROOT
ATOM      1  C   UNL     1       7.876  -8.997   9.011  1.00  0.00     0.000 C 
ENDROOT
BRANCH   1   2
ATOM      2  C   UNL     1       7.059  -9.668  10.125  1.00  0.00     0.000 C 
BRANCH   2   3
ATOM      3  C   UNL     1       5.667 -10.125   9.651  1.00  0.00     0.006 C 
BRANCH   3   4
ATOM      4  C   UNL     1       4.578  -9.044   9.749  1.00  0.00     0.053 C 
BRANCH   4   5
ATOM      5  C   UNL     1       3.323  -9.442   9.035  1.00  0.00     0.041 C 
ATOM      6  O   UNL     1       2.235  -9.518   9.663  1.00  0.00    -0.550 OA
ATOM      7  O   UNL     1       3.363  -9.761   7.684  1.00  0.00    -0.550 OA
ENDBRANCH   4   5
ENDBRANCH   3   4
ENDBRANCH   2   3
ENDBRANCH   1   2
BRANCH   1   8
ATOM      8  C   UNL     1       8.335 -10.027   7.971  1.00  0.00     0.000 C 
BRANCH   8   9
ATOM      9  C   UNL     1       7.975  -9.570   6.549  1.00  0.00     0.000 C 
BRANCH   9  10
ATOM     10  C   UNL     1       6.501  -9.830   6.200  1.00  0.00     0.006 C 
BRANCH  10  11
ATOM     11  C   UNL     1       5.933  -8.789   5.226  1.00  0.00     0.053 C 
BRANCH  11  12
ATOM     12  C   UNL     1       5.683  -7.495   5.933  1.00  0.00     0.041 C 
ATOM     13  O   UNL     1       5.630  -7.459   7.191  1.00  0.00    -0.550 OA
ATOM     14  O   UNL     1       5.556  -6.318   5.206  1.00  0.00    -0.550 OA
ENDBRANCH  11  12
ENDBRANCH  10  11
ENDBRANCH   9  10
ENDBRANCH   8   9
ENDBRANCH   1   8
TORSDOF 9
ENDMDL
