MODEL 1
REMARK VINA RESULT:    -3.438      0.000      0.000
REMARK INTER + INTRA:          -4.434
REMARK INTER:                  -4.242
REMARK INTRA:                  -0.191
REMARK UNBOUND:                -0.191
REMARK SMILES CCCCC=CC(C)=O
REMARK SMILES IDX 4 1 3 2 2 3 1 4 5 5 6 6 7 7 9 8 8 9
REMARK H PARENT
REMARK Flexibility Score: inf
ROOT
ATOM      1  C   UNL     1      28.902  28.449  73.829  1.00  0.00     0.027 C 
ENDROOT
BRANCH   1   2
ATOM      2  C   UNL     1      27.448  28.218  74.267  1.00  0.00     0.004 C 
BRANCH   2   3
ATOM      3  C   UNL     1      26.531  29.399  73.912  1.00  0.00    -0.003 C 
ATOM      4  C   UNL     1      27.293  30.581  73.315  1.00  0.00     0.004 C 
ENDBRANCH   2   3
ENDBRANCH   1   2
BRANCH   1   5
ATOM      5  C   UNL     1      29.860  28.125  74.940  1.00  0.00    -0.023 C 
ATOM      6  C   UNL     1      31.074  28.686  75.000  1.00  0.00     0.042 C 
BRANCH   6   7
ATOM      7  C   UNL     1      32.053  28.389  76.066  1.00  0.00     0.152 C 
ATOM      8  O   UNL     1      33.203  27.993  75.735  1.00  0.00    -0.295 OA
ATOM      9  C   UNL     1      31.729  28.541  77.521  1.00  0.00     0.093 C 
ENDBRANCH   6   7
ENDBRANCH   1   5
TORSDOF 4
ENDMDL
MODEL 2
REMARK VINA RESULT:    -3.284     18.889     19.702
REMARK INTER + INTRA:          -4.243
REMARK INTER:                  -4.103
REMARK INTRA:                  -0.141
REMARK UNBOUND:                -0.191
REMARK SMILES CCCCC=CC(C)=O
REMARK SMILES IDX 4 1 3 2 2 3 1 4 5 5 6 6 7 7 9 8 8 9
REMARK H PARENT
REMARK Flexibility Score: inf
ROOT
ATOM      1  C   UNL     1      29.845  44.353  84.215  1.00  0.00     0.027 C 
ENDROOT
BRANCH   1   2
ATOM      2  C   UNL     1      28.827  44.808  83.159  1.00  0.00     0.004 C 
BRANCH   2   3
ATOM      3  C   UNL     1      29.333  44.596  81.723  1.00  0.00    -0.003 C 
ATOM      4  C   UNL     1      29.383  45.893  80.916  1.00  0.00     0.004 C 
ENDBRANCH   2   3
ENDBRANCH   1   2
BRANCH   1   5
ATOM      5  C   UNL     1      29.296  44.519  85.603  1.00  0.00    -0.023 C 
ATOM      6  C   UNL     1      28.817  45.695  86.028  1.00  0.00     0.042 C 
BRANCH   6   7
ATOM      7  C   UNL     1      28.280  45.908  87.388  1.00  0.00     0.152 C 
ATOM      8  O   UNL     1      27.767  47.026  87.665  1.00  0.00    -0.295 OA
ATOM      9  C   UNL     1      28.322  44.847  88.445  1.00  0.00     0.093 C 
ENDBRANCH   6   7
ENDBRANCH   1   5
TORSDOF 4
ENDMDL
MODEL 3
REMARK VINA RESULT:    -3.230     18.433     19.478
REMARK INTER + INTRA:          -4.177
REMARK INTER:                  -4.036
REMARK INTRA:                  -0.141
REMARK UNBOUND:                -0.191
REMARK SMILES CCCCC=CC(C)=O
REMARK SMILES IDX 4 1 3 2 2 3 1 4 5 5 6 6 7 7 9 8 8 9
REMARK H PARENT
REMARK Flexibility Score: inf
ROOT
ATOM      1  C   UNL     1      29.468  44.005  85.985  1.00  0.00     0.027 C 
ENDROOT
BRANCH   1   2
ATOM      2  C   UNL     1      28.640  45.095  86.682  1.00  0.00     0.004 C 
BRANCH   2   3
ATOM      3  C   UNL     1      28.369  44.773  88.160  1.00  0.00    -0.003 C 
ATOM      4  C   UNL     1      26.881  44.607  88.467  1.00  0.00     0.004 C 
ENDBRANCH   2   3
ENDBRANCH   1   2
BRANCH   1   5
ATOM      5  C   UNL     1      29.773  44.384  84.564  1.00  0.00    -0.023 C 
ATOM      6  C   UNL     1      28.864  44.992  83.792  1.00  0.00     0.042 C 
BRANCH   6   7
ATOM      7  C   UNL     1      29.114  45.371  82.387  1.00  0.00     0.152 C 
ATOM      8  O   UNL     1      29.301  46.587  82.114  1.00  0.00    -0.295 OA
ATOM      9  C   UNL     1      29.155  44.364  81.277  1.00  0.00     0.093 C 
ENDBRANCH   6   7
ENDBRANCH   1   5
TORSDOF 4
ENDMDL
MODEL 4
REMARK VINA RESULT:    -3.165     17.242     18.372
REMARK INTER + INTRA:          -4.096
REMARK INTER:                  -3.874
REMARK INTRA:                  -0.222
REMARK UNBOUND:                -0.191
REMARK SMILES CCCCC=CC(C)=O
REMARK SMILES IDX 4 1 3 2 2 3 1 4 5 5 6 6 7 7 9 8 8 9
REMARK H PARENT
REMARK Flexibility Score: inf
ROOT
ATOM      1  C   UNL     1      29.401  45.666  84.084  1.00  0.00     0.027 C 
ENDROOT
BRANCH   1   2
ATOM      2  C   UNL     1      30.024  44.356  84.589  1.00  0.00     0.004 C 
BRANCH   2   3
ATOM      3  C   UNL     1      29.538  43.976  85.996  1.00  0.00    -0.003 C 
ATOM      4  C   UNL     1      28.698  45.073  86.649  1.00  0.00     0.004 C 
ENDBRANCH   2   3
ENDBRANCH   1   2
BRANCH   1   5
ATOM      5  C   UNL     1      28.992  45.552  82.643  1.00  0.00    -0.023 C 
ATOM      6  C   UNL     1      29.204  44.430  81.945  1.00  0.00     0.042 C 
BRANCH   6   7
ATOM      7  C   UNL     1      28.831  44.276  80.523  1.00  0.00     0.152 C 
ATOM      8  O   UNL     1      29.562  44.810  79.647  1.00  0.00    -0.295 OA
ATOM      9  C   UNL     1      27.620  43.508  80.088  1.00  0.00     0.093 C 
ENDBRANCH   6   7
ENDBRANCH   1   5
TORSDOF 4
ENDMDL
MODEL 5
REMARK VINA RESULT:    -3.132     17.323     18.134
REMARK INTER + INTRA:          -4.055
REMARK INTER:                  -3.833
REMARK INTRA:                  -0.223
REMARK UNBOUND:                -0.191
REMARK SMILES CCCCC=CC(C)=O
REMARK SMILES IDX 4 1 3 2 2 3 1 4 5 5 6 6 7 7 9 8 8 9
REMARK H PARENT
REMARK Flexibility Score: inf
ROOT
ATOM      1  C   UNL     1      28.829  44.255  80.528  1.00  0.00     0.027 C 
ENDROOT
BRANCH   1   2
ATOM      2  C   UNL     1      28.794  45.606  79.799  1.00  0.00     0.004 C 
BRANCH   2   3
ATOM      3  C   UNL     1      30.198  46.132  79.463  1.00  0.00    -0.003 C 
ATOM      4  C   UNL     1      30.881  45.330  78.356  1.00  0.00     0.004 C 
ENDBRANCH   2   3
ENDBRANCH   1   2
BRANCH   1   5
ATOM      5  C   UNL     1      29.429  44.394  81.898  1.00  0.00    -0.023 C 
ATOM      6  C   UNL     1      28.849  45.146  82.841  1.00  0.00     0.042 C 
BRANCH   6   7
ATOM      7  C   UNL     1      29.409  45.323  84.197  1.00  0.00     0.152 C 
ATOM      8  O   UNL     1      29.529  46.492  84.652  1.00  0.00    -0.295 OA
ATOM      9  C   UNL     1      29.838  44.166  85.047  1.00  0.00     0.093 C 
ENDBRANCH   6   7
ENDBRANCH   1   5
TORSDOF 4
ENDMDL
MODEL 6
REMARK VINA RESULT:    -3.070     16.771     17.540
REMARK INTER + INTRA:          -3.979
REMARK INTER:                  -3.863
REMARK INTRA:                  -0.116
REMARK UNBOUND:                -0.191
REMARK SMILES CCCCC=CC(C)=O
REMARK SMILES IDX 4 1 3 2 2 3 1 4 5 5 6 6 7 7 9 8 8 9
REMARK H PARENT
REMARK Flexibility Score: inf
ROOT
ATOM      1  C   UNL     1      29.259  44.792  81.260  1.00  0.00     0.027 C 
ENDROOT
BRANCH   1   2
ATOM      2  C   UNL     1      28.430  43.682  80.597  1.00  0.00     0.004 C 
BRANCH   2   3
ATOM      3  C   UNL     1      27.277  44.235  79.746  1.00  0.00    -0.003 C 
ATOM      4  C   UNL     1      26.410  43.135  79.136  1.00  0.00     0.004 C 
ENDBRANCH   2   3
ENDBRANCH   1   2
BRANCH   1   5
ATOM      5  C   UNL     1      29.665  44.405  82.654  1.00  0.00    -0.023 C 
ATOM      6  C   UNL     1      28.983  44.831  83.724  1.00  0.00     0.042 C 
BRANCH   6   7
ATOM      7  C   UNL     1      29.353  44.487  85.112  1.00  0.00     0.152 C 
ATOM      8  O   UNL     1      30.329  43.713  85.302  1.00  0.00    -0.295 OA
ATOM      9  C   UNL     1      28.611  45.024  86.298  1.00  0.00     0.093 C 
ENDBRANCH   6   7
ENDBRANCH   1   5
TORSDOF 4
ENDMDL
MODEL 7
REMARK VINA RESULT:    -3.041      3.258      5.215
REMARK INTER + INTRA:          -3.943
REMARK INTER:                  -3.731
REMARK INTRA:                  -0.212
REMARK UNBOUND:                -0.191
REMARK SMILES CCCCC=CC(C)=O
REMARK SMILES IDX 4 1 3 2 2 3 1 4 5 5 6 6 7 7 9 8 8 9
REMARK H PARENT
REMARK Flexibility Score: inf
ROOT
ATOM      1  C   UNL     1      27.947  28.784  73.893  1.00  0.00     0.027 C 
ENDROOT
BRANCH   1   2
ATOM      2  C   UNL     1      29.186  27.880  73.976  1.00  0.00     0.004 C 
BRANCH   2   3
ATOM      3  C   UNL     1      30.002  28.116  75.256  1.00  0.00    -0.003 C 
ATOM      4  C   UNL     1      31.279  28.917  75.005  1.00  0.00     0.004 C 
ENDBRANCH   2   3
ENDBRANCH   1   2
BRANCH   1   5
ATOM      5  C   UNL     1      28.254  30.057  73.156  1.00  0.00    -0.023 C 
ATOM      6  C   UNL     1      27.634  31.204  73.457  1.00  0.00     0.042 C 
BRANCH   6   7
ATOM      7  C   UNL     1      27.893  32.476  72.751  1.00  0.00     0.152 C 
ATOM      8  O   UNL     1      26.913  33.124  72.296  1.00  0.00    -0.295 OA
ATOM      9  C   UNL     1      29.276  33.022  72.560  1.00  0.00     0.093 C 
ENDBRANCH   6   7
ENDBRANCH   1   5
TORSDOF 4
ENDMDL
MODEL 8
REMARK VINA RESULT:    -3.036     14.945     15.767
REMARK INTER + INTRA:          -3.937
REMARK INTER:                  -3.762
REMARK INTRA:                  -0.175
REMARK UNBOUND:                -0.191
REMARK SMILES CCCCC=CC(C)=O
REMARK SMILES IDX 4 1 3 2 2 3 1 4 5 5 6 6 7 7 9 8 8 9
REMARK H PARENT
REMARK Flexibility Score: inf
ROOT
ATOM      1  C   UNL     1      22.280  34.025  88.809  1.00  0.00     0.027 C 
ENDROOT
BRANCH   1   2
ATOM      2  C   UNL     1      22.172  34.239  87.292  1.00  0.00     0.004 C 
BRANCH   2   3
ATOM      3  C   UNL     1      23.382  34.991  86.716  1.00  0.00    -0.003 C 
ATOM      4  C   UNL     1      23.399  35.001  85.188  1.00  0.00     0.004 C 
ENDBRANCH   2   3
ENDBRANCH   1   2
BRANCH   1   5
ATOM      5  C   UNL     1      22.959  32.723  89.125  1.00  0.00    -0.023 C 
ATOM      6  C   UNL     1      24.060  32.676  89.886  1.00  0.00     0.042 C 
BRANCH   6   7
ATOM      7  C   UNL     1      24.768  31.421  90.213  1.00  0.00     0.152 C 
ATOM      8  O   UNL     1      25.638  31.439  91.124  1.00  0.00    -0.295 OA
ATOM      9  C   UNL     1      24.490  30.132  89.500  1.00  0.00     0.093 C 
ENDBRANCH   6   7
ENDBRANCH   1   5
TORSDOF 4
ENDMDL
MODEL 9
REMARK VINA RESULT:    -3.026     15.067     15.788
REMARK INTER + INTRA:          -3.925
REMARK INTER:                  -3.645
REMARK INTRA:                  -0.280
REMARK UNBOUND:                -0.191
REMARK SMILES CCCCC=CC(C)=O
REMARK SMILES IDX 4 1 3 2 2 3 1 4 5 5 6 6 7 7 9 8 8 9
REMARK H PARENT
REMARK Flexibility Score: inf
ROOT
ATOM      1  C   UNL     1      23.241  36.276  86.353  1.00  0.00     0.027 C 
ENDROOT
BRANCH   1   2
ATOM      2  C   UNL     1      23.460  35.029  85.483  1.00  0.00     0.004 C 
BRANCH   2   3
ATOM      3  C   UNL     1      22.238  34.696  84.613  1.00  0.00    -0.003 C 
ATOM      4  C   UNL     1      20.935  34.660  85.410  1.00  0.00     0.004 C 
ENDBRANCH   2   3
ENDBRANCH   1   2
BRANCH   1   5
ATOM      5  C   UNL     1      23.717  36.046  87.759  1.00  0.00    -0.023 C 
ATOM      6  C   UNL     1      23.461  34.901  88.404  1.00  0.00     0.042 C 
BRANCH   6   7
ATOM      7  C   UNL     1      23.897  34.635  89.790  1.00  0.00     0.152 C 
ATOM      8  O   UNL     1      24.399  33.511  90.059  1.00  0.00    -0.295 OA
ATOM      9  C   UNL     1      23.764  35.652  90.884  1.00  0.00     0.093 C 
ENDBRANCH   6   7
ENDBRANCH   1   5
TORSDOF 4
ENDMDL
