MODEL 1
REMARK VINA RESULT:    -2.382      0.000      0.000
REMARK INTER + INTRA:          -5.542
REMARK INTER:                  -4.470
REMARK INTRA:                  -1.072
REMARK UNBOUND:                -1.072
REMARK SMILES CCCCCC=CCC=CCCCCCCCC(=O)OC
REMARK SMILES IDX 11 1 10 2 9 3 8 4 7 5 6 6 5 7 4 8 3 9 2 10 1 11 12 12 13 13
REMARK SMILES IDX 14 14 15 15 16 16 17 17 18 18 19 19 20 20 21 21
REMARK H PARENT
REMARK Flexibility Score: inf
ROOT
ATOM      1  C   UNL     1     -14.597 -13.798  18.976  1.00  0.00     0.027 C 
ENDROOT
BRANCH   1   2
ATOM      2  C   UNL     1     -15.121 -13.350  20.320  1.00  0.00    -0.031 C 
ATOM      3  C   UNL     1     -14.385 -13.262  21.443  1.00  0.00    -0.027 C 
BRANCH   3   4
ATOM      4  C   UNL     1     -12.909 -13.554  21.529  1.00  0.00     0.054 C 
BRANCH   4   5
ATOM      5  C   UNL     1     -12.248 -13.419  20.184  1.00  0.00    -0.027 C 
ATOM      6  C   UNL     1     -11.032 -12.870  20.055  1.00  0.00    -0.031 C 
BRANCH   6   7
ATOM      7  C   UNL     1     -10.369 -12.726  18.712  1.00  0.00     0.027 C 
BRANCH   7   8
ATOM      8  C   UNL     1     -11.339 -12.984  17.548  1.00  0.00     0.004 C 
BRANCH   8   9
ATOM      9  C   UNL     1     -12.247 -11.773  17.277  1.00  0.00     0.000 C 
BRANCH   9  10
ATOM     10  C   UNL     1     -11.536 -10.435  17.528  1.00  0.00    -0.003 C 
ATOM     11  C   UNL     1     -11.373  -9.603  16.254  1.00  0.00     0.004 C 
ENDBRANCH   9  10
ENDBRANCH   8   9
ENDBRANCH   7   8
ENDBRANCH   6   7
ENDBRANCH   4   5
ENDBRANCH   3   4
ENDBRANCH   1   2
BRANCH   1  12
ATOM     12  C   UNL     1     -14.899 -15.280  18.729  1.00  0.00     0.004 C 
BRANCH  12  13
ATOM     13  C   UNL     1     -13.619 -16.136  18.713  1.00  0.00     0.000 C 
BRANCH  13  14
ATOM     14  C   UNL     1     -13.363 -16.833  20.058  1.00  0.00     0.000 C 
BRANCH  14  15
ATOM     15  C   UNL     1     -14.465 -17.844  20.417  1.00  0.00     0.001 C 
BRANCH  15  16
ATOM     16  C   UNL     1     -15.120 -17.555  21.780  1.00  0.00     0.012 C 
BRANCH  16  17
ATOM     17  C   UNL     1     -14.281 -16.662  22.709  1.00  0.00     0.123 C 
BRANCH  17  18
ATOM     18  C   UNL     1     -14.782 -16.692  24.121  1.00  0.00     0.305 C 
ATOM     19  O   UNL     1     -14.864 -17.791  24.735  1.00  0.00    -0.252 OA
BRANCH  18  20
ATOM     20  O   UNL     1     -15.122 -15.492  24.754  1.00  0.00    -0.469 OA
ATOM     21  C   UNL     1     -14.156 -14.503  25.093  1.00  0.00     0.282 C 
ENDBRANCH  18  20
ENDBRANCH  17  18
ENDBRANCH  16  17
ENDBRANCH  15  16
ENDBRANCH  14  15
ENDBRANCH  13  14
ENDBRANCH  12  13
ENDBRANCH   1  12
TORSDOF 15
ENDMDL
MODEL 2
REMARK VINA RESULT:    -2.032      3.227      6.718
REMARK INTER + INTRA:          -4.886
REMARK INTER:                  -4.146
REMARK INTRA:                  -0.740
REMARK UNBOUND:                -1.072
REMARK SMILES CCCCCC=CCC=CCCCCCCCC(=O)OC
REMARK SMILES IDX 11 1 10 2 9 3 8 4 7 5 6 6 5 7 4 8 3 9 2 10 1 11 12 12 13 13
REMARK SMILES IDX 14 14 15 15 16 16 17 17 18 18 19 19 20 20 21 21
REMARK H PARENT
REMARK Flexibility Score: inf
ROOT
ATOM      1  C   UNL     1     -14.930 -14.703  19.533  1.00  0.00     0.027 C 
ENDROOT
BRANCH   1   2
ATOM      2  C   UNL     1     -15.074 -13.599  18.513  1.00  0.00    -0.031 C 
ATOM      3  C   UNL     1     -14.983 -12.283  18.783  1.00  0.00    -0.027 C 
BRANCH   3   4
ATOM      4  C   UNL     1     -14.678 -11.704  20.141  1.00  0.00     0.054 C 
BRANCH   4   5
ATOM      5  C   UNL     1     -15.123 -12.630  21.240  1.00  0.00    -0.027 C 
ATOM      6  C   UNL     1     -14.667 -12.496  22.494  1.00  0.00    -0.031 C 
BRANCH   6   7
ATOM      7  C   UNL     1     -15.103 -13.423  23.596  1.00  0.00     0.027 C 
BRANCH   7   8
ATOM      8  C   UNL     1     -14.004 -14.421  23.992  1.00  0.00     0.004 C 
BRANCH   8   9
ATOM      9  C   UNL     1     -13.931 -15.612  23.023  1.00  0.00     0.000 C 
BRANCH   9  10
ATOM     10  C   UNL     1     -14.504 -16.902  23.629  1.00  0.00    -0.003 C 
ATOM     11  C   UNL     1     -14.881 -16.746  25.104  1.00  0.00     0.004 C 
ENDBRANCH   9  10
ENDBRANCH   8   9
ENDBRANCH   7   8
ENDBRANCH   6   7
ENDBRANCH   4   5
ENDBRANCH   3   4
ENDBRANCH   1   2
BRANCH   1  12
ATOM     12  C   UNL     1     -14.035 -15.831  19.007  1.00  0.00     0.004 C 
BRANCH  12  13
ATOM     13  C   UNL     1     -12.592 -15.716  19.533  1.00  0.00     0.000 C 
BRANCH  13  14
ATOM     14  C   UNL     1     -12.309 -14.350  20.178  1.00  0.00     0.000 C 
BRANCH  14  15
ATOM     15  C   UNL     1     -10.831 -13.940  20.061  1.00  0.00     0.001 C 
BRANCH  15  16
ATOM     16  C   UNL     1     -10.650 -12.510  19.519  1.00  0.00     0.012 C 
BRANCH  16  17
ATOM     17  C   UNL     1     -11.820 -12.004  18.661  1.00  0.00     0.123 C 
BRANCH  17  18
ATOM     18  C   UNL     1     -11.484 -11.994  17.201  1.00  0.00     0.305 C 
ATOM     19  O   UNL     1     -11.038 -13.039  16.653  1.00  0.00    -0.252 OA
BRANCH  18  20
ATOM     20  O   UNL     1     -11.702 -10.831  16.455  1.00  0.00    -0.469 OA
ATOM     21  C   UNL     1     -11.260  -9.549  16.888  1.00  0.00     0.282 C 
ENDBRANCH  18  20
ENDBRANCH  17  18
ENDBRANCH  16  17
ENDBRANCH  15  16
ENDBRANCH  14  15
ENDBRANCH  13  14
ENDBRANCH  12  13
ENDBRANCH   1  12
TORSDOF 15
ENDMDL
MODEL 3
REMARK VINA RESULT:    -1.953      1.579      5.623
REMARK INTER + INTRA:          -4.737
REMARK INTER:                  -4.804
REMARK INTRA:                   0.067
REMARK UNBOUND:                -1.072
REMARK SMILES CCCCCC=CCC=CCCCCCCCC(=O)OC
REMARK SMILES IDX 11 1 10 2 9 3 8 4 7 5 6 6 5 7 4 8 3 9 2 10 1 11 12 12 13 13
REMARK SMILES IDX 14 14 15 15 16 16 17 17 18 18 19 19 20 20 21 21
REMARK H PARENT
REMARK Flexibility Score: inf
ROOT
ATOM      1  C   UNL     1     -11.727 -11.844  18.337  1.00  0.00     0.027 C 
ENDROOT
BRANCH   1   2
ATOM      2  C   UNL     1     -11.114 -12.752  19.377  1.00  0.00    -0.031 C 
ATOM      3  C   UNL     1     -11.531 -14.003  19.650  1.00  0.00    -0.027 C 
BRANCH   3   4
ATOM      4  C   UNL     1     -12.647 -14.713  18.929  1.00  0.00     0.054 C 
BRANCH   4   5
ATOM      5  C   UNL     1     -12.852 -16.099  19.474  1.00  0.00    -0.027 C 
ATOM      6  C   UNL     1     -14.065 -16.670  19.496  1.00  0.00    -0.031 C 
BRANCH   6   7
ATOM      7  C   UNL     1     -14.278 -18.054  20.046  1.00  0.00     0.027 C 
BRANCH   7   8
ATOM      8  C   UNL     1     -15.121 -18.052  21.331  1.00  0.00     0.004 C 
BRANCH   8   9
ATOM      9  C   UNL     1     -14.593 -17.044  22.364  1.00  0.00     0.000 C 
BRANCH   9  10
ATOM     10  C   UNL     1     -14.021 -17.727  23.615  1.00  0.00    -0.003 C 
ATOM     11  C   UNL     1     -15.063 -17.910  24.720  1.00  0.00     0.004 C 
ENDBRANCH   9  10
ENDBRANCH   8   9
ENDBRANCH   7   8
ENDBRANCH   6   7
ENDBRANCH   4   5
ENDBRANCH   3   4
ENDBRANCH   1   2
BRANCH   1  12
ATOM     12  C   UNL     1     -13.104 -12.354  17.897  1.00  0.00     0.004 C 
BRANCH  12  13
ATOM     13  C   UNL     1     -14.195 -11.280  18.057  1.00  0.00     0.000 C 
BRANCH  13  14
ATOM     14  C   UNL     1     -14.788 -11.251  19.475  1.00  0.00     0.000 C 
BRANCH  14  15
ATOM     15  C   UNL     1     -14.448 -12.517  20.280  1.00  0.00     0.001 C 
BRANCH  15  16
ATOM     16  C   UNL     1     -15.007 -12.481  21.714  1.00  0.00     0.012 C 
BRANCH  16  17
ATOM     17  C   UNL     1     -15.104 -13.858  22.392  1.00  0.00     0.123 C 
BRANCH  17  18
ATOM     18  C   UNL     1     -14.288 -13.925  23.647  1.00  0.00     0.305 C 
ATOM     19  O   UNL     1     -14.837 -14.254  24.735  1.00  0.00    -0.252 OA
BRANCH  18  20
ATOM     20  O   UNL     1     -12.918 -13.654  23.590  1.00  0.00    -0.469 OA
ATOM     21  C   UNL     1     -11.987 -14.534  22.970  1.00  0.00     0.282 C 
ENDBRANCH  18  20
ENDBRANCH  17  18
ENDBRANCH  16  17
ENDBRANCH  15  16
ENDBRANCH  14  15
ENDBRANCH  13  14
ENDBRANCH  12  13
ENDBRANCH   1  12
TORSDOF 15
ENDMDL
MODEL 4
REMARK VINA RESULT:    -1.885      3.040      6.651
REMARK INTER + INTRA:          -4.609
REMARK INTER:                  -3.614
REMARK INTRA:                  -0.995
REMARK UNBOUND:                -1.072
REMARK SMILES CCCCCC=CCC=CCCCCCCCC(=O)OC
REMARK SMILES IDX 11 1 10 2 9 3 8 4 7 5 6 6 5 7 4 8 3 9 2 10 1 11 12 12 13 13
REMARK SMILES IDX 14 14 15 15 16 16 17 17 18 18 19 19 20 20 21 21
REMARK H PARENT
REMARK Flexibility Score: inf
ROOT
ATOM      1  C   UNL     1     -13.171 -12.748  22.000  1.00  0.00     0.027 C 
ENDROOT
BRANCH   1   2
ATOM      2  C   UNL     1     -14.627 -12.705  22.401  1.00  0.00    -0.031 C 
ATOM      3  C   UNL     1     -15.101 -13.028  23.619  1.00  0.00    -0.027 C 
BRANCH   3   4
ATOM      4  C   UNL     1     -14.249 -13.441  24.791  1.00  0.00     0.054 C 
BRANCH   4   5
ATOM      5  C   UNL     1     -14.375 -14.914  25.064  1.00  0.00    -0.027 C 
ATOM      6  C   UNL     1     -14.332 -15.816  24.072  1.00  0.00    -0.031 C 
BRANCH   6   7
ATOM      7  C   UNL     1     -14.464 -17.291  24.338  1.00  0.00     0.027 C 
BRANCH   7   8
ATOM      8  C   UNL     1     -15.114 -18.042  23.165  1.00  0.00     0.004 C 
BRANCH   8   9
ATOM      9  C   UNL     1     -15.125 -17.201  21.878  1.00  0.00     0.000 C 
BRANCH   9  10
ATOM     10  C   UNL     1     -13.959 -17.543  20.939  1.00  0.00    -0.003 C 
ATOM     11  C   UNL     1     -14.426 -18.061  19.578  1.00  0.00     0.004 C 
ENDBRANCH   9  10
ENDBRANCH   8   9
ENDBRANCH   7   8
ENDBRANCH   6   7
ENDBRANCH   4   5
ENDBRANCH   3   4
ENDBRANCH   1   2
BRANCH   1  12
ATOM     12  C   UNL     1     -12.728 -14.178  21.672  1.00  0.00     0.004 C 
BRANCH  12  13
ATOM     13  C   UNL     1     -12.065 -14.274  20.286  1.00  0.00     0.000 C 
BRANCH  13  14
ATOM     14  C   UNL     1     -13.072 -14.611  19.175  1.00  0.00     0.000 C 
BRANCH  14  15
ATOM     15  C   UNL     1     -14.420 -13.894  19.366  1.00  0.00     0.001 C 
BRANCH  15  16
ATOM     16  C   UNL     1     -14.581 -12.670  18.446  1.00  0.00     0.012 C 
BRANCH  16  17
ATOM     17  C   UNL     1     -13.536 -11.565  18.673  1.00  0.00     0.123 C 
BRANCH  17  18
ATOM     18  C   UNL     1     -12.482 -11.560  17.608  1.00  0.00     0.305 C 
ATOM     19  O   UNL     1     -12.168 -10.478  17.041  1.00  0.00    -0.252 OA
BRANCH  18  20
ATOM     20  O   UNL     1     -11.834 -12.755  17.278  1.00  0.00    -0.469 OA
ATOM     21  C   UNL     1     -10.421 -12.905  17.347  1.00  0.00     0.282 C 
ENDBRANCH  18  20
ENDBRANCH  17  18
ENDBRANCH  16  17
ENDBRANCH  15  16
ENDBRANCH  14  15
ENDBRANCH  13  14
ENDBRANCH  12  13
ENDBRANCH   1  12
TORSDOF 15
ENDMDL
MODEL 5
REMARK VINA RESULT:    -1.650      1.178      2.329
REMARK INTER + INTRA:          -4.168
REMARK INTER:                  -4.323
REMARK INTRA:                   0.155
REMARK UNBOUND:                -1.072
REMARK SMILES CCCCCC=CCC=CCCCCCCCC(=O)OC
REMARK SMILES IDX 11 1 10 2 9 3 8 4 7 5 6 6 5 7 4 8 3 9 2 10 1 11 12 12 13 13
REMARK SMILES IDX 14 14 15 15 16 16 17 17 18 18 19 19 20 20 21 21
REMARK H PARENT
REMARK Flexibility Score: inf
ROOT
ATOM      1  C   UNL     1     -11.786 -13.412  20.476  1.00  0.00     0.027 C 
ENDROOT
BRANCH   1   2
ATOM      2  C   UNL     1     -12.097 -14.093  21.788  1.00  0.00    -0.031 C 
ATOM      3  C   UNL     1     -13.152 -13.808  22.573  1.00  0.00    -0.027 C 
BRANCH   3   4
ATOM      4  C   UNL     1     -14.218 -12.794  22.246  1.00  0.00     0.054 C 
BRANCH   4   5
ATOM      5  C   UNL     1     -14.578 -12.835  20.786  1.00  0.00    -0.027 C 
ATOM      6  C   UNL     1     -14.757 -11.711  20.078  1.00  0.00    -0.031 C 
BRANCH   6   7
ATOM      7  C   UNL     1     -15.125 -11.745  18.620  1.00  0.00     0.027 C 
BRANCH   7   8
ATOM      8  C   UNL     1     -13.898 -11.907  17.710  1.00  0.00     0.004 C 
BRANCH   8   9
ATOM      9  C   UNL     1     -12.626 -11.324  18.348  1.00  0.00     0.000 C 
BRANCH   9  10
ATOM     10  C   UNL     1     -11.475 -11.178  17.343  1.00  0.00    -0.003 C 
ATOM     11  C   UNL     1     -11.053 -12.513  16.727  1.00  0.00     0.004 C 
ENDBRANCH   9  10
ENDBRANCH   8   9
ENDBRANCH   7   8
ENDBRANCH   6   7
ENDBRANCH   4   5
ENDBRANCH   3   4
ENDBRANCH   1   2
BRANCH   1  12
ATOM     12  C   UNL     1     -11.893 -14.392  19.303  1.00  0.00     0.004 C 
BRANCH  12  13
ATOM     13  C   UNL     1     -12.385 -15.780  19.752  1.00  0.00     0.000 C 
BRANCH  13  14
ATOM     14  C   UNL     1     -13.782 -16.113  19.205  1.00  0.00     0.000 C 
BRANCH  14  15
ATOM     15  C   UNL     1     -14.360 -17.402  19.815  1.00  0.00     0.001 C 
BRANCH  15  16
ATOM     16  C   UNL     1     -15.124 -17.151  21.128  1.00  0.00     0.012 C 
BRANCH  16  17
ATOM     17  C   UNL     1     -14.769 -18.124  22.264  1.00  0.00     0.123 C 
BRANCH  17  18
ATOM     18  C   UNL     1     -14.488 -17.408  23.550  1.00  0.00     0.305 C 
ATOM     19  O   UNL     1     -13.967 -18.032  24.515  1.00  0.00    -0.252 OA
BRANCH  18  20
ATOM     20  O   UNL     1     -14.779 -16.044  23.653  1.00  0.00    -0.469 OA
ATOM     21  C   UNL     1     -14.439 -15.272  24.799  1.00  0.00     0.282 C 
ENDBRANCH  18  20
ENDBRANCH  17  18
ENDBRANCH  16  17
ENDBRANCH  15  16
ENDBRANCH  14  15
ENDBRANCH  13  14
ENDBRANCH  12  13
ENDBRANCH   1  12
TORSDOF 15
ENDMDL
MODEL 6
REMARK VINA RESULT:    -1.499      3.012      6.839
REMARK INTER + INTRA:          -3.886
REMARK INTER:                  -4.396
REMARK INTRA:                   0.510
REMARK UNBOUND:                -1.072
REMARK SMILES CCCCCC=CCC=CCCCCCCCC(=O)OC
REMARK SMILES IDX 11 1 10 2 9 3 8 4 7 5 6 6 5 7 4 8 3 9 2 10 1 11 12 12 13 13
REMARK SMILES IDX 14 14 15 15 16 16 17 17 18 18 19 19 20 20 21 21
REMARK H PARENT
REMARK Flexibility Score: inf
ROOT
ATOM      1  C   UNL     1     -13.907 -14.709  18.857  1.00  0.00     0.027 C 
ENDROOT
BRANCH   1   2
ATOM      2  C   UNL     1     -12.900 -15.688  19.413  1.00  0.00    -0.031 C 
ATOM      3  C   UNL     1     -13.199 -16.905  19.903  1.00  0.00    -0.027 C 
BRANCH   3   4
ATOM      4  C   UNL     1     -14.582 -17.504  19.934  1.00  0.00     0.054 C 
BRANCH   4   5
ATOM      5  C   UNL     1     -14.881 -18.116  21.274  1.00  0.00    -0.027 C 
ATOM      6  C   UNL     1     -14.617 -17.464  22.416  1.00  0.00    -0.031 C 
BRANCH   6   7
ATOM      7  C   UNL     1     -14.907 -18.074  23.760  1.00  0.00     0.027 C 
BRANCH   7   8
ATOM      8  C   UNL     1     -15.124 -17.014  24.851  1.00  0.00     0.004 C 
BRANCH   8   9
ATOM      9  C   UNL     1     -14.002 -15.963  24.864  1.00  0.00     0.000 C 
BRANCH   9  10
ATOM     10  C   UNL     1     -14.312 -14.758  23.963  1.00  0.00    -0.003 C 
ATOM     11  C   UNL     1     -13.124 -13.806  23.818  1.00  0.00     0.004 C 
ENDBRANCH   9  10
ENDBRANCH   8   9
ENDBRANCH   7   8
ENDBRANCH   6   7
ENDBRANCH   4   5
ENDBRANCH   3   4
ENDBRANCH   1   2
BRANCH   1  12
ATOM     12  C   UNL     1     -15.076 -14.504  19.826  1.00  0.00     0.004 C 
BRANCH  12  13
ATOM     13  C   UNL     1     -14.748 -13.467  20.916  1.00  0.00     0.000 C 
BRANCH  13  14
ATOM     14  C   UNL     1     -14.320 -12.113  20.329  1.00  0.00     0.000 C 
BRANCH  14  15
ATOM     15  C   UNL     1     -15.058 -11.779  19.021  1.00  0.00     0.001 C 
BRANCH  15  16
ATOM     16  C   UNL     1     -14.100 -11.554  17.836  1.00  0.00     0.012 C 
BRANCH  16  17
ATOM     17  C   UNL     1     -12.828 -12.416  17.876  1.00  0.00     0.123 C 
BRANCH  17  18
ATOM     18  C   UNL     1     -11.585 -11.582  17.937  1.00  0.00     0.305 C 
ATOM     19  O   UNL     1     -11.508 -10.519  17.262  1.00  0.00    -0.252 OA
BRANCH  18  20
ATOM     20  O   UNL     1     -10.535 -11.978  18.772  1.00  0.00    -0.469 OA
ATOM     21  C   UNL     1     -10.705 -12.919  19.825  1.00  0.00     0.282 C 
ENDBRANCH  18  20
ENDBRANCH  17  18
ENDBRANCH  16  17
ENDBRANCH  15  16
ENDBRANCH  14  15
ENDBRANCH  13  14
ENDBRANCH  12  13
ENDBRANCH   1  12
TORSDOF 15
ENDMDL
MODEL 7
REMARK VINA RESULT:    -1.172     17.661     21.924
REMARK INTER + INTRA:          -3.272
REMARK INTER:                  -2.031
REMARK INTRA:                  -1.241
REMARK UNBOUND:                -1.072
REMARK SMILES CCCCCC=CCC=CCCCCCCCC(=O)OC
REMARK SMILES IDX 11 1 10 2 9 3 8 4 7 5 6 6 5 7 4 8 3 9 2 10 1 11 12 12 13 13
REMARK SMILES IDX 14 14 15 15 16 16 17 17 18 18 19 19 20 20 21 21
REMARK H PARENT
REMARK Flexibility Score: inf
ROOT
ATOM      1  C   UNL     1       5.122  -3.383  10.290  1.00  0.00     0.027 C 
ENDROOT
BRANCH   1   2
ATOM      2  C   UNL     1       3.941  -3.184   9.371  1.00  0.00    -0.031 C 
ATOM      3  C   UNL     1       3.898  -2.310   8.349  1.00  0.00    -0.027 C 
BRANCH   3   4
ATOM      4  C   UNL     1       5.041  -1.422   7.930  1.00  0.00     0.054 C 
BRANCH   4   5
ATOM      5  C   UNL     1       5.125  -0.197   8.798  1.00  0.00    -0.027 C 
ATOM      6  C   UNL     1       4.092   0.650   8.915  1.00  0.00    -0.031 C 
BRANCH   6   7
ATOM      7  C   UNL     1       4.172   1.881   9.776  1.00  0.00     0.027 C 
BRANCH   7   8
ATOM      8  C   UNL     1       5.117   1.698  10.974  1.00  0.00     0.004 C 
BRANCH   8   9
ATOM      9  C   UNL     1       4.381   1.844  12.316  1.00  0.00     0.000 C 
BRANCH   9  10
ATOM     10  C   UNL     1       4.648   0.667  13.266  1.00  0.00    -0.003 C 
ATOM     11  C   UNL     1       4.654  -0.684  12.548  1.00  0.00     0.004 C 
ENDBRANCH   9  10
ENDBRANCH   8   9
ENDBRANCH   7   8
ENDBRANCH   6   7
ENDBRANCH   4   5
ENDBRANCH   3   4
ENDBRANCH   1   2
BRANCH   1  12
ATOM     12  C   UNL     1       4.896  -4.567  11.238  1.00  0.00     0.004 C 
BRANCH  12  13
ATOM     13  C   UNL     1       3.932  -4.212  12.385  1.00  0.00     0.000 C 
BRANCH  13  14
ATOM     14  C   UNL     1       3.839  -5.325  13.440  1.00  0.00     0.000 C 
BRANCH  14  15
ATOM     15  C   UNL     1       2.557  -6.162  13.301  1.00  0.00     0.001 C 
BRANCH  15  16
ATOM     16  C   UNL     1       1.793  -6.311  14.630  1.00  0.00     0.012 C 
BRANCH  16  17
ATOM     17  C   UNL     1       1.343  -7.747  14.945  1.00  0.00     0.123 C 
BRANCH  17  18
ATOM     18  C   UNL     1       0.183  -7.777  15.893  1.00  0.00     0.305 C 
ATOM     19  O   UNL     1       0.378  -8.025  17.115  1.00  0.00    -0.252 OA
BRANCH  18  20
ATOM     20  O   UNL     1      -1.101  -7.497  15.415  1.00  0.00    -0.469 OA
ATOM     21  C   UNL     1      -2.072  -6.801  16.188  1.00  0.00     0.282 C 
ENDBRANCH  18  20
ENDBRANCH  17  18
ENDBRANCH  16  17
ENDBRANCH  15  16
ENDBRANCH  14  15
ENDBRANCH  13  14
ENDBRANCH  12  13
ENDBRANCH   1  12
TORSDOF 15
ENDMDL
MODEL 8
REMARK VINA RESULT:    -1.066     17.864     22.169
REMARK INTER + INTRA:          -3.072
REMARK INTER:                  -1.663
REMARK INTRA:                  -1.409
REMARK UNBOUND:                -1.072
REMARK SMILES CCCCCC=CCC=CCCCCCCCC(=O)OC
REMARK SMILES IDX 11 1 10 2 9 3 8 4 7 5 6 6 5 7 4 8 3 9 2 10 1 11 12 12 13 13
REMARK SMILES IDX 14 14 15 15 16 16 17 17 18 18 19 19 20 20 21 21
REMARK H PARENT
REMARK Flexibility Score: inf
ROOT
ATOM      1  C   UNL     1       3.300  -3.492   9.906  1.00  0.00     0.027 C 
ENDROOT
BRANCH   1   2
ATOM      2  C   UNL     1       4.682  -3.396   9.304  1.00  0.00    -0.031 C 
ATOM      3  C   UNL     1       5.091  -2.427   8.465  1.00  0.00    -0.027 C 
BRANCH   3   4
ATOM      4  C   UNL     1       4.249  -1.257   8.027  1.00  0.00     0.054 C 
BRANCH   4   5
ATOM      5  C   UNL     1       4.815   0.041   8.532  1.00  0.00    -0.027 C 
ATOM      6  C   UNL     1       4.258   0.694   9.563  1.00  0.00    -0.031 C 
BRANCH   6   7
ATOM      7  C   UNL     1       4.816   1.996  10.068  1.00  0.00     0.027 C 
BRANCH   7   8
ATOM      8  C   UNL     1       5.125   1.957  11.573  1.00  0.00     0.004 C 
BRANCH   8   9
ATOM      9  C   UNL     1       4.932   0.551  12.164  1.00  0.00     0.000 C 
BRANCH   9  10
ATOM     10  C   UNL     1       4.877   0.560  13.699  1.00  0.00    -0.003 C 
ATOM     11  C   UNL     1       4.138   1.776  14.259  1.00  0.00     0.004 C 
ENDBRANCH   9  10
ENDBRANCH   8   9
ENDBRANCH   7   8
ENDBRANCH   6   7
ENDBRANCH   4   5
ENDBRANCH   3   4
ENDBRANCH   1   2
BRANCH   1  12
ATOM     12  C   UNL     1       3.218  -2.732  11.234  1.00  0.00     0.004 C 
BRANCH  12  13
ATOM     13  C   UNL     1       3.978  -3.454  12.361  1.00  0.00     0.000 C 
BRANCH  13  14
ATOM     14  C   UNL     1       3.690  -4.963  12.391  1.00  0.00     0.000 C 
BRANCH  14  15
ATOM     15  C   UNL     1       3.501  -5.498  13.821  1.00  0.00     0.001 C 
BRANCH  15  16
ATOM     16  C   UNL     1       2.224  -6.344  13.978  1.00  0.00     0.012 C 
BRANCH  16  17
ATOM     17  C   UNL     1       1.584  -6.273  15.374  1.00  0.00     0.123 C 
BRANCH  17  18
ATOM     18  C   UNL     1       0.543  -7.333  15.571  1.00  0.00     0.305 C 
ATOM     19  O   UNL     1      -0.551  -7.043  16.128  1.00  0.00    -0.252 OA
BRANCH  18  20
ATOM     20  O   UNL     1       0.787  -8.628  15.102  1.00  0.00    -0.469 OA
ATOM     21  C   UNL     1       0.399  -9.791  15.824  1.00  0.00     0.282 C 
ENDBRANCH  18  20
ENDBRANCH  17  18
ENDBRANCH  16  17
ENDBRANCH  15  16
ENDBRANCH  14  15
ENDBRANCH  13  14
ENDBRANCH  12  13
ENDBRANCH   1  12
TORSDOF 15
ENDMDL
MODEL 9
REMARK VINA RESULT:    -1.020      2.931      6.503
REMARK INTER + INTRA:          -2.986
REMARK INTER:                  -3.259
REMARK INTRA:                   0.272
REMARK UNBOUND:                -1.072
REMARK SMILES CCCCCC=CCC=CCCCCCCCC(=O)OC
REMARK SMILES IDX 11 1 10 2 9 3 8 4 7 5 6 6 5 7 4 8 3 9 2 10 1 11 12 12 13 13
REMARK SMILES IDX 14 14 15 15 16 16 17 17 18 18 19 19 20 20 21 21
REMARK H PARENT
REMARK Flexibility Score: inf
ROOT
ATOM      1  C   UNL     1     -13.060 -13.064  22.105  1.00  0.00     0.027 C 
ENDROOT
BRANCH   1   2
ATOM      2  C   UNL     1     -12.565 -12.965  23.528  1.00  0.00    -0.031 C 
ATOM      3  C   UNL     1     -13.199 -13.474  24.602  1.00  0.00    -0.027 C 
BRANCH   3   4
ATOM      4  C   UNL     1     -14.481 -14.263  24.548  1.00  0.00     0.054 C 
BRANCH   4   5
ATOM      5  C   UNL     1     -14.231 -15.681  24.117  1.00  0.00    -0.027 C 
ATOM      6  C   UNL     1     -15.122 -16.355  23.376  1.00  0.00    -0.031 C 
BRANCH   6   7
ATOM      7  C   UNL     1     -14.880 -17.777  22.947  1.00  0.00     0.027 C 
BRANCH   7   8
ATOM      8  C   UNL     1     -13.873 -17.877  21.791  1.00  0.00     0.004 C 
BRANCH   8   9
ATOM      9  C   UNL     1     -13.734 -16.547  21.032  1.00  0.00     0.000 C 
BRANCH   9  10
ATOM     10  C   UNL     1     -14.924 -16.273  20.100  1.00  0.00    -0.003 C 
ATOM     11  C   UNL     1     -14.575 -16.464  18.623  1.00  0.00     0.004 C 
ENDBRANCH   9  10
ENDBRANCH   8   9
ENDBRANCH   7   8
ENDBRANCH   6   7
ENDBRANCH   4   5
ENDBRANCH   3   4
ENDBRANCH   1   2
BRANCH   1  12
ATOM     12  C   UNL     1     -14.578 -12.861  22.030  1.00  0.00     0.004 C 
BRANCH  12  13
ATOM     13  C   UNL     1     -14.948 -11.442  21.560  1.00  0.00     0.000 C 
BRANCH  13  14
ATOM     14  C   UNL     1     -15.103 -11.350  20.034  1.00  0.00     0.000 C 
BRANCH  14  15
ATOM     15  C   UNL     1     -14.930 -12.713  19.342  1.00  0.00     0.001 C 
BRANCH  15  16
ATOM     16  C   UNL     1     -13.455 -13.131  19.208  1.00  0.00     0.012 C 
BRANCH  16  17
ATOM     17  C   UNL     1     -12.729 -12.516  18.000  1.00  0.00     0.123 C 
BRANCH  17  18
ATOM     18  C   UNL     1     -11.362 -12.016  18.359  1.00  0.00     0.305 C 
ATOM     19  O   UNL     1     -10.668 -12.643  19.206  1.00  0.00    -0.252 OA
BRANCH  18  20
ATOM     20  O   UNL     1     -10.861 -10.876  17.724  1.00  0.00    -0.469 OA
ATOM     21  C   UNL     1     -11.662 -10.049  16.888  1.00  0.00     0.282 C 
ENDBRANCH  18  20
ENDBRANCH  17  18
ENDBRANCH  16  17
ENDBRANCH  15  16
ENDBRANCH  14  15
ENDBRANCH  13  14
ENDBRANCH  12  13
ENDBRANCH   1  12
TORSDOF 15
ENDMDL
