MODEL 1
REMARK VINA RESULT:    -4.007      0.000      0.000
REMARK INTER + INTRA:          -6.296
REMARK INTER:                  -5.763
REMARK INTRA:                  -0.533
REMARK UNBOUND:                -0.533
REMARK SMILES CCCCCCCCCO
REMARK SMILES IDX 6 1 5 2 4 3 3 4 2 5 1 6 7 7 8 8 9 9 10 10
REMARK H PARENT 10 11
REMARK Flexibility Score: inf
ROOT
ATOM      1  C   UNL     1     172.389 170.829 209.074  1.00  0.00     0.000 C 
ENDROOT
BRANCH   1   2
ATOM      2  C   UNL     1     173.010 171.744 208.006  1.00  0.00     0.000 C 
BRANCH   2   3
ATOM      3  C   UNL     1     172.722 171.262 206.576  1.00  0.00    -0.000 C 
BRANCH   3   4
ATOM      4  C   UNL     1     172.084 172.354 205.698  1.00  0.00    -0.000 C 
BRANCH   4   5
ATOM      5  C   UNL     1     170.752 171.906 205.077  1.00  0.00    -0.003 C 
ATOM      6  C   UNL     1     170.887 170.624 204.255  1.00  0.00     0.004 C 
ENDBRANCH   4   5
ENDBRANCH   3   4
ENDBRANCH   2   3
ENDBRANCH   1   2
BRANCH   1   7
ATOM      7  C   UNL     1     170.926 171.190 209.384  1.00  0.00     0.002 C 
BRANCH   7   8
ATOM      8  C   UNL     1     170.688 172.708 209.430  1.00  0.00     0.028 C 
BRANCH   8   9
ATOM      9  C   UNL     1     169.556 173.114 208.487  1.00  0.00     0.156 C 
BRANCH   9  10
ATOM     10  O   UNL     1     168.636 173.910 209.180  1.00  0.00    -0.396 OA
ATOM     11  H   UNL     1     168.318 174.590 208.531  1.00  0.00     0.210 HD
ENDBRANCH   9  10
ENDBRANCH   8   9
ENDBRANCH   7   8
ENDBRANCH   1   7
TORSDOF 8
ENDMDL
MODEL 2
REMARK VINA RESULT:    -3.975      2.602      3.329
REMARK INTER + INTRA:          -6.250
REMARK INTER:                  -5.700
REMARK INTRA:                  -0.550
REMARK UNBOUND:                -0.533
REMARK SMILES CCCCCCCCCO
REMARK SMILES IDX 6 1 5 2 4 3 3 4 2 5 1 6 7 7 8 8 9 9 10 10
REMARK H PARENT 10 11
REMARK Flexibility Score: inf
ROOT
ATOM      1  C   UNL     1     170.996 172.387 207.569  1.00  0.00     0.000 C 
ENDROOT
BRANCH   1   2
ATOM      2  C   UNL     1     170.879 172.457 206.038  1.00  0.00     0.000 C 
BRANCH   2   3
ATOM      3  C   UNL     1     172.246 172.583 205.347  1.00  0.00    -0.000 C 
BRANCH   3   4
ATOM      4  C   UNL     1     172.673 171.288 204.633  1.00  0.00    -0.000 C 
BRANCH   4   5
ATOM      5  C   UNL     1     171.487 170.349 204.360  1.00  0.00    -0.003 C 
ATOM      6  C   UNL     1     171.053 170.359 202.895  1.00  0.00     0.004 C 
ENDBRANCH   4   5
ENDBRANCH   3   4
ENDBRANCH   2   3
ENDBRANCH   1   2
BRANCH   1   7
ATOM      7  C   UNL     1     171.254 170.959 208.079  1.00  0.00     0.002 C 
BRANCH   7   8
ATOM      8  C   UNL     1     172.447 170.880 209.043  1.00  0.00     0.028 C 
BRANCH   8   9
ATOM      9  C   UNL     1     173.752 170.639 208.284  1.00  0.00     0.156 C 
BRANCH   9  10
ATOM     10  O   UNL     1     174.690 170.053 209.143  1.00  0.00    -0.396 OA
ATOM     11  H   UNL     1     175.175 169.378 208.602  1.00  0.00     0.210 HD
ENDBRANCH   9  10
ENDBRANCH   8   9
ENDBRANCH   7   8
ENDBRANCH   1   7
TORSDOF 8
ENDMDL
MODEL 3
REMARK VINA RESULT:    -3.963      2.743      3.471
REMARK INTER + INTRA:          -6.234
REMARK INTER:                  -5.768
REMARK INTRA:                  -0.465
REMARK UNBOUND:                -0.533
REMARK SMILES CCCCCCCCCO
REMARK SMILES IDX 6 1 5 2 4 3 3 4 2 5 1 6 7 7 8 8 9 9 10 10
REMARK H PARENT 10 11
REMARK Flexibility Score: inf
ROOT
ATOM      1  C   UNL     1     171.272 172.541 207.731  1.00  0.00     0.000 C 
ENDROOT
BRANCH   1   2
ATOM      2  C   UNL     1     170.652 172.456 206.325  1.00  0.00     0.000 C 
BRANCH   2   3
ATOM      3  C   UNL     1     171.389 171.460 205.416  1.00  0.00    -0.000 C 
BRANCH   3   4
ATOM      4  C   UNL     1     172.740 172.001 204.915  1.00  0.00    -0.000 C 
BRANCH   4   5
ATOM      5  C   UNL     1     172.614 173.388 204.264  1.00  0.00    -0.003 C 
ATOM      6  C   UNL     1     172.334 173.311 202.763  1.00  0.00     0.004 C 
ENDBRANCH   4   5
ENDBRANCH   3   4
ENDBRANCH   2   3
ENDBRANCH   1   2
BRANCH   1   7
ATOM      7  C   UNL     1     171.270 171.187 208.460  1.00  0.00     0.002 C 
BRANCH   7   8
ATOM      8  C   UNL     1     172.549 170.955 209.280  1.00  0.00     0.028 C 
BRANCH   8   9
ATOM      9  C   UNL     1     173.738 170.650 208.369  1.00  0.00     0.156 C 
BRANCH   9  10
ATOM     10  O   UNL     1     174.773 170.087 209.125  1.00  0.00    -0.396 OA
ATOM     11  H   UNL     1     174.645 169.104 209.077  1.00  0.00     0.210 HD
ENDBRANCH   9  10
ENDBRANCH   8   9
ENDBRANCH   7   8
ENDBRANCH   1   7
TORSDOF 8
ENDMDL
MODEL 4
REMARK VINA RESULT:    -3.886      2.277      2.979
REMARK INTER + INTRA:          -6.123
REMARK INTER:                  -5.673
REMARK INTRA:                  -0.449
REMARK UNBOUND:                -0.533
REMARK SMILES CCCCCCCCCO
REMARK SMILES IDX 6 1 5 2 4 3 3 4 2 5 1 6 7 7 8 8 9 9 10 10
REMARK H PARENT 10 11
REMARK Flexibility Score: inf
ROOT
ATOM      1  C   UNL     1     170.910 172.385 207.006  1.00  0.00     0.000 C 
ENDROOT
BRANCH   1   2
ATOM      2  C   UNL     1     171.025 171.956 205.533  1.00  0.00     0.000 C 
BRANCH   2   3
ATOM      3  C   UNL     1     172.388 171.328 205.207  1.00  0.00    -0.000 C 
BRANCH   3   4
ATOM      4  C   UNL     1     173.134 172.075 204.087  1.00  0.00    -0.000 C 
BRANCH   4   5
ATOM      5  C   UNL     1     172.569 173.484 203.844  1.00  0.00    -0.003 C 
ATOM      6  C   UNL     1     172.138 173.703 202.394  1.00  0.00     0.004 C 
ENDBRANCH   4   5
ENDBRANCH   3   4
ENDBRANCH   2   3
ENDBRANCH   1   2
BRANCH   1   7
ATOM      7  C   UNL     1     172.164 172.032 207.824  1.00  0.00     0.002 C 
BRANCH   7   8
ATOM      8  C   UNL     1     171.959 170.799 208.719  1.00  0.00     0.028 C 
BRANCH   8   9
ATOM      9  C   UNL     1     170.475 170.561 208.995  1.00  0.00     0.156 C 
BRANCH   9  10
ATOM     10  O   UNL     1     170.124 169.271 208.579  1.00  0.00    -0.396 OA
ATOM     11  H   UNL     1     170.779 169.022 207.876  1.00  0.00     0.210 HD
ENDBRANCH   9  10
ENDBRANCH   8   9
ENDBRANCH   7   8
ENDBRANCH   1   7
TORSDOF 8
ENDMDL
MODEL 5
REMARK VINA RESULT:    -3.874      1.342      2.171
REMARK INTER + INTRA:          -6.105
REMARK INTER:                  -5.504
REMARK INTRA:                  -0.601
REMARK UNBOUND:                -0.533
REMARK SMILES CCCCCCCCCO
REMARK SMILES IDX 6 1 5 2 4 3 3 4 2 5 1 6 7 7 8 8 9 9 10 10
REMARK H PARENT 10 11
REMARK Flexibility Score: inf
ROOT
ATOM      1  C   UNL     1     172.524 171.418 206.311  1.00  0.00     0.000 C 
ENDROOT
BRANCH   1   2
ATOM      2  C   UNL     1     172.518 172.713 205.482  1.00  0.00     0.000 C 
BRANCH   2   3
ATOM      3  C   UNL     1     172.409 172.445 203.972  1.00  0.00    -0.000 C 
BRANCH   3   4
ATOM      4  C   UNL     1     170.951 172.344 203.491  1.00  0.00    -0.000 C 
BRANCH   4   5
ATOM      5  C   UNL     1     170.508 170.891 203.258  1.00  0.00    -0.003 C 
ATOM      6  C   UNL     1     171.661 169.985 202.826  1.00  0.00     0.004 C 
ENDBRANCH   4   5
ENDBRANCH   3   4
ENDBRANCH   2   3
ENDBRANCH   1   2
BRANCH   1   7
ATOM      7  C   UNL     1     171.314 171.314 207.255  1.00  0.00     0.002 C 
BRANCH   7   8
ATOM      8  C   UNL     1     170.522 172.628 207.350  1.00  0.00     0.028 C 
BRANCH   8   9
ATOM      9  C   UNL     1     169.969 172.835 208.760  1.00  0.00     0.156 C 
BRANCH   9  10
ATOM     10  O   UNL     1     168.971 173.815 208.730  1.00  0.00    -0.396 OA
ATOM     11  H   UNL     1     168.185 173.394 208.293  1.00  0.00     0.210 HD
ENDBRANCH   9  10
ENDBRANCH   8   9
ENDBRANCH   7   8
ENDBRANCH   1   7
TORSDOF 8
ENDMDL
MODEL 6
REMARK VINA RESULT:    -3.767      2.062      3.280
REMARK INTER + INTRA:          -5.951
REMARK INTER:                  -5.406
REMARK INTRA:                  -0.545
REMARK UNBOUND:                -0.533
REMARK SMILES CCCCCCCCCO
REMARK SMILES IDX 6 1 5 2 4 3 3 4 2 5 1 6 7 7 8 8 9 9 10 10
REMARK H PARENT 10 11
REMARK Flexibility Score: inf
ROOT
ATOM      1  C   UNL     1     172.406 171.707 205.603  1.00  0.00     0.000 C 
ENDROOT
BRANCH   1   2
ATOM      2  C   UNL     1     171.093 172.378 205.166  1.00  0.00     0.000 C 
BRANCH   2   3
ATOM      3  C   UNL     1     170.342 171.565 204.100  1.00  0.00    -0.000 C 
BRANCH   3   4
ATOM      4  C   UNL     1     171.023 170.221 203.789  1.00  0.00    -0.000 C 
BRANCH   4   5
ATOM      5  C   UNL     1     171.436 170.099 202.313  1.00  0.00    -0.003 C 
ATOM      6  C   UNL     1     172.565 171.058 201.936  1.00  0.00     0.004 C 
ENDBRANCH   4   5
ENDBRANCH   3   4
ENDBRANCH   2   3
ENDBRANCH   1   2
BRANCH   1   7
ATOM      7  C   UNL     1     172.397 171.296 207.085  1.00  0.00     0.002 C 
BRANCH   7   8
ATOM      8  C   UNL     1     171.119 171.738 207.814  1.00  0.00     0.028 C 
BRANCH   8   9
ATOM      9  C   UNL     1     170.557 170.605 208.673  1.00  0.00     0.156 C 
BRANCH   9  10
ATOM     10  O   UNL     1     170.160 169.547 207.848  1.00  0.00    -0.396 OA
ATOM     11  H   UNL     1     169.274 169.802 207.481  1.00  0.00     0.210 HD
ENDBRANCH   9  10
ENDBRANCH   8   9
ENDBRANCH   7   8
ENDBRANCH   1   7
TORSDOF 8
ENDMDL
MODEL 7
REMARK VINA RESULT:    -3.760      1.457      1.930
REMARK INTER + INTRA:          -5.941
REMARK INTER:                  -5.659
REMARK INTRA:                  -0.282
REMARK UNBOUND:                -0.533
REMARK SMILES CCCCCCCCCO
REMARK SMILES IDX 6 1 5 2 4 3 3 4 2 5 1 6 7 7 8 8 9 9 10 10
REMARK H PARENT 10 11
REMARK Flexibility Score: inf
ROOT
ATOM      1  C   UNL     1     171.888 171.245 207.399  1.00  0.00     0.000 C 
ENDROOT
BRANCH   1   2
ATOM      2  C   UNL     1     172.706 171.239 206.097  1.00  0.00     0.000 C 
BRANCH   2   3
ATOM      3  C   UNL     1     171.836 170.986 204.856  1.00  0.00    -0.000 C 
BRANCH   3   4
ATOM      4  C   UNL     1     170.998 172.214 204.458  1.00  0.00    -0.000 C 
BRANCH   4   5
ATOM      5  C   UNL     1     171.181 172.597 202.981  1.00  0.00    -0.003 C 
ATOM      6  C   UNL     1     172.133 173.778 202.791  1.00  0.00     0.004 C 
ENDBRANCH   4   5
ENDBRANCH   3   4
ENDBRANCH   2   3
ENDBRANCH   1   2
BRANCH   1   7
ATOM      7  C   UNL     1     171.902 172.614 208.101  1.00  0.00     0.002 C 
BRANCH   7   8
ATOM      8  C   UNL     1     170.739 172.784 209.091  1.00  0.00     0.028 C 
BRANCH   8   9
ATOM      9  C   UNL     1     169.452 173.171 208.364  1.00  0.00     0.156 C 
BRANCH   9  10
ATOM     10  O   UNL     1     168.639 173.921 209.222  1.00  0.00    -0.396 OA
ATOM     11  H   UNL     1     167.838 174.172 208.692  1.00  0.00     0.210 HD
ENDBRANCH   9  10
ENDBRANCH   8   9
ENDBRANCH   7   8
ENDBRANCH   1   7
TORSDOF 8
ENDMDL
MODEL 8
REMARK VINA RESULT:    -3.683      2.219      3.242
REMARK INTER + INTRA:          -5.831
REMARK INTER:                  -5.295
REMARK INTRA:                  -0.536
REMARK UNBOUND:                -0.533
REMARK SMILES CCCCCCCCCO
REMARK SMILES IDX 6 1 5 2 4 3 3 4 2 5 1 6 7 7 8 8 9 9 10 10
REMARK H PARENT 10 11
REMARK Flexibility Score: inf
ROOT
ATOM      1  C   UNL     1     171.171 172.357 205.909  1.00  0.00     0.000 C 
ENDROOT
BRANCH   1   2
ATOM      2  C   UNL     1     172.503 172.643 205.196  1.00  0.00     0.000 C 
BRANCH   2   3
ATOM      3  C   UNL     1     172.791 171.646 204.062  1.00  0.00    -0.000 C 
BRANCH   3   4
ATOM      4  C   UNL     1     171.682 170.591 203.903  1.00  0.00    -0.000 C 
BRANCH   4   5
ATOM      5  C   UNL     1     171.038 170.621 202.508  1.00  0.00    -0.003 C 
ATOM      6  C   UNL     1     170.244 171.901 202.252  1.00  0.00     0.004 C 
ENDBRANCH   4   5
ENDBRANCH   3   4
ENDBRANCH   2   3
ENDBRANCH   1   2
BRANCH   1   7
ATOM      7  C   UNL     1     171.302 172.388 207.441  1.00  0.00     0.002 C 
BRANCH   7   8
ATOM      8  C   UNL     1     171.447 170.985 208.052  1.00  0.00     0.028 C 
BRANCH   8   9
ATOM      9  C   UNL     1     172.791 170.832 208.764  1.00  0.00     0.156 C 
BRANCH   9  10
ATOM     10  O   UNL     1     173.564 171.980 208.551  1.00  0.00    -0.396 OA
ATOM     11  H   UNL     1     174.464 171.777 208.918  1.00  0.00     0.210 HD
ENDBRANCH   9  10
ENDBRANCH   8   9
ENDBRANCH   7   8
ENDBRANCH   1   7
TORSDOF 8
ENDMDL
MODEL 9
REMARK VINA RESULT:    -3.590      2.816      3.382
REMARK INTER + INTRA:          -5.697
REMARK INTER:                  -5.298
REMARK INTRA:                  -0.398
REMARK UNBOUND:                -0.533
REMARK SMILES CCCCCCCCCO
REMARK SMILES IDX 6 1 5 2 4 3 3 4 2 5 1 6 7 7 8 8 9 9 10 10
REMARK H PARENT 10 11
REMARK Flexibility Score: inf
ROOT
ATOM      1  C   UNL     1     171.295 171.176 206.084  1.00  0.00     0.000 C 
ENDROOT
BRANCH   1   2
ATOM      2  C   UNL     1     171.889 171.497 204.702  1.00  0.00     0.000 C 
BRANCH   2   3
ATOM      3  C   UNL     1     172.783 172.747 204.721  1.00  0.00    -0.000 C 
BRANCH   3   4
ATOM      4  C   UNL     1     172.436 173.741 203.599  1.00  0.00    -0.000 C 
BRANCH   4   5
ATOM      5  C   UNL     1     172.018 173.037 202.298  1.00  0.00    -0.003 C 
ATOM      6  C   UNL     1     172.242 173.906 201.060  1.00  0.00     0.004 C 
ENDBRANCH   4   5
ENDBRANCH   3   4
ENDBRANCH   2   3
ENDBRANCH   1   2
BRANCH   1   7
ATOM      7  C   UNL     1     170.927 172.440 206.878  1.00  0.00     0.002 C 
BRANCH   7   8
ATOM      8  C   UNL     1     171.216 172.301 208.381  1.00  0.00     0.028 C 
BRANCH   8   9
ATOM      9  C   UNL     1     172.514 173.014 208.759  1.00  0.00     0.156 C 
BRANCH   9  10
ATOM     10  O   UNL     1     173.599 172.162 208.526  1.00  0.00    -0.396 OA
ATOM     11  H   UNL     1     173.258 171.436 207.942  1.00  0.00     0.210 HD
ENDBRANCH   9  10
ENDBRANCH   8   9
ENDBRANCH   7   8
ENDBRANCH   1   7
TORSDOF 8
ENDMDL
