MODEL 1
REMARK VINA RESULT:     9.642      0.000      0.000
REMARK INTER + INTRA:          17.056
REMARK INTER:                  17.533
REMARK INTRA:                  -0.477
REMARK UNBOUND:                -0.477
REMARK SMILES CCCCCCCCCCCCCC[C@@H](C)C(=O)[O-]
REMARK SMILES IDX 9 1 10 2 11 3 12 4 13 5 14 6 15 7 16 8 17 9 18 10 19 11 8 12
REMARK SMILES IDX 7 13 6 14 5 15 4 16 3 17 2 18 1 19
REMARK H PARENT
REMARK Flexibility Score: inf
ROOT
ATOM      1  C   UNL     1       4.115  41.830  12.265  1.00  0.00     0.000 C 
ENDROOT
BRANCH   1   2
ATOM      2  C   UNL     1       4.932  42.020  10.976  1.00  0.00     0.000 C 
BRANCH   2   3
ATOM      3  C   UNL     1       4.154  42.780   9.886  1.00  0.00     0.000 C 
BRANCH   3   4
ATOM      4  C   UNL     1       5.071  43.362   8.798  1.00  0.00     0.000 C 
BRANCH   4   5
ATOM      5  C   UNL     1       6.358  42.539   8.610  1.00  0.00     0.001 C 
BRANCH   5   6
ATOM      6  C   UNL     1       6.863  42.536   7.155  1.00  0.00     0.009 C 
BRANCH   6   7
ATOM      7  C   UNL     1       8.314  42.032   6.963  1.00  0.00     0.032 C 
ATOM      8  C   UNL     1       8.462  41.125   5.734  1.00  0.00     0.014 C 
BRANCH   7   9
ATOM      9  C   UNL     1       9.240  43.210   6.836  1.00  0.00     0.044 C 
ATOM     10  O   UNL     1      10.333  43.226   7.461  1.00  0.00    -0.550 OA
ATOM     11  O   UNL     1       8.889  44.297   6.043  1.00  0.00    -0.550 OA
ENDBRANCH   7   9
ENDBRANCH   6   7
ENDBRANCH   5   6
ENDBRANCH   4   5
ENDBRANCH   3   4
ENDBRANCH   2   3
ENDBRANCH   1   2
BRANCH   1  12
ATOM     12  C   UNL     1       4.809  40.894  13.270  1.00  0.00     0.000 C 
BRANCH  12  13
ATOM     13  C   UNL     1       3.886  40.485  14.429  1.00  0.00    -0.000 C 
BRANCH  13  14
ATOM     14  C   UNL     1       4.590  39.588  15.459  1.00  0.00    -0.000 C 
BRANCH  14  15
ATOM     15  C   UNL     1       6.096  39.501  15.170  1.00  0.00    -0.000 C 
BRANCH  15  16
ATOM     16  C   UNL     1       6.888  40.662  15.794  1.00  0.00    -0.000 C 
BRANCH  16  17
ATOM     17  C   UNL     1       8.409  40.451  15.712  1.00  0.00    -0.000 C 
BRANCH  17  18
ATOM     18  C   UNL     1       8.784  39.039  15.237  1.00  0.00    -0.003 C 
ATOM     19  C   UNL     1      10.292  38.852  15.077  1.00  0.00     0.004 C 
ENDBRANCH  17  18
ENDBRANCH  16  17
ENDBRANCH  15  16
ENDBRANCH  14  15
ENDBRANCH  13  14
ENDBRANCH  12  13
ENDBRANCH   1  12
TORSDOF 14
ENDMDL
MODEL 2
REMARK VINA RESULT:    10.890      1.433      1.943
REMARK INTER + INTRA:          19.327
REMARK INTER:                  19.925
REMARK INTRA:                  -0.598
REMARK UNBOUND:                -0.477
REMARK SMILES CCCCCCCCCCCCCC[C@@H](C)C(=O)[O-]
REMARK SMILES IDX 9 1 10 2 11 3 12 4 13 5 14 6 15 7 16 8 17 9 18 10 19 11 8 12
REMARK SMILES IDX 7 13 6 14 5 15 4 16 3 17 2 18 1 19
REMARK H PARENT
REMARK Flexibility Score: inf
ROOT
ATOM      1  C   UNL     1       4.759  41.951  11.205  1.00  0.00     0.000 C 
ENDROOT
BRANCH   1   2
ATOM      2  C   UNL     1       3.902  42.910  10.363  1.00  0.00     0.000 C 
BRANCH   2   3
ATOM      3  C   UNL     1       4.540  43.236   9.000  1.00  0.00     0.000 C 
BRANCH   3   4
ATOM      4  C   UNL     1       5.989  42.732   8.888  1.00  0.00     0.000 C 
BRANCH   4   5
ATOM      5  C   UNL     1       6.518  42.776   7.443  1.00  0.00     0.001 C 
BRANCH   5   6
ATOM      6  C   UNL     1       7.698  41.814   7.205  1.00  0.00     0.009 C 
BRANCH   6   7
ATOM      7  C   UNL     1       8.704  42.265   6.120  1.00  0.00     0.032 C 
ATOM      8  C   UNL     1       9.969  42.896   6.718  1.00  0.00     0.014 C 
BRANCH   7   9
ATOM      9  C   UNL     1       9.084  41.084   5.269  1.00  0.00     0.044 C 
ATOM     10  O   UNL     1       9.488  41.258   4.090  1.00  0.00    -0.550 OA
ATOM     11  O   UNL     1       8.973  39.792   5.771  1.00  0.00    -0.550 OA
ENDBRANCH   7   9
ENDBRANCH   6   7
ENDBRANCH   5   6
ENDBRANCH   4   5
ENDBRANCH   3   4
ENDBRANCH   2   3
ENDBRANCH   1   2
BRANCH   1  12
ATOM     12  C   UNL     1       4.086  41.576  12.537  1.00  0.00     0.000 C 
BRANCH  12  13
ATOM     13  C   UNL     1       5.052  40.881  13.511  1.00  0.00    -0.000 C 
BRANCH  13  14
ATOM     14  C   UNL     1       4.322  40.116  14.626  1.00  0.00    -0.000 C 
BRANCH  14  15
ATOM     15  C   UNL     1       5.284  39.772  15.773  1.00  0.00    -0.000 C 
BRANCH  15  16
ATOM     16  C   UNL     1       6.438  38.860  15.325  1.00  0.00    -0.000 C 
BRANCH  16  17
ATOM     17  C   UNL     1       7.778  39.236  15.980  1.00  0.00    -0.000 C 
BRANCH  17  18
ATOM     18  C   UNL     1       8.835  39.670  14.952  1.00  0.00    -0.003 C 
ATOM     19  C   UNL     1      10.001  38.688  14.856  1.00  0.00     0.004 C 
ENDBRANCH  17  18
ENDBRANCH  16  17
ENDBRANCH  15  16
ENDBRANCH  14  15
ENDBRANCH  13  14
ENDBRANCH  12  13
ENDBRANCH   1  12
TORSDOF 14
ENDMDL
MODEL 3
REMARK VINA RESULT:    11.012      1.125      1.575
REMARK INTER + INTRA:          19.547
REMARK INTER:                  20.399
REMARK INTRA:                  -0.852
REMARK UNBOUND:                -0.477
REMARK SMILES CCCCCCCCCCCCCC[C@@H](C)C(=O)[O-]
REMARK SMILES IDX 9 1 10 2 11 3 12 4 13 5 14 6 15 7 16 8 17 9 18 10 19 11 8 12
REMARK SMILES IDX 7 13 6 14 5 15 4 16 3 17 2 18 1 19
REMARK H PARENT
REMARK Flexibility Score: inf
ROOT
ATOM      1  C   UNL     1       4.055  41.805  12.827  1.00  0.00     0.000 C 
ENDROOT
BRANCH   1   2
ATOM      2  C   UNL     1       4.202  41.471  11.334  1.00  0.00     0.000 C 
BRANCH   2   3
ATOM      3  C   UNL     1       5.047  42.509  10.573  1.00  0.00     0.000 C 
BRANCH   3   4
ATOM      4  C   UNL     1       4.274  43.178   9.425  1.00  0.00     0.000 C 
BRANCH   4   5
ATOM      5  C   UNL     1       5.153  43.423   8.186  1.00  0.00     0.001 C 
BRANCH   5   6
ATOM      6  C   UNL     1       6.437  42.572   8.183  1.00  0.00     0.009 C 
BRANCH   6   7
ATOM      7  C   UNL     1       7.096  42.382   6.796  1.00  0.00     0.032 C 
ATOM      8  C   UNL     1       6.930  43.613   5.893  1.00  0.00     0.014 C 
BRANCH   7   9
ATOM      9  C   UNL     1       8.559  42.082   6.974  1.00  0.00     0.044 C 
ATOM     10  O   UNL     1       9.394  43.022   7.040  1.00  0.00    -0.550 OA
ATOM     11  O   UNL     1       9.002  40.766   7.049  1.00  0.00    -0.550 OA
ENDBRANCH   7   9
ENDBRANCH   6   7
ENDBRANCH   5   6
ENDBRANCH   4   5
ENDBRANCH   3   4
ENDBRANCH   2   3
ENDBRANCH   1   2
BRANCH   1  12
ATOM     12  C   UNL     1       4.827  40.827  13.729  1.00  0.00     0.000 C 
BRANCH  12  13
ATOM     13  C   UNL     1       3.905  40.055  14.688  1.00  0.00    -0.000 C 
BRANCH  13  14
ATOM     14  C   UNL     1       4.681  39.307  15.783  1.00  0.00    -0.000 C 
BRANCH  14  15
ATOM     15  C   UNL     1       5.427  38.099  15.198  1.00  0.00    -0.000 C 
BRANCH  15  16
ATOM     16  C   UNL     1       6.860  37.968  15.738  1.00  0.00    -0.000 C 
BRANCH  16  17
ATOM     17  C   UNL     1       7.533  39.333  15.966  1.00  0.00    -0.000 C 
BRANCH  17  18
ATOM     18  C   UNL     1       8.522  39.696  14.848  1.00  0.00    -0.003 C 
ATOM     19  C   UNL     1       9.871  38.996  15.004  1.00  0.00     0.004 C 
ENDBRANCH  17  18
ENDBRANCH  16  17
ENDBRANCH  15  16
ENDBRANCH  14  15
ENDBRANCH  13  14
ENDBRANCH  12  13
ENDBRANCH   1  12
TORSDOF 14
ENDMDL
MODEL 4
REMARK VINA RESULT:    11.076      1.682      3.291
REMARK INTER + INTRA:          19.664
REMARK INTER:                  20.334
REMARK INTRA:                  -0.670
REMARK UNBOUND:                -0.477
REMARK SMILES CCCCCCCCCCCCCC[C@@H](C)C(=O)[O-]
REMARK SMILES IDX 9 1 10 2 11 3 12 4 13 5 14 6 15 7 16 8 17 9 18 10 19 11 8 12
REMARK SMILES IDX 7 13 6 14 5 15 4 16 3 17 2 18 1 19
REMARK H PARENT
REMARK Flexibility Score: inf
ROOT
ATOM      1  C   UNL     1       7.555  41.157  12.270  1.00  0.00     0.000 C 
ENDROOT
BRANCH   1   2
ATOM      2  C   UNL     1       6.373  41.520  11.355  1.00  0.00     0.000 C 
BRANCH   2   3
ATOM      3  C   UNL     1       6.702  42.674  10.391  1.00  0.00     0.000 C 
BRANCH   3   4
ATOM      4  C   UNL     1       5.544  42.991   9.429  1.00  0.00     0.000 C 
BRANCH   4   5
ATOM      5  C   UNL     1       5.900  42.694   7.961  1.00  0.00     0.001 C 
BRANCH   5   6
ATOM      6  C   UNL     1       7.312  42.103   7.792  1.00  0.00     0.009 C 
BRANCH   6   7
ATOM      7  C   UNL     1       7.875  42.145   6.351  1.00  0.00     0.032 C 
ATOM      8  C   UNL     1       7.171  43.193   5.477  1.00  0.00     0.014 C 
BRANCH   7   9
ATOM      9  C   UNL     1       9.349  42.436   6.399  1.00  0.00     0.044 C 
ATOM     10  O   UNL     1       9.800  43.292   7.206  1.00  0.00    -0.550 OA
ATOM     11  O   UNL     1      10.223  41.778   5.540  1.00  0.00    -0.550 OA
ENDBRANCH   7   9
ENDBRANCH   6   7
ENDBRANCH   5   6
ENDBRANCH   4   5
ENDBRANCH   3   4
ENDBRANCH   2   3
ENDBRANCH   1   2
BRANCH   1  12
ATOM     12  C   UNL     1       7.109  40.417  13.543  1.00  0.00     0.000 C 
BRANCH  12  13
ATOM     13  C   UNL     1       8.033  40.693  14.740  1.00  0.00    -0.000 C 
BRANCH  13  14
ATOM     14  C   UNL     1       7.927  39.618  15.833  1.00  0.00    -0.000 C 
BRANCH  14  15
ATOM     15  C   UNL     1       6.923  38.527  15.430  1.00  0.00    -0.000 C 
BRANCH  15  16
ATOM     16  C   UNL     1       5.561  38.689  16.125  1.00  0.00    -0.000 C 
BRANCH  16  17
ATOM     17  C   UNL     1       4.445  37.889  15.432  1.00  0.00    -0.000 C 
BRANCH  17  18
ATOM     18  C   UNL     1       3.118  38.662  15.369  1.00  0.00    -0.003 C 
ATOM     19  C   UNL     1       2.012  37.876  14.665  1.00  0.00     0.004 C 
ENDBRANCH  17  18
ENDBRANCH  16  17
ENDBRANCH  15  16
ENDBRANCH  14  15
ENDBRANCH  13  14
ENDBRANCH  12  13
ENDBRANCH   1  12
TORSDOF 14
ENDMDL
MODEL 5
REMARK VINA RESULT:    11.622      2.975      8.083
REMARK INTER + INTRA:          20.657
REMARK INTER:                  21.031
REMARK INTRA:                  -0.375
REMARK UNBOUND:                -0.477
REMARK SMILES CCCCCCCCCCCCCC[C@@H](C)C(=O)[O-]
REMARK SMILES IDX 9 1 10 2 11 3 12 4 13 5 14 6 15 7 16 8 17 9 18 10 19 11 8 12
REMARK SMILES IDX 7 13 6 14 5 15 4 16 3 17 2 18 1 19
REMARK H PARENT
REMARK Flexibility Score: inf
ROOT
ATOM      1  C   UNL     1       4.061  42.014  11.609  1.00  0.00     0.000 C 
ENDROOT
BRANCH   1   2
ATOM      2  C   UNL     1       4.727  41.223  12.748  1.00  0.00     0.000 C 
BRANCH   2   3
ATOM      3  C   UNL     1       3.844  41.136  14.006  1.00  0.00     0.000 C 
BRANCH   3   4
ATOM      4  C   UNL     1       3.660  39.692  14.503  1.00  0.00     0.000 C 
BRANCH   4   5
ATOM      5  C   UNL     1       4.477  39.398  15.773  1.00  0.00     0.001 C 
BRANCH   5   6
ATOM      6  C   UNL     1       5.642  38.421  15.525  1.00  0.00     0.009 C 
BRANCH   6   7
ATOM      7  C   UNL     1       7.024  38.906  16.023  1.00  0.00     0.032 C 
ATOM      8  C   UNL     1       8.173  38.018  15.526  1.00  0.00     0.014 C 
BRANCH   7   9
ATOM      9  C   UNL     1       7.250  40.322  15.571  1.00  0.00     0.044 C 
ATOM     10  O   UNL     1       6.632  41.270  16.125  1.00  0.00    -0.550 OA
ATOM     11  O   UNL     1       8.126  40.595  14.526  1.00  0.00    -0.550 OA
ENDBRANCH   7   9
ENDBRANCH   6   7
ENDBRANCH   5   6
ENDBRANCH   4   5
ENDBRANCH   3   4
ENDBRANCH   2   3
ENDBRANCH   1   2
BRANCH   1  12
ATOM     12  C   UNL     1       4.991  42.199  10.398  1.00  0.00     0.000 C 
BRANCH  12  13
ATOM     13  C   UNL     1       4.526  43.329   9.465  1.00  0.00    -0.000 C 
BRANCH  13  14
ATOM     14  C   UNL     1       5.027  43.152   8.023  1.00  0.00    -0.000 C 
BRANCH  14  15
ATOM     15  C   UNL     1       6.450  42.573   8.005  1.00  0.00    -0.000 C 
BRANCH  15  16
ATOM     16  C   UNL     1       7.402  43.370   7.098  1.00  0.00    -0.000 C 
BRANCH  16  17
ATOM     17  C   UNL     1       7.843  42.573   5.859  1.00  0.00    -0.000 C 
BRANCH  17  18
ATOM     18  C   UNL     1       8.629  41.303   6.224  1.00  0.00    -0.003 C 
ATOM     19  C   UNL     1       8.987  40.461   5.001  1.00  0.00     0.004 C 
ENDBRANCH  17  18
ENDBRANCH  16  17
ENDBRANCH  15  16
ENDBRANCH  14  15
ENDBRANCH  13  14
ENDBRANCH  12  13
ENDBRANCH   1  12
TORSDOF 14
ENDMDL
MODEL 6
REMARK VINA RESULT:    12.204      3.422      8.762
REMARK INTER + INTRA:          21.715
REMARK INTER:                  22.287
REMARK INTRA:                  -0.572
REMARK UNBOUND:                -0.477
REMARK SMILES CCCCCCCCCCCCCC[C@@H](C)C(=O)[O-]
REMARK SMILES IDX 9 1 10 2 11 3 12 4 13 5 14 6 15 7 16 8 17 9 18 10 19 11 8 12
REMARK SMILES IDX 7 13 6 14 5 15 4 16 3 17 2 18 1 19
REMARK H PARENT
REMARK Flexibility Score: inf
ROOT
ATOM      1  C   UNL     1       5.308  42.664   9.617  1.00  0.00     0.000 C 
ENDROOT
BRANCH   1   2
ATOM      2  C   UNL     1       6.443  42.114  10.497  1.00  0.00     0.000 C 
BRANCH   2   3
ATOM      3  C   UNL     1       5.926  41.261  11.669  1.00  0.00     0.000 C 
BRANCH   3   4
ATOM      4  C   UNL     1       7.057  40.756  12.581  1.00  0.00     0.000 C 
BRANCH   4   5
ATOM      5  C   UNL     1       6.704  40.866  14.074  1.00  0.00     0.001 C 
BRANCH   5   6
ATOM      6  C   UNL     1       7.936  40.759  14.993  1.00  0.00     0.009 C 
BRANCH   6   7
ATOM      7  C   UNL     1       8.085  39.411  15.737  1.00  0.00     0.032 C 
ATOM      8  C   UNL     1       6.974  38.415  15.378  1.00  0.00     0.014 C 
BRANCH   7   9
ATOM      9  C   UNL     1       9.425  38.808  15.416  1.00  0.00     0.044 C 
ATOM     10  O   UNL     1      10.429  39.083  16.125  1.00  0.00    -0.550 OA
ATOM     11  O   UNL     1       9.571  37.959  14.325  1.00  0.00    -0.550 OA
ENDBRANCH   7   9
ENDBRANCH   6   7
ENDBRANCH   5   6
ENDBRANCH   4   5
ENDBRANCH   3   4
ENDBRANCH   2   3
ENDBRANCH   1   2
BRANCH   1  12
ATOM     12  C   UNL     1       5.754  42.911   8.166  1.00  0.00     0.000 C 
BRANCH  12  13
ATOM     13  C   UNL     1       7.262  42.685   7.965  1.00  0.00    -0.000 C 
BRANCH  13  14
ATOM     14  C   UNL     1       7.731  43.039   6.545  1.00  0.00    -0.000 C 
BRANCH  14  15
ATOM     15  C   UNL     1       9.133  42.474   6.276  1.00  0.00    -0.000 C 
BRANCH  15  16
ATOM     16  C   UNL     1       9.100  41.024   5.766  1.00  0.00    -0.000 C 
BRANCH  16  17
ATOM     17  C   UNL     1       9.006  40.938   4.233  1.00  0.00    -0.000 C 
BRANCH  17  18
ATOM     18  C   UNL     1      10.263  40.323   3.599  1.00  0.00    -0.003 C 
ATOM     19  C   UNL     1      10.082  40.012   2.114  1.00  0.00     0.004 C 
ENDBRANCH  17  18
ENDBRANCH  16  17
ENDBRANCH  15  16
ENDBRANCH  14  15
ENDBRANCH  13  14
ENDBRANCH  12  13
ENDBRANCH   1  12
TORSDOF 14
ENDMDL
MODEL 7
REMARK VINA RESULT:    12.258      1.936      3.462
REMARK INTER + INTRA:          21.814
REMARK INTER:                  22.520
REMARK INTRA:                  -0.706
REMARK UNBOUND:                -0.477
REMARK SMILES CCCCCCCCCCCCCC[C@@H](C)C(=O)[O-]
REMARK SMILES IDX 9 1 10 2 11 3 12 4 13 5 14 6 15 7 16 8 17 9 18 10 19 11 8 12
REMARK SMILES IDX 7 13 6 14 5 15 4 16 3 17 2 18 1 19
REMARK H PARENT
REMARK Flexibility Score: inf
ROOT
ATOM      1  C   UNL     1       7.336  41.655  12.584  1.00  0.00     0.000 C 
ENDROOT
BRANCH   1   2
ATOM      2  C   UNL     1       6.413  41.541  11.360  1.00  0.00     0.000 C 
BRANCH   2   3
ATOM      3  C   UNL     1       7.063  42.080  10.073  1.00  0.00     0.000 C 
BRANCH   3   4
ATOM      4  C   UNL     1       6.067  42.832   9.174  1.00  0.00     0.000 C 
BRANCH   4   5
ATOM      5  C   UNL     1       6.291  42.545   7.679  1.00  0.00     0.001 C 
BRANCH   5   6
ATOM      6  C   UNL     1       7.587  41.758   7.404  1.00  0.00     0.009 C 
BRANCH   6   7
ATOM      7  C   UNL     1       8.484  42.338   6.285  1.00  0.00     0.032 C 
ATOM      8  C   UNL     1       9.735  43.036   6.838  1.00  0.00     0.014 C 
BRANCH   7   9
ATOM      9  C   UNL     1       8.895  41.234   5.351  1.00  0.00     0.044 C 
ATOM     10  O   UNL     1       8.979  40.049   5.770  1.00  0.00    -0.550 OA
ATOM     11  O   UNL     1       9.204  41.514   4.025  1.00  0.00    -0.550 OA
ENDBRANCH   7   9
ENDBRANCH   6   7
ENDBRANCH   5   6
ENDBRANCH   4   5
ENDBRANCH   3   4
ENDBRANCH   2   3
ENDBRANCH   1   2
BRANCH   1  12
ATOM     12  C   UNL     1       7.017  40.606  13.663  1.00  0.00     0.000 C 
BRANCH  12  13
ATOM     13  C   UNL     1       8.214  40.327  14.587  1.00  0.00    -0.000 C 
BRANCH  13  14
ATOM     14  C   UNL     1       7.785  39.906  16.002  1.00  0.00    -0.000 C 
BRANCH  14  15
ATOM     15  C   UNL     1       6.273  39.643  16.060  1.00  0.00    -0.000 C 
BRANCH  15  16
ATOM     16  C   UNL     1       5.927  38.150  15.937  1.00  0.00    -0.000 C 
BRANCH  16  17
ATOM     17  C   UNL     1       4.668  37.903  15.087  1.00  0.00    -0.000 C 
BRANCH  17  18
ATOM     18  C   UNL     1       3.382  37.891  15.928  1.00  0.00    -0.003 C 
ATOM     19  C   UNL     1       2.118  37.875  15.070  1.00  0.00     0.004 C 
ENDBRANCH  17  18
ENDBRANCH  16  17
ENDBRANCH  15  16
ENDBRANCH  14  15
ENDBRANCH  13  14
ENDBRANCH  12  13
ENDBRANCH   1  12
TORSDOF 14
ENDMDL
