MODEL 1
REMARK VINA RESULT:    -2.783      0.000      0.000
REMARK INTER + INTRA:          -3.027
REMARK INTER:                  -3.027
REMARK INTRA:                   0.000
REMARK UNBOUND:                 0.000
REMARK SMILES [NH3+]CC(=O)[O-]
REMARK SMILES IDX 2 1 1 2 3 6 4 7 5 8
REMARK H PARENT 1 3 1 4 1 5
REMARK Flexibility Score: inf
ROOT
ATOM      1  C   UNL     1     128.601 126.396 122.028  1.00  0.00     0.312 C 
ENDROOT
BRANCH   1   2
ATOM      2  N   UNL     1     129.358 127.597 121.682  1.00  0.00    -0.353 N 
ATOM      3  H   UNL     1     129.596 127.591 120.664  1.00  0.00     0.344 HD
ATOM      4  H   UNL     1     130.234 127.645 122.251  1.00  0.00     0.344 HD
ATOM      5  H   UNL     1     128.774 128.441 121.888  1.00  0.00     0.344 HD
ENDBRANCH   1   2
BRANCH   1   6
ATOM      6  C   UNL     1     128.250 126.393 123.483  1.00  0.00     0.096 C 
ATOM      7  O   UNL     1     128.267 127.467 124.141  1.00  0.00    -0.544 OA
ATOM      8  O   UNL     1     127.957 125.197 124.125  1.00  0.00    -0.544 OA
ENDBRANCH   1   6
TORSDOF 2
ENDMDL
MODEL 2
REMARK VINA RESULT:    -2.628      1.106      1.738
REMARK INTER + INTRA:          -2.859
REMARK INTER:                  -2.859
REMARK INTRA:                   0.000
REMARK UNBOUND:                 0.000
REMARK SMILES [NH3+]CC(=O)[O-]
REMARK SMILES IDX 2 1 1 2 3 6 4 7 5 8
REMARK H PARENT 1 3 1 4 1 5
REMARK Flexibility Score: inf
ROOT
ATOM      1  C   UNL     1     129.757 127.507 122.610  1.00  0.00     0.312 C 
ENDROOT
BRANCH   1   2
ATOM      2  N   UNL     1     129.183 127.219 121.297  1.00  0.00    -0.353 N 
ATOM      3  H   UNL     1     128.577 126.368 121.349  1.00  0.00     0.344 HD
ATOM      4  H   UNL     1     129.945 127.070 120.597  1.00  0.00     0.344 HD
ATOM      5  H   UNL     1     128.598 128.033 120.994  1.00  0.00     0.344 HD
ENDBRANCH   1   2
BRANCH   1   6
ATOM      6  C   UNL     1     128.790 127.159 123.698  1.00  0.00     0.096 C 
ATOM      7  O   UNL     1     128.092 126.115 123.615  1.00  0.00    -0.544 OA
ATOM      8  O   UNL     1     128.621 128.016 124.779  1.00  0.00    -0.544 OA
ENDBRANCH   1   6
TORSDOF 2
ENDMDL
MODEL 3
REMARK VINA RESULT:    -2.502      1.987      2.053
REMARK INTER + INTRA:          -2.722
REMARK INTER:                  -2.722
REMARK INTRA:                   0.000
REMARK UNBOUND:                 0.000
REMARK SMILES [NH3+]CC(=O)[O-]
REMARK SMILES IDX 2 1 1 2 3 6 4 7 5 8
REMARK H PARENT 1 3 1 4 1 5
REMARK Flexibility Score: inf
ROOT
ATOM      1  C   UNL     1     129.385 127.548 123.269  1.00  0.00     0.312 C 
ENDROOT
BRANCH   1   2
ATOM      2  N   UNL     1     128.576 128.244 124.268  1.00  0.00    -0.353 N 
ATOM      3  H   UNL     1     128.238 127.568 124.991  1.00  0.00     0.344 HD
ATOM      4  H   UNL     1     127.760 128.709 123.807  1.00  0.00     0.344 HD
ATOM      5  H   UNL     1     129.163 128.974 124.735  1.00  0.00     0.344 HD
ENDBRANCH   1   2
BRANCH   1   6
ATOM      6  C   UNL     1     128.639 126.379 122.707  1.00  0.00     0.096 C 
ATOM      7  O   UNL     1     128.513 126.247 121.461  1.00  0.00    -0.544 OA
ATOM      8  O   UNL     1     128.037 125.462 123.560  1.00  0.00    -0.544 OA
ENDBRANCH   1   6
TORSDOF 2
ENDMDL
MODEL 4
REMARK VINA RESULT:    -2.337      2.050      2.590
REMARK INTER + INTRA:          -2.541
REMARK INTER:                  -2.541
REMARK INTRA:                   0.000
REMARK UNBOUND:                 0.000
REMARK SMILES [NH3+]CC(=O)[O-]
REMARK SMILES IDX 2 1 1 2 3 6 4 7 5 8
REMARK H PARENT 1 3 1 4 1 5
REMARK Flexibility Score: inf
ROOT
ATOM      1  C   UNL     1     127.320 127.245 124.727  1.00  0.00     0.312 C 
ENDROOT
BRANCH   1   2
ATOM      2  N   UNL     1     128.392 128.157 125.124  1.00  0.00    -0.353 N 
ATOM      3  H   UNL     1     129.113 127.642 125.680  1.00  0.00     0.344 HD
ATOM      4  H   UNL     1     128.001 128.944 125.692  1.00  0.00     0.344 HD
ATOM      5  H   UNL     1     128.843 128.549 124.265  1.00  0.00     0.344 HD
ENDBRANCH   1   2
BRANCH   1   6
ATOM      6  C   UNL     1     127.857 126.138 123.876  1.00  0.00     0.096 C 
ATOM      7  O   UNL     1     127.872 124.956 124.310  1.00  0.00    -0.544 OA
ATOM      8  O   UNL     1     128.388 126.418 122.623  1.00  0.00    -0.544 OA
ENDBRANCH   1   6
TORSDOF 2
ENDMDL
MODEL 5
REMARK VINA RESULT:    -2.136     13.670     13.904
REMARK INTER + INTRA:          -2.323
REMARK INTER:                  -2.323
REMARK INTRA:                   0.000
REMARK UNBOUND:                 0.000
REMARK SMILES [NH3+]CC(=O)[O-]
REMARK SMILES IDX 2 1 1 2 3 6 4 7 5 8
REMARK H PARENT 1 3 1 4 1 5
REMARK Flexibility Score: inf
ROOT
ATOM      1  C   UNL     1     125.596 116.436 113.982  1.00  0.00     0.312 C 
ENDROOT
BRANCH   1   2
ATOM      2  N   UNL     1     125.628 116.950 115.350  1.00  0.00    -0.353 N 
ATOM      3  H   UNL     1     124.854 117.639 115.493  1.00  0.00     0.344 HD
ATOM      4  H   UNL     1     126.550 117.408 115.539  1.00  0.00     0.344 HD
ATOM      5  H   UNL     1     125.501 116.155 116.018  1.00  0.00     0.344 HD
ENDBRANCH   1   2
BRANCH   1   6
ATOM      6  C   UNL     1     126.743 116.977 113.187  1.00  0.00     0.096 C 
ATOM      7  O   UNL     1     127.915 116.914 113.642  1.00  0.00    -0.544 OA
ATOM      8  O   UNL     1     126.511 117.599 111.966  1.00  0.00    -0.544 OA
ENDBRANCH   1   6
TORSDOF 2
ENDMDL
MODEL 6
REMARK VINA RESULT:    -2.136     13.588     13.745
REMARK INTER + INTRA:          -2.323
REMARK INTER:                  -2.323
REMARK INTRA:                   0.000
REMARK UNBOUND:                 0.000
REMARK SMILES [NH3+]CC(=O)[O-]
REMARK SMILES IDX 2 1 1 2 3 6 4 7 5 8
REMARK H PARENT 1 3 1 4 1 5
REMARK Flexibility Score: inf
ROOT
ATOM      1  C   UNL     1     119.766 126.479 113.869  1.00  0.00     0.312 C 
ENDROOT
BRANCH   1   2
ATOM      2  N   UNL     1     119.340 126.360 115.262  1.00  0.00    -0.353 N 
ATOM      3  H   UNL     1     119.957 126.939 115.877  1.00  0.00     0.344 HD
ATOM      4  H   UNL     1     119.378 125.359 115.565  1.00  0.00     0.344 HD
ATOM      5  H   UNL     1     118.356 126.704 115.350  1.00  0.00     0.344 HD
ENDBRANCH   1   2
BRANCH   1   6
ATOM      6  C   UNL     1     118.780 127.284 113.083  1.00  0.00     0.096 C 
ATOM      7  O   UNL     1     118.214 128.279 113.606  1.00  0.00    -0.544 OA
ATOM      8  O   UNL     1     118.447 126.905 111.788  1.00  0.00    -0.544 OA
ENDBRANCH   1   6
TORSDOF 2
ENDMDL
MODEL 7
REMARK VINA RESULT:    -2.109     20.277     20.642
REMARK INTER + INTRA:          -2.294
REMARK INTER:                  -2.294
REMARK INTRA:                   0.000
REMARK UNBOUND:                 0.000
REMARK SMILES [NH3+]CC(=O)[O-]
REMARK SMILES IDX 2 1 1 2 3 6 4 7 5 8
REMARK H PARENT 1 3 1 4 1 5
REMARK Flexibility Score: inf
ROOT
ATOM      1  C   UNL     1     114.000 116.586 114.003  1.00  0.00     0.312 C 
ENDROOT
BRANCH   1   2
ATOM      2  N   UNL     1     114.375 116.250 115.375  1.00  0.00    -0.353 N 
ATOM      3  H   UNL     1     115.413 116.146 115.449  1.00  0.00     0.344 HD
ATOM      4  H   UNL     1     113.908 115.361 115.667  1.00  0.00     0.344 HD
ATOM      5  H   UNL     1     114.066 117.021 116.012  1.00  0.00     0.344 HD
ENDBRANCH   1   2
BRANCH   1   6
ATOM      6  C   UNL     1     113.953 115.355 113.152  1.00  0.00     0.096 C 
ATOM      7  O   UNL     1     113.250 114.370 113.500  1.00  0.00    -0.544 OA
ATOM      8  O   UNL     1     114.728 115.275 112.001  1.00  0.00    -0.544 OA
ENDBRANCH   1   6
TORSDOF 2
ENDMDL
MODEL 8
REMARK VINA RESULT:    -1.973     22.112     22.418
REMARK INTER + INTRA:          -2.146
REMARK INTER:                  -2.146
REMARK INTRA:                   0.000
REMARK UNBOUND:                 0.000
REMARK SMILES [NH3+]CC(=O)[O-]
REMARK SMILES IDX 2 1 1 2 3 6 4 7 5 8
REMARK H PARENT 1 3 1 4 1 5
REMARK Flexibility Score: inf
ROOT
ATOM      1  C   UNL     1     112.591 117.947 109.649  1.00  0.00     0.312 C 
ENDROOT
BRANCH   1   2
ATOM      2  N   UNL     1     113.659 117.906 108.652  1.00  0.00    -0.353 N 
ATOM      3  H   UNL     1     113.829 116.920 108.349  1.00  0.00     0.344 HD
ATOM      4  H   UNL     1     114.537 118.311 109.051  1.00  0.00     0.344 HD
ATOM      5  H   UNL     1     113.371 118.472 107.820  1.00  0.00     0.344 HD
ENDBRANCH   1   2
BRANCH   1   6
ATOM      6  C   UNL     1     112.065 119.340 109.803  1.00  0.00     0.096 C 
ATOM      7  O   UNL     1     110.827 119.560 109.745  1.00  0.00    -0.544 OA
ATOM      8  O   UNL     1     112.946 120.403 109.959  1.00  0.00    -0.544 OA
ENDBRANCH   1   6
TORSDOF 2
ENDMDL
MODEL 9
REMARK VINA RESULT:    -1.959     20.504     20.829
REMARK INTER + INTRA:          -2.131
REMARK INTER:                  -2.131
REMARK INTRA:                   0.000
REMARK UNBOUND:                 0.000
REMARK SMILES [NH3+]CC(=O)[O-]
REMARK SMILES IDX 2 1 1 2 3 6 4 7 5 8
REMARK H PARENT 1 3 1 4 1 5
REMARK Flexibility Score: inf
ROOT
ATOM      1  C   UNL     1     113.663 114.780 112.862  1.00  0.00     0.312 C 
ENDROOT
BRANCH   1   2
ATOM      2  N   UNL     1     113.598 115.100 111.437  1.00  0.00    -0.353 N 
ATOM      3  H   UNL     1     114.376 115.750 111.179  1.00  0.00     0.344 HD
ATOM      4  H   UNL     1     112.677 115.541 111.210  1.00  0.00     0.344 HD
ATOM      5  H   UNL     1     113.697 114.217 110.883  1.00  0.00     0.344 HD
ENDBRANCH   1   2
BRANCH   1   6
ATOM      6  C   UNL     1     113.750 116.031 113.680  1.00  0.00     0.096 C 
ATOM      7  O   UNL     1     113.518 117.150 113.153  1.00  0.00    -0.544 OA
ATOM      8  O   UNL     1     114.141 115.964 115.012  1.00  0.00    -0.544 OA
ENDBRANCH   1   6
TORSDOF 2
ENDMDL
