MODEL 1
REMARK VINA RESULT:    -3.902      0.000      0.000
REMARK INTER + INTRA:          -9.105
REMARK INTER:                  -7.095
REMARK INTRA:                  -2.010
REMARK UNBOUND:                -2.010
REMARK SMILES CCCCCCCCCCCCCC[C@H](C)C(=O)[O-]
REMARK SMILES IDX 9 1 10 2 11 3 12 4 13 5 14 6 15 7 16 8 17 9 18 10 19 11 8 12
REMARK SMILES IDX 7 13 6 14 5 15 4 16 3 17 2 18 1 19
REMARK H PARENT
REMARK Flexibility Score: inf
ROOT
ATOM      1  C   UNL     1      32.196 157.932 120.584  1.00  0.00     0.000 C 
ENDROOT
BRANCH   1   2
ATOM      2  C   UNL     1      32.005 159.456 120.542  1.00  0.00     0.000 C 
BRANCH   2   3
ATOM      3  C   UNL     1      31.960 159.963 119.095  1.00  0.00     0.000 C 
BRANCH   3   4
ATOM      4  C   UNL     1      30.702 160.810 118.848  1.00  0.00     0.000 C 
BRANCH   4   5
ATOM      5  C   UNL     1      29.746 160.168 117.831  1.00  0.00     0.001 C 
BRANCH   5   6
ATOM      6  C   UNL     1      28.414 159.727 118.465  1.00  0.00     0.009 C 
BRANCH   6   7
ATOM      7  C   UNL     1      27.245 160.646 118.054  1.00  0.00     0.032 C 
ATOM      8  C   UNL     1      26.408 161.033 119.278  1.00  0.00     0.014 C 
BRANCH   7   9
ATOM      9  C   UNL     1      26.366 159.985 117.026  1.00  0.00     0.044 C 
ATOM     10  O   UNL     1      25.182 159.669 117.316  1.00  0.00    -0.550 OA
ATOM     11  O   UNL     1      26.854 159.716 115.752  1.00  0.00    -0.550 OA
ENDBRANCH   7   9
ENDBRANCH   6   7
ENDBRANCH   5   6
ENDBRANCH   4   5
ENDBRANCH   3   4
ENDBRANCH   2   3
ENDBRANCH   1   2
BRANCH   1  12
ATOM     12  C   UNL     1      31.065 157.214 121.338  1.00  0.00     0.000 C 
BRANCH  12  13
ATOM     13  C   UNL     1      29.806 158.082 121.485  1.00  0.00    -0.000 C 
BRANCH  13  14
ATOM     14  C   UNL     1      28.567 157.215 121.739  1.00  0.00    -0.000 C 
BRANCH  14  15
ATOM     15  C   UNL     1      27.278 158.032 121.556  1.00  0.00    -0.000 C 
BRANCH  15  16
ATOM     16  C   UNL     1      26.038 157.147 121.357  1.00  0.00    -0.000 C 
BRANCH  16  17
ATOM     17  C   UNL     1      25.309 157.440 120.033  1.00  0.00    -0.000 C 
BRANCH  17  18
ATOM     18  C   UNL     1      25.683 156.446 118.923  1.00  0.00    -0.003 C 
ATOM     19  C   UNL     1      26.131 155.089 119.468  1.00  0.00     0.004 C 
ENDBRANCH  17  18
ENDBRANCH  16  17
ENDBRANCH  15  16
ENDBRANCH  14  15
ENDBRANCH  13  14
ENDBRANCH  12  13
ENDBRANCH   1  12
TORSDOF 14
ENDMDL
MODEL 2
REMARK VINA RESULT:    -3.799      1.263      4.525
REMARK INTER + INTRA:          -8.919
REMARK INTER:                  -6.712
REMARK INTRA:                  -2.207
REMARK UNBOUND:                -2.010
REMARK SMILES CCCCCCCCCCCCCC[C@H](C)C(=O)[O-]
REMARK SMILES IDX 9 1 10 2 11 3 12 4 13 5 14 6 15 7 16 8 17 9 18 10 19 11 8 12
REMARK SMILES IDX 7 13 6 14 5 15 4 16 3 17 2 18 1 19
REMARK H PARENT
REMARK Flexibility Score: inf
ROOT
ATOM      1  C   UNL     1      30.522 158.727 121.874  1.00  0.00     0.000 C 
ENDROOT
BRANCH   1   2
ATOM      2  C   UNL     1      28.992 158.592 121.855  1.00  0.00     0.000 C 
BRANCH   2   3
ATOM      3  C   UNL     1      28.570 157.194 121.386  1.00  0.00     0.000 C 
BRANCH   3   4
ATOM      4  C   UNL     1      27.097 156.922 121.723  1.00  0.00     0.000 C 
BRANCH   4   5
ATOM      5  C   UNL     1      26.383 156.101 120.637  1.00  0.00     0.001 C 
BRANCH   5   6
ATOM      6  C   UNL     1      25.311 156.912 119.888  1.00  0.00     0.009 C 
BRANCH   6   7
ATOM      7  C   UNL     1      25.917 158.112 119.130  1.00  0.00     0.032 C 
ATOM      8  C   UNL     1      25.293 159.425 119.615  1.00  0.00     0.014 C 
BRANCH   7   9
ATOM      9  C   UNL     1      25.722 157.975 117.645  1.00  0.00     0.044 C 
ATOM     10  O   UNL     1      25.977 158.944 116.882  1.00  0.00    -0.550 OA
ATOM     11  O   UNL     1      25.256 156.781 117.104  1.00  0.00    -0.550 OA
ENDBRANCH   7   9
ENDBRANCH   6   7
ENDBRANCH   5   6
ENDBRANCH   4   5
ENDBRANCH   3   4
ENDBRANCH   2   3
ENDBRANCH   1   2
BRANCH   1  12
ATOM     12  C   UNL     1      31.230 157.540 121.205  1.00  0.00     0.000 C 
BRANCH  12  13
ATOM     13  C   UNL     1      32.489 157.960 120.430  1.00  0.00    -0.000 C 
BRANCH  13  14
ATOM     14  C   UNL     1      32.716 159.473 120.529  1.00  0.00    -0.000 C 
BRANCH  14  15
ATOM     15  C   UNL     1      32.622 160.135 119.145  1.00  0.00    -0.000 C 
BRANCH  15  16
ATOM     16  C   UNL     1      31.289 160.868 118.927  1.00  0.00    -0.000 C 
BRANCH  16  17
ATOM     17  C   UNL     1      30.379 160.150 117.914  1.00  0.00    -0.000 C 
BRANCH  17  18
ATOM     18  C   UNL     1      28.916 160.086 118.379  1.00  0.00    -0.003 C 
ATOM     19  C   UNL     1      28.526 161.264 119.273  1.00  0.00     0.004 C 
ENDBRANCH  17  18
ENDBRANCH  16  17
ENDBRANCH  15  16
ENDBRANCH  14  15
ENDBRANCH  13  14
ENDBRANCH  12  13
ENDBRANCH   1  12
TORSDOF 14
ENDMDL
MODEL 3
REMARK VINA RESULT:    -3.796      1.204      4.509
REMARK INTER + INTRA:          -8.914
REMARK INTER:                  -7.346
REMARK INTRA:                  -1.568
REMARK UNBOUND:                -2.010
REMARK SMILES CCCCCCCCCCCCCC[C@H](C)C(=O)[O-]
REMARK SMILES IDX 9 1 10 2 11 3 12 4 13 5 14 6 15 7 16 8 17 9 18 10 19 11 8 12
REMARK SMILES IDX 7 13 6 14 5 15 4 16 3 17 2 18 1 19
REMARK H PARENT
REMARK Flexibility Score: inf
ROOT
ATOM      1  C   UNL     1      31.987 157.920 120.712  1.00  0.00     0.000 C 
ENDROOT
BRANCH   1   2
ATOM      2  C   UNL     1      30.992 157.652 121.853  1.00  0.00     0.000 C 
BRANCH   2   3
ATOM      3  C   UNL     1      29.572 158.070 121.452  1.00  0.00     0.000 C 
BRANCH   3   4
ATOM      4  C   UNL     1      28.559 156.965 121.787  1.00  0.00     0.000 C 
BRANCH   4   5
ATOM      5  C   UNL     1      27.108 157.388 121.509  1.00  0.00     0.001 C 
BRANCH   5   6
ATOM      6  C   UNL     1      26.870 157.758 120.034  1.00  0.00     0.009 C 
BRANCH   6   7
ATOM      7  C   UNL     1      25.741 156.918 119.401  1.00  0.00     0.032 C 
ATOM      8  C   UNL     1      26.091 155.427 119.443  1.00  0.00     0.014 C 
BRANCH   7   9
ATOM      9  C   UNL     1      25.479 157.338 117.980  1.00  0.00     0.044 C 
ATOM     10  O   UNL     1      25.393 158.560 117.687  1.00  0.00    -0.550 OA
ATOM     11  O   UNL     1      25.327 156.383 116.981  1.00  0.00    -0.550 OA
ENDBRANCH   7   9
ENDBRANCH   6   7
ENDBRANCH   5   6
ENDBRANCH   4   5
ENDBRANCH   3   4
ENDBRANCH   2   3
ENDBRANCH   1   2
BRANCH   1  12
ATOM     12  C   UNL     1      32.802 159.205 120.926  1.00  0.00     0.000 C 
BRANCH  12  13
ATOM     13  C   UNL     1      32.530 160.266 119.849  1.00  0.00    -0.000 C 
BRANCH  13  14
ATOM     14  C   UNL     1      32.443 159.627 118.458  1.00  0.00    -0.000 C 
BRANCH  14  15
ATOM     15  C   UNL     1      31.299 160.246 117.639  1.00  0.00    -0.000 C 
BRANCH  15  16
ATOM     16  C   UNL     1      30.117 160.693 118.514  1.00  0.00    -0.000 C 
BRANCH  16  17
ATOM     17  C   UNL     1      28.780 160.079 118.059  1.00  0.00    -0.000 C 
BRANCH  17  18
ATOM     18  C   UNL     1      27.785 161.139 117.562  1.00  0.00    -0.003 C 
ATOM     19  C   UNL     1      27.406 160.953 116.093  1.00  0.00     0.004 C 
ENDBRANCH  17  18
ENDBRANCH  16  17
ENDBRANCH  15  16
ENDBRANCH  14  15
ENDBRANCH  13  14
ENDBRANCH  12  13
ENDBRANCH   1  12
TORSDOF 14
ENDMDL
MODEL 4
REMARK VINA RESULT:    -3.781      2.168      5.077
REMARK INTER + INTRA:          -8.886
REMARK INTER:                  -6.540
REMARK INTRA:                  -2.346
REMARK UNBOUND:                -2.010
REMARK SMILES CCCCCCCCCCCCCC[C@H](C)C(=O)[O-]
REMARK SMILES IDX 9 1 10 2 11 3 12 4 13 5 14 6 15 7 16 8 17 9 18 10 19 11 8 12
REMARK SMILES IDX 7 13 6 14 5 15 4 16 3 17 2 18 1 19
REMARK H PARENT
REMARK Flexibility Score: inf
ROOT
ATOM      1  C   UNL     1      29.022 160.194 117.637  1.00  0.00     0.000 C 
ENDROOT
BRANCH   1   2
ATOM      2  C   UNL     1      27.969 160.587 116.589  1.00  0.00     0.000 C 
BRANCH   2   3
ATOM      3  C   UNL     1      26.791 159.606 116.600  1.00  0.00     0.000 C 
BRANCH   3   4
ATOM      4  C   UNL     1      25.589 160.198 117.352  1.00  0.00     0.000 C 
BRANCH   4   5
ATOM      5  C   UNL     1      25.306 159.474 118.678  1.00  0.00     0.001 C 
BRANCH   5   6
ATOM      6  C   UNL     1      25.761 158.003 118.660  1.00  0.00     0.009 C 
BRANCH   6   7
ATOM      7  C   UNL     1      25.256 157.225 119.893  1.00  0.00     0.032 C 
ATOM      8  C   UNL     1      25.124 158.157 121.102  1.00  0.00     0.014 C 
BRANCH   7   9
ATOM      9  C   UNL     1      26.173 156.081 120.231  1.00  0.00     0.044 C 
ATOM     10  O   UNL     1      26.808 156.080 121.318  1.00  0.00    -0.550 OA
ATOM     11  O   UNL     1      26.330 155.020 119.345  1.00  0.00    -0.550 OA
ENDBRANCH   7   9
ENDBRANCH   6   7
ENDBRANCH   5   6
ENDBRANCH   4   5
ENDBRANCH   3   4
ENDBRANCH   2   3
ENDBRANCH   1   2
BRANCH   1  12
ATOM     12  C   UNL     1      29.099 161.192 118.803  1.00  0.00     0.000 C 
BRANCH  12  13
ATOM     13  C   UNL     1      28.434 160.660 120.083  1.00  0.00    -0.000 C 
BRANCH  13  14
ATOM     14  C   UNL     1      28.700 159.160 120.258  1.00  0.00    -0.000 C 
BRANCH  14  15
ATOM     15  C   UNL     1      29.085 158.836 121.710  1.00  0.00    -0.000 C 
BRANCH  15  16
ATOM     16  C   UNL     1      30.607 158.788 121.924  1.00  0.00    -0.000 C 
BRANCH  16  17
ATOM     17  C   UNL     1      31.259 157.565 121.256  1.00  0.00    -0.000 C 
BRANCH  17  18
ATOM     18  C   UNL     1      32.483 157.940 120.408  1.00  0.00    -0.003 C 
ATOM     19  C   UNL     1      32.378 159.341 119.803  1.00  0.00     0.004 C 
ENDBRANCH  17  18
ENDBRANCH  16  17
ENDBRANCH  15  16
ENDBRANCH  14  15
ENDBRANCH  13  14
ENDBRANCH  12  13
ENDBRANCH   1  12
TORSDOF 14
ENDMDL
MODEL 5
REMARK VINA RESULT:    -3.747      1.811      4.135
REMARK INTER + INTRA:          -8.823
REMARK INTER:                  -6.373
REMARK INTRA:                  -2.450
REMARK UNBOUND:                -2.010
REMARK SMILES CCCCCCCCCCCCCC[C@H](C)C(=O)[O-]
REMARK SMILES IDX 9 1 10 2 11 3 12 4 13 5 14 6 15 7 16 8 17 9 18 10 19 11 8 12
REMARK SMILES IDX 7 13 6 14 5 15 4 16 3 17 2 18 1 19
REMARK H PARENT
REMARK Flexibility Score: inf
ROOT
ATOM      1  C   UNL     1      32.403 159.421 120.118  1.00  0.00     0.000 C 
ENDROOT
BRANCH   1   2
ATOM      2  C   UNL     1      32.291 157.960 120.582  1.00  0.00     0.000 C 
BRANCH   2   3
ATOM      3  C   UNL     1      31.020 157.745 121.413  1.00  0.00     0.000 C 
BRANCH   3   4
ATOM      4  C   UNL     1      30.393 159.087 121.817  1.00  0.00     0.000 C 
BRANCH   4   5
ATOM      5  C   UNL     1      28.883 159.145 121.533  1.00  0.00     0.001 C 
BRANCH   5   6
ATOM      6  C   UNL     1      28.342 157.834 120.935  1.00  0.00     0.009 C 
BRANCH   6   7
ATOM      7  C   UNL     1      27.001 158.042 120.201  1.00  0.00     0.032 C 
ATOM      8  C   UNL     1      26.089 158.979 121.000  1.00  0.00     0.014 C 
BRANCH   7   9
ATOM      9  C   UNL     1      26.299 156.732 119.964  1.00  0.00     0.044 C 
ATOM     10  O   UNL     1      25.657 156.543 118.897  1.00  0.00    -0.550 OA
ATOM     11  O   UNL     1      26.352 155.722 120.919  1.00  0.00    -0.550 OA
ENDBRANCH   7   9
ENDBRANCH   6   7
ENDBRANCH   5   6
ENDBRANCH   4   5
ENDBRANCH   3   4
ENDBRANCH   2   3
ENDBRANCH   1   2
BRANCH   1  12
ATOM     12  C   UNL     1      32.535 159.549 118.592  1.00  0.00     0.000 C 
BRANCH  12  13
ATOM     13  C   UNL     1      31.601 160.617 118.003  1.00  0.00    -0.000 C 
BRANCH  13  14
ATOM     14  C   UNL     1      30.144 160.138 118.012  1.00  0.00    -0.000 C 
BRANCH  14  15
ATOM     15  C   UNL     1      29.209 161.232 118.552  1.00  0.00    -0.000 C 
BRANCH  15  16
ATOM     16  C   UNL     1      27.752 161.044 118.101  1.00  0.00    -0.000 C 
BRANCH  16  17
ATOM     17  C   UNL     1      27.637 160.246 116.791  1.00  0.00    -0.000 C 
BRANCH  17  18
ATOM     18  C   UNL     1      26.416 159.314 116.774  1.00  0.00    -0.003 C 
ATOM     19  C   UNL     1      25.213 159.899 117.516  1.00  0.00     0.004 C 
ENDBRANCH  17  18
ENDBRANCH  16  17
ENDBRANCH  15  16
ENDBRANCH  14  15
ENDBRANCH  13  14
ENDBRANCH  12  13
ENDBRANCH   1  12
TORSDOF 14
ENDMDL
MODEL 6
REMARK VINA RESULT:    -3.657      1.058      4.804
REMARK INTER + INTRA:          -8.661
REMARK INTER:                  -6.601
REMARK INTRA:                  -2.060
REMARK UNBOUND:                -2.010
REMARK SMILES CCCCCCCCCCCCCC[C@H](C)C(=O)[O-]
REMARK SMILES IDX 9 1 10 2 11 3 12 4 13 5 14 6 15 7 16 8 17 9 18 10 19 11 8 12
REMARK SMILES IDX 7 13 6 14 5 15 4 16 3 17 2 18 1 19
REMARK H PARENT
REMARK Flexibility Score: inf
ROOT
ATOM      1  C   UNL     1      28.227 157.957 122.113  1.00  0.00     0.000 C 
ENDROOT
BRANCH   1   2
ATOM      2  C   UNL     1      27.910 156.459 121.984  1.00  0.00     0.000 C 
BRANCH   2   3
ATOM      3  C   UNL     1      26.559 156.242 121.291  1.00  0.00     0.000 C 
BRANCH   3   4
ATOM      4  C   UNL     1      25.586 157.385 121.613  1.00  0.00     0.000 C 
BRANCH   4   5
ATOM      5  C   UNL     1      25.097 158.118 120.353  1.00  0.00     0.001 C 
BRANCH   5   6
ATOM      6  C   UNL     1      25.943 157.791 119.110  1.00  0.00     0.009 C 
BRANCH   6   7
ATOM      7  C   UNL     1      26.654 159.039 118.547  1.00  0.00     0.032 C 
ATOM      8  C   UNL     1      26.650 160.172 119.578  1.00  0.00     0.014 C 
BRANCH   7   9
ATOM      9  C   UNL     1      26.005 159.509 117.274  1.00  0.00     0.044 C 
ATOM     10  O   UNL     1      24.875 160.063 117.307  1.00  0.00    -0.550 OA
ATOM     11  O   UNL     1      26.646 159.333 116.052  1.00  0.00    -0.550 OA
ENDBRANCH   7   9
ENDBRANCH   6   7
ENDBRANCH   5   6
ENDBRANCH   4   5
ENDBRANCH   3   4
ENDBRANCH   2   3
ENDBRANCH   1   2
BRANCH   1  12
ATOM     12  C   UNL     1      29.515 158.356 121.377  1.00  0.00     0.000 C 
BRANCH  12  13
ATOM     13  C   UNL     1      30.631 157.311 121.527  1.00  0.00    -0.000 C 
BRANCH  13  14
ATOM     14  C   UNL     1      31.940 157.811 120.903  1.00  0.00    -0.000 C 
BRANCH  14  15
ATOM     15  C   UNL     1      32.200 159.279 121.274  1.00  0.00    -0.000 C 
BRANCH  15  16
ATOM     16  C   UNL     1      32.696 160.114 120.083  1.00  0.00    -0.000 C 
BRANCH  16  17
ATOM     17  C   UNL     1      32.486 159.403 118.735  1.00  0.00    -0.000 C 
BRANCH  17  18
ATOM     18  C   UNL     1      31.659 160.241 117.749  1.00  0.00    -0.003 C 
ATOM     19  C   UNL     1      30.173 160.283 118.108  1.00  0.00     0.004 C 
ENDBRANCH  17  18
ENDBRANCH  16  17
ENDBRANCH  15  16
ENDBRANCH  14  15
ENDBRANCH  13  14
ENDBRANCH  12  13
ENDBRANCH   1  12
TORSDOF 14
ENDMDL
MODEL 7
REMARK VINA RESULT:    -3.626      2.003      5.078
REMARK INTER + INTRA:          -8.604
REMARK INTER:                  -6.635
REMARK INTRA:                  -1.969
REMARK UNBOUND:                -2.010
REMARK SMILES CCCCCCCCCCCCCC[C@H](C)C(=O)[O-]
REMARK SMILES IDX 9 1 10 2 11 3 12 4 13 5 14 6 15 7 16 8 17 9 18 10 19 11 8 12
REMARK SMILES IDX 7 13 6 14 5 15 4 16 3 17 2 18 1 19
REMARK H PARENT
REMARK Flexibility Score: inf
ROOT
ATOM      1  C   UNL     1      29.447 160.264 118.634  1.00  0.00     0.000 C 
ENDROOT
BRANCH   1   2
ATOM      2  C   UNL     1      28.373 160.991 117.810  1.00  0.00     0.000 C 
BRANCH   2   3
ATOM      3  C   UNL     1      27.914 160.131 116.626  1.00  0.00     0.000 C 
BRANCH   3   4
ATOM      4  C   UNL     1      26.391 160.209 116.448  1.00  0.00     0.000 C 
BRANCH   4   5
ATOM      5  C   UNL     1      25.624 159.724 117.689  1.00  0.00     0.001 C 
BRANCH   5   6
ATOM      6  C   UNL     1      25.811 158.219 117.950  1.00  0.00     0.009 C 
BRANCH   6   7
ATOM      7  C   UNL     1      25.655 157.867 119.444  1.00  0.00     0.032 C 
ATOM      8  C   UNL     1      26.369 158.901 120.320  1.00  0.00     0.014 C 
BRANCH   7   9
ATOM      9  C   UNL     1      26.193 156.493 119.741  1.00  0.00     0.044 C 
ATOM     10  O   UNL     1      25.909 155.526 118.985  1.00  0.00    -0.550 OA
ATOM     11  O   UNL     1      27.004 156.279 120.850  1.00  0.00    -0.550 OA
ENDBRANCH   7   9
ENDBRANCH   6   7
ENDBRANCH   5   6
ENDBRANCH   4   5
ENDBRANCH   3   4
ENDBRANCH   2   3
ENDBRANCH   1   2
BRANCH   1  12
ATOM     12  C   UNL     1      30.804 160.201 117.915  1.00  0.00     0.000 C 
BRANCH  12  13
ATOM     13  C   UNL     1      31.805 161.239 118.446  1.00  0.00    -0.000 C 
BRANCH  13  14
ATOM     14  C   UNL     1      31.823 161.251 119.979  1.00  0.00    -0.000 C 
BRANCH  14  15
ATOM     15  C   UNL     1      33.055 160.510 120.520  1.00  0.00    -0.000 C 
BRANCH  15  16
ATOM     16  C   UNL     1      32.686 159.321 121.421  1.00  0.00    -0.000 C 
BRANCH  16  17
ATOM     17  C   UNL     1      32.389 158.041 120.619  1.00  0.00    -0.000 C 
BRANCH  17  18
ATOM     18  C   UNL     1      31.153 157.293 121.141  1.00  0.00    -0.003 C 
ATOM     19  C   UNL     1      30.106 158.228 121.749  1.00  0.00     0.004 C 
ENDBRANCH  17  18
ENDBRANCH  16  17
ENDBRANCH  15  16
ENDBRANCH  14  15
ENDBRANCH  13  14
ENDBRANCH  12  13
ENDBRANCH   1  12
TORSDOF 14
ENDMDL
MODEL 8
REMARK VINA RESULT:    -3.624      2.706      4.573
REMARK INTER + INTRA:          -8.601
REMARK INTER:                  -6.685
REMARK INTRA:                  -1.916
REMARK UNBOUND:                -2.010
REMARK SMILES CCCCCCCCCCCCCC[C@H](C)C(=O)[O-]
REMARK SMILES IDX 9 1 10 2 11 3 12 4 13 5 14 6 15 7 16 8 17 9 18 10 19 11 8 12
REMARK SMILES IDX 7 13 6 14 5 15 4 16 3 17 2 18 1 19
REMARK H PARENT
REMARK Flexibility Score: inf
ROOT
ATOM      1  C   UNL     1      28.921 157.335 121.751  1.00  0.00     0.000 C 
ENDROOT
BRANCH   1   2
ATOM      2  C   UNL     1      28.577 158.827 121.620  1.00  0.00     0.000 C 
BRANCH   2   3
ATOM      3  C   UNL     1      28.898 159.343 120.212  1.00  0.00     0.000 C 
BRANCH   3   4
ATOM      4  C   UNL     1      28.799 160.875 120.152  1.00  0.00     0.000 C 
BRANCH   4   5
ATOM      5  C   UNL     1      29.501 161.465 118.918  1.00  0.00     0.001 C 
BRANCH   5   6
ATOM      6  C   UNL     1      30.384 160.436 118.190  1.00  0.00     0.009 C 
BRANCH   6   7
ATOM      7  C   UNL     1      31.887 160.751 118.340  1.00  0.00     0.032 C 
ATOM      8  C   UNL     1      32.670 160.234 117.129  1.00  0.00     0.014 C 
BRANCH   7   9
ATOM      9  C   UNL     1      32.447 160.152 119.601  1.00  0.00     0.044 C 
ATOM     10  O   UNL     1      32.937 160.895 120.491  1.00  0.00    -0.550 OA
ATOM     11  O   UNL     1      32.431 158.774 119.792  1.00  0.00    -0.550 OA
ENDBRANCH   7   9
ENDBRANCH   6   7
ENDBRANCH   5   6
ENDBRANCH   4   5
ENDBRANCH   3   4
ENDBRANCH   2   3
ENDBRANCH   1   2
BRANCH   1  12
ATOM     12  C   UNL     1      27.699 156.475 122.108  1.00  0.00     0.000 C 
BRANCH  12  13
ATOM     13  C   UNL     1      26.464 156.818 121.260  1.00  0.00    -0.000 C 
BRANCH  13  14
ATOM     14  C   UNL     1      26.364 155.897 120.037  1.00  0.00    -0.000 C 
BRANCH  14  15
ATOM     15  C   UNL     1      25.582 156.575 118.901  1.00  0.00    -0.000 C 
BRANCH  15  16
ATOM     16  C   UNL     1      25.812 158.093 118.845  1.00  0.00    -0.000 C 
BRANCH  16  17
ATOM     17  C   UNL     1      25.861 158.631 117.404  1.00  0.00    -0.000 C 
BRANCH  17  18
ATOM     18  C   UNL     1      26.580 159.985 117.304  1.00  0.00    -0.003 C 
ATOM     19  C   UNL     1      27.295 160.179 115.966  1.00  0.00     0.004 C 
ENDBRANCH  17  18
ENDBRANCH  16  17
ENDBRANCH  15  16
ENDBRANCH  14  15
ENDBRANCH  13  14
ENDBRANCH  12  13
ENDBRANCH   1  12
TORSDOF 14
ENDMDL
MODEL 9
REMARK VINA RESULT:    -3.562      1.782      5.472
REMARK INTER + INTRA:          -8.488
REMARK INTER:                  -6.368
REMARK INTRA:                  -2.120
REMARK UNBOUND:                -2.010
REMARK SMILES CCCCCCCCCCCCCC[C@H](C)C(=O)[O-]
REMARK SMILES IDX 9 1 10 2 11 3 12 4 13 5 14 6 15 7 16 8 17 9 18 10 19 11 8 12
REMARK SMILES IDX 7 13 6 14 5 15 4 16 3 17 2 18 1 19
REMARK H PARENT
REMARK Flexibility Score: inf
ROOT
ATOM      1  C   UNL     1      27.194 159.872 116.692  1.00  0.00     0.000 C 
ENDROOT
BRANCH   1   2
ATOM      2  C   UNL     1      25.754 159.917 117.228  1.00  0.00     0.000 C 
BRANCH   2   3
ATOM      3  C   UNL     1      25.669 160.764 118.503  1.00  0.00     0.000 C 
BRANCH   3   4
ATOM      4  C   UNL     1      25.363 159.887 119.726  1.00  0.00     0.000 C 
BRANCH   4   5
ATOM      5  C   UNL     1      26.623 159.541 120.536  1.00  0.00     0.001 C 
BRANCH   5   6
ATOM      6  C   UNL     1      27.186 158.151 120.191  1.00  0.00     0.009 C 
BRANCH   6   7
ATOM      7  C   UNL     1      26.202 157.019 120.553  1.00  0.00     0.032 C 
ATOM      8  C   UNL     1      26.740 156.192 121.725  1.00  0.00     0.014 C 
BRANCH   7   9
ATOM      9  C   UNL     1      25.943 156.122 119.374  1.00  0.00     0.044 C 
ATOM     10  O   UNL     1      25.546 156.610 118.283  1.00  0.00    -0.550 OA
ATOM     11  O   UNL     1      26.135 154.748 119.479  1.00  0.00    -0.550 OA
ENDBRANCH   7   9
ENDBRANCH   6   7
ENDBRANCH   5   6
ENDBRANCH   4   5
ENDBRANCH   3   4
ENDBRANCH   2   3
ENDBRANCH   1   2
BRANCH   1  12
ATOM     12  C   UNL     1      28.109 160.906 117.366  1.00  0.00     0.000 C 
BRANCH  12  13
ATOM     13  C   UNL     1      29.361 160.272 117.990  1.00  0.00    -0.000 C 
BRANCH  13  14
ATOM     14  C   UNL     1      30.040 161.240 118.967  1.00  0.00    -0.000 C 
BRANCH  14  15
ATOM     15  C   UNL     1      30.373 160.539 120.293  1.00  0.00    -0.000 C 
BRANCH  15  16
ATOM     16  C   UNL     1      31.838 160.081 120.372  1.00  0.00    -0.000 C 
BRANCH  16  17
ATOM     17  C   UNL     1      31.979 158.548 120.353  1.00  0.00    -0.000 C 
BRANCH  17  18
ATOM     18  C   UNL     1      31.617 157.908 121.702  1.00  0.00    -0.003 C 
ATOM     19  C   UNL     1      30.380 157.012 121.620  1.00  0.00     0.004 C 
ENDBRANCH  17  18
ENDBRANCH  16  17
ENDBRANCH  15  16
ENDBRANCH  14  15
ENDBRANCH  13  14
ENDBRANCH  12  13
ENDBRANCH   1  12
TORSDOF 14
ENDMDL
