MODEL 1
REMARK VINA RESULT:    -3.806      0.000      0.000
REMARK INTER + INTRA:          -8.811
REMARK INTER:                  -6.922
REMARK INTRA:                  -1.890
REMARK UNBOUND:                -1.890
REMARK SMILES CCCCCCCCCCCCCCCC(=O)[O-]
REMARK SMILES IDX 9 1 10 2 11 3 12 4 13 5 14 6 15 7 16 8 17 9 18 10 8 11 7 12
REMARK SMILES IDX 6 13 5 14 4 15 3 16 2 17 1 18
REMARK H PARENT
REMARK Flexibility Score: inf
ROOT
ATOM      1  C   UNL     1      30.286  15.174 -17.191  1.00  0.00     0.000 C 
ENDROOT
BRANCH   1   2
ATOM      2  C   UNL     1      30.641  14.918 -18.671  1.00  0.00     0.000 C 
BRANCH   2   3
ATOM      3  C   UNL     1      30.956  16.177 -19.499  1.00  0.00     0.000 C 
BRANCH   3   4
ATOM      4  C   UNL     1      30.329  17.453 -18.913  1.00  0.00     0.000 C 
BRANCH   4   5
ATOM      5  C   UNL     1      28.974  17.805 -19.553  1.00  0.00     0.000 C 
BRANCH   5   6
ATOM      6  C   UNL     1      27.758  17.704 -18.613  1.00  0.00     0.006 C 
BRANCH   6   7
ATOM      7  C   UNL     1      27.813  18.705 -17.453  1.00  0.00     0.053 C 
BRANCH   7   8
ATOM      8  C   UNL     1      26.904  19.864 -17.718  1.00  0.00     0.041 C 
ATOM      9  O   UNL     1      26.898  20.420 -18.848  1.00  0.00    -0.550 OA
ATOM     10  O   UNL     1      26.027  20.299 -16.733  1.00  0.00    -0.550 OA
ENDBRANCH   7   8
ENDBRANCH   6   7
ENDBRANCH   5   6
ENDBRANCH   4   5
ENDBRANCH   3   4
ENDBRANCH   2   3
ENDBRANCH   1   2
BRANCH   1  11
ATOM     11  C   UNL     1      31.117  14.376 -16.172  1.00  0.00     0.000 C 
BRANCH  11  12
ATOM     12  C   UNL     1      32.377  13.750 -16.788  1.00  0.00    -0.000 C 
BRANCH  12  13
ATOM     13  C   UNL     1      33.615  14.059 -15.939  1.00  0.00    -0.000 C 
BRANCH  13  14
ATOM     14  C   UNL     1      34.654  14.848 -16.748  1.00  0.00    -0.000 C 
BRANCH  14  15
ATOM     15  C   UNL     1      34.397  14.792 -18.262  1.00  0.00    -0.000 C 
BRANCH  15  16
ATOM     16  C   UNL     1      34.530  16.170 -18.935  1.00  0.00    -0.000 C 
BRANCH  16  17
ATOM     17  C   UNL     1      34.504  17.324 -17.921  1.00  0.00    -0.003 C 
ATOM     18  C   UNL     1      33.756  18.553 -18.439  1.00  0.00     0.004 C 
ENDBRANCH  16  17
ENDBRANCH  15  16
ENDBRANCH  14  15
ENDBRANCH  13  14
ENDBRANCH  12  13
ENDBRANCH  11  12
ENDBRANCH   1  11
TORSDOF 14
ENDMDL
MODEL 2
REMARK VINA RESULT:    -3.691      1.033      3.294
REMARK INTER + INTRA:          -8.601
REMARK INTER:                  -7.071
REMARK INTRA:                  -1.530
REMARK UNBOUND:                -1.890
REMARK SMILES CCCCCCCCCCCCCCCC(=O)[O-]
REMARK SMILES IDX 9 1 10 2 11 3 12 4 13 5 14 6 15 7 16 8 17 9 18 10 8 11 7 12
REMARK SMILES IDX 6 13 5 14 4 15 3 16 2 17 1 18
REMARK H PARENT
REMARK Flexibility Score: inf
ROOT
ATOM      1  C   UNL     1      33.552  18.069 -18.636  1.00  0.00     0.000 C 
ENDROOT
BRANCH   1   2
ATOM      2  C   UNL     1      33.098  17.462 -19.980  1.00  0.00     0.000 C 
BRANCH   2   3
ATOM      3  C   UNL     1      31.660  16.913 -20.002  1.00  0.00     0.000 C 
BRANCH   3   4
ATOM      4  C   UNL     1      30.952  17.033 -18.642  1.00  0.00     0.000 C 
BRANCH   4   5
ATOM      5  C   UNL     1      29.733  17.972 -18.680  1.00  0.00     0.000 C 
BRANCH   5   6
ATOM      6  C   UNL     1      28.574  17.583 -17.744  1.00  0.00     0.006 C 
BRANCH   6   7
ATOM      7  C   UNL     1      27.890  18.795 -17.102  1.00  0.00     0.053 C 
BRANCH   7   8
ATOM      8  C   UNL     1      26.819  19.328 -18.000  1.00  0.00     0.041 C 
ATOM      9  O   UNL     1      25.652  18.859 -17.942  1.00  0.00    -0.550 OA
ATOM     10  O   UNL     1      27.097  20.378 -18.866  1.00  0.00    -0.550 OA
ENDBRANCH   7   8
ENDBRANCH   6   7
ENDBRANCH   5   6
ENDBRANCH   4   5
ENDBRANCH   3   4
ENDBRANCH   2   3
ENDBRANCH   1   2
BRANCH   1  11
ATOM     11  C   UNL     1      34.635  17.269 -17.890  1.00  0.00     0.000 C 
BRANCH  11  12
ATOM     12  C   UNL     1      34.400  15.753 -17.942  1.00  0.00    -0.000 C 
BRANCH  12  13
ATOM     13  C   UNL     1      34.659  15.109 -16.576  1.00  0.00    -0.000 C 
BRANCH  13  14
ATOM     14  C   UNL     1      33.779  13.866 -16.377  1.00  0.00    -0.000 C 
BRANCH  14  15
ATOM     15  C   UNL     1      32.314  14.104 -16.773  1.00  0.00    -0.000 C 
BRANCH  15  16
ATOM     16  C   UNL     1      31.356  14.023 -15.571  1.00  0.00    -0.000 C 
BRANCH  16  17
ATOM     17  C   UNL     1      30.021  14.737 -15.833  1.00  0.00    -0.003 C 
ATOM     18  C   UNL     1      29.227  14.108 -16.978  1.00  0.00     0.004 C 
ENDBRANCH  16  17
ENDBRANCH  15  16
ENDBRANCH  14  15
ENDBRANCH  13  14
ENDBRANCH  12  13
ENDBRANCH  11  12
ENDBRANCH   1  11
TORSDOF 14
ENDMDL
MODEL 3
REMARK VINA RESULT:    -3.675      1.127      1.843
REMARK INTER + INTRA:          -8.572
REMARK INTER:                  -6.909
REMARK INTRA:                  -1.663
REMARK UNBOUND:                -1.890
REMARK SMILES CCCCCCCCCCCCCCCC(=O)[O-]
REMARK SMILES IDX 9 1 10 2 11 3 12 4 13 5 14 6 15 7 16 8 17 9 18 10 8 11 7 12
REMARK SMILES IDX 6 13 5 14 4 15 3 16 2 17 1 18
REMARK H PARENT
REMARK Flexibility Score: inf
ROOT
ATOM      1  C   UNL     1      29.800  14.180 -15.240  1.00  0.00     0.000 C 
ENDROOT
BRANCH   1   2
ATOM      2  C   UNL     1      29.347  15.352 -16.135  1.00  0.00     0.000 C 
BRANCH   2   3
ATOM      3  C   UNL     1      28.446  14.965 -17.322  1.00  0.00     0.000 C 
BRANCH   3   4
ATOM      4  C   UNL     1      28.985  15.464 -18.672  1.00  0.00     0.000 C 
BRANCH   4   5
ATOM      5  C   UNL     1      30.219  16.374 -18.527  1.00  0.00     0.000 C 
BRANCH   5   6
ATOM      6  C   UNL     1      29.978  17.862 -18.840  1.00  0.00     0.006 C 
BRANCH   6   7
ATOM      7  C   UNL     1      28.520  18.169 -19.201  1.00  0.00     0.053 C 
BRANCH   7   8
ATOM      8  C   UNL     1      27.871  18.973 -18.119  1.00  0.00     0.041 C 
ATOM      9  O   UNL     1      28.095  18.706 -16.909  1.00  0.00    -0.550 OA
ATOM     10  O   UNL     1      27.058  20.052 -18.447  1.00  0.00    -0.550 OA
ENDBRANCH   7   8
ENDBRANCH   6   7
ENDBRANCH   5   6
ENDBRANCH   4   5
ENDBRANCH   3   4
ENDBRANCH   2   3
ENDBRANCH   1   2
BRANCH   1  11
ATOM     11  C   UNL     1      31.104  13.489 -15.677  1.00  0.00     0.000 C 
BRANCH  11  12
ATOM     12  C   UNL     1      32.098  14.455 -16.338  1.00  0.00    -0.000 C 
BRANCH  12  13
ATOM     13  C   UNL     1      33.544  14.024 -16.070  1.00  0.00    -0.000 C 
BRANCH  13  14
ATOM     14  C   UNL     1      34.536  14.939 -16.802  1.00  0.00    -0.000 C 
BRANCH  14  15
ATOM     15  C   UNL     1      34.437  14.822 -18.332  1.00  0.00    -0.000 C 
BRANCH  15  16
ATOM     16  C   UNL     1      34.531  16.187 -19.035  1.00  0.00    -0.000 C 
BRANCH  16  17
ATOM     17  C   UNL     1      34.573  17.359 -18.042  1.00  0.00    -0.003 C 
ATOM     18  C   UNL     1      33.587  18.473 -18.396  1.00  0.00     0.004 C 
ENDBRANCH  16  17
ENDBRANCH  15  16
ENDBRANCH  14  15
ENDBRANCH  13  14
ENDBRANCH  12  13
ENDBRANCH  11  12
ENDBRANCH   1  11
TORSDOF 14
ENDMDL
MODEL 4
REMARK VINA RESULT:    -3.662      2.517      5.463
REMARK INTER + INTRA:          -8.549
REMARK INTER:                  -7.040
REMARK INTRA:                  -1.508
REMARK UNBOUND:                -1.890
REMARK SMILES CCCCCCCCCCCCCCCC(=O)[O-]
REMARK SMILES IDX 9 1 10 2 11 3 12 4 13 5 14 6 15 7 16 8 17 9 18 10 8 11 7 12
REMARK SMILES IDX 6 13 5 14 4 15 3 16 2 17 1 18
REMARK H PARENT
REMARK Flexibility Score: inf
ROOT
ATOM      1  C   UNL     1      34.173  15.738 -17.926  1.00  0.00     0.000 C 
ENDROOT
BRANCH   1   2
ATOM      2  C   UNL     1      34.716  14.933 -16.726  1.00  0.00     0.000 C 
BRANCH   2   3
ATOM      3  C   UNL     1      33.673  14.086 -15.976  1.00  0.00     0.000 C 
BRANCH   3   4
ATOM      4  C   UNL     1      32.311  14.044 -16.688  1.00  0.00     0.000 C 
BRANCH   4   5
ATOM      5  C   UNL     1      31.247  13.255 -15.904  1.00  0.00     0.000 C 
BRANCH   5   6
ATOM      6  C   UNL     1      30.078  14.094 -15.356  1.00  0.00     0.006 C 
BRANCH   6   7
ATOM      7  C   UNL     1      28.773  13.299 -15.238  1.00  0.00     0.053 C 
BRANCH   7   8
ATOM      8  C   UNL     1      27.753  13.822 -16.201  1.00  0.00     0.041 C 
ATOM      9  O   UNL     1      27.770  13.454 -17.404  1.00  0.00    -0.550 OA
ATOM     10  O   UNL     1      26.753  14.678 -15.756  1.00  0.00    -0.550 OA
ENDBRANCH   7   8
ENDBRANCH   6   7
ENDBRANCH   5   6
ENDBRANCH   4   5
ENDBRANCH   3   4
ENDBRANCH   2   3
ENDBRANCH   1   2
BRANCH   1  11
ATOM     11  C   UNL     1      34.590  17.219 -17.962  1.00  0.00     0.000 C 
BRANCH  11  12
ATOM     12  C   UNL     1      33.490  18.136 -18.516  1.00  0.00    -0.000 C 
BRANCH  12  13
ATOM     13  C   UNL     1      32.415  17.324 -19.249  1.00  0.00    -0.000 C 
BRANCH  13  14
ATOM     14  C   UNL     1      31.008  17.741 -18.798  1.00  0.00    -0.000 C 
BRANCH  14  15
ATOM     15  C   UNL     1      30.194  16.570 -18.225  1.00  0.00    -0.000 C 
BRANCH  15  16
ATOM     16  C   UNL     1      28.787  16.995 -17.769  1.00  0.00    -0.000 C 
BRANCH  16  17
ATOM     17  C   UNL     1      28.656  18.518 -17.612  1.00  0.00    -0.003 C 
ATOM     18  C   UNL     1      27.335  19.060 -18.161  1.00  0.00     0.004 C 
ENDBRANCH  16  17
ENDBRANCH  15  16
ENDBRANCH  14  15
ENDBRANCH  13  14
ENDBRANCH  12  13
ENDBRANCH  11  12
ENDBRANCH   1  11
TORSDOF 14
ENDMDL
MODEL 5
REMARK VINA RESULT:    -3.653      2.434      5.758
REMARK INTER + INTRA:          -8.532
REMARK INTER:                  -6.935
REMARK INTRA:                  -1.597
REMARK UNBOUND:                -1.890
REMARK SMILES CCCCCCCCCCCCCCCC(=O)[O-]
REMARK SMILES IDX 9 1 10 2 11 3 12 4 13 5 14 6 15 7 16 8 17 9 18 10 8 11 7 12
REMARK SMILES IDX 6 13 5 14 4 15 3 16 2 17 1 18
REMARK H PARENT
REMARK Flexibility Score: inf
ROOT
ATOM      1  C   UNL     1      34.627  17.259 -17.874  1.00  0.00     0.000 C 
ENDROOT
BRANCH   1   2
ATOM      2  C   UNL     1      34.374  15.740 -17.963  1.00  0.00     0.000 C 
BRANCH   2   3
ATOM      3  C   UNL     1      34.622  14.954 -16.663  1.00  0.00     0.000 C 
BRANCH   3   4
ATOM      4  C   UNL     1      33.461  14.013 -16.301  1.00  0.00     0.000 C 
BRANCH   4   5
ATOM      5  C   UNL     1      32.082  14.687 -16.416  1.00  0.00     0.000 C 
BRANCH   5   6
ATOM      6  C   UNL     1      31.098  14.008 -17.385  1.00  0.00     0.006 C 
BRANCH   6   7
ATOM      7  C   UNL     1      29.648  14.466 -17.185  1.00  0.00     0.053 C 
BRANCH   7   8
ATOM      8  C   UNL     1      29.351  14.640 -15.729  1.00  0.00     0.041 C 
ATOM      9  O   UNL     1      29.016  15.768 -15.281  1.00  0.00    -0.550 OA
ATOM     10  O   UNL     1      29.394  13.545 -14.875  1.00  0.00    -0.550 OA
ENDBRANCH   7   8
ENDBRANCH   6   7
ENDBRANCH   5   6
ENDBRANCH   4   5
ENDBRANCH   3   4
ENDBRANCH   2   3
ENDBRANCH   1   2
BRANCH   1  11
ATOM     11  C   UNL     1      33.589  18.138 -18.594  1.00  0.00     0.000 C 
BRANCH  11  12
ATOM     12  C   UNL     1      32.581  17.321 -19.415  1.00  0.00    -0.000 C 
BRANCH  12  13
ATOM     13  C   UNL     1      31.167  17.453 -18.837  1.00  0.00    -0.000 C 
BRANCH  13  14
ATOM     14  C   UNL     1      30.109  17.385 -19.948  1.00  0.00    -0.000 C 
BRANCH  14  15
ATOM     15  C   UNL     1      28.819  18.139 -19.589  1.00  0.00    -0.000 C 
BRANCH  15  16
ATOM     16  C   UNL     1      28.194  17.646 -18.273  1.00  0.00    -0.000 C 
BRANCH  16  17
ATOM     17  C   UNL     1      27.970  18.785 -17.266  1.00  0.00    -0.003 C 
ATOM     18  C   UNL     1      26.674  19.555 -17.520  1.00  0.00     0.004 C 
ENDBRANCH  16  17
ENDBRANCH  15  16
ENDBRANCH  14  15
ENDBRANCH  13  14
ENDBRANCH  12  13
ENDBRANCH  11  12
ENDBRANCH   1  11
TORSDOF 14
ENDMDL
MODEL 6
REMARK VINA RESULT:    -3.622      2.154      3.859
REMARK INTER + INTRA:          -8.476
REMARK INTER:                  -6.762
REMARK INTRA:                  -1.714
REMARK UNBOUND:                -1.890
REMARK SMILES CCCCCCCCCCCCCCCC(=O)[O-]
REMARK SMILES IDX 9 1 10 2 11 3 12 4 13 5 14 6 15 7 16 8 17 9 18 10 8 11 7 12
REMARK SMILES IDX 6 13 5 14 4 15 3 16 2 17 1 18
REMARK H PARENT
REMARK Flexibility Score: inf
ROOT
ATOM      1  C   UNL     1      33.681  17.712 -19.716  1.00  0.00     0.000 C 
ENDROOT
BRANCH   1   2
ATOM      2  C   UNL     1      32.211  17.295 -19.933  1.00  0.00     0.000 C 
BRANCH   2   3
ATOM      3  C   UNL     1      31.270  17.559 -18.743  1.00  0.00     0.000 C 
BRANCH   3   4
ATOM      4  C   UNL     1      29.833  17.075 -18.998  1.00  0.00     0.000 C 
BRANCH   4   5
ATOM      5  C   UNL     1      28.776  18.159 -18.717  1.00  0.00     0.000 C 
BRANCH   5   6
ATOM      6  C   UNL     1      27.860  17.885 -17.509  1.00  0.00     0.006 C 
BRANCH   6   7
ATOM      7  C   UNL     1      28.281  16.648 -16.707  1.00  0.00     0.053 C 
BRANCH   7   8
ATOM      8  C   UNL     1      27.266  15.559 -16.853  1.00  0.00     0.041 C 
ATOM      9  O   UNL     1      26.979  14.824 -15.872  1.00  0.00    -0.550 OA
ATOM     10  O   UNL     1      26.599  15.388 -18.060  1.00  0.00    -0.550 OA
ENDBRANCH   7   8
ENDBRANCH   6   7
ENDBRANCH   5   6
ENDBRANCH   4   5
ENDBRANCH   3   4
ENDBRANCH   2   3
ENDBRANCH   1   2
BRANCH   1  11
ATOM     11  C   UNL     1      34.056  18.058 -18.264  1.00  0.00     0.000 C 
BRANCH  11  12
ATOM     12  C   UNL     1      35.001  17.027 -17.630  1.00  0.00    -0.000 C 
BRANCH  12  13
ATOM     13  C   UNL     1      34.456  15.604 -17.798  1.00  0.00    -0.000 C 
BRANCH  13  14
ATOM     14  C   UNL     1      34.482  14.844 -16.464  1.00  0.00    -0.000 C 
BRANCH  14  15
ATOM     15  C   UNL     1      33.155  14.130 -16.159  1.00  0.00    -0.000 C 
BRANCH  15  16
ATOM     16  C   UNL     1      32.107  14.333 -17.267  1.00  0.00    -0.000 C 
BRANCH  16  17
ATOM     17  C   UNL     1      30.690  13.953 -16.812  1.00  0.00    -0.003 C 
ATOM     18  C   UNL     1      30.518  14.011 -15.294  1.00  0.00     0.004 C 
ENDBRANCH  16  17
ENDBRANCH  15  16
ENDBRANCH  14  15
ENDBRANCH  13  14
ENDBRANCH  12  13
ENDBRANCH  11  12
ENDBRANCH   1  11
TORSDOF 14
ENDMDL
MODEL 7
REMARK VINA RESULT:    -3.572      2.475      5.881
REMARK INTER + INTRA:          -8.384
REMARK INTER:                  -6.826
REMARK INTRA:                  -1.559
REMARK UNBOUND:                -1.890
REMARK SMILES CCCCCCCCCCCCCCCC(=O)[O-]
REMARK SMILES IDX 9 1 10 2 11 3 12 4 13 5 14 6 15 7 16 8 17 9 18 10 8 11 7 12
REMARK SMILES IDX 6 13 5 14 4 15 3 16 2 17 1 18
REMARK H PARENT
REMARK Flexibility Score: inf
ROOT
ATOM      1  C   UNL     1      30.436  14.726 -15.598  1.00  0.00     0.000 C 
ENDROOT
BRANCH   1   2
ATOM      2  C   UNL     1      30.935  13.278 -15.790  1.00  0.00     0.000 C 
BRANCH   2   3
ATOM      3  C   UNL     1      32.374  13.142 -16.317  1.00  0.00     0.000 C 
BRANCH   3   4
ATOM      4  C   UNL     1      33.246  14.369 -16.003  1.00  0.00     0.000 C 
BRANCH   4   5
ATOM      5  C   UNL     1      34.322  14.631 -17.073  1.00  0.00     0.000 C 
BRANCH   5   6
ATOM      6  C   UNL     1      33.930  15.644 -18.165  1.00  0.00     0.006 C 
BRANCH   6   7
ATOM      7  C   UNL     1      34.546  17.030 -17.945  1.00  0.00     0.053 C 
BRANCH   7   8
ATOM      8  C   UNL     1      33.838  18.055 -18.773  1.00  0.00     0.041 C 
ATOM      9  O   UNL     1      33.753  17.914 -20.021  1.00  0.00    -0.550 OA
ATOM     10  O   UNL     1      33.227  19.142 -18.160  1.00  0.00    -0.550 OA
ENDBRANCH   7   8
ENDBRANCH   6   7
ENDBRANCH   5   6
ENDBRANCH   4   5
ENDBRANCH   3   4
ENDBRANCH   2   3
ENDBRANCH   1   2
BRANCH   1  11
ATOM     11  C   UNL     1      29.036  15.016 -16.166  1.00  0.00     0.000 C 
BRANCH  11  12
ATOM     12  C   UNL     1      29.062  15.384 -17.657  1.00  0.00    -0.000 C 
BRANCH  12  13
ATOM     13  C   UNL     1      30.372  16.088 -18.027  1.00  0.00    -0.000 C 
BRANCH  13  14
ATOM     14  C   UNL     1      30.105  17.508 -18.548  1.00  0.00    -0.000 C 
BRANCH  14  15
ATOM     15  C   UNL     1      28.927  17.570 -19.532  1.00  0.00    -0.000 C 
BRANCH  15  16
ATOM     16  C   UNL     1      27.986  18.755 -19.253  1.00  0.00    -0.000 C 
BRANCH  16  17
ATOM     17  C   UNL     1      27.743  18.971 -17.751  1.00  0.00    -0.003 C 
ATOM     18  C   UNL     1      26.399  19.640 -17.458  1.00  0.00     0.004 C 
ENDBRANCH  16  17
ENDBRANCH  15  16
ENDBRANCH  14  15
ENDBRANCH  13  14
ENDBRANCH  12  13
ENDBRANCH  11  12
ENDBRANCH   1  11
TORSDOF 14
ENDMDL
MODEL 8
REMARK VINA RESULT:    -3.493      1.749      2.338
REMARK INTER + INTRA:          -8.242
REMARK INTER:                  -7.233
REMARK INTRA:                  -1.009
REMARK UNBOUND:                -1.890
REMARK SMILES CCCCCCCCCCCCCCCC(=O)[O-]
REMARK SMILES IDX 9 1 10 2 11 3 12 4 13 5 14 6 15 7 16 8 17 9 18 10 8 11 7 12
REMARK SMILES IDX 6 13 5 14 4 15 3 16 2 17 1 18
REMARK H PARENT
REMARK Flexibility Score: inf
ROOT
ATOM      1  C   UNL     1      29.063  15.523 -15.707  1.00  0.00     0.000 C 
ENDROOT
BRANCH   1   2
ATOM      2  C   UNL     1      28.200  16.184 -16.803  1.00  0.00     0.000 C 
BRANCH   2   3
ATOM      3  C   UNL     1      28.975  16.691 -18.033  1.00  0.00     0.000 C 
BRANCH   3   4
ATOM      4  C   UNL     1      28.844  18.209 -18.240  1.00  0.00     0.000 C 
BRANCH   4   5
ATOM      5  C   UNL     1      27.859  18.866 -17.257  1.00  0.00     0.000 C 
BRANCH   5   6
ATOM      6  C   UNL     1      26.685  19.619 -17.909  1.00  0.00     0.006 C 
BRANCH   6   7
ATOM      7  C   UNL     1      26.120  18.898 -19.138  1.00  0.00     0.053 C 
BRANCH   7   8
ATOM      8  C   UNL     1      24.883  18.139 -18.777  1.00  0.00     0.041 C 
ATOM      9  O   UNL     1      24.384  18.249 -17.626  1.00  0.00    -0.550 OA
ATOM     10  O   UNL     1      24.250  17.347 -19.729  1.00  0.00    -0.550 OA
ENDBRANCH   7   8
ENDBRANCH   6   7
ENDBRANCH   5   6
ENDBRANCH   4   5
ENDBRANCH   3   4
ENDBRANCH   2   3
ENDBRANCH   1   2
BRANCH   1  11
ATOM     11  C   UNL     1      29.707  14.182 -16.101  1.00  0.00     0.000 C 
BRANCH  11  12
ATOM     12  C   UNL     1      31.124  14.012 -15.534  1.00  0.00    -0.000 C 
BRANCH  12  13
ATOM     13  C   UNL     1      32.181  14.222 -16.625  1.00  0.00    -0.000 C 
BRANCH  13  14
ATOM     14  C   UNL     1      33.599  14.127 -16.043  1.00  0.00    -0.000 C 
BRANCH  14  15
ATOM     15  C   UNL     1      34.618  14.983 -16.813  1.00  0.00    -0.000 C 
BRANCH  15  16
ATOM     16  C   UNL     1      33.961  15.834 -17.914  1.00  0.00    -0.000 C 
BRANCH  16  17
ATOM     17  C   UNL     1      34.572  17.241 -18.011  1.00  0.00    -0.003 C 
ATOM     18  C   UNL     1      33.561  18.297 -18.457  1.00  0.00     0.004 C 
ENDBRANCH  16  17
ENDBRANCH  15  16
ENDBRANCH  14  15
ENDBRANCH  13  14
ENDBRANCH  12  13
ENDBRANCH  11  12
ENDBRANCH   1  11
TORSDOF 14
ENDMDL
MODEL 9
REMARK VINA RESULT:    -3.490     12.381     14.630
REMARK INTER + INTRA:          -8.236
REMARK INTER:                  -6.376
REMARK INTRA:                  -1.860
REMARK UNBOUND:                -1.890
REMARK SMILES CCCCCCCCCCCCCCCC(=O)[O-]
REMARK SMILES IDX 9 1 10 2 11 3 12 4 13 5 14 6 15 7 16 8 17 9 18 10 8 11 7 12
REMARK SMILES IDX 6 13 5 14 4 15 3 16 2 17 1 18
REMARK H PARENT
REMARK Flexibility Score: inf
ROOT
ATOM      1  C   UNL     1      25.925  27.836 -16.790  1.00  0.00     0.000 C 
ENDROOT
BRANCH   1   2
ATOM      2  C   UNL     1      24.443  27.522 -17.080  1.00  0.00     0.000 C 
BRANCH   2   3
ATOM      3  C   UNL     1      24.152  26.953 -18.481  1.00  0.00     0.000 C 
BRANCH   3   4
ATOM      4  C   UNL     1      23.555  27.997 -19.439  1.00  0.00     0.000 C 
BRANCH   4   5
ATOM      5  C   UNL     1      22.720  29.069 -18.715  1.00  0.00     0.000 C 
BRANCH   5   6
ATOM      6  C   UNL     1      23.217  30.516 -18.889  1.00  0.00     0.006 C 
BRANCH   6   7
ATOM      7  C   UNL     1      22.459  31.519 -18.012  1.00  0.00     0.053 C 
BRANCH   7   8
ATOM      8  C   UNL     1      23.275  31.887 -16.813  1.00  0.00     0.041 C 
ATOM      9  O   UNL     1      23.028  31.366 -15.693  1.00  0.00    -0.550 OA
ATOM     10  O   UNL     1      24.341  32.769 -16.942  1.00  0.00    -0.550 OA
ENDBRANCH   7   8
ENDBRANCH   6   7
ENDBRANCH   5   6
ENDBRANCH   4   5
ENDBRANCH   3   4
ENDBRANCH   2   3
ENDBRANCH   1   2
BRANCH   1  11
ATOM     11  C   UNL     1      26.904  27.476 -17.922  1.00  0.00     0.000 C 
BRANCH  11  12
ATOM     12  C   UNL     1      27.898  28.604 -18.234  1.00  0.00    -0.000 C 
BRANCH  12  13
ATOM     13  C   UNL     1      27.487  29.363 -19.501  1.00  0.00    -0.000 C 
BRANCH  13  14
ATOM     14  C   UNL     1      26.822  30.702 -19.149  1.00  0.00    -0.000 C 
BRANCH  14  15
ATOM     15  C   UNL     1      27.438  31.365 -17.907  1.00  0.00    -0.000 C 
BRANCH  15  16
ATOM     16  C   UNL     1      27.892  32.811 -18.173  1.00  0.00    -0.000 C 
BRANCH  16  17
ATOM     17  C   UNL     1      29.373  33.034 -17.832  1.00  0.00    -0.003 C 
ATOM     18  C   UNL     1      30.042  31.788 -17.249  1.00  0.00     0.004 C 
ENDBRANCH  16  17
ENDBRANCH  15  16
ENDBRANCH  14  15
ENDBRANCH  13  14
ENDBRANCH  12  13
ENDBRANCH  11  12
ENDBRANCH   1  11
TORSDOF 14
ENDMDL
