MODEL 1
REMARK VINA RESULT:    -3.431      0.000      0.000
REMARK INTER + INTRA:          -7.231
REMARK INTER:                  -5.837
REMARK INTRA:                  -1.393
REMARK UNBOUND:                -1.393
REMARK SMILES CCCCCCCCCCCCCC(=O)[O-]
REMARK SMILES IDX 8 1 9 2 10 3 11 4 12 5 13 6 14 7 15 8 16 9 7 10 6 11 5 12
REMARK SMILES IDX 4 13 3 14 2 15 1 16
REMARK H PARENT
REMARK Flexibility Score: inf
ROOT
ATOM      1  C   UNL     1      55.115  30.925  51.119  1.00  0.00     0.000 C 
ENDROOT
BRANCH   1   2
ATOM      2  C   UNL     1      56.554  30.499  51.479  1.00  0.00     0.000 C 
BRANCH   2   3
ATOM      3  C   UNL     1      57.123  29.470  50.484  1.00  0.00     0.000 C 
BRANCH   3   4
ATOM      4  C   UNL     1      58.462  28.872  50.953  1.00  0.00     0.000 C 
BRANCH   4   5
ATOM      5  C   UNL     1      59.470  28.614  49.817  1.00  0.00     0.006 C 
BRANCH   5   6
ATOM      6  C   UNL     1      60.080  27.208  49.871  1.00  0.00     0.053 C 
BRANCH   6   7
ATOM      7  C   UNL     1      61.521  27.280  50.267  1.00  0.00     0.041 C 
ATOM      8  O   UNL     1      62.341  27.925  49.561  1.00  0.00    -0.550 OA
ATOM      9  O   UNL     1      61.951  26.678  51.442  1.00  0.00    -0.550 OA
ENDBRANCH   6   7
ENDBRANCH   5   6
ENDBRANCH   4   5
ENDBRANCH   3   4
ENDBRANCH   2   3
ENDBRANCH   1   2
BRANCH   1  10
ATOM     10  C   UNL     1      54.061  29.860  51.474  1.00  0.00     0.000 C 
BRANCH  10  11
ATOM     11  C   UNL     1      53.314  29.331  50.239  1.00  0.00    -0.000 C 
BRANCH  11  12
ATOM     12  C   UNL     1      53.266  27.794  50.183  1.00  0.00    -0.000 C 
BRANCH  12  13
ATOM     13  C   UNL     1      54.407  27.085  50.938  1.00  0.00    -0.000 C 
BRANCH  13  14
ATOM     14  C   UNL     1      55.185  26.095  50.058  1.00  0.00    -0.000 C 
BRANCH  14  15
ATOM     15  C   UNL     1      56.575  25.816  50.638  1.00  0.00    -0.003 C 
ATOM     16  C   UNL     1      56.536  25.770  52.163  1.00  0.00     0.004 C 
ENDBRANCH  14  15
ENDBRANCH  13  14
ENDBRANCH  12  13
ENDBRANCH  11  12
ENDBRANCH  10  11
ENDBRANCH   1  10
TORSDOF 12
ENDMDL
MODEL 2
REMARK VINA RESULT:    -3.409      3.052      5.206
REMARK INTER + INTRA:          -7.194
REMARK INTER:                  -5.456
REMARK INTRA:                  -1.738
REMARK UNBOUND:                -1.393
REMARK SMILES CCCCCCCCCCCCCC(=O)[O-]
REMARK SMILES IDX 8 1 9 2 10 3 11 4 12 5 13 6 14 7 15 8 16 9 7 10 6 11 5 12
REMARK SMILES IDX 4 13 3 14 2 15 1 16
REMARK H PARENT
REMARK Flexibility Score: inf
ROOT
ATOM      1  C   UNL     1      60.439  27.200  50.145  1.00  0.00     0.000 C 
ENDROOT
BRANCH   1   2
ATOM      2  C   UNL     1      60.057  28.664  50.451  1.00  0.00     0.000 C 
BRANCH   2   3
ATOM      3  C   UNL     1      58.783  29.101  49.704  1.00  0.00     0.000 C 
BRANCH   3   4
ATOM      4  C   UNL     1      57.681  29.599  50.657  1.00  0.00     0.000 C 
BRANCH   4   5
ATOM      5  C   UNL     1      58.037  29.476  52.151  1.00  0.00     0.006 C 
BRANCH   5   6
ATOM      6  C   UNL     1      57.706  30.745  52.948  1.00  0.00     0.053 C 
BRANCH   6   7
ATOM      7  C   UNL     1      56.241  31.037  52.878  1.00  0.00     0.041 C 
ATOM      8  O   UNL     1      55.418  30.302  53.485  1.00  0.00    -0.550 OA
ATOM      9  O   UNL     1      55.786  32.152  52.185  1.00  0.00    -0.550 OA
ENDBRANCH   6   7
ENDBRANCH   5   6
ENDBRANCH   4   5
ENDBRANCH   3   4
ENDBRANCH   2   3
ENDBRANCH   1   2
BRANCH   1  10
ATOM     10  C   UNL     1      59.218  26.286  49.937  1.00  0.00     0.000 C 
BRANCH  10  11
ATOM     11  C   UNL     1      58.915  25.413  51.166  1.00  0.00    -0.000 C 
BRANCH  11  12
ATOM     12  C   UNL     1      57.422  25.404  51.539  1.00  0.00    -0.000 C 
BRANCH  12  13
ATOM     13  C   UNL     1      56.509  26.167  50.562  1.00  0.00    -0.000 C 
BRANCH  13  14
ATOM     14  C   UNL     1      55.209  26.660  51.216  1.00  0.00    -0.000 C 
BRANCH  14  15
ATOM     15  C   UNL     1      54.288  27.320  50.184  1.00  0.00    -0.003 C 
ATOM     16  C   UNL     1      54.057  28.792  50.514  1.00  0.00     0.004 C 
ENDBRANCH  14  15
ENDBRANCH  13  14
ENDBRANCH  12  13
ENDBRANCH  11  12
ENDBRANCH  10  11
ENDBRANCH   1  10
TORSDOF 12
ENDMDL
MODEL 3
REMARK VINA RESULT:    -3.362      2.997      5.361
REMARK INTER + INTRA:          -7.114
REMARK INTER:                  -5.991
REMARK INTRA:                  -1.123
REMARK UNBOUND:                -1.393
REMARK SMILES CCCCCCCCCCCCCC(=O)[O-]
REMARK SMILES IDX 8 1 9 2 10 3 11 4 12 5 13 6 14 7 15 8 16 9 7 10 6 11 5 12
REMARK SMILES IDX 4 13 3 14 2 15 1 16
REMARK H PARENT
REMARK Flexibility Score: inf
ROOT
ATOM      1  C   UNL     1      56.606  30.816  52.104  1.00  0.00     0.000 C 
ENDROOT
BRANCH   1   2
ATOM      2  C   UNL     1      55.655  30.854  50.890  1.00  0.00     0.000 C 
BRANCH   2   3
ATOM      3  C   UNL     1      54.233  30.383  51.249  1.00  0.00     0.000 C 
BRANCH   3   4
ATOM      4  C   UNL     1      53.769  29.194  50.388  1.00  0.00     0.000 C 
BRANCH   4   5
ATOM      5  C   UNL     1      54.272  27.825  50.882  1.00  0.00     0.006 C 
BRANCH   5   6
ATOM      6  C   UNL     1      53.320  26.676  50.523  1.00  0.00     0.053 C 
BRANCH   6   7
ATOM      7  C   UNL     1      54.091  25.496  50.022  1.00  0.00     0.041 C 
ATOM      8  O   UNL     1      53.501  24.412  49.774  1.00  0.00    -0.550 OA
ATOM      9  O   UNL     1      55.454  25.608  49.779  1.00  0.00    -0.550 OA
ENDBRANCH   6   7
ENDBRANCH   5   6
ENDBRANCH   4   5
ENDBRANCH   3   4
ENDBRANCH   2   3
ENDBRANCH   1   2
BRANCH   1  10
ATOM     10  C   UNL     1      57.774  29.828  51.928  1.00  0.00     0.000 C 
BRANCH  10  11
ATOM     11  C   UNL     1      57.710  29.066  50.594  1.00  0.00    -0.000 C 
BRANCH  11  12
ATOM     12  C   UNL     1      59.014  29.168  49.784  1.00  0.00    -0.000 C 
BRANCH  12  13
ATOM     13  C   UNL     1      59.769  27.838  49.607  1.00  0.00    -0.000 C 
BRANCH  13  14
ATOM     14  C   UNL     1      60.532  27.408  50.869  1.00  0.00    -0.000 C 
BRANCH  14  15
ATOM     15  C   UNL     1      60.269  25.935  51.199  1.00  0.00    -0.003 C 
ATOM     16  C   UNL     1      58.928  25.476  50.632  1.00  0.00     0.004 C 
ENDBRANCH  14  15
ENDBRANCH  13  14
ENDBRANCH  12  13
ENDBRANCH  11  12
ENDBRANCH  10  11
ENDBRANCH   1  10
TORSDOF 12
ENDMDL
MODEL 4
REMARK VINA RESULT:    -3.354      1.172      1.908
REMARK INTER + INTRA:          -7.099
REMARK INTER:                  -5.584
REMARK INTRA:                  -1.516
REMARK UNBOUND:                -1.393
REMARK SMILES CCCCCCCCCCCCCC(=O)[O-]
REMARK SMILES IDX 8 1 9 2 10 3 11 4 12 5 13 6 14 7 15 8 16 9 7 10 6 11 5 12
REMARK SMILES IDX 4 13 3 14 2 15 1 16
REMARK H PARENT
REMARK Flexibility Score: inf
ROOT
ATOM      1  C   UNL     1      54.079  30.174  51.158  1.00  0.00     0.000 C 
ENDROOT
BRANCH   1   2
ATOM      2  C   UNL     1      55.539  30.488  50.768  1.00  0.00     0.000 C 
BRANCH   2   3
ATOM      3  C   UNL     1      56.477  30.506  51.990  1.00  0.00     0.000 C 
BRANCH   3   4
ATOM      4  C   UNL     1      57.593  29.450  51.892  1.00  0.00     0.000 C 
BRANCH   4   5
ATOM      5  C   UNL     1      57.770  28.849  50.485  1.00  0.00     0.006 C 
BRANCH   5   6
ATOM      6  C   UNL     1      59.199  29.006  49.946  1.00  0.00     0.053 C 
BRANCH   6   7
ATOM      7  C   UNL     1      59.875  27.674  49.865  1.00  0.00     0.041 C 
ATOM      8  O   UNL     1      59.199  26.614  49.942  1.00  0.00    -0.550 OA
ATOM      9  O   UNL     1      61.245  27.601  49.653  1.00  0.00    -0.550 OA
ENDBRANCH   6   7
ENDBRANCH   5   6
ENDBRANCH   4   5
ENDBRANCH   3   4
ENDBRANCH   2   3
ENDBRANCH   1   2
BRANCH   1  10
ATOM     10  C   UNL     1      53.485  28.989  50.374  1.00  0.00     0.000 C 
BRANCH  10  11
ATOM     11  C   UNL     1      53.817  27.631  51.011  1.00  0.00    -0.000 C 
BRANCH  11  12
ATOM     12  C   UNL     1      54.315  26.596  49.987  1.00  0.00    -0.000 C 
BRANCH  12  13
ATOM     13  C   UNL     1      55.650  25.920  50.351  1.00  0.00    -0.000 C 
BRANCH  13  14
ATOM     14  C   UNL     1      55.672  25.369  51.784  1.00  0.00    -0.000 C 
BRANCH  14  15
ATOM     15  C   UNL     1      56.877  25.908  52.563  1.00  0.00    -0.003 C 
ATOM     16  C   UNL     1      57.928  24.822  52.772  1.00  0.00     0.004 C 
ENDBRANCH  14  15
ENDBRANCH  13  14
ENDBRANCH  12  13
ENDBRANCH  11  12
ENDBRANCH  10  11
ENDBRANCH   1  10
TORSDOF 12
ENDMDL
MODEL 5
REMARK VINA RESULT:    -3.325      1.188      2.940
REMARK INTER + INTRA:          -7.051
REMARK INTER:                  -5.237
REMARK INTRA:                  -1.813
REMARK UNBOUND:                -1.393
REMARK SMILES CCCCCCCCCCCCCC(=O)[O-]
REMARK SMILES IDX 8 1 9 2 10 3 11 4 12 5 13 6 14 7 15 8 16 9 7 10 6 11 5 12
REMARK SMILES IDX 4 13 3 14 2 15 1 16
REMARK H PARENT
REMARK Flexibility Score: inf
ROOT
ATOM      1  C   UNL     1      58.104  27.701  53.282  1.00  0.00     0.000 C 
ENDROOT
BRANCH   1   2
ATOM      2  C   UNL     1      57.960  29.227  53.104  1.00  0.00     0.000 C 
BRANCH   2   3
ATOM      3  C   UNL     1      58.804  29.758  51.930  1.00  0.00     0.000 C 
BRANCH   3   4
ATOM      4  C   UNL     1      58.233  29.349  50.560  1.00  0.00     0.000 C 
BRANCH   4   5
ATOM      5  C   UNL     1      59.258  28.679  49.625  1.00  0.00     0.006 C 
BRANCH   5   6
ATOM      6  C   UNL     1      59.518  27.209  49.982  1.00  0.00     0.053 C 
BRANCH   6   7
ATOM      7  C   UNL     1      60.912  27.037  50.496  1.00  0.00     0.041 C 
ATOM      8  O   UNL     1      61.852  27.730  50.024  1.00  0.00    -0.550 OA
ATOM      9  O   UNL     1      61.166  26.148  51.532  1.00  0.00    -0.550 OA
ENDBRANCH   6   7
ENDBRANCH   5   6
ENDBRANCH   4   5
ENDBRANCH   3   4
ENDBRANCH   2   3
ENDBRANCH   1   2
BRANCH   1  10
ATOM     10  C   UNL     1      56.786  26.938  53.058  1.00  0.00     0.000 C 
BRANCH  10  11
ATOM     11  C   UNL     1      56.963  25.698  52.166  1.00  0.00    -0.000 C 
BRANCH  11  12
ATOM     12  C   UNL     1      55.954  25.648  51.006  1.00  0.00    -0.000 C 
BRANCH  12  13
ATOM     13  C   UNL     1      55.535  27.024  50.456  1.00  0.00    -0.000 C 
BRANCH  13  14
ATOM     14  C   UNL     1      54.028  27.124  50.175  1.00  0.00    -0.000 C 
BRANCH  14  15
ATOM     15  C   UNL     1      53.524  28.557  50.376  1.00  0.00    -0.003 C 
ATOM     16  C   UNL     1      54.562  29.410  51.100  1.00  0.00     0.004 C 
ENDBRANCH  14  15
ENDBRANCH  13  14
ENDBRANCH  12  13
ENDBRANCH  11  12
ENDBRANCH  10  11
ENDBRANCH   1  10
TORSDOF 12
ENDMDL
MODEL 6
REMARK VINA RESULT:    -3.309      2.030      2.938
REMARK INTER + INTRA:          -7.023
REMARK INTER:                  -6.040
REMARK INTRA:                  -0.984
REMARK UNBOUND:                -1.393
REMARK SMILES CCCCCCCCCCCCCC(=O)[O-]
REMARK SMILES IDX 8 1 9 2 10 3 11 4 12 5 13 6 14 7 15 8 16 9 7 10 6 11 5 12
REMARK SMILES IDX 4 13 3 14 2 15 1 16
REMARK H PARENT
REMARK Flexibility Score: inf
ROOT
ATOM      1  C   UNL     1      57.289  30.046  51.310  1.00  0.00     0.000 C 
ENDROOT
BRANCH   1   2
ATOM      2  C   UNL     1      57.690  28.805  50.485  1.00  0.00     0.000 C 
BRANCH   2   3
ATOM      3  C   UNL     1      58.950  29.053  49.635  1.00  0.00     0.000 C 
BRANCH   3   4
ATOM      4  C   UNL     1      60.022  27.966  49.837  1.00  0.00     0.000 C 
BRANCH   4   5
ATOM      5  C   UNL     1      59.450  26.551  50.049  1.00  0.00     0.006 C 
BRANCH   5   6
ATOM      6  C   UNL     1      59.814  25.961  51.418  1.00  0.00     0.053 C 
BRANCH   6   7
ATOM      7  C   UNL     1      59.125  24.649  51.620  1.00  0.00     0.041 C 
ATOM      8  O   UNL     1      59.712  23.573  51.331  1.00  0.00    -0.550 OA
ATOM      9  O   UNL     1      57.852  24.610  52.175  1.00  0.00    -0.550 OA
ENDBRANCH   6   7
ENDBRANCH   5   6
ENDBRANCH   4   5
ENDBRANCH   3   4
ENDBRANCH   2   3
ENDBRANCH   1   2
BRANCH   1  10
ATOM     10  C   UNL     1      55.861  30.537  51.011  1.00  0.00     0.000 C 
BRANCH  10  11
ATOM     11  C   UNL     1      54.880  30.240  52.156  1.00  0.00    -0.000 C 
BRANCH  11  12
ATOM     12  C   UNL     1      53.487  29.818  51.656  1.00  0.00    -0.000 C 
BRANCH  12  13
ATOM     13  C   UNL     1      53.472  29.182  50.253  1.00  0.00    -0.000 C 
BRANCH  13  14
ATOM     14  C   UNL     1      53.218  27.667  50.284  1.00  0.00    -0.000 C 
BRANCH  14  15
ATOM     15  C   UNL     1      54.530  26.891  50.433  1.00  0.00    -0.003 C 
ATOM     16  C   UNL     1      54.488  25.583  49.647  1.00  0.00     0.004 C 
ENDBRANCH  14  15
ENDBRANCH  13  14
ENDBRANCH  12  13
ENDBRANCH  11  12
ENDBRANCH  10  11
ENDBRANCH   1  10
TORSDOF 12
ENDMDL
MODEL 7
REMARK VINA RESULT:    -3.285      2.973      4.955
REMARK INTER + INTRA:          -6.983
REMARK INTER:                  -5.138
REMARK INTRA:                  -1.845
REMARK UNBOUND:                -1.393
REMARK SMILES CCCCCCCCCCCCCC(=O)[O-]
REMARK SMILES IDX 8 1 9 2 10 3 11 4 12 5 13 6 14 7 15 8 16 9 7 10 6 11 5 12
REMARK SMILES IDX 4 13 3 14 2 15 1 16
REMARK H PARENT
REMARK Flexibility Score: inf
ROOT
ATOM      1  C   UNL     1      54.160  29.439  51.503  1.00  0.00     0.000 C 
ENDROOT
BRANCH   1   2
ATOM      2  C   UNL     1      53.640  28.662  50.275  1.00  0.00     0.000 C 
BRANCH   2   3
ATOM      3  C   UNL     1      53.970  27.160  50.354  1.00  0.00     0.000 C 
BRANCH   3   4
ATOM      4  C   UNL     1      55.483  26.883  50.280  1.00  0.00     0.000 C 
BRANCH   4   5
ATOM      5  C   UNL     1      55.965  25.763  51.221  1.00  0.00     0.006 C 
BRANCH   5   6
ATOM      6  C   UNL     1      56.213  26.256  52.653  1.00  0.00     0.053 C 
BRANCH   6   7
ATOM      7  C   UNL     1      55.386  25.474  53.624  1.00  0.00     0.041 C 
ATOM      8  O   UNL     1      55.716  25.420  54.839  1.00  0.00    -0.550 OA
ATOM      9  O   UNL     1      54.222  24.848  53.200  1.00  0.00    -0.550 OA
ENDBRANCH   6   7
ENDBRANCH   5   6
ENDBRANCH   4   5
ENDBRANCH   3   4
ENDBRANCH   2   3
ENDBRANCH   1   2
BRANCH   1  10
ATOM     10  C   UNL     1      54.944  30.710  51.128  1.00  0.00     0.000 C 
BRANCH  10  11
ATOM     11  C   UNL     1      56.415  30.421  50.787  1.00  0.00    -0.000 C 
BRANCH  11  12
ATOM     12  C   UNL     1      57.202  29.844  51.977  1.00  0.00    -0.000 C 
BRANCH  12  13
ATOM     13  C   UNL     1      58.557  29.213  51.607  1.00  0.00    -0.000 C 
BRANCH  13  14
ATOM     14  C   UNL     1      58.637  28.782  50.135  1.00  0.00    -0.000 C 
BRANCH  14  15
ATOM     15  C   UNL     1      59.823  27.841  49.899  1.00  0.00    -0.003 C 
ATOM     16  C   UNL     1      59.399  26.380  50.020  1.00  0.00     0.004 C 
ENDBRANCH  14  15
ENDBRANCH  13  14
ENDBRANCH  12  13
ENDBRANCH  11  12
ENDBRANCH  10  11
ENDBRANCH   1  10
TORSDOF 12
ENDMDL
MODEL 8
REMARK VINA RESULT:    -3.278      3.439      6.401
REMARK INTER + INTRA:          -6.971
REMARK INTER:                  -5.682
REMARK INTRA:                  -1.289
REMARK UNBOUND:                -1.393
REMARK SMILES CCCCCCCCCCCCCC(=O)[O-]
REMARK SMILES IDX 8 1 9 2 10 3 11 4 12 5 13 6 14 7 15 8 16 9 7 10 6 11 5 12
REMARK SMILES IDX 4 13 3 14 2 15 1 16
REMARK H PARENT
REMARK Flexibility Score: inf
ROOT
ATOM      1  C   UNL     1      56.923  26.227  51.373  1.00  0.00     0.000 C 
ENDROOT
BRANCH   1   2
ATOM      2  C   UNL     1      55.527  25.609  51.155  1.00  0.00     0.000 C 
BRANCH   2   3
ATOM      3  C   UNL     1      54.796  26.229  49.950  1.00  0.00     0.000 C 
BRANCH   3   4
ATOM      4  C   UNL     1      53.586  27.084  50.370  1.00  0.00     0.000 C 
BRANCH   4   5
ATOM      5  C   UNL     1      53.829  28.603  50.286  1.00  0.00     0.006 C 
BRANCH   5   6
ATOM      6  C   UNL     1      54.378  29.191  51.593  1.00  0.00     0.053 C 
BRANCH   6   7
ATOM      7  C   UNL     1      54.081  30.655  51.672  1.00  0.00     0.041 C 
ATOM      8  O   UNL     1      52.932  31.052  52.002  1.00  0.00    -0.550 OA
ATOM      9  O   UNL     1      55.086  31.583  51.431  1.00  0.00    -0.550 OA
ENDBRANCH   6   7
ENDBRANCH   5   6
ENDBRANCH   4   5
ENDBRANCH   3   4
ENDBRANCH   2   3
ENDBRANCH   1   2
BRANCH   1  10
ATOM     10  C   UNL     1      57.991  25.664  50.418  1.00  0.00     0.000 C 
BRANCH  10  11
ATOM     11  C   UNL     1      59.264  25.212  51.152  1.00  0.00    -0.000 C 
BRANCH  11  12
ATOM     12  C   UNL     1      60.248  26.367  51.408  1.00  0.00    -0.000 C 
BRANCH  12  13
ATOM     13  C   UNL     1      60.542  27.248  50.179  1.00  0.00    -0.000 C 
BRANCH  13  14
ATOM     14  C   UNL     1      60.196  28.727  50.405  1.00  0.00    -0.000 C 
BRANCH  14  15
ATOM     15  C   UNL     1      58.895  29.105  49.690  1.00  0.00    -0.003 C 
ATOM     16  C   UNL     1      57.852  29.619  50.679  1.00  0.00     0.004 C 
ENDBRANCH  14  15
ENDBRANCH  13  14
ENDBRANCH  12  13
ENDBRANCH  11  12
ENDBRANCH  10  11
ENDBRANCH   1  10
TORSDOF 12
ENDMDL
MODEL 9
REMARK VINA RESULT:    -3.217      1.212      3.053
REMARK INTER + INTRA:          -6.866
REMARK INTER:                  -5.082
REMARK INTRA:                  -1.784
REMARK UNBOUND:                -1.393
REMARK SMILES CCCCCCCCCCCCCC(=O)[O-]
REMARK SMILES IDX 8 1 9 2 10 3 11 4 12 5 13 6 14 7 15 8 16 9 7 10 6 11 5 12
REMARK SMILES IDX 4 13 3 14 2 15 1 16
REMARK H PARENT
REMARK Flexibility Score: inf
ROOT
ATOM      1  C   UNL     1      55.380  26.135  51.953  1.00  0.00     0.000 C 
ENDROOT
BRANCH   1   2
ATOM      2  C   UNL     1      56.818  26.677  52.092  1.00  0.00     0.000 C 
BRANCH   2   3
ATOM      3  C   UNL     1      57.403  27.130  50.741  1.00  0.00     0.000 C 
BRANCH   3   4
ATOM      4  C   UNL     1      57.666  28.646  50.690  1.00  0.00     0.000 C 
BRANCH   4   5
ATOM      5  C   UNL     1      58.911  29.042  49.875  1.00  0.00     0.006 C 
BRANCH   5   6
ATOM      6  C   UNL     1      59.856  27.860  49.619  1.00  0.00     0.053 C 
BRANCH   6   7
ATOM      7  C   UNL     1      61.154  28.067  50.333  1.00  0.00     0.041 C 
ATOM      8  O   UNL     1      61.299  29.042  51.117  1.00  0.00    -0.550 OA
ATOM      9  O   UNL     1      62.188  27.154  50.174  1.00  0.00    -0.550 OA
ENDBRANCH   6   7
ENDBRANCH   5   6
ENDBRANCH   4   5
ENDBRANCH   3   4
ENDBRANCH   2   3
ENDBRANCH   1   2
BRANCH   1  10
ATOM     10  C   UNL     1      54.989  25.821  50.497  1.00  0.00     0.000 C 
BRANCH  10  11
ATOM     11  C   UNL     1      53.843  26.709  49.986  1.00  0.00    -0.000 C 
BRANCH  11  12
ATOM     12  C   UNL     1      53.529  27.882  50.932  1.00  0.00    -0.000 C 
BRANCH  12  13
ATOM     13  C   UNL     1      54.013  29.257  50.435  1.00  0.00    -0.000 C 
BRANCH  13  14
ATOM     14  C   UNL     1      54.238  30.261  51.576  1.00  0.00    -0.000 C 
BRANCH  14  15
ATOM     15  C   UNL     1      54.531  29.540  52.896  1.00  0.00    -0.003 C 
ATOM     16  C   UNL     1      55.815  30.061  53.534  1.00  0.00     0.004 C 
ENDBRANCH  14  15
ENDBRANCH  13  14
ENDBRANCH  12  13
ENDBRANCH  11  12
ENDBRANCH  10  11
ENDBRANCH   1  10
TORSDOF 12
ENDMDL
