MODEL 1
REMARK VINA RESULT:    -4.725      0.000      0.000
REMARK INTER + INTRA:          -6.791
REMARK INTER:                  -7.211
REMARK INTRA:                   0.420
REMARK UNBOUND:                 0.420
REMARK SMILES CC1=CCC[C@H](C)C(=O)C[C@H](C(C)C)C(=O)C1
REMARK SMILES IDX 8 1 9 2 6 3 7 4 5 5 4 6 3 7 2 8 1 9 10 11 11 12 15 13 16 14
REMARK SMILES IDX 17 15 12 17 13 18 14 19
REMARK H PARENT
REMARK Flexibility Score: 70.00
ROOT
ATOM      1  C   UNL     1      -1.858  12.838 -28.125  1.00  0.00     0.136 C 
ATOM      2  O   UNL     1      -1.627  11.713 -27.705  1.00  0.00    -0.299 OA
ENDROOT
BRANCH   1   3
ATOM      3  C   UNL     1      -0.814  13.487 -29.022  1.00  0.00     0.053 C 
ATOM      4  C   UNL     1       0.150  14.424 -28.278  1.00  0.00     0.016 C 
BRANCH   3   5
ATOM      5  C   UNL     1      -0.098  12.453 -29.919  1.00  0.00     0.015 C 
BRANCH   5   6
ATOM      6  C   UNL     1      -0.862  12.099 -31.210  1.00  0.00     0.028 C 
BRANCH   6   7
ATOM      7  C   UNL     1      -1.753  13.219 -31.690  1.00  0.00    -0.028 C 
ATOM      8  C   UNL     1      -3.110  13.199 -31.687  1.00  0.00    -0.070 CG0
ATOM      9  C   UNL     1      -3.828  14.382 -32.287  1.00  0.00     0.039 C 
ATOM     10  G   UNL     1      -3.936  12.070 -31.083  1.00  0.00     0.000 G0
ENDBRANCH   6   7
ENDBRANCH   5   6
ENDBRANCH   3   5
ENDBRANCH   1   3
BRANCH   1  11
ATOM     11  C   UNL     1      -3.176  13.487 -27.745  1.00  0.00     0.087 C 
BRANCH  11  12
ATOM     12  C   UNL     1      -4.164  13.556 -28.944  1.00  0.00     0.066 C 
BRANCH  12  13
ATOM     13  C   UNL     1      -4.226  12.192 -29.617  1.00  0.00     0.140 C 
ATOM     14  O   UNL     1      -4.520  11.200 -28.962  1.00  0.00    -0.299 OA
BRANCH  13  15
ATOM     15  C   UNL     1      -3.956  12.061 -31.095  1.00  0.00     0.106 CG0
ATOM     16  G   UNL     1      -3.115  13.195 -31.667  1.00  0.00     0.000 G0
ENDBRANCH  13  15
ENDBRANCH  12  13
BRANCH  12  17
ATOM     17  C   UNL     1      -5.592  14.055 -28.543  1.00  0.00    -0.006 C 
ATOM     18  C   UNL     1      -6.160  15.017 -29.604  1.00  0.00     0.008 C 
ATOM     19  C   UNL     1      -5.606  14.769 -27.177  1.00  0.00     0.008 C 
ENDBRANCH  12  17
ENDBRANCH  11  12
ENDBRANCH   1  11
TORSDOF 1
ENDMDL
MODEL 2
REMARK VINA RESULT:    -4.651      1.803      3.180
REMARK INTER + INTRA:          -6.679
REMARK INTER:                  -7.025
REMARK INTRA:                   0.346
REMARK UNBOUND:                 0.420
REMARK SMILES CC1=CCC[C@H](C)C(=O)C[C@H](C(C)C)C(=O)C1
REMARK SMILES IDX 8 1 9 2 6 3 7 4 5 5 4 6 3 7 2 8 1 9 10 11 11 12 15 13 16 14
REMARK SMILES IDX 17 15 12 17 13 18 14 19
REMARK H PARENT
REMARK Flexibility Score: 70.00
ROOT
ATOM      1  C   UNL     1      -4.522  13.820 -28.008  1.00  0.00     0.136 C 
ATOM      2  O   UNL     1      -5.366  14.674 -27.773  1.00  0.00    -0.299 OA
ENDROOT
BRANCH   1   3
ATOM      3  C   UNL     1      -3.269  13.805 -27.147  1.00  0.00     0.053 C 
ATOM      4  C   UNL     1      -3.076  12.503 -26.352  1.00  0.00     0.016 C 
BRANCH   3   5
ATOM      5  C   UNL     1      -2.015  14.232 -27.941  1.00  0.00     0.015 C 
BRANCH   5   6
ATOM      6  C   UNL     1      -0.968  13.115 -28.117  1.00  0.00     0.028 C 
BRANCH   6   7
ATOM      7  C   UNL     1      -0.441  13.021 -29.528  1.00  0.00    -0.028 C 
ATOM      8  C   UNL     1      -0.805  12.087 -30.442  1.00  0.00    -0.070 CG0
ATOM      9  C   UNL     1      -0.104  12.104 -31.777  1.00  0.00     0.039 C 
ATOM     10  G   UNL     1      -1.900  11.055 -30.204  1.00  0.00     0.000 G0
ENDBRANCH   6   7
ENDBRANCH   5   6
ENDBRANCH   3   5
ENDBRANCH   1   3
BRANCH   1  11
ATOM     11  C   UNL     1      -4.803  12.826 -29.121  1.00  0.00     0.087 C 
BRANCH  11  12
ATOM     12  C   UNL     1      -3.771  12.936 -30.280  1.00  0.00     0.066 C 
BRANCH  12  13
ATOM     13  C   UNL     1      -3.288  11.542 -30.650  1.00  0.00     0.140 C 
ATOM     14  O   UNL     1      -3.996  10.810 -31.330  1.00  0.00    -0.299 OA
BRANCH  13  15
ATOM     15  C   UNL     1      -1.926  11.067 -30.208  1.00  0.00     0.106 CG0
ATOM     16  G   UNL     1      -0.815  12.081 -30.452  1.00  0.00     0.000 G0
ENDBRANCH  13  15
ENDBRANCH  12  13
BRANCH  12  17
ATOM     17  C   UNL     1      -4.325  13.695 -31.532  1.00  0.00    -0.006 C 
ATOM     18  C   UNL     1      -3.187  14.392 -32.303  1.00  0.00     0.008 C 
ATOM     19  C   UNL     1      -5.384  14.751 -31.162  1.00  0.00     0.008 C 
ENDBRANCH  12  17
ENDBRANCH  11  12
ENDBRANCH   1  11
TORSDOF 1
ENDMDL
MODEL 3
REMARK VINA RESULT:    -4.595      1.974      2.981
REMARK INTER + INTRA:          -6.593
REMARK INTER:                  -6.623
REMARK INTRA:                   0.030
REMARK UNBOUND:                 0.420
REMARK SMILES CC1=CCC[C@H](C)C(=O)C[C@H](C(C)C)C(=O)C1
REMARK SMILES IDX 8 1 9 2 6 3 7 4 5 5 4 6 3 7 2 8 1 9 10 11 11 12 15 13 16 14
REMARK SMILES IDX 17 15 12 17 13 18 14 19
REMARK H PARENT
REMARK Flexibility Score: 70.00
ROOT
ATOM      1  C   UNL     1      -1.242  13.578 -29.447  1.00  0.00     0.136 C 
ATOM      2  O   UNL     1      -0.084  13.969 -29.502  1.00  0.00    -0.299 OA
ENDROOT
BRANCH   1   3
ATOM      3  C   UNL     1      -1.840  12.959 -30.700  1.00  0.00     0.053 C 
ATOM      4  C   UNL     1      -2.304  13.989 -31.744  1.00  0.00     0.016 C 
BRANCH   3   5
ATOM      5  C   UNL     1      -0.936  11.852 -31.288  1.00  0.00     0.015 C 
BRANCH   5   6
ATOM      6  C   UNL     1      -1.308  10.427 -30.835  1.00  0.00     0.028 C 
BRANCH   6   7
ATOM      7  C   UNL     1      -2.788  10.252 -30.600  1.00  0.00    -0.028 C 
ATOM      8  C   UNL     1      -3.383  10.138 -29.386  1.00  0.00    -0.070 CG0
ATOM      9  C   UNL     1      -4.869   9.884 -29.356  1.00  0.00     0.039 C 
ATOM     10  G   UNL     1      -2.639  10.288 -28.065  1.00  0.00     0.000 G0
ENDBRANCH   6   7
ENDBRANCH   5   6
ENDBRANCH   3   5
ENDBRANCH   1   3
BRANCH   1  11
ATOM     11  C   UNL     1      -1.980  13.714 -28.128  1.00  0.00     0.087 C 
BRANCH  11  12
ATOM     12  C   UNL     1      -3.273  12.851 -28.088  1.00  0.00     0.066 C 
BRANCH  12  13
ATOM     13  C   UNL     1      -2.988  11.563 -27.329  1.00  0.00     0.140 C 
ATOM     14  O   UNL     1      -3.072  11.541 -26.108  1.00  0.00    -0.299 OA
BRANCH  13  15
ATOM     15  C   UNL     1      -2.630  10.303 -28.078  1.00  0.00     0.106 CG0
ATOM     16  G   UNL     1      -3.388  10.132 -29.388  1.00  0.00     0.000 G0
ENDBRANCH  13  15
ENDBRANCH  12  13
BRANCH  12  17
ATOM     17  C   UNL     1      -4.503  13.604 -27.481  1.00  0.00    -0.006 C 
ATOM     18  C   UNL     1      -5.380  14.215 -28.592  1.00  0.00     0.008 C 
ATOM     19  C   UNL     1      -4.088  14.728 -26.512  1.00  0.00     0.008 C 
ENDBRANCH  12  17
ENDBRANCH  11  12
ENDBRANCH   1  11
TORSDOF 1
ENDMDL
MODEL 4
REMARK VINA RESULT:    -4.594      1.909      5.002
REMARK INTER + INTRA:          -6.592
REMARK INTER:                  -7.081
REMARK INTRA:                   0.489
REMARK UNBOUND:                 0.420
REMARK SMILES CC1=CCC[C@H](C)C(=O)C[C@H](C(C)C)C(=O)C1
REMARK SMILES IDX 8 1 9 2 6 3 7 4 5 5 4 6 3 7 2 8 1 9 10 11 11 12 15 13 16 14
REMARK SMILES IDX 17 15 12 17 13 18 14 19
REMARK H PARENT
REMARK Flexibility Score: 70.00
ROOT
ATOM      1  C   UNL     1      -3.778  12.687 -31.238  1.00  0.00     0.136 C 
ATOM      2  O   UNL     1      -4.424  11.816 -31.804  1.00  0.00    -0.299 OA
ENDROOT
BRANCH   1   3
ATOM      3  C   UNL     1      -4.197  14.133 -31.454  1.00  0.00     0.053 C 
ATOM      4  C   UNL     1      -4.682  14.434 -32.882  1.00  0.00     0.016 C 
BRANCH   3   5
ATOM      5  C   UNL     1      -5.169  14.625 -30.358  1.00  0.00     0.015 C 
BRANCH   5   6
ATOM      6  C   UNL     1      -5.460  13.585 -29.259  1.00  0.00     0.028 C 
BRANCH   6   7
ATOM      7  C   UNL     1      -5.166  14.099 -27.871  1.00  0.00    -0.028 C 
ATOM      8  C   UNL     1      -4.069  13.790 -27.135  1.00  0.00    -0.070 CG0
ATOM      9  C   UNL     1      -3.992  14.336 -25.731  1.00  0.00     0.039 C 
ATOM     10  G   UNL     1      -2.906  12.957 -27.662  1.00  0.00     0.000 G0
ENDBRANCH   6   7
ENDBRANCH   5   6
ENDBRANCH   3   5
ENDBRANCH   1   3
BRANCH   1  11
ATOM     11  C   UNL     1      -2.631  12.257 -30.342  1.00  0.00     0.087 C 
BRANCH  11  12
ATOM     12  C   UNL     1      -1.715  13.451 -29.948  1.00  0.00     0.066 C 
BRANCH  12  13
ATOM     13  C   UNL     1      -1.896  13.750 -28.467  1.00  0.00     0.140 C 
ATOM     14  O   UNL     1      -1.247  14.645 -27.940  1.00  0.00    -0.299 OA
BRANCH  13  15
ATOM     15  C   UNL     1      -2.893  12.966 -27.650  1.00  0.00     0.106 CG0
ATOM     16  G   UNL     1      -4.059  13.803 -27.140  1.00  0.00     0.000 G0
ENDBRANCH  13  15
ENDBRANCH  12  13
BRANCH  12  17
ATOM     17  C   UNL     1      -0.208  13.219 -30.299  1.00  0.00    -0.006 C 
ATOM     18  C   UNL     1      -0.049  12.082 -31.327  1.00  0.00     0.008 C 
ATOM     19  C   UNL     1       0.642  12.881 -29.059  1.00  0.00     0.008 C 
ENDBRANCH  12  17
ENDBRANCH  11  12
ENDBRANCH   1  11
TORSDOF 1
ENDMDL
MODEL 5
REMARK VINA RESULT:    -4.417      2.319      3.969
REMARK INTER + INTRA:          -6.322
REMARK INTER:                  -6.363
REMARK INTRA:                   0.041
REMARK UNBOUND:                 0.420
REMARK SMILES CC1=CCC[C@H](C)C(=O)C[C@H](C(C)C)C(=O)C1
REMARK SMILES IDX 8 1 9 2 6 3 7 4 5 5 4 6 3 7 2 8 1 9 10 11 11 12 15 13 16 14
REMARK SMILES IDX 17 15 12 17 13 18 14 19
REMARK H PARENT
REMARK Flexibility Score: 70.00
ROOT
ATOM      1  C   UNL     1      -3.995  12.580 -31.075  1.00  0.00     0.136 C 
ATOM      2  O   UNL     1      -4.505  12.720 -32.178  1.00  0.00    -0.299 OA
ENDROOT
BRANCH   1   3
ATOM      3  C   UNL     1      -3.547  11.183 -30.674  1.00  0.00     0.053 C 
ATOM      4  C   UNL     1      -4.317  10.055 -31.380  1.00  0.00     0.016 C 
BRANCH   3   5
ATOM      5  C   UNL     1      -2.012  11.022 -30.751  1.00  0.00     0.015 C 
BRANCH   5   6
ATOM      6  C   UNL     1      -1.262  11.511 -29.497  1.00  0.00     0.028 C 
BRANCH   6   7
ATOM      7  C   UNL     1      -1.950  11.119 -28.211  1.00  0.00    -0.028 C 
ATOM      8  C   UNL     1      -2.547  11.977 -27.347  1.00  0.00    -0.070 CG0
ATOM      9  C   UNL     1      -3.108  11.406 -26.069  1.00  0.00     0.039 C 
ATOM     10  G   UNL     1      -2.707  13.469 -27.614  1.00  0.00     0.000 G0
ENDBRANCH   6   7
ENDBRANCH   5   6
ENDBRANCH   3   5
ENDBRANCH   1   3
BRANCH   1  11
ATOM     11  C   UNL     1      -3.821  13.813 -30.207  1.00  0.00     0.087 C 
BRANCH  11  12
ATOM     12  C   UNL     1      -4.861  13.867 -29.051  1.00  0.00     0.066 C 
BRANCH  12  13
ATOM     13  C   UNL     1      -4.124  13.952 -27.723  1.00  0.00     0.140 C 
ATOM     14  O   UNL     1      -4.702  14.375 -26.729  1.00  0.00    -0.299 OA
BRANCH  13  15
ATOM     15  C   UNL     1      -2.693  13.489 -27.616  1.00  0.00     0.106 CG0
ATOM     16  G   UNL     1      -2.550  11.996 -27.343  1.00  0.00     0.000 G0
ENDBRANCH  13  15
ENDBRANCH  12  13
BRANCH  12  17
ATOM     17  C   UNL     1      -5.893  15.034 -29.201  1.00  0.00    -0.006 C 
ATOM     18  C   UNL     1      -7.254  14.650 -28.588  1.00  0.00     0.008 C 
ATOM     19  C   UNL     1      -6.116  15.440 -30.671  1.00  0.00     0.008 C 
ENDBRANCH  12  17
ENDBRANCH  11  12
ENDBRANCH   1  11
TORSDOF 1
ENDMDL
MODEL 6
REMARK VINA RESULT:    -4.355      2.029      3.570
REMARK INTER + INTRA:          -6.227
REMARK INTER:                  -6.608
REMARK INTRA:                   0.381
REMARK UNBOUND:                 0.420
REMARK SMILES CC1=CCC[C@H](C)C(=O)C[C@H](C(C)C)C(=O)C1
REMARK SMILES IDX 8 1 9 2 6 3 7 4 5 5 4 6 3 7 2 8 1 9 10 11 11 12 15 13 16 14
REMARK SMILES IDX 17 15 12 17 13 18 14 19
REMARK H PARENT
REMARK Flexibility Score: 70.00
ROOT
ATOM      1  C   UNL     1      -2.293  11.409 -30.408  1.00  0.00     0.136 C 
ATOM      2  O   UNL     1      -2.236  10.521 -31.248  1.00  0.00    -0.299 OA
ENDROOT
BRANCH   1   3
ATOM      3  C   UNL     1      -1.609  12.729 -30.726  1.00  0.00     0.053 C 
ATOM      4  C   UNL     1      -0.210  12.573 -31.345  1.00  0.00     0.016 C 
BRANCH   3   5
ATOM      5  C   UNL     1      -2.530  13.683 -31.520  1.00  0.00     0.015 C 
BRANCH   5   6
ATOM      6  C   UNL     1      -4.016  13.278 -31.510  1.00  0.00     0.028 C 
BRANCH   6   7
ATOM      7  C   UNL     1      -4.898  14.296 -30.829  1.00  0.00    -0.028 C 
ATOM      8  C   UNL     1      -5.397  14.189 -29.573  1.00  0.00    -0.070 CG0
ATOM      9  C   UNL     1      -6.332  15.272 -29.096  1.00  0.00     0.039 C 
ATOM     10  G   UNL     1      -5.038  13.059 -28.616  1.00  0.00     0.000 G0
ENDBRANCH   6   7
ENDBRANCH   5   6
ENDBRANCH   3   5
ENDBRANCH   1   3
BRANCH   1  11
ATOM     11  C   UNL     1      -3.064  11.135 -29.130  1.00  0.00     0.087 C 
BRANCH  11  12
ATOM     12  C   UNL     1      -2.679  12.120 -27.990  1.00  0.00     0.066 C 
BRANCH  12  13
ATOM     13  C   UNL     1      -3.737  13.210 -27.894  1.00  0.00     0.140 C 
ATOM     14  O   UNL     1      -3.510  14.228 -27.253  1.00  0.00    -0.299 OA
BRANCH  13  15
ATOM     15  C   UNL     1      -5.055  13.055 -28.611  1.00  0.00     0.106 CG0
ATOM     16  G   UNL     1      -5.373  14.201 -29.564  1.00  0.00     0.000 G0
ENDBRANCH  13  15
ENDBRANCH  12  13
BRANCH  12  17
ATOM     17  C   UNL     1      -2.465  11.416 -26.609  1.00  0.00    -0.006 C 
ATOM     18  C   UNL     1      -2.365   9.887 -26.778  1.00  0.00     0.008 C 
ATOM     19  C   UNL     1      -3.595  11.725 -25.607  1.00  0.00     0.008 C 
ENDBRANCH  12  17
ENDBRANCH  11  12
ENDBRANCH   1  11
TORSDOF 1
ENDMDL
MODEL 7
REMARK VINA RESULT:    -4.326      1.398      3.843
REMARK INTER + INTRA:          -6.183
REMARK INTER:                  -7.289
REMARK INTRA:                   1.107
REMARK UNBOUND:                 0.420
REMARK SMILES CC1=CCC[C@H](C)C(=O)C[C@H](C(C)C)C(=O)C1
REMARK SMILES IDX 8 1 9 2 6 3 7 4 5 5 4 6 3 7 2 8 1 9 10 11 11 12 15 13 16 14
REMARK SMILES IDX 17 15 12 17 13 18 14 19
REMARK H PARENT
REMARK Flexibility Score: 70.00
ROOT
ATOM      1  C   UNL     1      -2.726  13.232 -27.894  1.00  0.00     0.136 C 
ATOM      2  O   UNL     1      -2.101  14.271 -28.052  1.00  0.00    -0.299 OA
ENDROOT
BRANCH   1   3
ATOM      3  C   UNL     1      -4.120  13.327 -27.293  1.00  0.00     0.053 C 
ATOM      4  C   UNL     1      -4.256  14.403 -26.203  1.00  0.00     0.016 C 
BRANCH   3   5
ATOM      5  C   UNL     1      -5.214  13.411 -28.380  1.00  0.00     0.015 C 
BRANCH   5   6
ATOM      6  C   UNL     1      -5.173  14.702 -29.220  1.00  0.00     0.028 C 
BRANCH   6   7
ATOM      7  C   UNL     1      -5.431  14.458 -30.686  1.00  0.00    -0.028 C 
ATOM      8  C   UNL     1      -4.501  14.068 -31.594  1.00  0.00    -0.070 CG0
ATOM      9  C   UNL     1      -4.932  13.957 -33.034  1.00  0.00     0.039 C 
ATOM     10  G   UNL     1      -3.067  13.705 -31.229  1.00  0.00     0.000 G0
ENDBRANCH   6   7
ENDBRANCH   5   6
ENDBRANCH   3   5
ENDBRANCH   1   3
BRANCH   1  11
ATOM     11  C   UNL     1      -2.075  11.933 -28.334  1.00  0.00     0.087 C 
BRANCH  11  12
ATOM     12  C   UNL     1      -1.670  11.960 -29.836  1.00  0.00     0.066 C 
BRANCH  12  13
ATOM     13  C   UNL     1      -2.891  12.306 -30.675  1.00  0.00     0.140 C 
ATOM     14  O   UNL     1      -3.750  11.459 -30.882  1.00  0.00    -0.299 OA
BRANCH  13  15
ATOM     15  C   UNL     1      -3.062  13.698 -31.231  1.00  0.00     0.106 CG0
ATOM     16  G   UNL     1      -4.503  14.042 -31.586  1.00  0.00     0.000 G0
ENDBRANCH  13  15
ENDBRANCH  12  13
BRANCH  12  17
ATOM     17  C   UNL     1      -0.481  12.931 -30.140  1.00  0.00    -0.006 C 
ATOM     18  C   UNL     1       0.155  12.616 -31.508  1.00  0.00     0.008 C 
ATOM     19  C   UNL     1       0.621  12.871 -29.063  1.00  0.00     0.008 C 
ENDBRANCH  12  17
ENDBRANCH  11  12
ENDBRANCH   1  11
TORSDOF 1
ENDMDL
MODEL 8
REMARK VINA RESULT:    -4.310      1.837      4.818
REMARK INTER + INTRA:          -6.159
REMARK INTER:                  -6.870
REMARK INTRA:                   0.711
REMARK UNBOUND:                 0.420
REMARK SMILES CC1=CCC[C@H](C)C(=O)C[C@H](C(C)C)C(=O)C1
REMARK SMILES IDX 8 1 9 2 6 3 7 4 5 5 4 6 3 7 2 8 1 9 10 11 11 12 15 13 16 14
REMARK SMILES IDX 17 15 12 17 13 18 14 19
REMARK H PARENT
REMARK Flexibility Score: 70.00
ROOT
ATOM      1  C   UNL     1      -3.655  13.380 -31.625  1.00  0.00     0.136 C 
ATOM      2  O   UNL     1      -4.232  12.322 -31.833  1.00  0.00    -0.299 OA
ENDROOT
BRANCH   1   3
ATOM      3  C   UNL     1      -4.507  14.605 -31.328  1.00  0.00     0.053 C 
ATOM      4  C   UNL     1      -5.249  15.158 -32.556  1.00  0.00     0.016 C 
BRANCH   3   5
ATOM      5  C   UNL     1      -5.421  14.391 -30.101  1.00  0.00     0.015 C 
BRANCH   5   6
ATOM      6  C   UNL     1      -4.713  13.754 -28.890  1.00  0.00     0.028 C 
BRANCH   6   7
ATOM      7  C   UNL     1      -5.012  12.282 -28.743  1.00  0.00    -0.028 C 
ATOM      8  C   UNL     1      -4.085  11.302 -28.598  1.00  0.00    -0.070 CG0
ATOM      9  C   UNL     1      -4.574   9.877 -28.550  1.00  0.00     0.039 C 
ATOM     10  G   UNL     1      -2.592  11.569 -28.446  1.00  0.00     0.000 G0
ENDBRANCH   6   7
ENDBRANCH   5   6
ENDBRANCH   3   5
ENDBRANCH   1   3
BRANCH   1  11
ATOM     11  C   UNL     1      -2.138  13.384 -31.649  1.00  0.00     0.087 C 
BRANCH  11  12
ATOM     12  C   UNL     1      -1.527  13.154 -30.237  1.00  0.00     0.066 C 
BRANCH  12  13
ATOM     13  C   UNL     1      -1.887  11.755 -29.761  1.00  0.00     0.140 C 
ATOM     14  O   UNL     1      -1.581  10.781 -30.438  1.00  0.00    -0.299 OA
BRANCH  13  15
ATOM     15  C   UNL     1      -2.593  11.558 -28.443  1.00  0.00     0.106 CG0
ATOM     16  G   UNL     1      -4.088  11.300 -28.582  1.00  0.00     0.000 G0
ENDBRANCH  13  15
ENDBRANCH  12  13
BRANCH  12  17
ATOM     17  C   UNL     1       0.019  13.390 -30.184  1.00  0.00    -0.006 C 
ATOM     18  C   UNL     1       0.761  12.399 -31.102  1.00  0.00     0.008 C 
ATOM     19  C   UNL     1       0.589  13.258 -28.759  1.00  0.00     0.008 C 
ENDBRANCH  12  17
ENDBRANCH  11  12
ENDBRANCH   1  11
TORSDOF 1
ENDMDL
MODEL 9
REMARK VINA RESULT:    -4.050      2.033      3.420
REMARK INTER + INTRA:          -5.761
REMARK INTER:                  -6.358
REMARK INTRA:                   0.597
REMARK UNBOUND:                 0.420
REMARK SMILES CC1=CCC[C@H](C)C(=O)C[C@H](C(C)C)C(=O)C1
REMARK SMILES IDX 8 1 9 2 6 3 7 4 5 5 4 6 3 7 2 8 1 9 10 11 11 12 15 13 16 14
REMARK SMILES IDX 17 15 12 17 13 18 14 19
REMARK H PARENT
REMARK Flexibility Score: 70.00
ROOT
ATOM      1  C   UNL     1      -1.266  13.106 -30.489  1.00  0.00     0.136 C 
ATOM      2  O   UNL     1      -0.731  13.335 -29.413  1.00  0.00    -0.299 OA
ENDROOT
BRANCH   1   3
ATOM      3  C   UNL     1      -0.751  11.927 -31.300  1.00  0.00     0.053 C 
ATOM      4  C   UNL     1       0.669  12.127 -31.856  1.00  0.00     0.016 C 
BRANCH   3   5
ATOM      5  C   UNL     1      -0.937  10.586 -30.555  1.00  0.00     0.015 C 
BRANCH   5   6
ATOM      6  C   UNL     1      -2.344  10.383 -29.961  1.00  0.00     0.028 C 
BRANCH   6   7
ATOM      7  C   UNL     1      -2.374  10.522 -28.459  1.00  0.00    -0.028 C 
ATOM      8  C   UNL     1      -3.243  11.292 -27.758  1.00  0.00    -0.070 CG0
ATOM      9  C   UNL     1      -3.062  11.369 -26.263  1.00  0.00     0.039 C 
ATOM     10  G   UNL     1      -4.404  12.047 -28.395  1.00  0.00     0.000 G0
ENDBRANCH   6   7
ENDBRANCH   5   6
ENDBRANCH   3   5
ENDBRANCH   1   3
BRANCH   1  11
ATOM     11  C   UNL     1      -2.419  13.995 -30.917  1.00  0.00     0.087 C 
BRANCH  11  12
ATOM     12  C   UNL     1      -3.802  13.360 -30.596  1.00  0.00     0.066 C 
BRANCH  12  13
ATOM     13  C   UNL     1      -4.000  13.335 -29.087  1.00  0.00     0.140 C 
ATOM     14  O   UNL     1      -3.850  14.360 -28.434  1.00  0.00    -0.299 OA
BRANCH  13  15
ATOM     15  C   UNL     1      -4.408  12.059 -28.395  1.00  0.00     0.106 CG0
ATOM     16  G   UNL     1      -3.244  11.301 -27.770  1.00  0.00     0.000 G0
ENDBRANCH  13  15
ENDBRANCH  12  13
BRANCH  12  17
ATOM     17  C   UNL     1      -4.994  14.077 -31.311  1.00  0.00    -0.006 C 
ATOM     18  C   UNL     1      -4.504  14.885 -32.528  1.00  0.00     0.008 C 
ATOM     19  C   UNL     1      -5.763  15.026 -30.371  1.00  0.00     0.008 C 
ENDBRANCH  12  17
ENDBRANCH  11  12
ENDBRANCH   1  11
TORSDOF 1
ENDMDL
