MODEL 1
REMARK VINA RESULT:    -4.654      0.000      0.000
REMARK INTER + INTRA:          -6.146
REMARK INTER:                  -6.014
REMARK INTRA:                  -0.132
REMARK UNBOUND:                -0.132
REMARK SMILES CCCCCCC(=O)[O-]
REMARK SMILES IDX 5 1 6 2 7 3 8 4 9 5 4 6 3 7 2 8 1 9
REMARK H PARENT
REMARK Flexibility Score: inf
ROOT
ATOM      1  C   UNL     1     -15.476  33.868 -10.378  1.00  0.00     0.006 C 
ENDROOT
BRANCH   1   2
ATOM      2  C   UNL     1     -14.735  34.299  -9.106  1.00  0.00     0.053 C 
BRANCH   2   3
ATOM      3  C   UNL     1     -13.611  35.226  -9.446  1.00  0.00     0.041 C 
ATOM      4  O   UNL     1     -13.252  35.372 -10.644  1.00  0.00    -0.550 OA
ATOM      5  O   UNL     1     -12.992  35.966  -8.447  1.00  0.00    -0.550 OA
ENDBRANCH   2   3
ENDBRANCH   1   2
BRANCH   1   6
ATOM      6  C   UNL     1     -16.991  33.692 -10.158  1.00  0.00     0.000 C 
BRANCH   6   7
ATOM      7  C   UNL     1     -17.725  32.939 -11.281  1.00  0.00    -0.000 C 
BRANCH   7   8
ATOM      8  C   UNL     1     -17.453  33.524 -12.675  1.00  0.00    -0.003 C 
ATOM      9  C   UNL     1     -18.707  34.172 -13.255  1.00  0.00     0.004 C 
ENDBRANCH   7   8
ENDBRANCH   6   7
ENDBRANCH   1   6
TORSDOF 5
ENDMDL
MODEL 2
REMARK VINA RESULT:    -4.431     13.358     14.199
REMARK INTER + INTRA:          -5.859
REMARK INTER:                  -5.706
REMARK INTRA:                  -0.152
REMARK UNBOUND:                -0.132
REMARK SMILES CCCCCCC(=O)[O-]
REMARK SMILES IDX 5 1 6 2 7 3 8 4 9 5 4 6 3 7 2 8 1 9
REMARK H PARENT
REMARK Flexibility Score: inf
ROOT
ATOM      1  C   UNL     1     -20.804  23.911  -4.246  1.00  0.00     0.006 C 
ENDROOT
BRANCH   1   2
ATOM      2  C   UNL     1     -20.049  22.582  -4.387  1.00  0.00     0.053 C 
BRANCH   2   3
ATOM      3  C   UNL     1     -20.497  21.615  -3.337  1.00  0.00     0.041 C 
ATOM      4  O   UNL     1     -20.150  20.406  -3.401  1.00  0.00    -0.550 OA
ATOM      5  O   UNL     1     -21.256  22.058  -2.261  1.00  0.00    -0.550 OA
ENDBRANCH   2   3
ENDBRANCH   1   2
BRANCH   1   6
ATOM      6  C   UNL     1     -21.058  24.602  -5.599  1.00  0.00     0.000 C 
BRANCH   6   7
ATOM      7  C   UNL     1     -22.438  25.270  -5.737  1.00  0.00    -0.000 C 
BRANCH   7   8
ATOM      8  C   UNL     1     -22.773  26.202  -4.563  1.00  0.00    -0.003 C 
ATOM      9  C   UNL     1     -24.037  25.744  -3.841  1.00  0.00     0.004 C 
ENDBRANCH   7   8
ENDBRANCH   6   7
ENDBRANCH   1   6
TORSDOF 5
ENDMDL
MODEL 3
REMARK VINA RESULT:    -4.118     13.416     14.206
REMARK INTER + INTRA:          -5.454
REMARK INTER:                  -5.221
REMARK INTRA:                  -0.233
REMARK UNBOUND:                -0.132
REMARK SMILES CCCCCCC(=O)[O-]
REMARK SMILES IDX 5 1 6 2 7 3 8 4 9 5 4 6 3 7 2 8 1 9
REMARK H PARENT
REMARK Flexibility Score: inf
ROOT
ATOM      1  C   UNL     1     -21.909  23.642  -2.833  1.00  0.00     0.006 C 
ENDROOT
BRANCH   1   2
ATOM      2  C   UNL     1     -20.774  23.091  -3.706  1.00  0.00     0.053 C 
BRANCH   2   3
ATOM      3  C   UNL     1     -20.418  21.702  -3.283  1.00  0.00     0.041 C 
ATOM      4  O   UNL     1     -19.685  20.985  -4.014  1.00  0.00    -0.550 OA
ATOM      5  O   UNL     1     -20.855  21.214  -2.057  1.00  0.00    -0.550 OA
ENDBRANCH   2   3
ENDBRANCH   1   2
BRANCH   1   6
ATOM      6  C   UNL     1     -22.267  25.102  -3.165  1.00  0.00     0.000 C 
BRANCH   6   7
ATOM      7  C   UNL     1     -22.973  25.305  -4.518  1.00  0.00    -0.000 C 
BRANCH   7   8
ATOM      8  C   UNL     1     -22.138  26.127  -5.512  1.00  0.00    -0.003 C 
ATOM      9  C   UNL     1     -21.539  25.236  -6.596  1.00  0.00     0.004 C 
ENDBRANCH   7   8
ENDBRANCH   6   7
ENDBRANCH   1   6
TORSDOF 5
ENDMDL
MODEL 4
REMARK VINA RESULT:    -4.078      2.884      4.945
REMARK INTER + INTRA:          -5.402
REMARK INTER:                  -5.180
REMARK INTRA:                  -0.221
REMARK UNBOUND:                -0.132
REMARK SMILES CCCCCCC(=O)[O-]
REMARK SMILES IDX 5 1 6 2 7 3 8 4 9 5 4 6 3 7 2 8 1 9
REMARK H PARENT
REMARK Flexibility Score: inf
ROOT
ATOM      1  C   UNL     1     -15.542  33.526 -12.240  1.00  0.00     0.006 C 
ENDROOT
BRANCH   1   2
ATOM      2  C   UNL     1     -16.853  32.966 -11.674  1.00  0.00     0.053 C 
BRANCH   2   3
ATOM      3  C   UNL     1     -17.979  33.918 -11.925  1.00  0.00     0.041 C 
ATOM      4  O   UNL     1     -18.466  34.588 -10.977  1.00  0.00    -0.550 OA
ATOM      5  O   UNL     1     -18.457  34.104 -13.217  1.00  0.00    -0.550 OA
ENDBRANCH   2   3
ENDBRANCH   1   2
BRANCH   1   6
ATOM      6  C   UNL     1     -14.715  34.294 -11.191  1.00  0.00     0.000 C 
BRANCH   6   7
ATOM      7  C   UNL     1     -15.077  33.985  -9.727  1.00  0.00    -0.000 C 
BRANCH   7   8
ATOM      8  C   UNL     1     -14.279  34.829  -8.722  1.00  0.00    -0.003 C 
ATOM      9  C   UNL     1     -13.096  35.517  -9.397  1.00  0.00     0.004 C 
ENDBRANCH   7   8
ENDBRANCH   6   7
ENDBRANCH   1   6
TORSDOF 5
ENDMDL
MODEL 5
REMARK VINA RESULT:    -3.973     12.579     14.409
REMARK INTER + INTRA:          -5.266
REMARK INTER:                  -5.079
REMARK INTRA:                  -0.188
REMARK UNBOUND:                -0.132
REMARK SMILES CCCCCCC(=O)[O-]
REMARK SMILES IDX 5 1 6 2 7 3 8 4 9 5 4 6 3 7 2 8 1 9
REMARK H PARENT
REMARK Flexibility Score: inf
ROOT
ATOM      1  C   UNL     1      -6.500  35.658   1.632  1.00  0.00     0.006 C 
ENDROOT
BRANCH   1   2
ATOM      2  C   UNL     1      -6.180  34.188   1.334  1.00  0.00     0.053 C 
BRANCH   2   3
ATOM      3  C   UNL     1      -7.431  33.441   0.997  1.00  0.00     0.041 C 
ATOM      4  O   UNL     1      -8.357  34.010   0.361  1.00  0.00    -0.550 OA
ATOM      5  O   UNL     1      -7.556  32.100   1.342  1.00  0.00    -0.550 OA
ENDBRANCH   2   3
ENDBRANCH   1   2
BRANCH   1   6
ATOM      6  C   UNL     1      -6.039  36.611   0.512  1.00  0.00     0.000 C 
BRANCH   6   7
ATOM      7  C   UNL     1      -6.940  37.840   0.296  1.00  0.00    -0.000 C 
BRANCH   7   8
ATOM      8  C   UNL     1      -7.480  37.942  -1.138  1.00  0.00    -0.003 C 
ATOM      9  C   UNL     1      -8.960  37.573  -1.197  1.00  0.00     0.004 C 
ENDBRANCH   7   8
ENDBRANCH   6   7
ENDBRANCH   1   6
TORSDOF 5
ENDMDL
MODEL 6
REMARK VINA RESULT:    -3.950     12.756     13.835
REMARK INTER + INTRA:          -5.236
REMARK INTER:                  -5.107
REMARK INTRA:                  -0.130
REMARK UNBOUND:                -0.132
REMARK SMILES CCCCCCC(=O)[O-]
REMARK SMILES IDX 5 1 6 2 7 3 8 4 9 5 4 6 3 7 2 8 1 9
REMARK H PARENT
REMARK Flexibility Score: inf
ROOT
ATOM      1  C   UNL     1     -21.554  25.319  -5.719  1.00  0.00     0.006 C 
ENDROOT
BRANCH   1   2
ATOM      2  C   UNL     1     -22.902  25.003  -5.058  1.00  0.00     0.053 C 
BRANCH   2   3
ATOM      3  C   UNL     1     -23.109  25.867  -3.856  1.00  0.00     0.041 C 
ATOM      4  O   UNL     1     -23.879  26.861  -3.915  1.00  0.00    -0.550 OA
ATOM      5  O   UNL     1     -22.489  25.547  -2.654  1.00  0.00    -0.550 OA
ENDBRANCH   2   3
ENDBRANCH   1   2
BRANCH   1   6
ATOM      6  C   UNL     1     -20.576  24.130  -5.684  1.00  0.00     0.000 C 
BRANCH   6   7
ATOM      7  C   UNL     1     -20.384  23.488  -4.298  1.00  0.00    -0.000 C 
BRANCH   7   8
ATOM      8  C   UNL     1     -19.944  22.018  -4.374  1.00  0.00    -0.003 C 
ATOM      9  C   UNL     1     -20.301  21.270  -3.092  1.00  0.00     0.004 C 
ENDBRANCH   7   8
ENDBRANCH   6   7
ENDBRANCH   1   6
TORSDOF 5
ENDMDL
MODEL 7
REMARK VINA RESULT:    -3.793     12.597     13.647
REMARK INTER + INTRA:          -5.033
REMARK INTER:                  -4.934
REMARK INTRA:                  -0.099
REMARK UNBOUND:                -0.132
REMARK SMILES CCCCCCC(=O)[O-]
REMARK SMILES IDX 5 1 6 2 7 3 8 4 9 5 4 6 3 7 2 8 1 9
REMARK H PARENT
REMARK Flexibility Score: inf
ROOT
ATOM      1  C   UNL     1     -22.885  25.313  -4.310  1.00  0.00     0.006 C 
ENDROOT
BRANCH   1   2
ATOM      2  C   UNL     1     -22.168  26.140  -5.385  1.00  0.00     0.053 C 
BRANCH   2   3
ATOM      3  C   UNL     1     -21.707  25.257  -6.501  1.00  0.00     0.041 C 
ATOM      4  O   UNL     1     -22.239  25.345  -7.639  1.00  0.00    -0.550 OA
ATOM      5  O   UNL     1     -20.656  24.370  -6.298  1.00  0.00    -0.550 OA
ENDBRANCH   2   3
ENDBRANCH   1   2
BRANCH   1   6
ATOM      6  C   UNL     1     -21.968  24.939  -3.130  1.00  0.00     0.000 C 
BRANCH   6   7
ATOM      7  C   UNL     1     -21.884  23.433  -2.825  1.00  0.00    -0.000 C 
BRANCH   7   8
ATOM      8  C   UNL     1     -20.710  22.742  -3.535  1.00  0.00    -0.003 C 
ATOM      9  C   UNL     1     -20.405  21.387  -2.903  1.00  0.00     0.004 C 
ENDBRANCH   7   8
ENDBRANCH   6   7
ENDBRANCH   1   6
TORSDOF 5
ENDMDL
MODEL 8
REMARK VINA RESULT:    -3.682     13.329     14.862
REMARK INTER + INTRA:          -4.891
REMARK INTER:                  -4.675
REMARK INTRA:                  -0.215
REMARK UNBOUND:                -0.132
REMARK SMILES CCCCCCC(=O)[O-]
REMARK SMILES IDX 5 1 6 2 7 3 8 4 9 5 4 6 3 7 2 8 1 9
REMARK H PARENT
REMARK Flexibility Score: inf
ROOT
ATOM      1  C   UNL     1      -5.248  34.422   0.295  1.00  0.00     0.006 C 
ENDROOT
BRANCH   1   2
ATOM      2  C   UNL     1      -5.878  33.622   1.444  1.00  0.00     0.053 C 
BRANCH   2   3
ATOM      3  C   UNL     1      -7.187  33.039   1.016  1.00  0.00     0.041 C 
ATOM      4  O   UNL     1      -7.533  31.897   1.418  1.00  0.00    -0.550 OA
ATOM      5  O   UNL     1      -8.048  33.776   0.212  1.00  0.00    -0.550 OA
ENDBRANCH   2   3
ENDBRANCH   1   2
BRANCH   1   6
ATOM      6  C   UNL     1      -5.033  35.906   0.645  1.00  0.00     0.000 C 
BRANCH   6   7
ATOM      7  C   UNL     1      -6.325  36.721   0.838  1.00  0.00    -0.000 C 
BRANCH   7   8
ATOM      8  C   UNL     1      -6.561  37.744  -0.283  1.00  0.00    -0.003 C 
ATOM      9  C   UNL     1      -8.010  37.713  -0.760  1.00  0.00     0.004 C 
ENDBRANCH   7   8
ENDBRANCH   6   7
ENDBRANCH   1   6
TORSDOF 5
ENDMDL
MODEL 9
REMARK VINA RESULT:    -3.297     14.431     15.604
REMARK INTER + INTRA:          -4.392
REMARK INTER:                  -4.202
REMARK INTRA:                  -0.190
REMARK UNBOUND:                -0.132
REMARK SMILES CCCCCCC(=O)[O-]
REMARK SMILES IDX 5 1 6 2 7 3 8 4 9 5 4 6 3 7 2 8 1 9
REMARK H PARENT
REMARK Flexibility Score: inf
ROOT
ATOM      1  C   UNL     1      -5.713  35.151   1.302  1.00  0.00     0.006 C 
ENDROOT
BRANCH   1   2
ATOM      2  C   UNL     1      -5.812  33.625   1.183  1.00  0.00     0.053 C 
BRANCH   2   3
ATOM      3  C   UNL     1      -7.237  33.207   1.002  1.00  0.00     0.041 C 
ATOM      4  O   UNL     1      -8.058  33.984   0.446  1.00  0.00    -0.550 OA
ATOM      5  O   UNL     1      -7.648  31.941   1.400  1.00  0.00    -0.550 OA
ENDBRANCH   2   3
ENDBRANCH   1   2
BRANCH   1   6
ATOM      6  C   UNL     1      -4.266  35.646   1.479  1.00  0.00     0.000 C 
BRANCH   6   7
ATOM      7  C   UNL     1      -3.943  36.974   0.770  1.00  0.00    -0.000 C 
BRANCH   7   8
ATOM      8  C   UNL     1      -4.985  37.355  -0.291  1.00  0.00    -0.003 C 
ATOM      9  C   UNL     1      -4.385  37.305  -1.694  1.00  0.00     0.004 C 
ENDBRANCH   7   8
ENDBRANCH   6   7
ENDBRANCH   1   6
TORSDOF 5
ENDMDL
