MODEL 1
REMARK VINA RESULT:    -4.939      0.000      0.000
REMARK INTER + INTRA:          -4.939
REMARK INTER:                  -4.939
REMARK INTRA:                   0.000
REMARK UNBOUND:                 0.000
REMARK SMILES CC1=CC(=O)[C@H]2C[C@@H]1C2(C)C
REMARK SMILES IDX 1 1 2 2 3 3 4 4 5 5 6 6 7 7 8 8 9 9 10 10 11 11
REMARK H PARENT
REMARK Flexibility Score: inf
ROOT
ATOM      1  C   UNL     1      19.708  22.257  26.751  1.00  0.00     0.040 C 
ATOM      2  C   UNL     1      20.828  23.000  27.409  1.00  0.00    -0.066 C 
ATOM      3  C   UNL     1      21.432  24.072  26.822  1.00  0.00     0.047 C 
ATOM      4  C   UNL     1      22.541  24.715  27.601  1.00  0.00     0.159 C 
ATOM      5  O   UNL     1      23.204  25.684  27.150  1.00  0.00    -0.295 OA
ATOM      6  C   UNL     1      22.807  24.110  28.981  1.00  0.00     0.067 C 
ATOM      7  C   UNL     1      21.401  23.946  29.598  1.00  0.00     0.021 C 
ATOM      8  C   UNL     1      21.312  22.613  28.821  1.00  0.00     0.022 C 
ATOM      9  C   UNL     1      22.867  22.563  28.839  1.00  0.00    -0.019 C 
ATOM     10  C   UNL     1      23.598  21.961  27.606  1.00  0.00     0.012 C 
ATOM     11  C   UNL     1      23.419  21.875  30.114  1.00  0.00     0.012 C 
ENDROOT
TORSDOF 0
ENDMDL
MODEL 2
REMARK VINA RESULT:    -4.867     10.033     11.422
REMARK INTER + INTRA:          -4.867
REMARK INTER:                  -4.867
REMARK INTRA:                   0.000
REMARK UNBOUND:                 0.000
REMARK SMILES CC1=CC(=O)[C@H]2C[C@@H]1C2(C)C
REMARK SMILES IDX 1 1 2 2 3 3 4 4 5 5 6 6 7 7 8 8 9 9 10 10 11 11
REMARK H PARENT
REMARK Flexibility Score: inf
ROOT
ATOM      1  C   UNL     1      22.926  28.276  39.676  1.00  0.00     0.040 C 
ATOM      2  C   UNL     1      22.068  28.683  38.519  1.00  0.00    -0.066 C 
ATOM      3  C   UNL     1      21.412  27.773  37.745  1.00  0.00     0.047 C 
ATOM      4  C   UNL     1      20.591  28.331  36.621  1.00  0.00     0.159 C 
ATOM      5  O   UNL     1      19.973  27.593  35.810  1.00  0.00    -0.295 OA
ATOM      6  C   UNL     1      20.556  29.857  36.530  1.00  0.00     0.067 C 
ATOM      7  C   UNL     1      20.317  30.316  37.986  1.00  0.00     0.021 C 
ATOM      8  C   UNL     1      21.843  30.173  38.188  1.00  0.00     0.022 C 
ATOM      9  C   UNL     1      22.011  30.394  36.657  1.00  0.00    -0.019 C 
ATOM     10  C   UNL     1      23.147  29.627  35.924  1.00  0.00     0.012 C 
ATOM     11  C   UNL     1      22.120  31.895  36.287  1.00  0.00     0.012 C 
ENDROOT
TORSDOF 0
ENDMDL
MODEL 3
REMARK VINA RESULT:    -4.864      1.546      2.034
REMARK INTER + INTRA:          -4.864
REMARK INTER:                  -4.864
REMARK INTRA:                   0.000
REMARK UNBOUND:                 0.000
REMARK SMILES CC1=CC(=O)[C@H]2C[C@@H]1C2(C)C
REMARK SMILES IDX 1 1 2 2 3 3 4 4 5 5 6 6 7 7 8 8 9 9 10 10 11 11
REMARK H PARENT
REMARK Flexibility Score: inf
ROOT
ATOM      1  C   UNL     1      20.953  25.661  25.809  1.00  0.00     0.040 C 
ATOM      2  C   UNL     1      21.710  25.045  26.944  1.00  0.00    -0.066 C 
ATOM      3  C   UNL     1      23.050  25.229  27.108  1.00  0.00     0.047 C 
ATOM      4  C   UNL     1      23.671  24.548  28.291  1.00  0.00     0.159 C 
ATOM      5  O   UNL     1      24.906  24.605  28.528  1.00  0.00    -0.295 OA
ATOM      6  C   UNL     1      22.700  23.781  29.190  1.00  0.00     0.067 C 
ATOM      7  C   UNL     1      21.510  24.749  29.371  1.00  0.00     0.021 C 
ATOM      8  C   UNL     1      20.982  24.213  28.021  1.00  0.00     0.022 C 
ATOM      9  C   UNL     1      21.781  22.905  28.291  1.00  0.00    -0.019 C 
ATOM     10  C   UNL     1      22.418  22.169  27.079  1.00  0.00     0.012 C 
ATOM     11  C   UNL     1      20.964  21.875  29.111  1.00  0.00     0.012 C 
ENDROOT
TORSDOF 0
ENDMDL
MODEL 4
REMARK VINA RESULT:    -4.591     10.348     11.428
REMARK INTER + INTRA:          -4.591
REMARK INTER:                  -4.591
REMARK INTRA:                   0.000
REMARK UNBOUND:                 0.000
REMARK SMILES CC1=CC(=O)[C@H]2C[C@@H]1C2(C)C
REMARK SMILES IDX 1 1 2 2 3 3 4 4 5 5 6 6 7 7 8 8 9 9 10 10 11 11
REMARK H PARENT
REMARK Flexibility Score: inf
ROOT
ATOM      1  C   UNL     1      23.911  30.542  35.934  1.00  0.00     0.040 C 
ATOM      2  C   UNL     1      22.619  30.205  36.612  1.00  0.00    -0.066 C 
ATOM      3  C   UNL     1      22.017  31.055  37.491  1.00  0.00     0.047 C 
ATOM      4  C   UNL     1      20.728  30.580  38.092  1.00  0.00     0.159 C 
ATOM      5  O   UNL     1      20.098  31.254  38.948  1.00  0.00    -0.295 OA
ATOM      6  C   UNL     1      20.233  29.223  37.591  1.00  0.00     0.067 C 
ATOM      7  C   UNL     1      20.408  29.299  36.059  1.00  0.00     0.021 C 
ATOM      8  C   UNL     1      21.879  28.890  36.294  1.00  0.00     0.022 C 
ATOM      9  C   UNL     1      21.422  28.221  37.623  1.00  0.00    -0.019 C 
ATOM     10  C   UNL     1      22.390  28.261  38.838  1.00  0.00     0.012 C 
ATOM     11  C   UNL     1      20.962  26.755  37.416  1.00  0.00     0.012 C 
ENDROOT
TORSDOF 0
ENDMDL
MODEL 5
REMARK VINA RESULT:    -4.553     10.521     11.580
REMARK INTER + INTRA:          -4.553
REMARK INTER:                  -4.553
REMARK INTRA:                   0.000
REMARK UNBOUND:                 0.000
REMARK SMILES CC1=CC(=O)[C@H]2C[C@@H]1C2(C)C
REMARK SMILES IDX 1 1 2 2 3 3 4 4 5 5 6 6 7 7 8 8 9 9 10 10 11 11
REMARK H PARENT
REMARK Flexibility Score: inf
ROOT
ATOM      1  C   UNL     1      18.115  29.001  35.340  1.00  0.00     0.040 C 
ATOM      2  C   UNL     1      19.078  29.559  36.340  1.00  0.00    -0.066 C 
ATOM      3  C   UNL     1      18.673  30.339  37.383  1.00  0.00     0.047 C 
ATOM      4  C   UNL     1      19.752  30.827  38.302  1.00  0.00     0.159 C 
ATOM      5  O   UNL     1      19.512  31.588  39.276  1.00  0.00    -0.295 OA
ATOM      6  C   UNL     1      21.162  30.334  37.976  1.00  0.00     0.067 C 
ATOM      7  C   UNL     1      20.981  28.825  37.703  1.00  0.00     0.021 C 
ATOM      8  C   UNL     1      20.582  29.223  36.264  1.00  0.00     0.022 C 
ATOM      9  C   UNL     1      21.413  30.525  36.453  1.00  0.00    -0.019 C 
ATOM     10  C   UNL     1      20.902  31.829  35.778  1.00  0.00     0.012 C 
ATOM     11  C   UNL     1      22.903  30.332  36.072  1.00  0.00     0.012 C 
ENDROOT
TORSDOF 0
ENDMDL
MODEL 6
REMARK VINA RESULT:    -4.537     10.184     11.632
REMARK INTER + INTRA:          -4.537
REMARK INTER:                  -4.537
REMARK INTRA:                   0.000
REMARK UNBOUND:                 0.000
REMARK SMILES CC1=CC(=O)[C@H]2C[C@@H]1C2(C)C
REMARK SMILES IDX 1 1 2 2 3 3 4 4 5 5 6 6 7 7 8 8 9 9 10 10 11 11
REMARK H PARENT
REMARK Flexibility Score: inf
ROOT
ATOM      1  C   UNL     1      19.914  31.741  38.785  1.00  0.00     0.040 C 
ATOM      2  C   UNL     1      20.625  30.699  37.981  1.00  0.00    -0.066 C 
ATOM      3  C   UNL     1      19.958  29.717  37.311  1.00  0.00     0.047 C 
ATOM      4  C   UNL     1      20.806  28.743  36.549  1.00  0.00     0.159 C 
ATOM      5  O   UNL     1      20.313  27.767  35.925  1.00  0.00    -0.295 OA
ATOM      6  C   UNL     1      22.310  29.017  36.582  1.00  0.00     0.067 C 
ATOM      7  C   UNL     1      22.422  30.535  36.319  1.00  0.00     0.021 C 
ATOM      8  C   UNL     1      22.160  30.728  37.830  1.00  0.00     0.022 C 
ATOM      9  C   UNL     1      22.729  29.297  38.054  1.00  0.00    -0.019 C 
ATOM     10  C   UNL     1      22.103  28.425  39.179  1.00  0.00     0.012 C 
ATOM     11  C   UNL     1      24.268  29.297  38.239  1.00  0.00     0.012 C 
ENDROOT
TORSDOF 0
ENDMDL
MODEL 7
REMARK VINA RESULT:    -4.490      9.949     11.618
REMARK INTER + INTRA:          -4.490
REMARK INTER:                  -4.490
REMARK INTRA:                   0.000
REMARK UNBOUND:                 0.000
REMARK SMILES CC1=CC(=O)[C@H]2C[C@@H]1C2(C)C
REMARK SMILES IDX 1 1 2 2 3 3 4 4 5 5 6 6 7 7 8 8 9 9 10 10 11 11
REMARK H PARENT
REMARK Flexibility Score: inf
ROOT
ATOM      1  C   UNL     1      23.300  28.294  40.055  1.00  0.00     0.040 C 
ATOM      2  C   UNL     1      22.867  28.760  38.699  1.00  0.00    -0.066 C 
ATOM      3  C   UNL     1      23.720  29.386  37.840  1.00  0.00     0.047 C 
ATOM      4  C   UNL     1      23.143  29.795  36.517  1.00  0.00     0.159 C 
ATOM      5  O   UNL     1      23.815  30.418  35.655  1.00  0.00    -0.295 OA
ATOM      6  C   UNL     1      21.682  29.403  36.290  1.00  0.00     0.067 C 
ATOM      7  C   UNL     1      21.609  27.934  36.763  1.00  0.00     0.021 C 
ATOM      8  C   UNL     1      21.435  28.494  38.192  1.00  0.00     0.022 C 
ATOM      9  C   UNL     1      20.863  29.793  37.554  1.00  0.00    -0.019 C 
ATOM     10  C   UNL     1      21.174  31.151  38.245  1.00  0.00     0.012 C 
ATOM     11  C   UNL     1      19.334  29.708  37.315  1.00  0.00     0.012 C 
ENDROOT
TORSDOF 0
ENDMDL
MODEL 8
REMARK VINA RESULT:    -4.409     10.109     11.510
REMARK INTER + INTRA:          -4.409
REMARK INTER:                  -4.409
REMARK INTRA:                   0.000
REMARK UNBOUND:                 0.000
REMARK SMILES CC1=CC(=O)[C@H]2C[C@@H]1C2(C)C
REMARK SMILES IDX 1 1 2 2 3 3 4 4 5 5 6 6 7 7 8 8 9 9 10 10 11 11
REMARK H PARENT
REMARK Flexibility Score: inf
ROOT
ATOM      1  C   UNL     1      20.631  26.756  37.015  1.00  0.00     0.040 C 
ATOM      2  C   UNL     1      21.460  27.970  37.292  1.00  0.00    -0.066 C 
ATOM      3  C   UNL     1      22.191  28.107  38.435  1.00  0.00     0.047 C 
ATOM      4  C   UNL     1      22.972  29.379  38.573  1.00  0.00     0.159 C 
ATOM      5  O   UNL     1      23.651  29.643  39.599  1.00  0.00    -0.295 OA
ATOM      6  C   UNL     1      22.887  30.332  37.380  1.00  0.00     0.067 C 
ATOM      7  C   UNL     1      23.080  29.417  36.151  1.00  0.00     0.021 C 
ATOM      8  C   UNL     1      21.570  29.107  36.254  1.00  0.00     0.022 C 
ATOM      9  C   UNL     1      21.394  30.478  36.969  1.00  0.00    -0.019 C 
ATOM     10  C   UNL     1      20.325  30.590  38.092  1.00  0.00     0.012 C 
ATOM     11  C   UNL     1      21.169  31.639  35.967  1.00  0.00     0.012 C 
ENDROOT
TORSDOF 0
ENDMDL
MODEL 9
REMARK VINA RESULT:    -4.357     10.465     11.507
REMARK INTER + INTRA:          -4.357
REMARK INTER:                  -4.357
REMARK INTRA:                   0.000
REMARK UNBOUND:                 0.000
REMARK SMILES CC1=CC(=O)[C@H]2C[C@@H]1C2(C)C
REMARK SMILES IDX 1 1 2 2 3 3 4 4 5 5 6 6 7 7 8 8 9 9 10 10 11 11
REMARK H PARENT
REMARK Flexibility Score: inf
ROOT
ATOM      1  C   UNL     1      19.977  31.058  36.781  1.00  0.00     0.040 C 
ATOM      2  C   UNL     1      21.318  30.475  37.100  1.00  0.00    -0.066 C 
ATOM      3  C   UNL     1      22.272  30.281  36.146  1.00  0.00     0.047 C 
ATOM      4  C   UNL     1      23.566  29.687  36.616  1.00  0.00     0.159 C 
ATOM      5  O   UNL     1      24.508  29.420  35.825  1.00  0.00    -0.295 OA
ATOM      6  C   UNL     1      23.661  29.429  38.120  1.00  0.00     0.067 C 
ATOM      7  C   UNL     1      23.108  30.722  38.760  1.00  0.00     0.021 C 
ATOM      8  C   UNL     1      21.700  30.119  38.552  1.00  0.00     0.022 C 
ATOM      9  C   UNL     1      22.361  28.710  38.581  1.00  0.00    -0.019 C 
ATOM     10  C   UNL     1      21.768  27.600  37.669  1.00  0.00     0.012 C 
ATOM     11  C   UNL     1      22.479  28.145  40.020  1.00  0.00     0.012 C 
ENDROOT
TORSDOF 0
ENDMDL
