MODEL 1
REMARK VINA RESULT:    -3.744      0.000      0.000
REMARK INTER + INTRA:          -5.907
REMARK INTER:                  -5.713
REMARK INTRA:                  -0.194
REMARK UNBOUND:                -0.194
REMARK SMILES CC1=CCC[C@@H](C)C(=O)C[C@H](C(C)C)C(=O)C1
REMARK SMILES IDX 8 1 9 2 6 3 7 4 5 5 4 6 3 7 2 8 1 9 10 11 11 12 15 13 16 14
REMARK SMILES IDX 17 15 12 17 13 18 14 19
REMARK H PARENT
REMARK Flexibility Score: 70.00
ROOT
ATOM      1  C   UNL     1      14.374  17.571  17.376  1.00  0.00     0.136 C 
ATOM      2  O   UNL     1      14.493  17.079  18.488  1.00  0.00    -0.299 OA
ENDROOT
BRANCH   1   3
ATOM      3  C   UNL     1      13.284  17.045  16.455  1.00  0.00     0.053 C 
ATOM      4  C   UNL     1      12.887  15.621  16.860  1.00  0.00     0.016 C 
BRANCH   3   5
ATOM      5  C   UNL     1      13.689  17.099  14.965  1.00  0.00     0.015 C 
BRANCH   5   6
ATOM      6  C   UNL     1      14.531  15.879  14.559  1.00  0.00     0.028 C 
BRANCH   6   7
ATOM      7  C   UNL     1      15.321  16.092  13.289  1.00  0.00    -0.028 C 
ATOM      8  C   UNL     1      16.546  16.673  13.194  1.00  0.00    -0.070 CG0
ATOM      9  C   UNL     1      17.128  16.901  11.820  1.00  0.00     0.039 C 
ATOM     10  G   UNL     1      17.454  16.980  14.380  1.00  0.00     0.000 G0
ENDBRANCH   6   7
ENDBRANCH   5   6
ENDBRANCH   3   5
ENDBRANCH   1   3
BRANCH   1  11
ATOM     11  C   UNL     1      15.362  18.626  16.924  1.00  0.00     0.087 C 
BRANCH  11  12
ATOM     12  C   UNL     1      16.801  18.095  16.658  1.00  0.00     0.066 C 
BRANCH  12  13
ATOM     13  C   UNL     1      17.156  18.200  15.175  1.00  0.00     0.140 C 
ATOM     14  O   UNL     1      17.250  19.293  14.636  1.00  0.00    -0.299 OA
BRANCH  13  15
ATOM     15  C   UNL     1      17.473  16.956  14.382  1.00  0.00     0.106 CG0
ATOM     16  G   UNL     1      16.546  16.695  13.200  1.00  0.00     0.000 G0
ENDBRANCH  13  15
ENDBRANCH  12  13
BRANCH  12  17
ATOM     17  C   UNL     1      17.908  18.709  17.585  1.00  0.00    -0.006 C 
ATOM     18  C   UNL     1      18.068  17.875  18.871  1.00  0.00     0.008 C 
ATOM     19  C   UNL     1      17.620  20.168  17.985  1.00  0.00     0.008 C 
ENDBRANCH  12  17
ENDBRANCH  11  12
ENDBRANCH   1  11
TORSDOF 1
ENDMDL
MODEL 2
REMARK VINA RESULT:    -3.612      4.096      6.130
REMARK INTER + INTRA:          -5.706
REMARK INTER:                  -5.302
REMARK INTRA:                  -0.405
REMARK UNBOUND:                -0.194
REMARK SMILES CC1=CCC[C@@H](C)C(=O)C[C@H](C(C)C)C(=O)C1
REMARK SMILES IDX 8 1 9 2 6 3 7 4 5 5 4 6 3 7 2 8 1 9 10 11 11 12 15 13 16 14
REMARK SMILES IDX 17 15 12 17 13 18 14 19
REMARK H PARENT
REMARK Flexibility Score: 70.00
ROOT
ATOM      1  C   UNL     1      17.484  16.210  13.394  1.00  0.00     0.136 C 
ATOM      2  O   UNL     1      18.052  17.252  13.683  1.00  0.00    -0.299 OA
ENDROOT
BRANCH   1   3
ATOM      3  C   UNL     1      17.182  15.209  14.497  1.00  0.00     0.053 C 
ATOM      4  C   UNL     1      18.465  14.852  15.256  1.00  0.00     0.016 C 
BRANCH   3   5
ATOM      5  C   UNL     1      16.485  13.935  13.970  1.00  0.00     0.015 C 
BRANCH   5   6
ATOM      6  C   UNL     1      17.466  12.758  13.844  1.00  0.00     0.028 C 
BRANCH   6   7
ATOM      7  C   UNL     1      17.060  11.748  12.798  1.00  0.00    -0.028 C 
ATOM      8  C   UNL     1      17.388  11.783  11.479  1.00  0.00    -0.070 CG0
ATOM      9  C   UNL     1      16.792  10.741  10.563  1.00  0.00     0.039 C 
ATOM     10  G   UNL     1      18.439  12.705  10.871  1.00  0.00     0.000 G0
ENDBRANCH   6   7
ENDBRANCH   5   6
ENDBRANCH   3   5
ENDBRANCH   1   3
BRANCH   1  11
ATOM     11  C   UNL     1      17.173  15.916  11.941  1.00  0.00     0.087 C 
BRANCH  11  12
ATOM     12  C   UNL     1      18.361  15.320  11.132  1.00  0.00     0.066 C 
BRANCH  12  13
ATOM     13  C   UNL     1      17.937  14.052  10.392  1.00  0.00     0.140 C 
ATOM     14  O   UNL     1      17.237  14.123   9.392  1.00  0.00    -0.299 OA
BRANCH  13  15
ATOM     15  C   UNL     1      18.446  12.705  10.843  1.00  0.00     0.106 CG0
ATOM     16  G   UNL     1      17.390  11.794  11.459  1.00  0.00     0.000 G0
ENDBRANCH  13  15
ENDBRANCH  12  13
BRANCH  12  17
ATOM     17  C   UNL     1      19.096  16.343  10.196  1.00  0.00    -0.006 C 
ATOM     18  C   UNL     1      20.543  16.578  10.672  1.00  0.00     0.008 C 
ATOM     19  C   UNL     1      18.384  17.706  10.115  1.00  0.00     0.008 C 
ENDBRANCH  12  17
ENDBRANCH  11  12
ENDBRANCH   1  11
TORSDOF 1
ENDMDL
MODEL 3
REMARK VINA RESULT:    -3.607      5.181      7.208
REMARK INTER + INTRA:          -5.699
REMARK INTER:                  -5.430
REMARK INTRA:                  -0.269
REMARK UNBOUND:                -0.194
REMARK SMILES CC1=CCC[C@@H](C)C(=O)C[C@H](C(C)C)C(=O)C1
REMARK SMILES IDX 8 1 9 2 6 3 7 4 5 5 4 6 3 7 2 8 1 9 10 11 11 12 15 13 16 14
REMARK SMILES IDX 17 15 12 17 13 18 14 19
REMARK H PARENT
REMARK Flexibility Score: 70.00
ROOT
ATOM      1  C   UNL     1      16.955  21.073  10.549  1.00  0.00     0.136 C 
ATOM      2  O   UNL     1      16.981  21.749  11.565  1.00  0.00    -0.299 OA
ENDROOT
BRANCH   1   3
ATOM      3  C   UNL     1      16.132  19.794  10.539  1.00  0.00     0.053 C 
ATOM      4  C   UNL     1      14.642  20.123  10.403  1.00  0.00     0.016 C 
BRANCH   3   5
ATOM      5  C   UNL     1      16.388  18.914  11.783  1.00  0.00     0.015 C 
BRANCH   5   6
ATOM      6  C   UNL     1      17.872  18.537  11.919  1.00  0.00     0.028 C 
BRANCH   6   7
ATOM      7  C   UNL     1      18.350  17.587  10.846  1.00  0.00    -0.028 C 
ATOM      8  C   UNL     1      19.331  17.832   9.937  1.00  0.00    -0.070 CG0
ATOM      9  C   UNL     1      19.591  16.799   8.867  1.00  0.00     0.039 C 
ATOM     10  G   UNL     1      20.299  19.007  10.002  1.00  0.00     0.000 G0
ENDBRANCH   6   7
ENDBRANCH   5   6
ENDBRANCH   3   5
ENDBRANCH   1   3
BRANCH   1  11
ATOM     11  C   UNL     1      17.803  21.486   9.364  1.00  0.00     0.087 C 
BRANCH  11  12
ATOM     12  C   UNL     1      19.339  21.431   9.615  1.00  0.00     0.066 C 
BRANCH  12  13
ATOM     13  C   UNL     1      19.939  20.144   9.052  1.00  0.00     0.140 C 
ATOM     14  O   UNL     1      20.198  20.050   7.860  1.00  0.00    -0.299 OA
BRANCH  13  15
ATOM     15  C   UNL     1      20.292  19.004   9.976  1.00  0.00     0.106 CG0
ATOM     16  G   UNL     1      19.330  17.823   9.935  1.00  0.00     0.000 G0
ENDBRANCH  13  15
ENDBRANCH  12  13
BRANCH  12  17
ATOM     17  C   UNL     1      20.124  22.709   9.156  1.00  0.00    -0.006 C 
ATOM     18  C   UNL     1      20.921  23.312  10.330  1.00  0.00     0.008 C 
ATOM     19  C   UNL     1      19.209  23.805   8.578  1.00  0.00     0.008 C 
ENDBRANCH  12  17
ENDBRANCH  11  12
ENDBRANCH   1  11
TORSDOF 1
ENDMDL
MODEL 4
REMARK VINA RESULT:    -3.552      4.789      7.304
REMARK INTER + INTRA:          -5.615
REMARK INTER:                  -5.347
REMARK INTRA:                  -0.268
REMARK UNBOUND:                -0.194
REMARK SMILES CC1=CCC[C@@H](C)C(=O)C[C@H](C(C)C)C(=O)C1
REMARK SMILES IDX 8 1 9 2 6 3 7 4 5 5 4 6 3 7 2 8 1 9 10 11 11 12 15 13 16 14
REMARK SMILES IDX 17 15 12 17 13 18 14 19
REMARK H PARENT
REMARK Flexibility Score: 70.00
ROOT
ATOM      1  C   UNL     1      19.925  17.709   9.167  1.00  0.00     0.136 C 
ATOM      2  O   UNL     1      21.002  17.775   9.739  1.00  0.00    -0.299 OA
ENDROOT
BRANCH   1   3
ATOM      3  C   UNL     1      19.588  18.753   8.114  1.00  0.00     0.053 C 
ATOM      4  C   UNL     1      20.651  19.857   8.102  1.00  0.00     0.016 C 
BRANCH   3   5
ATOM      5  C   UNL     1      18.177  19.353   8.302  1.00  0.00     0.015 C 
BRANCH   5   6
ATOM      6  C   UNL     1      18.136  20.362   9.462  1.00  0.00     0.028 C 
BRANCH   6   7
ATOM      7  C   UNL     1      16.798  20.416  10.162  1.00  0.00    -0.028 C 
ATOM      8  C   UNL     1      16.385  19.599  11.166  1.00  0.00    -0.070 CG0
ATOM      9  C   UNL     1      14.966  19.735  11.663  1.00  0.00     0.039 C 
ATOM     10  G   UNL     1      17.292  18.650  11.941  1.00  0.00     0.000 G0
ENDBRANCH   6   7
ENDBRANCH   5   6
ENDBRANCH   3   5
ENDBRANCH   1   3
BRANCH   1  11
ATOM     11  C   UNL     1      18.932  16.643   9.580  1.00  0.00     0.087 C 
BRANCH  11  12
ATOM     12  C   UNL     1      18.656  16.572  11.111  1.00  0.00     0.066 C 
BRANCH  12  13
ATOM     13  C   UNL     1      17.318  17.224  11.455  1.00  0.00     0.140 C 
ATOM     14  O   UNL     1      16.279  16.582  11.385  1.00  0.00    -0.299 OA
BRANCH  13  15
ATOM     15  C   UNL     1      17.275  18.644  11.963  1.00  0.00     0.106 CG0
ATOM     16  G   UNL     1      16.382  19.585  11.162  1.00  0.00     0.000 G0
ENDBRANCH  13  15
ENDBRANCH  12  13
BRANCH  12  17
ATOM     17  C   UNL     1      18.806  15.142  11.738  1.00  0.00    -0.006 C 
ATOM     18  C   UNL     1      18.988  15.232  13.266  1.00  0.00     0.008 C 
ATOM     19  C   UNL     1      19.988  14.346  11.154  1.00  0.00     0.008 C 
ENDBRANCH  12  17
ENDBRANCH  11  12
ENDBRANCH   1  11
TORSDOF 1
ENDMDL
MODEL 5
REMARK VINA RESULT:    -3.538      3.111      5.561
REMARK INTER + INTRA:          -5.594
REMARK INTER:                  -5.261
REMARK INTRA:                  -0.333
REMARK UNBOUND:                -0.194
REMARK SMILES CC1=CCC[C@@H](C)C(=O)C[C@H](C(C)C)C(=O)C1
REMARK SMILES IDX 8 1 9 2 6 3 7 4 5 5 4 6 3 7 2 8 1 9 10 11 11 12 15 13 16 14
REMARK SMILES IDX 17 15 12 17 13 18 14 19
REMARK H PARENT
REMARK Flexibility Score: 70.00
ROOT
ATOM      1  C   UNL     1      18.711  14.252  12.743  1.00  0.00     0.136 C 
ATOM      2  O   UNL     1      18.962  13.486  11.826  1.00  0.00    -0.299 OA
ENDROOT
BRANCH   1   3
ATOM      3  C   UNL     1      18.142  13.687  14.035  1.00  0.00     0.053 C 
ATOM      4  C   UNL     1      17.176  12.536  13.732  1.00  0.00     0.016 C 
BRANCH   3   5
ATOM      5  C   UNL     1      17.455  14.765  14.903  1.00  0.00     0.015 C 
BRANCH   5   6
ATOM      6  C   UNL     1      15.975  14.943  14.526  1.00  0.00     0.028 C 
BRANCH   6   7
ATOM      7  C   UNL     1      15.421  16.299  14.894  1.00  0.00    -0.028 C 
ATOM      8  C   UNL     1      15.394  17.398  14.094  1.00  0.00    -0.070 CG0
ATOM      9  C   UNL     1      14.901  18.700  14.680  1.00  0.00     0.039 C 
ATOM     10  G   UNL     1      15.679  17.388  12.597  1.00  0.00     0.000 G0
ENDBRANCH   6   7
ENDBRANCH   5   6
ENDBRANCH   3   5
ENDBRANCH   1   3
BRANCH   1  11
ATOM     11  C   UNL     1      18.899  15.740  12.537  1.00  0.00     0.087 C 
BRANCH  11  12
ATOM     12  C   UNL     1      17.886  16.391  11.550  1.00  0.00     0.066 C 
BRANCH  12  13
ATOM     13  C   UNL     1      17.142  17.548  12.215  1.00  0.00     0.140 C 
ATOM     14  O   UNL     1      17.699  18.621  12.395  1.00  0.00    -0.299 OA
BRANCH  13  15
ATOM     15  C   UNL     1      15.686  17.401  12.584  1.00  0.00     0.106 CG0
ATOM     16  G   UNL     1      15.401  17.395  14.082  1.00  0.00     0.000 G0
ENDBRANCH  13  15
ENDBRANCH  12  13
BRANCH  12  17
ATOM     17  C   UNL     1      18.490  16.787  10.158  1.00  0.00    -0.006 C 
ATOM     18  C   UNL     1      18.194  15.702   9.104  1.00  0.00     0.008 C 
ATOM     19  C   UNL     1      20.012  17.018  10.202  1.00  0.00     0.008 C 
ENDBRANCH  12  17
ENDBRANCH  11  12
ENDBRANCH   1  11
TORSDOF 1
ENDMDL
MODEL 6
REMARK VINA RESULT:    -3.533      3.163      5.857
REMARK INTER + INTRA:          -5.585
REMARK INTER:                  -5.224
REMARK INTRA:                  -0.361
REMARK UNBOUND:                -0.194
REMARK SMILES CC1=CCC[C@@H](C)C(=O)C[C@H](C(C)C)C(=O)C1
REMARK SMILES IDX 8 1 9 2 6 3 7 4 5 5 4 6 3 7 2 8 1 9 10 11 11 12 15 13 16 14
REMARK SMILES IDX 17 15 12 17 13 18 14 19
REMARK H PARENT
REMARK Flexibility Score: 70.00
ROOT
ATOM      1  C   UNL     1      18.797  17.333  11.760  1.00  0.00     0.136 C 
ATOM      2  O   UNL     1      18.204  18.400  11.768  1.00  0.00    -0.299 OA
ENDROOT
BRANCH   1   3
ATOM      3  C   UNL     1      19.327  16.798  10.439  1.00  0.00     0.053 C 
ATOM      4  C   UNL     1      20.518  17.638   9.965  1.00  0.00     0.016 C 
BRANCH   3   5
ATOM      5  C   UNL     1      18.237  16.728   9.346  1.00  0.00     0.015 C 
BRANCH   5   6
ATOM      6  C   UNL     1      17.412  15.434   9.446  1.00  0.00     0.028 C 
BRANCH   6   7
ATOM      7  C   UNL     1      18.246  14.215   9.762  1.00  0.00    -0.028 C 
ATOM      8  C   UNL     1      18.237  13.518  10.929  1.00  0.00    -0.070 CG0
ATOM      9  C   UNL     1      19.227  12.390  11.099  1.00  0.00     0.039 C 
ATOM     10  G   UNL     1      17.197  13.686  12.031  1.00  0.00     0.000 G0
ENDBRANCH   6   7
ENDBRANCH   5   6
ENDBRANCH   3   5
ENDBRANCH   1   3
BRANCH   1  11
ATOM     11  C   UNL     1      18.915  16.543  13.046  1.00  0.00     0.087 C 
BRANCH  11  12
ATOM     12  C   UNL     1      17.604  15.832  13.493  1.00  0.00     0.066 C 
BRANCH  12  13
ATOM     13  C   UNL     1      17.714  14.319  13.314  1.00  0.00     0.140 C 
ATOM     14  O   UNL     1      18.155  13.619  14.214  1.00  0.00    -0.299 OA
BRANCH  13  15
ATOM     15  C   UNL     1      17.204  13.666  12.053  1.00  0.00     0.106 CG0
ATOM     16  G   UNL     1      18.232  13.537  10.935  1.00  0.00     0.000 G0
ENDBRANCH  13  15
ENDBRANCH  12  13
BRANCH  12  17
ATOM     17  C   UNL     1      17.097  16.231  14.923  1.00  0.00    -0.006 C 
ATOM     18  C   UNL     1      15.664  15.716  15.159  1.00  0.00     0.008 C 
ATOM     19  C   UNL     1      17.113  17.752  15.168  1.00  0.00     0.008 C 
ENDBRANCH  12  17
ENDBRANCH  11  12
ENDBRANCH   1  11
TORSDOF 1
ENDMDL
MODEL 7
REMARK VINA RESULT:    -3.474      3.758      6.121
REMARK INTER + INTRA:          -5.496
REMARK INTER:                  -5.200
REMARK INTRA:                  -0.296
REMARK UNBOUND:                -0.194
REMARK SMILES CC1=CCC[C@@H](C)C(=O)C[C@H](C(C)C)C(=O)C1
REMARK SMILES IDX 8 1 9 2 6 3 7 4 5 5 4 6 3 7 2 8 1 9 10 11 11 12 15 13 16 14
REMARK SMILES IDX 17 15 12 17 13 18 14 19
REMARK H PARENT
REMARK Flexibility Score: 70.00
ROOT
ATOM      1  C   UNL     1      18.360  14.331  10.770  1.00  0.00     0.136 C 
ATOM      2  O   UNL     1      18.841  13.228  10.561  1.00  0.00    -0.299 OA
ENDROOT
BRANCH   1   3
ATOM      3  C   UNL     1      18.981  15.542  10.091  1.00  0.00     0.053 C 
ATOM      4  C   UNL     1      19.136  15.286   8.588  1.00  0.00     0.016 C 
BRANCH   3   5
ATOM      5  C   UNL     1      20.333  15.948  10.720  1.00  0.00     0.015 C 
BRANCH   5   6
ATOM      6  C   UNL     1      20.231  17.280  11.481  1.00  0.00     0.028 C 
BRANCH   6   7
ATOM      7  C   UNL     1      19.170  18.205  10.930  1.00  0.00    -0.028 C 
ATOM      8  C   UNL     1      17.943  18.429  11.470  1.00  0.00    -0.070 CG0
ATOM      9  C   UNL     1      16.975  19.304  10.711  1.00  0.00     0.039 C 
ATOM     10  G   UNL     1      17.515  17.986  12.865  1.00  0.00     0.000 G0
ENDBRANCH   6   7
ENDBRANCH   5   6
ENDBRANCH   3   5
ENDBRANCH   1   3
BRANCH   1  11
ATOM     11  C   UNL     1      17.219  14.467  11.755  1.00  0.00     0.087 C 
BRANCH  11  12
ATOM     12  C   UNL     1      17.533  15.358  12.993  1.00  0.00     0.066 C 
BRANCH  12  13
ATOM     13  C   UNL     1      16.766  16.678  12.924  1.00  0.00     0.140 C 
ATOM     14  O   UNL     1      15.544  16.688  12.971  1.00  0.00    -0.299 OA
BRANCH  13  15
ATOM     15  C   UNL     1      17.514  17.988  12.879  1.00  0.00     0.106 CG0
ATOM     16  G   UNL     1      17.947  18.431  11.486  1.00  0.00     0.000 G0
ENDBRANCH  13  15
ENDBRANCH  12  13
BRANCH  12  17
ATOM     17  C   UNL     1      17.366  14.639  14.377  1.00  0.00    -0.006 C 
ATOM     18  C   UNL     1      18.495  15.047  15.344  1.00  0.00     0.008 C 
ATOM     19  C   UNL     1      17.357  13.103  14.264  1.00  0.00     0.008 C 
ENDBRANCH  12  17
ENDBRANCH  11  12
ENDBRANCH   1  11
TORSDOF 1
ENDMDL
MODEL 8
REMARK VINA RESULT:    -3.446      3.896      5.610
REMARK INTER + INTRA:          -5.453
REMARK INTER:                  -5.198
REMARK INTRA:                  -0.256
REMARK UNBOUND:                -0.194
REMARK SMILES CC1=CCC[C@@H](C)C(=O)C[C@H](C(C)C)C(=O)C1
REMARK SMILES IDX 8 1 9 2 6 3 7 4 5 5 4 6 3 7 2 8 1 9 10 11 11 12 15 13 16 14
REMARK SMILES IDX 17 15 12 17 13 18 14 19
REMARK H PARENT
REMARK Flexibility Score: 70.00
ROOT
ATOM      1  C   UNL     1      17.335  17.214  13.463  1.00  0.00     0.136 C 
ATOM      2  O   UNL     1      16.420  16.804  14.160  1.00  0.00    -0.299 OA
ENDROOT
BRANCH   1   3
ATOM      3  C   UNL     1      17.133  18.491  12.662  1.00  0.00     0.053 C 
ATOM      4  C   UNL     1      16.616  19.611  13.572  1.00  0.00     0.016 C 
BRANCH   3   5
ATOM      5  C   UNL     1      16.194  18.291  11.452  1.00  0.00     0.015 C 
BRANCH   5   6
ATOM      6  C   UNL     1      16.976  17.949  10.173  1.00  0.00     0.028 C 
BRANCH   6   7
ATOM      7  C   UNL     1      18.389  18.483  10.174  1.00  0.00    -0.028 C 
ATOM      8  C   UNL     1      19.527  17.741  10.230  1.00  0.00    -0.070 CG0
ATOM      9  C   UNL     1      20.849  18.463  10.336  1.00  0.00     0.039 C 
ATOM     10  G   UNL     1      19.587  16.230  10.041  1.00  0.00     0.000 G0
ENDBRANCH   6   7
ENDBRANCH   5   6
ENDBRANCH   3   5
ENDBRANCH   1   3
BRANCH   1  11
ATOM     11  C   UNL     1      18.606  16.398  13.356  1.00  0.00     0.087 C 
BRANCH  11  12
ATOM     12  C   UNL     1      18.572  15.284  12.269  1.00  0.00     0.066 C 
BRANCH  12  13
ATOM     13  C   UNL     1      19.752  15.422  11.308  1.00  0.00     0.140 C 
ATOM     14  O   UNL     1      20.802  14.836  11.528  1.00  0.00    -0.299 OA
BRANCH  13  15
ATOM     15  C   UNL     1      19.604  16.220  10.035  1.00  0.00     0.106 CG0
ATOM     16  G   UNL     1      19.519  17.729  10.231  1.00  0.00     0.000 G0
ENDBRANCH  13  15
ENDBRANCH  12  13
BRANCH  12  17
ATOM     17  C   UNL     1      18.422  13.826  12.828  1.00  0.00    -0.006 C 
ATOM     18  C   UNL     1      17.320  13.060  12.070  1.00  0.00     0.008 C 
ATOM     19  C   UNL     1      18.092  13.787  14.332  1.00  0.00     0.008 C 
ENDBRANCH  12  17
ENDBRANCH  11  12
ENDBRANCH   1  11
TORSDOF 1
ENDMDL
MODEL 9
REMARK VINA RESULT:    -3.389      3.275      5.523
REMARK INTER + INTRA:          -5.366
REMARK INTER:                  -5.063
REMARK INTRA:                  -0.303
REMARK UNBOUND:                -0.194
REMARK SMILES CC1=CCC[C@@H](C)C(=O)C[C@H](C(C)C)C(=O)C1
REMARK SMILES IDX 8 1 9 2 6 3 7 4 5 5 4 6 3 7 2 8 1 9 10 11 11 12 15 13 16 14
REMARK SMILES IDX 17 15 12 17 13 18 14 19
REMARK H PARENT
REMARK Flexibility Score: 70.00
ROOT
ATOM      1  C   UNL     1      15.667  16.367  13.044  1.00  0.00     0.136 C 
ATOM      2  O   UNL     1      15.326  17.536  13.137  1.00  0.00    -0.299 OA
ENDROOT
BRANCH   1   3
ATOM      3  C   UNL     1      15.887  15.564  14.316  1.00  0.00     0.053 C 
ATOM      4  C   UNL     1      14.726  15.786  15.292  1.00  0.00     0.016 C 
BRANCH   3   5
ATOM      5  C   UNL     1      17.239  15.880  14.992  1.00  0.00     0.015 C 
BRANCH   5   6
ATOM      6  C   UNL     1      18.206  14.687  14.919  1.00  0.00     0.028 C 
BRANCH   6   7
ATOM      7  C   UNL     1      17.524  13.382  14.585  1.00  0.00    -0.028 C 
ATOM      8  C   UNL     1      17.499  12.779  13.366  1.00  0.00    -0.070 CG0
ATOM      9  C   UNL     1      16.667  11.530  13.201  1.00  0.00     0.039 C 
ATOM     10  G   UNL     1      18.373  13.180  12.183  1.00  0.00     0.000 G0
ENDBRANCH   6   7
ENDBRANCH   5   6
ENDBRANCH   3   5
ENDBRANCH   1   3
BRANCH   1  11
ATOM     11  C   UNL     1      15.936  15.782  11.674  1.00  0.00     0.087 C 
BRANCH  11  12
ATOM     12  C   UNL     1      17.437  15.499  11.373  1.00  0.00     0.066 C 
BRANCH  12  13
ATOM     13  C   UNL     1      17.675  14.009  11.131  1.00  0.00     0.140 C 
ATOM     14  O   UNL     1      17.357  13.495  10.068  1.00  0.00    -0.299 OA
BRANCH  13  15
ATOM     15  C   UNL     1      18.377  13.174  12.174  1.00  0.00     0.106 CG0
ATOM     16  G   UNL     1      17.511  12.770  13.362  1.00  0.00     0.000 G0
ENDBRANCH  13  15
ENDBRANCH  12  13
BRANCH  12  17
ATOM     17  C   UNL     1      18.060  16.396  10.247  1.00  0.00    -0.006 C 
ATOM     18  C   UNL     1      19.579  16.158  10.137  1.00  0.00     0.008 C 
ATOM     19  C   UNL     1      17.821  17.901  10.471  1.00  0.00     0.008 C 
ENDBRANCH  12  17
ENDBRANCH  11  12
ENDBRANCH   1  11
TORSDOF 1
ENDMDL
