MODEL 1
REMARK VINA RESULT:    -3.152      0.000      0.000
REMARK INTER + INTRA:          -3.559
REMARK INTER:                  -3.520
REMARK INTRA:                  -0.038
REMARK UNBOUND:                -0.038
REMARK SMILES CCCC(=O)[O-]
REMARK SMILES IDX 3 1 4 2 5 3 6 4 2 5 1 6
REMARK H PARENT
REMARK Flexibility Score: inf
ROOT
ATOM      1  C   UNL     1       7.090  12.102  21.996  1.00  0.00     0.052 C 
ENDROOT
BRANCH   1   2
ATOM      2  C   UNL     1       7.305  13.423  22.668  1.00  0.00     0.041 C 
ATOM      3  O   UNL     1       8.259  14.166  22.316  1.00  0.00    -0.550 OA
ATOM      4  O   UNL     1       6.471  13.817  23.706  1.00  0.00    -0.550 OA
ENDBRANCH   1   2
BRANCH   1   5
ATOM      5  C   UNL     1       6.347  11.116  22.907  1.00  0.00     0.003 C 
ATOM      6  C   UNL     1       4.922  10.842  22.428  1.00  0.00     0.004 C 
ENDBRANCH   1   5
TORSDOF 2
ENDMDL
MODEL 2
REMARK VINA RESULT:    -3.125      1.166      1.526
REMARK INTER + INTRA:          -3.529
REMARK INTER:                  -3.492
REMARK INTRA:                  -0.037
REMARK UNBOUND:                -0.038
REMARK SMILES CCCC(=O)[O-]
REMARK SMILES IDX 3 1 4 2 5 3 6 4 2 5 1 6
REMARK H PARENT
REMARK Flexibility Score: inf
ROOT
ATOM      1  C   UNL     1       6.599  12.641  23.035  1.00  0.00     0.052 C 
ENDROOT
BRANCH   1   2
ATOM      2  C   UNL     1       7.573  13.061  21.978  1.00  0.00     0.041 C 
ATOM      3  O   UNL     1       7.602  12.465  20.869  1.00  0.00    -0.550 OA
ATOM      4  O   UNL     1       8.472  14.089  22.231  1.00  0.00    -0.550 OA
ENDBRANCH   1   2
BRANCH   1   5
ATOM      5  C   UNL     1       6.293  11.139  22.961  1.00  0.00     0.003 C 
ATOM      6  C   UNL     1       4.867  10.859  22.487  1.00  0.00     0.004 C 
ENDBRANCH   1   5
TORSDOF 2
ENDMDL
MODEL 3
REMARK VINA RESULT:    -2.984     21.146     21.746
REMARK INTER + INTRA:          -3.371
REMARK INTER:                  -3.338
REMARK INTRA:                  -0.033
REMARK UNBOUND:                -0.038
REMARK SMILES CCCC(=O)[O-]
REMARK SMILES IDX 3 1 4 2 5 3 6 4 2 5 1 6
REMARK H PARENT
REMARK Flexibility Score: inf
ROOT
ATOM      1  C   UNL     1      19.166  29.072  18.223  1.00  0.00     0.052 C 
ENDROOT
BRANCH   1   2
ATOM      2  C   UNL     1      19.247  29.016  16.728  1.00  0.00     0.041 C 
ATOM      3  O   UNL     1      19.168  30.074  16.049  1.00  0.00    -0.550 OA
ATOM      4  O   UNL     1      19.375  27.792  16.085  1.00  0.00    -0.550 OA
ENDBRANCH   1   2
BRANCH   1   5
ATOM      5  C   UNL     1      20.361  28.371  18.883  1.00  0.00     0.003 C 
ATOM      6  C   UNL     1      21.477  29.348  19.251  1.00  0.00     0.004 C 
ENDBRANCH   1   5
TORSDOF 2
ENDMDL
MODEL 4
REMARK VINA RESULT:    -2.892      2.500      3.556
REMARK INTER + INTRA:          -3.268
REMARK INTER:                  -3.263
REMARK INTRA:                  -0.005
REMARK UNBOUND:                -0.038
REMARK SMILES CCCC(=O)[O-]
REMARK SMILES IDX 3 1 4 2 5 3 6 4 2 5 1 6
REMARK H PARENT
REMARK Flexibility Score: inf
ROOT
ATOM      1  C   UNL     1       6.488  12.279  23.000  1.00  0.00     0.052 C 
ENDROOT
BRANCH   1   2
ATOM      2  C   UNL     1       5.900  10.988  22.518  1.00  0.00     0.041 C 
ATOM      3  O   UNL     1       4.664  10.900  22.291  1.00  0.00    -0.550 OA
ATOM      4  O   UNL     1       6.712   9.875  22.351  1.00  0.00    -0.550 OA
ENDBRANCH   1   2
BRANCH   1   5
ATOM      5  C   UNL     1       7.544  12.820  22.028  1.00  0.00     0.003 C 
ATOM      6  C   UNL     1       7.803  14.313  22.221  1.00  0.00     0.004 C 
ENDBRANCH   1   5
TORSDOF 2
ENDMDL
MODEL 5
REMARK VINA RESULT:    -2.882      2.175      2.547
REMARK INTER + INTRA:          -3.258
REMARK INTER:                  -3.224
REMARK INTRA:                  -0.034
REMARK UNBOUND:                -0.038
REMARK SMILES CCCC(=O)[O-]
REMARK SMILES IDX 3 1 4 2 5 3 6 4 2 5 1 6
REMARK H PARENT
REMARK Flexibility Score: inf
ROOT
ATOM      1  C   UNL     1       7.264  11.551  21.978  1.00  0.00     0.052 C 
ENDROOT
BRANCH   1   2
ATOM      2  C   UNL     1       8.492  11.184  22.754  1.00  0.00     0.041 C 
ATOM      3  O   UNL     1       8.502  10.151  23.474  1.00  0.00    -0.550 OA
ATOM      4  O   UNL     1       9.613  12.001  22.706  1.00  0.00    -0.550 OA
ENDBRANCH   1   2
BRANCH   1   5
ATOM      5  C   UNL     1       6.044  11.718  22.893  1.00  0.00     0.003 C 
ATOM      6  C   UNL     1       4.897  10.784  22.509  1.00  0.00     0.004 C 
ENDBRANCH   1   5
TORSDOF 2
ENDMDL
MODEL 6
REMARK VINA RESULT:    -2.836     20.837     21.345
REMARK INTER + INTRA:          -3.206
REMARK INTER:                  -3.170
REMARK INTRA:                  -0.036
REMARK UNBOUND:                -0.038
REMARK SMILES CCCC(=O)[O-]
REMARK SMILES IDX 3 1 4 2 5 3 6 4 2 5 1 6
REMARK H PARENT
REMARK Flexibility Score: inf
ROOT
ATOM      1  C   UNL     1      19.759  27.739  18.440  1.00  0.00     0.052 C 
ENDROOT
BRANCH   1   2
ATOM      2  C   UNL     1      20.399  29.053  18.772  1.00  0.00     0.041 C 
ATOM      3  O   UNL     1      19.752  30.125  18.641  1.00  0.00    -0.550 OA
ATOM      4  O   UNL     1      21.721  29.093  19.195  1.00  0.00    -0.550 OA
ENDBRANCH   1   2
BRANCH   1   5
ATOM      5  C   UNL     1      18.634  27.901  17.410  1.00  0.00     0.003 C 
ATOM      6  C   UNL     1      19.157  27.911  15.974  1.00  0.00     0.004 C 
ENDBRANCH   1   5
TORSDOF 2
ENDMDL
MODEL 7
REMARK VINA RESULT:    -2.802      8.422      8.910
REMARK INTER + INTRA:          -3.168
REMARK INTER:                  -3.106
REMARK INTRA:                  -0.062
REMARK UNBOUND:                -0.038
REMARK SMILES CCCC(=O)[O-]
REMARK SMILES IDX 3 1 4 2 5 3 6 4 2 5 1 6
REMARK H PARENT
REMARK Flexibility Score: inf
ROOT
ATOM      1  C   UNL     1      12.884  17.331  25.459  1.00  0.00     0.052 C 
ENDROOT
BRANCH   1   2
ATOM      2  C   UNL     1      13.763  17.563  24.268  1.00  0.00     0.041 C 
ATOM      3  O   UNL     1      14.649  18.458  24.299  1.00  0.00    -0.550 OA
ATOM      4  O   UNL     1      13.580  16.814  23.114  1.00  0.00    -0.550 OA
ENDBRANCH   1   2
BRANCH   1   5
ATOM      5  C   UNL     1      12.302  18.644  25.999  1.00  0.00     0.003 C 
ATOM      6  C   UNL     1      11.237  19.232  25.075  1.00  0.00     0.004 C 
ENDBRANCH   1   5
TORSDOF 2
ENDMDL
MODEL 8
REMARK VINA RESULT:    -2.794      8.420      8.980
REMARK INTER + INTRA:          -3.159
REMARK INTER:                  -3.100
REMARK INTRA:                  -0.059
REMARK UNBOUND:                -0.038
REMARK SMILES CCCC(=O)[O-]
REMARK SMILES IDX 3 1 4 2 5 3 6 4 2 5 1 6
REMARK H PARENT
REMARK Flexibility Score: inf
ROOT
ATOM      1  C   UNL     1      12.972  17.191  25.215  1.00  0.00     0.052 C 
ENDROOT
BRANCH   1   2
ATOM      2  C   UNL     1      13.845  17.608  24.071  1.00  0.00     0.041 C 
ATOM      3  O   UNL     1      13.755  17.023  22.959  1.00  0.00    -0.550 OA
ATOM      4  O   UNL     1      14.780  18.619  24.244  1.00  0.00    -0.550 OA
ENDBRANCH   1   2
BRANCH   1   5
ATOM      5  C   UNL     1      12.446  18.401  25.998  1.00  0.00     0.003 C 
ATOM      6  C   UNL     1      11.409  19.199  25.208  1.00  0.00     0.004 C 
ENDBRANCH   1   5
TORSDOF 2
ENDMDL
MODEL 9
REMARK VINA RESULT:    -2.674      8.247      9.070
REMARK INTER + INTRA:          -3.025
REMARK INTER:                  -2.963
REMARK INTRA:                  -0.062
REMARK UNBOUND:                -0.038
REMARK SMILES CCCC(=O)[O-]
REMARK SMILES IDX 3 1 4 2 5 3 6 4 2 5 1 6
REMARK H PARENT
REMARK Flexibility Score: inf
ROOT
ATOM      1  C   UNL     1      13.549  17.029  24.531  1.00  0.00     0.052 C 
ENDROOT
BRANCH   1   2
ATOM      2  C   UNL     1      14.046  18.170  23.698  1.00  0.00     0.041 C 
ATOM      3  O   UNL     1      13.507  18.429  22.589  1.00  0.00    -0.550 OA
ATOM      4  O   UNL     1      15.126  18.927  24.132  1.00  0.00    -0.550 OA
ENDBRANCH   1   2
BRANCH   1   5
ATOM      5  C   UNL     1      12.195  17.347  25.179  1.00  0.00     0.003 C 
ATOM      6  C   UNL     1      12.279  18.516  26.159  1.00  0.00     0.004 C 
ENDBRANCH   1   5
TORSDOF 2
ENDMDL
