MODEL 1
REMARK VINA RESULT:    -3.691      0.000      0.000
REMARK INTER + INTRA:          -4.493
REMARK INTER:                  -4.447
REMARK INTRA:                  -0.047
REMARK UNBOUND:                -0.047
REMARK SMILES CCCCCO
REMARK SMILES IDX 4 1 3 2 2 3 1 4 5 5 6 6
REMARK H PARENT 6 7
REMARK Flexibility Score: inf
ROOT
ATOM      1  C   UNL     1       6.759   5.889  15.212  1.00  0.00     0.028 C 
ENDROOT
BRANCH   1   2
ATOM      2  C   UNL     1       6.052   4.726  14.498  1.00  0.00     0.002 C 
BRANCH   2   3
ATOM      3  C   UNL     1       5.597   5.097  13.077  1.00  0.00    -0.003 C 
ATOM      4  C   UNL     1       4.765   3.997  12.418  1.00  0.00     0.004 C 
ENDBRANCH   2   3
ENDBRANCH   1   2
BRANCH   1   5
ATOM      5  C   UNL     1       7.313   6.916  14.220  1.00  0.00     0.156 C 
BRANCH   5   6
ATOM      6  O   UNL     1       6.691   8.162  14.395  1.00  0.00    -0.396 OA
ATOM      7  H   UNL     1       5.831   8.127  13.901  1.00  0.00     0.210 HD
ENDBRANCH   5   6
ENDBRANCH   1   5
TORSDOF 4
ENDMDL
MODEL 2
REMARK VINA RESULT:    -3.560      2.589      3.985
REMARK INTER + INTRA:          -4.335
REMARK INTER:                  -4.325
REMARK INTRA:                  -0.010
REMARK UNBOUND:                -0.047
REMARK SMILES CCCCCO
REMARK SMILES IDX 4 1 3 2 2 3 1 4 5 5 6 6
REMARK H PARENT 6 7
REMARK Flexibility Score: inf
ROOT
ATOM      1  C   UNL     1       5.011   3.947  12.554  1.00  0.00     0.028 C 
ENDROOT
BRANCH   1   2
ATOM      2  C   UNL     1       5.701   5.125  13.260  1.00  0.00     0.002 C 
BRANCH   2   3
ATOM      3  C   UNL     1       6.110   4.790  14.703  1.00  0.00    -0.003 C 
ATOM      4  C   UNL     1       6.833   5.945  15.395  1.00  0.00     0.004 C 
ENDBRANCH   2   3
ENDBRANCH   1   2
BRANCH   1   5
ATOM      5  C   UNL     1       5.972   3.197  11.626  1.00  0.00     0.156 C 
BRANCH   5   6
ATOM      6  O   UNL     1       6.863   2.406  12.367  1.00  0.00    -0.396 OA
ATOM      7  H   UNL     1       7.026   2.881  13.223  1.00  0.00     0.210 HD
ENDBRANCH   5   6
ENDBRANCH   1   5
TORSDOF 4
ENDMDL
MODEL 3
REMARK VINA RESULT:    -3.485      0.817      1.451
REMARK INTER + INTRA:          -4.244
REMARK INTER:                  -4.225
REMARK INTRA:                  -0.019
REMARK UNBOUND:                -0.047
REMARK SMILES CCCCCO
REMARK SMILES IDX 4 1 3 2 2 3 1 4 5 5 6 6
REMARK H PARENT 6 7
REMARK Flexibility Score: inf
ROOT
ATOM      1  C   UNL     1       6.106   4.760  14.532  1.00  0.00     0.028 C 
ENDROOT
BRANCH   1   2
ATOM      2  C   UNL     1       5.586   5.141  13.136  1.00  0.00     0.002 C 
BRANCH   2   3
ATOM      3  C   UNL     1       4.891   3.969  12.426  1.00  0.00    -0.003 C 
ATOM      4  C   UNL     1       5.844   2.812  12.125  1.00  0.00     0.004 C 
ENDBRANCH   2   3
ENDBRANCH   1   2
BRANCH   1   5
ATOM      5  C   UNL     1       6.936   5.885  15.158  1.00  0.00     0.156 C 
BRANCH   5   6
ATOM      6  O   UNL     1       6.418   7.140  14.805  1.00  0.00    -0.396 OA
ATOM      7  H   UNL     1       6.851   7.401  13.951  1.00  0.00     0.210 HD
ENDBRANCH   5   6
ENDBRANCH   1   5
TORSDOF 4
ENDMDL
MODEL 4
REMARK VINA RESULT:    -3.393      5.266      6.877
REMARK INTER + INTRA:          -4.134
REMARK INTER:                  -4.089
REMARK INTRA:                  -0.045
REMARK UNBOUND:                -0.047
REMARK SMILES CCCCCO
REMARK SMILES IDX 4 1 3 2 2 3 1 4 5 5 6 6
REMARK H PARENT 6 7
REMARK Flexibility Score: inf
ROOT
ATOM      1  C   UNL     1       1.466   1.306  12.116  1.00  0.00     0.028 C 
ENDROOT
BRANCH   1   2
ATOM      2  C   UNL     1       2.168   2.600  11.671  1.00  0.00     0.002 C 
BRANCH   2   3
ATOM      3  C   UNL     1       3.697   2.450  11.615  1.00  0.00    -0.003 C 
ATOM      4  C   UNL     1       4.431   3.674  12.164  1.00  0.00     0.004 C 
ENDBRANCH   2   3
ENDBRANCH   1   2
BRANCH   1   5
ATOM      5  C   UNL     1       2.427   0.114  12.134  1.00  0.00     0.156 C 
BRANCH   5   6
ATOM      6  O   UNL     1       1.834  -0.992  12.764  1.00  0.00    -0.396 OA
ATOM      7  H   UNL     1       1.240  -0.635  13.474  1.00  0.00     0.210 HD
ENDBRANCH   5   6
ENDBRANCH   1   5
TORSDOF 4
ENDMDL
MODEL 5
REMARK VINA RESULT:    -3.291      2.149      3.367
REMARK INTER + INTRA:          -4.011
REMARK INTER:                  -3.953
REMARK INTRA:                  -0.059
REMARK UNBOUND:                -0.047
REMARK SMILES CCCCCO
REMARK SMILES IDX 4 1 3 2 2 3 1 4 5 5 6 6
REMARK H PARENT 6 7
REMARK Flexibility Score: inf
ROOT
ATOM      1  C   UNL     1       6.226   5.016  15.138  1.00  0.00     0.028 C 
ENDROOT
BRANCH   1   2
ATOM      2  C   UNL     1       7.286   6.127  15.205  1.00  0.00     0.002 C 
BRANCH   2   3
ATOM      3  C   UNL     1       7.020   7.256  14.196  1.00  0.00    -0.003 C 
ATOM      4  C   UNL     1       8.202   7.501  13.259  1.00  0.00     0.004 C 
ENDBRANCH   2   3
ENDBRANCH   1   2
BRANCH   1   5
ATOM      5  C   UNL     1       5.824   4.697  13.695  1.00  0.00     0.156 C 
BRANCH   5   6
ATOM      6  O   UNL     1       6.463   3.531  13.246  1.00  0.00    -0.396 OA
ATOM      7  H   UNL     1       7.155   3.304  13.921  1.00  0.00     0.210 HD
ENDBRANCH   5   6
ENDBRANCH   1   5
TORSDOF 4
ENDMDL
MODEL 6
REMARK VINA RESULT:    -3.182      5.234      6.662
REMARK INTER + INTRA:          -3.880
REMARK INTER:                  -3.867
REMARK INTRA:                  -0.013
REMARK UNBOUND:                -0.047
REMARK SMILES CCCCCO
REMARK SMILES IDX 4 1 3 2 2 3 1 4 5 5 6 6
REMARK H PARENT 6 7
REMARK Flexibility Score: inf
ROOT
ATOM      1  C   UNL     1       1.579   1.364  12.235  1.00  0.00     0.028 C 
ENDROOT
BRANCH   1   2
ATOM      2  C   UNL     1       2.810   1.680  11.371  1.00  0.00     0.002 C 
BRANCH   2   3
ATOM      3  C   UNL     1       3.531   2.961  11.820  1.00  0.00    -0.003 C 
ATOM      4  C   UNL     1       5.054   2.819  11.801  1.00  0.00     0.004 C 
ENDBRANCH   2   3
ENDBRANCH   1   2
BRANCH   1   5
ATOM      5  C   UNL     1       0.359   2.188  11.811  1.00  0.00     0.156 C 
BRANCH   5   6
ATOM      6  O   UNL     1      -0.621   2.177  12.815  1.00  0.00    -0.396 OA
ATOM      7  H   UNL     1      -0.151   2.318  13.678  1.00  0.00     0.210 HD
ENDBRANCH   5   6
ENDBRANCH   1   5
TORSDOF 4
ENDMDL
MODEL 7
REMARK VINA RESULT:    -3.166      1.598      1.957
REMARK INTER + INTRA:          -3.861
REMARK INTER:                  -3.817
REMARK INTRA:                  -0.044
REMARK UNBOUND:                -0.047
REMARK SMILES CCCCCO
REMARK SMILES IDX 4 1 3 2 2 3 1 4 5 5 6 6
REMARK H PARENT 6 7
REMARK Flexibility Score: inf
ROOT
ATOM      1  C   UNL     1       7.151   7.417  14.720  1.00  0.00     0.028 C 
ENDROOT
BRANCH   1   2
ATOM      2  C   UNL     1       6.873   6.413  13.590  1.00  0.00     0.002 C 
BRANCH   2   3
ATOM      3  C   UNL     1       5.918   5.290  14.023  1.00  0.00    -0.003 C 
ATOM      4  C   UNL     1       5.155   4.678  12.848  1.00  0.00     0.004 C 
ENDBRANCH   2   3
ENDBRANCH   1   2
BRANCH   1   5
ATOM      5  C   UNL     1       7.702   6.729  15.973  1.00  0.00     0.156 C 
BRANCH   5   6
ATOM      6  O   UNL     1       9.009   6.268  15.753  1.00  0.00    -0.396 OA
ATOM      7  H   UNL     1       9.615   7.041  15.897  1.00  0.00     0.210 HD
ENDBRANCH   5   6
ENDBRANCH   1   5
TORSDOF 4
ENDMDL
MODEL 8
REMARK VINA RESULT:    -3.146      3.834      4.700
REMARK INTER + INTRA:          -3.836
REMARK INTER:                  -3.765
REMARK INTRA:                  -0.072
REMARK UNBOUND:                -0.047
REMARK SMILES CCCCCO
REMARK SMILES IDX 4 1 3 2 2 3 1 4 5 5 6 6
REMARK H PARENT 6 7
REMARK Flexibility Score: inf
ROOT
ATOM      1  C   UNL     1       4.765   3.740  12.067  1.00  0.00     0.028 C 
ENDROOT
BRANCH   1   2
ATOM      2  C   UNL     1       3.380   3.072  12.053  1.00  0.00     0.002 C 
BRANCH   2   3
ATOM      3  C   UNL     1       3.329   1.843  11.132  1.00  0.00    -0.003 C 
ATOM      4  C   UNL     1       2.650   0.641  11.789  1.00  0.00     0.004 C 
ENDBRANCH   2   3
ENDBRANCH   1   2
BRANCH   1   5
ATOM      5  C   UNL     1       5.848   2.818  11.500  1.00  0.00     0.156 C 
BRANCH   5   6
ATOM      6  O   UNL     1       6.760   2.448  12.501  1.00  0.00    -0.396 OA
ATOM      7  H   UNL     1       6.810   1.456  12.492  1.00  0.00     0.210 HD
ENDBRANCH   5   6
ENDBRANCH   1   5
TORSDOF 4
ENDMDL
MODEL 9
REMARK VINA RESULT:    -3.132     14.608     15.391
REMARK INTER + INTRA:          -3.820
REMARK INTER:                  -3.800
REMARK INTRA:                  -0.020
REMARK UNBOUND:                -0.047
REMARK SMILES CCCCCO
REMARK SMILES IDX 4 1 3 2 2 3 1 4 5 5 6 6
REMARK H PARENT 6 7
REMARK Flexibility Score: inf
ROOT
ATOM      1  C   UNL     1      -3.659  -6.354  13.015  1.00  0.00     0.028 C 
ENDROOT
BRANCH   1   2
ATOM      2  C   UNL     1      -2.654  -6.579  11.874  1.00  0.00     0.002 C 
BRANCH   2   3
ATOM      3  C   UNL     1      -1.708  -7.759  12.146  1.00  0.00    -0.003 C 
ATOM      4  C   UNL     1      -1.995  -8.965  11.252  1.00  0.00     0.004 C 
ENDBRANCH   2   3
ENDBRANCH   1   2
BRANCH   1   5
ATOM      5  C   UNL     1      -3.013  -5.652  14.213  1.00  0.00     0.156 C 
BRANCH   5   6
ATOM      6  O   UNL     1      -3.001  -4.261  14.028  1.00  0.00    -0.396 OA
ATOM      7  H   UNL     1      -3.909  -3.933  14.258  1.00  0.00     0.210 HD
ENDBRANCH   5   6
ENDBRANCH   1   5
TORSDOF 4
ENDMDL
