MODEL 1
REMARK VINA RESULT:    -5.426      0.000      0.000
REMARK INTER + INTRA:         -20.714
REMARK INTER:                 -12.880
REMARK INTRA:                  -7.833
REMARK UNBOUND:                -7.833
REMARK SMILES O=C(OC[C@H]1O[C@H](OC(=O)c2cc(O)c(O)c(O)c2)[C@H](OC(=O)c2cc(O)c(O)c(O)c2)[C@@H](OC(=O)c2cc(O)c(O)c(O)c2)[C@H]1OC(=O)c1cc(O)c(O)c(O)c1)c1cc(O)c(O)c(O)c1
REMARK SMILES IDX 5 1 46 2 33 3 20 4 7 5 6 6 4 7 3 8 2 9 1 10 59 11 60 12
REMARK SMILES IDX 61 13 67 14 63 15 65 16 62 17 64 19 66 21 47 23 48 24 49 25
REMARK SMILES IDX 50 26 58 27 51 28 56 29 52 30 54 31 57 32 53 34 55 36 34 38
REMARK SMILES IDX 35 39 36 40 37 41 45 42 38 43 43 44 39 45 41 46 44 47 40 49
REMARK SMILES IDX 42 51 8 53 9 54 10 55 11 56 19 57 12 58 17 59 13 60 15 61
REMARK SMILES IDX 18 62 14 64 16 66 21 68 22 69 23 70 24 71 32 72 25 73 30 74
REMARK SMILES IDX 26 75 28 76 31 77 27 79 29 81
REMARK H PARENT 62 18 64 20 66 22 57 33 53 35 55 37 44 48 40 50 42 52 18 63
REMARK H PARENT 14 65 16 67 31 78 27 80 29 82
REMARK Flexibility Score: inf
ROOT
ATOM      1  C   UNL     1       8.485 106.019 179.800  1.00  0.00     0.205 C 
ATOM      2  C   UNL     1       7.419 105.164 179.090  1.00  0.00     0.254 C 
ATOM      3  C   UNL     1       6.228 106.077 178.780  1.00  0.00     0.267 C 
ATOM      4  C   UNL     1       6.699 107.268 177.925  1.00  0.00     0.290 C 
ATOM      5  C   UNL     1       7.895 107.962 178.617  1.00  0.00     0.357 C 
ATOM      6  O   UNL     1       8.939 107.050 178.933  1.00  0.00    -0.329 OA
ENDROOT
BRANCH   1   7
ATOM      7  C   UNL     1       9.690 105.183 180.267  1.00  0.00     0.269 C 
BRANCH   7   8
ATOM      8  O   UNL     1      10.011 105.525 181.612  1.00  0.00    -0.459 OA
BRANCH   8   9
ATOM      9  C   UNL     1       9.044 105.575 182.625  1.00  0.00     0.338 C 
ATOM     10  O   UNL     1       8.435 104.520 182.968  1.00  0.00    -0.246 OA
BRANCH   9  11
ATOM     11  C   UNL     1       8.713 106.864 183.267  1.00  0.00     0.067 A 
ATOM     12  C   UNL     1       7.385 107.169 183.596  1.00  0.00     0.066 A 
ATOM     13  C   UNL     1       7.050 108.404 184.156  1.00  0.00     0.162 A 
ATOM     14  C   UNL     1       9.721 107.818 183.514  1.00  0.00     0.066 A 
ATOM     15  C   UNL     1       8.057 109.374 184.369  1.00  0.00     0.200 A 
ATOM     16  C   UNL     1       9.392 109.068 184.050  1.00  0.00     0.162 A 
BRANCH  13  17
ATOM     17  O   UNL     1       5.713 108.619 184.493  1.00  0.00    -0.504 OA
ATOM     18  H   UNL     1       5.088 109.195 183.955  1.00  0.00     0.293 HD
ENDBRANCH  13  17
BRANCH  15  19
ATOM     19  O   UNL     1       7.768 110.642 184.886  1.00  0.00    -0.502 OA
ATOM     20  H   UNL     1       6.837 111.010 185.007  1.00  0.00     0.293 HD
ENDBRANCH  15  19
BRANCH  16  21
ATOM     21  O   UNL     1      10.414 109.996 184.255  1.00  0.00    -0.504 OA
ATOM     22  H   UNL     1      10.862 110.480 183.487  1.00  0.00     0.293 HD
ENDBRANCH  16  21
ENDBRANCH   9  11
ENDBRANCH   8   9
ENDBRANCH   7   8
ENDBRANCH   1   7
BRANCH   2  23
ATOM     23  O   UNL     1       7.937 104.643 177.865  1.00  0.00    -0.452 OA
BRANCH  23  24
ATOM     24  C   UNL     1       7.807 103.308 177.458  1.00  0.00     0.338 C 
ATOM     25  O   UNL     1       8.448 102.406 178.056  1.00  0.00    -0.246 OA
BRANCH  24  26
ATOM     26  C   UNL     1       6.900 102.973 176.338  1.00  0.00     0.067 A 
ATOM     27  C   UNL     1       6.319 101.695 176.239  1.00  0.00     0.066 A 
ATOM     28  C   UNL     1       6.651 103.915 175.328  1.00  0.00     0.066 A 
ATOM     29  C   UNL     1       5.514 101.360 175.137  1.00  0.00     0.162 A 
ATOM     30  C   UNL     1       5.842 103.590 174.234  1.00  0.00     0.162 A 
ATOM     31  C   UNL     1       5.272 102.312 174.133  1.00  0.00     0.200 A 
BRANCH  29  32
ATOM     32  O   UNL     1       4.960 100.086 175.035  1.00  0.00    -0.504 OA
ATOM     33  H   UNL     1       5.203  99.463 174.274  1.00  0.00     0.293 HD
ENDBRANCH  29  32
BRANCH  30  34
ATOM     34  O   UNL     1       5.621 104.552 173.251  1.00  0.00    -0.504 OA
ATOM     35  H   UNL     1       4.713 104.680 172.816  1.00  0.00     0.293 HD
ENDBRANCH  30  34
BRANCH  31  36
ATOM     36  O   UNL     1       4.478 102.005 173.029  1.00  0.00    -0.502 OA
ATOM     37  H   UNL     1       4.043 101.100 172.911  1.00  0.00     0.293 HD
ENDBRANCH  31  36
ENDBRANCH  24  26
ENDBRANCH  23  24
ENDBRANCH   2  23
BRANCH   3  38
ATOM     38  O   UNL     1       5.197 105.343 178.121  1.00  0.00    -0.450 OA
BRANCH  38  39
ATOM     39  C   UNL     1       3.944 105.110 178.705  1.00  0.00     0.338 C 
ATOM     40  O   UNL     1       3.341 104.023 178.493  1.00  0.00    -0.246 OA
BRANCH  39  41
ATOM     41  C   UNL     1       3.335 106.129 179.588  1.00  0.00     0.067 A 
ATOM     42  C   UNL     1       3.827 106.326 180.890  1.00  0.00     0.066 A 
ATOM     43  C   UNL     1       2.261 106.912 179.134  1.00  0.00     0.066 A 
ATOM     44  C   UNL     1       3.254 107.286 181.728  1.00  0.00     0.162 A 
ATOM     45  C   UNL     1       1.677 107.874 179.965  1.00  0.00     0.162 A 
ATOM     46  C   UNL     1       2.170 108.059 181.283  1.00  0.00     0.200 A 
BRANCH  44  47
ATOM     47  O   UNL     1       3.766 107.477 183.014  1.00  0.00    -0.504 OA
ATOM     48  H   UNL     1       3.693 106.757 183.729  1.00  0.00     0.293 HD
ENDBRANCH  44  47
BRANCH  45  49
ATOM     49  O   UNL     1       0.614 108.614 179.446  1.00  0.00    -0.504 OA
ATOM     50  H   UNL     1      -0.254 108.778 179.935  1.00  0.00     0.293 HD
ENDBRANCH  45  49
BRANCH  46  51
ATOM     51  O   UNL     1       1.620 108.984 182.174  1.00  0.00    -0.502 OA
ATOM     52  H   UNL     1       2.149 109.439 182.910  1.00  0.00     0.293 HD
ENDBRANCH  46  51
ENDBRANCH  39  41
ENDBRANCH  38  39
ENDBRANCH   3  38
BRANCH   5  53
ATOM     53  O   UNL     1       7.460 108.662 179.781  1.00  0.00    -0.428 OA
BRANCH  53  54
ATOM     54  C   UNL     1       7.909 109.942 180.122  1.00  0.00     0.340 C 
ATOM     55  O   UNL     1       8.985 110.391 179.650  1.00  0.00    -0.246 OA
BRANCH  54  56
ATOM     56  C   UNL     1       7.106 110.769 181.037  1.00  0.00     0.067 A 
ATOM     57  C   UNL     1       7.561 112.027 181.453  1.00  0.00     0.066 A 
ATOM     58  C   UNL     1       5.866 110.304 181.490  1.00  0.00     0.066 A 
ATOM     59  C   UNL     1       6.778 112.836 182.287  1.00  0.00     0.162 A 
ATOM     60  C   UNL     1       5.083 111.082 182.344  1.00  0.00     0.162 A 
ATOM     61  C   UNL     1       5.521 112.363 182.739  1.00  0.00     0.200 A 
BRANCH  59  62
ATOM     62  O   UNL     1       7.288 114.093 182.628  1.00  0.00    -0.504 OA
ATOM     63  H   UNL     1       6.854 114.971 182.366  1.00  0.00     0.293 HD
ENDBRANCH  59  62
BRANCH  60  64
ATOM     64  O   UNL     1       3.871 110.558 182.796  1.00  0.00    -0.504 OA
ATOM     65  H   UNL     1       3.032 110.578 182.225  1.00  0.00     0.293 HD
ENDBRANCH  60  64
BRANCH  61  66
ATOM     66  O   UNL     1       4.689 113.130 183.568  1.00  0.00    -0.502 OA
ATOM     67  H   UNL     1       4.892 113.343 184.536  1.00  0.00     0.293 HD
ENDBRANCH  61  66
ENDBRANCH  54  56
ENDBRANCH  53  54
ENDBRANCH   5  53
BRANCH   4  68
ATOM     68  O   UNL     1       5.648 108.222 177.791  1.00  0.00    -0.448 OA
BRANCH  68  69
ATOM     69  C   UNL     1       5.122 108.646 176.566  1.00  0.00     0.339 C 
ATOM     70  O   UNL     1       5.699 109.555 175.906  1.00  0.00    -0.246 OA
BRANCH  69  71
ATOM     71  C   UNL     1       3.878 108.032 176.058  1.00  0.00     0.067 A 
ATOM     72  C   UNL     1       3.914 106.871 175.276  1.00  0.00     0.066 A 
ATOM     73  C   UNL     1       2.632 108.606 176.361  1.00  0.00     0.066 A 
ATOM     74  C   UNL     1       2.730 106.278 174.813  1.00  0.00     0.162 A 
ATOM     75  C   UNL     1       1.446 108.022 175.908  1.00  0.00     0.162 A 
ATOM     76  C   UNL     1       1.489 106.854 175.133  1.00  0.00     0.200 A 
BRANCH  74  77
ATOM     77  O   UNL     1       2.780 105.114 174.047  1.00  0.00    -0.504 OA
ATOM     78  H   UNL     1       3.659 104.745 173.699  1.00  0.00     0.293 HD
ENDBRANCH  74  77
BRANCH  75  79
ATOM     79  O   UNL     1       0.228 108.617 176.242  1.00  0.00    -0.504 OA
ATOM     80  H   UNL     1       0.010 108.911 177.185  1.00  0.00     0.293 HD
ENDBRANCH  75  79
BRANCH  76  81
ATOM     81  O   UNL     1       0.299 106.277 174.684  1.00  0.00    -0.502 OA
ATOM     82  H   UNL     1       0.132 106.063 173.713  1.00  0.00     0.293 HD
ENDBRANCH  76  81
ENDBRANCH  69  71
ENDBRANCH  68  69
ENDBRANCH   4  68
TORSDOF 31
ENDMDL
MODEL 2
REMARK VINA RESULT:    -5.317      1.420      3.218
REMARK INTER + INTRA:         -20.455
REMARK INTER:                 -12.105
REMARK INTRA:                  -8.350
REMARK UNBOUND:                -7.833
REMARK SMILES O=C(OC[C@H]1O[C@H](OC(=O)c2cc(O)c(O)c(O)c2)[C@H](OC(=O)c2cc(O)c(O)c(O)c2)[C@@H](OC(=O)c2cc(O)c(O)c(O)c2)[C@H]1OC(=O)c1cc(O)c(O)c(O)c1)c1cc(O)c(O)c(O)c1
REMARK SMILES IDX 5 1 46 2 33 3 20 4 7 5 6 6 4 7 3 8 2 9 1 10 59 11 60 12
REMARK SMILES IDX 61 13 67 14 63 15 65 16 62 17 64 19 66 21 47 23 48 24 49 25
REMARK SMILES IDX 50 26 58 27 51 28 56 29 52 30 54 31 57 32 53 34 55 36 34 38
REMARK SMILES IDX 35 39 36 40 37 41 45 42 38 43 43 44 39 45 41 46 44 47 40 49
REMARK SMILES IDX 42 51 8 53 9 54 10 55 11 56 19 57 12 58 17 59 13 60 15 61
REMARK SMILES IDX 18 62 14 64 16 66 21 68 22 69 23 70 24 71 32 72 25 73 30 74
REMARK SMILES IDX 26 75 28 76 31 77 27 79 29 81
REMARK H PARENT 62 18 64 20 66 22 57 33 53 35 55 37 44 48 40 50 42 52 18 63
REMARK H PARENT 14 65 16 67 31 78 27 80 29 82
REMARK Flexibility Score: inf
ROOT
ATOM      1  C   UNL     1       8.629 105.870 179.711  1.00  0.00     0.205 C 
ATOM      2  C   UNL     1       7.565 105.044 178.966  1.00  0.00     0.254 C 
ATOM      3  C   UNL     1       6.346 105.948 178.755  1.00  0.00     0.267 C 
ATOM      4  C   UNL     1       6.766 107.212 177.982  1.00  0.00     0.290 C 
ATOM      5  C   UNL     1       7.964 107.881 178.694  1.00  0.00     0.357 C 
ATOM      6  O   UNL     1       9.037 106.973 178.914  1.00  0.00    -0.329 OA
ENDROOT
BRANCH   1   7
ATOM      7  C   UNL     1       9.866 105.031 180.084  1.00  0.00     0.269 C 
BRANCH   7   8
ATOM      8  O   UNL     1      10.172 105.223 181.461  1.00  0.00    -0.459 OA
BRANCH   8   9
ATOM      9  C   UNL     1      10.432 106.490 182.003  1.00  0.00     0.338 C 
ATOM     10  O   UNL     1      11.541 107.056 181.779  1.00  0.00    -0.246 OA
BRANCH   9  11
ATOM     11  C   UNL     1       9.423 107.147 182.860  1.00  0.00     0.067 A 
ATOM     12  C   UNL     1       8.164 106.561 183.045  1.00  0.00     0.066 A 
ATOM     13  C   UNL     1       7.182 107.195 183.810  1.00  0.00     0.162 A 
ATOM     14  C   UNL     1       9.701 108.389 183.465  1.00  0.00     0.066 A 
ATOM     15  C   UNL     1       7.450 108.460 184.386  1.00  0.00     0.200 A 
ATOM     16  C   UNL     1       8.717 109.045 184.212  1.00  0.00     0.162 A 
BRANCH  13  17
ATOM     17  O   UNL     1       5.966 106.532 183.981  1.00  0.00    -0.504 OA
ATOM     18  H   UNL     1       5.827 105.560 183.765  1.00  0.00     0.293 HD
ENDBRANCH  13  17
BRANCH  15  19
ATOM     19  O   UNL     1       6.487 109.156 185.124  1.00  0.00    -0.502 OA
ATOM     20  H   UNL     1       6.376 110.159 185.115  1.00  0.00     0.293 HD
ENDBRANCH  15  19
BRANCH  16  21
ATOM     21  O   UNL     1       9.020 110.287 184.773  1.00  0.00    -0.504 OA
ATOM     22  H   UNL     1       8.975 111.144 184.236  1.00  0.00     0.293 HD
ENDBRANCH  16  21
ENDBRANCH   9  11
ENDBRANCH   8   9
ENDBRANCH   7   8
ENDBRANCH   1   7
BRANCH   2  23
ATOM     23  O   UNL     1       8.061 104.630 177.692  1.00  0.00    -0.452 OA
BRANCH  23  24
ATOM     24  C   UNL     1       8.020 103.311 177.221  1.00  0.00     0.338 C 
ATOM     25  O   UNL     1       8.736 102.430 177.764  1.00  0.00    -0.246 OA
BRANCH  24  26
ATOM     26  C   UNL     1       7.119 102.965 176.100  1.00  0.00     0.067 A 
ATOM     27  C   UNL     1       6.804 103.913 175.109  1.00  0.00     0.066 A 
ATOM     28  C   UNL     1       6.521 101.696 176.044  1.00  0.00     0.066 A 
ATOM     29  C   UNL     1       5.893 103.601 174.085  1.00  0.00     0.162 A 
ATOM     30  C   UNL     1       5.621 101.377 175.021  1.00  0.00     0.162 A 
ATOM     31  C   UNL     1       5.303 102.327 174.040  1.00  0.00     0.200 A 
BRANCH  29  32
ATOM     32  O   UNL     1       5.570 104.552 173.121  1.00  0.00    -0.504 OA
ATOM     33  H   UNL     1       6.232 104.823 172.402  1.00  0.00     0.293 HD
ENDBRANCH  29  32
BRANCH  30  34
ATOM     34  O   UNL     1       5.048 100.108 175.002  1.00  0.00    -0.504 OA
ATOM     35  H   UNL     1       4.901  99.595 174.138  1.00  0.00     0.293 HD
ENDBRANCH  30  34
BRANCH  31  36
ATOM     36  O   UNL     1       4.395 101.992 173.037  1.00  0.00    -0.502 OA
ATOM     37  H   UNL     1       4.226 101.035 172.757  1.00  0.00     0.293 HD
ENDBRANCH  31  36
ENDBRANCH  24  26
ENDBRANCH  23  24
ENDBRANCH   2  23
BRANCH   3  38
ATOM     38  O   UNL     1       5.314 105.241 178.069  1.00  0.00    -0.450 OA
BRANCH  38  39
ATOM     39  C   UNL     1       4.039 105.044 178.618  1.00  0.00     0.338 C 
ATOM     40  O   UNL     1       3.420 103.966 178.406  1.00  0.00    -0.246 OA
BRANCH  39  41
ATOM     41  C   UNL     1       3.424 106.091 179.464  1.00  0.00     0.067 A 
ATOM     42  C   UNL     1       3.789 106.216 180.816  1.00  0.00     0.066 A 
ATOM     43  C   UNL     1       2.474 106.972 178.926  1.00  0.00     0.066 A 
ATOM     44  C   UNL     1       3.210 107.202 181.620  1.00  0.00     0.162 A 
ATOM     45  C   UNL     1       1.884 107.961 179.720  1.00  0.00     0.162 A 
ATOM     46  C   UNL     1       2.247 108.074 181.088  1.00  0.00     0.200 A 
BRANCH  44  47
ATOM     47  O   UNL     1       3.595 107.319 182.957  1.00  0.00    -0.504 OA
ATOM     48  H   UNL     1       2.921 107.520 183.691  1.00  0.00     0.293 HD
ENDBRANCH  44  47
BRANCH  45  49
ATOM     49  O   UNL     1       0.947 108.800 179.117  1.00  0.00    -0.504 OA
ATOM     50  H   UNL     1       0.278 108.496 178.425  1.00  0.00     0.293 HD
ENDBRANCH  45  49
BRANCH  46  51
ATOM     51  O   UNL     1       1.682 109.022 181.945  1.00  0.00    -0.502 OA
ATOM     52  H   UNL     1       2.171 109.850 182.266  1.00  0.00     0.293 HD
ENDBRANCH  46  51
ENDBRANCH  39  41
ENDBRANCH  38  39
ENDBRANCH   3  38
BRANCH   5  53
ATOM     53  O   UNL     1       7.545 108.481 179.919  1.00  0.00    -0.428 OA
BRANCH  53  54
ATOM     54  C   UNL     1       8.076 109.678 180.411  1.00  0.00     0.340 C 
ATOM     55  O   UNL     1       9.242 110.037 180.104  1.00  0.00    -0.246 OA
BRANCH  54  56
ATOM     56  C   UNL     1       7.254 110.524 181.290  1.00  0.00     0.067 A 
ATOM     57  C   UNL     1       7.716 111.774 181.721  1.00  0.00     0.066 A 
ATOM     58  C   UNL     1       5.987 110.087 181.693  1.00  0.00     0.066 A 
ATOM     59  C   UNL     1       6.918 112.602 182.519  1.00  0.00     0.162 A 
ATOM     60  C   UNL     1       5.186 110.883 182.512  1.00  0.00     0.162 A 
ATOM     61  C   UNL     1       5.633 112.157 182.922  1.00  0.00     0.200 A 
BRANCH  59  62
ATOM     62  O   UNL     1       7.439 113.850 182.878  1.00  0.00    -0.504 OA
ATOM     63  H   UNL     1       7.527 114.632 182.239  1.00  0.00     0.293 HD
ENDBRANCH  59  62
BRANCH  60  64
ATOM     64  O   UNL     1       3.946 110.387 182.916  1.00  0.00    -0.504 OA
ATOM     65  H   UNL     1       3.747 109.392 182.935  1.00  0.00     0.293 HD
ENDBRANCH  60  64
BRANCH  61  66
ATOM     66  O   UNL     1       4.785 112.944 183.714  1.00  0.00    -0.502 OA
ATOM     67  H   UNL     1       4.705 113.949 183.635  1.00  0.00     0.293 HD
ENDBRANCH  61  66
ENDBRANCH  54  56
ENDBRANCH  53  54
ENDBRANCH   5  53
BRANCH   4  68
ATOM     68  O   UNL     1       5.691 108.147 177.947  1.00  0.00    -0.448 OA
BRANCH  68  69
ATOM     69  C   UNL     1       5.641 109.257 177.098  1.00  0.00     0.339 C 
ATOM     70  O   UNL     1       5.440 109.103 175.861  1.00  0.00    -0.246 OA
BRANCH  69  71
ATOM     71  C   UNL     1       5.840 110.611 177.656  1.00  0.00     0.067 A 
ATOM     72  C   UNL     1       4.857 111.213 178.451  1.00  0.00     0.066 A 
ATOM     73  C   UNL     1       7.029 111.312 177.402  1.00  0.00     0.066 A 
ATOM     74  C   UNL     1       5.058 112.489 178.998  1.00  0.00     0.162 A 
ATOM     75  C   UNL     1       7.242 112.582 177.945  1.00  0.00     0.162 A 
ATOM     76  C   UNL     1       6.257 113.177 178.747  1.00  0.00     0.200 A 
BRANCH  74  77
ATOM     77  O   UNL     1       4.076 113.073 179.800  1.00  0.00    -0.504 OA
ATOM     78  H   UNL     1       3.849 114.059 179.727  1.00  0.00     0.293 HD
ENDBRANCH  74  77
BRANCH  75  79
ATOM     79  O   UNL     1       8.444 113.240 177.678  1.00  0.00    -0.504 OA
ATOM     80  H   UNL     1       9.290 112.743 177.432  1.00  0.00     0.293 HD
ENDBRANCH  75  79
BRANCH  76  81
ATOM     81  O   UNL     1       6.478 114.446 179.286  1.00  0.00    -0.502 OA
ATOM     82  H   UNL     1       7.195 114.628 179.971  1.00  0.00     0.293 HD
ENDBRANCH  76  81
ENDBRANCH  69  71
ENDBRANCH  68  69
ENDBRANCH   4  68
TORSDOF 31
ENDMDL
MODEL 3
REMARK VINA RESULT:    -5.260      2.642      6.491
REMARK INTER + INTRA:         -20.319
REMARK INTER:                 -11.615
REMARK INTRA:                  -8.704
REMARK UNBOUND:                -7.833
REMARK SMILES O=C(OC[C@H]1O[C@H](OC(=O)c2cc(O)c(O)c(O)c2)[C@H](OC(=O)c2cc(O)c(O)c(O)c2)[C@@H](OC(=O)c2cc(O)c(O)c(O)c2)[C@H]1OC(=O)c1cc(O)c(O)c(O)c1)c1cc(O)c(O)c(O)c1
REMARK SMILES IDX 5 1 46 2 33 3 20 4 7 5 6 6 4 7 3 8 2 9 1 10 59 11 60 12
REMARK SMILES IDX 61 13 67 14 63 15 65 16 62 17 64 19 66 21 47 23 48 24 49 25
REMARK SMILES IDX 50 26 58 27 51 28 56 29 52 30 54 31 57 32 53 34 55 36 34 38
REMARK SMILES IDX 35 39 36 40 37 41 45 42 38 43 43 44 39 45 41 46 44 47 40 49
REMARK SMILES IDX 42 51 8 53 9 54 10 55 11 56 19 57 12 58 17 59 13 60 15 61
REMARK SMILES IDX 18 62 14 64 16 66 21 68 22 69 23 70 24 71 32 72 25 73 30 74
REMARK SMILES IDX 26 75 28 76 31 77 27 79 29 81
REMARK H PARENT 62 18 64 20 66 22 57 33 53 35 55 37 44 48 40 50 42 52 18 63
REMARK H PARENT 14 65 16 67 31 78 27 80 29 82
REMARK Flexibility Score: inf
ROOT
ATOM      1  C   UNL     1       8.355 105.971 174.332  1.00  0.00     0.205 C 
ATOM      2  C   UNL     1       7.080 106.074 173.475  1.00  0.00     0.254 C 
ATOM      3  C   UNL     1       5.916 106.390 174.420  1.00  0.00     0.267 C 
ATOM      4  C   UNL     1       6.216 107.686 175.194  1.00  0.00     0.290 C 
ATOM      5  C   UNL     1       7.600 107.575 175.874  1.00  0.00     0.357 C 
ATOM      6  O   UNL     1       8.626 107.220 174.955  1.00  0.00    -0.329 OA
ENDROOT
BRANCH   1   7
ATOM      7  C   UNL     1       9.582 105.542 173.506  1.00  0.00     0.269 C 
BRANCH   7   8
ATOM      8  O   UNL     1      10.036 104.270 173.957  1.00  0.00    -0.459 OA
BRANCH   8   9
ATOM      9  C   UNL     1       9.302 103.094 173.746  1.00  0.00     0.338 C 
ATOM     10  O   UNL     1       9.416 102.468 172.653  1.00  0.00    -0.246 OA
BRANCH   9  11
ATOM     11  C   UNL     1       8.373 102.607 174.787  1.00  0.00     0.067 A 
ATOM     12  C   UNL     1       7.291 101.787 174.440  1.00  0.00     0.066 A 
ATOM     13  C   UNL     1       6.374 101.362 175.405  1.00  0.00     0.162 A 
ATOM     14  C   UNL     1       8.538 102.998 176.131  1.00  0.00     0.066 A 
ATOM     15  C   UNL     1       6.521 101.785 176.747  1.00  0.00     0.200 A 
ATOM     16  C   UNL     1       7.612 102.599 177.101  1.00  0.00     0.162 A 
BRANCH  13  17
ATOM     17  O   UNL     1       5.346 100.515 174.990  1.00  0.00    -0.504 OA
ATOM     18  H   UNL     1       5.332 100.051 174.098  1.00  0.00     0.293 HD
ENDBRANCH  13  17
BRANCH  15  19
ATOM     19  O   UNL     1       5.607 101.423 177.742  1.00  0.00    -0.502 OA
ATOM     20  H   UNL     1       4.713 101.868 177.886  1.00  0.00     0.293 HD
ENDBRANCH  15  19
BRANCH  16  21
ATOM     21  O   UNL     1       7.794 103.029 178.416  1.00  0.00    -0.504 OA
ATOM     22  H   UNL     1       7.020 103.126 179.061  1.00  0.00     0.293 HD
ENDBRANCH  16  21
ENDBRANCH   9  11
ENDBRANCH   8   9
ENDBRANCH   7   8
ENDBRANCH   1   7
BRANCH   2  23
ATOM     23  O   UNL     1       7.206 107.132 172.523  1.00  0.00    -0.452 OA
BRANCH  23  24
ATOM     24  C   UNL     1       7.026 106.975 171.142  1.00  0.00     0.338 C 
ATOM     25  O   UNL     1       7.126 107.971 170.380  1.00  0.00    -0.246 OA
BRANCH  24  26
ATOM     26  C   UNL     1       6.740 105.631 170.593  1.00  0.00     0.067 A 
ATOM     27  C   UNL     1       5.417 105.220 170.345  1.00  0.00     0.066 A 
ATOM     28  C   UNL     1       7.789 104.726 170.363  1.00  0.00     0.066 A 
ATOM     29  C   UNL     1       5.146 103.919 169.889  1.00  0.00     0.162 A 
ATOM     30  C   UNL     1       7.525 103.434 169.899  1.00  0.00     0.162 A 
ATOM     31  C   UNL     1       6.204 103.024 169.662  1.00  0.00     0.200 A 
BRANCH  29  32
ATOM     32  O   UNL     1       3.833 103.513 169.667  1.00  0.00    -0.504 OA
ATOM     33  H   UNL     1       3.530 102.567 169.867  1.00  0.00     0.293 HD
ENDBRANCH  29  32
BRANCH  30  34
ATOM     34  O   UNL     1       8.593 102.565 169.685  1.00  0.00    -0.504 OA
ATOM     35  H   UNL     1       9.527 102.762 170.032  1.00  0.00     0.293 HD
ENDBRANCH  30  34
BRANCH  31  36
ATOM     36  O   UNL     1       5.964 101.727 169.211  1.00  0.00    -0.502 OA
ATOM     37  H   UNL     1       5.790 100.958 169.844  1.00  0.00     0.293 HD
ENDBRANCH  31  36
ENDBRANCH  24  26
ENDBRANCH  23  24
ENDBRANCH   2  23
BRANCH   3  38
ATOM     38  O   UNL     1       4.695 106.496 173.687  1.00  0.00    -0.450 OA
BRANCH  38  39
ATOM     39  C   UNL     1       3.605 105.643 173.908  1.00  0.00     0.338 C 
ATOM     40  O   UNL     1       3.060 105.051 172.937  1.00  0.00    -0.246 OA
BRANCH  39  41
ATOM     41  C   UNL     1       3.104 105.417 175.282  1.00  0.00     0.067 A 
ATOM     42  C   UNL     1       3.827 104.610 176.178  1.00  0.00     0.066 A 
ATOM     43  C   UNL     1       1.904 106.010 175.707  1.00  0.00     0.066 A 
ATOM     44  C   UNL     1       3.357 104.393 177.476  1.00  0.00     0.162 A 
ATOM     45  C   UNL     1       1.422 105.797 177.003  1.00  0.00     0.162 A 
ATOM     46  C   UNL     1       2.149 104.971 177.898  1.00  0.00     0.200 A 
BRANCH  44  47
ATOM     47  O   UNL     1       4.096 103.599 178.356  1.00  0.00    -0.504 OA
ATOM     48  H   UNL     1       3.837 103.503 179.334  1.00  0.00     0.293 HD
ENDBRANCH  44  47
BRANCH  45  49
ATOM     49  O   UNL     1       0.223 106.417 177.354  1.00  0.00    -0.504 OA
ATOM     50  H   UNL     1      -0.556 105.941 177.786  1.00  0.00     0.293 HD
ENDBRANCH  45  49
BRANCH  46  51
ATOM     51  O   UNL     1       1.715 104.696 179.198  1.00  0.00    -0.502 OA
ATOM     52  H   UNL     1       1.953 105.266 180.002  1.00  0.00     0.293 HD
ENDBRANCH  46  51
ENDBRANCH  39  41
ENDBRANCH  38  39
ENDBRANCH   3  38
BRANCH   5  53
ATOM     53  O   UNL     1       7.549 106.654 176.962  1.00  0.00    -0.428 OA
BRANCH  53  54
ATOM     54  C   UNL     1       8.161 106.889 178.198  1.00  0.00     0.340 C 
ATOM     55  O   UNL     1       9.394 107.127 178.269  1.00  0.00    -0.246 OA
BRANCH  54  56
ATOM     56  C   UNL     1       7.346 106.863 179.423  1.00  0.00     0.067 A 
ATOM     57  C   UNL     1       6.106 106.212 179.446  1.00  0.00     0.066 A 
ATOM     58  C   UNL     1       7.816 107.482 180.587  1.00  0.00     0.066 A 
ATOM     59  C   UNL     1       5.348 106.144 180.622  1.00  0.00     0.162 A 
ATOM     60  C   UNL     1       7.064 107.452 181.762  1.00  0.00     0.162 A 
ATOM     61  C   UNL     1       5.831 106.770 181.800  1.00  0.00     0.200 A 
BRANCH  59  62
ATOM     62  O   UNL     1       4.138 105.446 180.570  1.00  0.00    -0.504 OA
ATOM     63  H   UNL     1       3.406 105.528 181.267  1.00  0.00     0.293 HD
ENDBRANCH  59  62
BRANCH  60  64
ATOM     64  O   UNL     1       7.560 108.115 182.885  1.00  0.00    -0.504 OA
ATOM     65  H   UNL     1       7.583 107.678 183.801  1.00  0.00     0.293 HD
ENDBRANCH  60  64
BRANCH  61  66
ATOM     66  O   UNL     1       5.122 106.730 183.010  1.00  0.00    -0.502 OA
ATOM     67  H   UNL     1       4.120 106.608 183.077  1.00  0.00     0.293 HD
ENDBRANCH  61  66
ENDBRANCH  54  56
ENDBRANCH  53  54
ENDBRANCH   5  53
BRANCH   4  68
ATOM     68  O   UNL     1       5.237 107.890 176.211  1.00  0.00    -0.448 OA
BRANCH  68  69
ATOM     69  C   UNL     1       5.036 109.101 176.879  1.00  0.00     0.339 C 
ATOM     70  O   UNL     1       5.389 110.189 176.343  1.00  0.00    -0.246 OA
BRANCH  69  71
ATOM     71  C   UNL     1       4.422 109.098 178.223  1.00  0.00     0.067 A 
ATOM     72  C   UNL     1       5.018 109.783 179.290  1.00  0.00     0.066 A 
ATOM     73  C   UNL     1       3.219 108.410 178.448  1.00  0.00     0.066 A 
ATOM     74  C   UNL     1       4.421 109.797 180.559  1.00  0.00     0.162 A 
ATOM     75  C   UNL     1       2.613 108.420 179.708  1.00  0.00     0.162 A 
ATOM     76  C   UNL     1       3.211 109.114 180.769  1.00  0.00     0.200 A 
BRANCH  74  77
ATOM     77  O   UNL     1       5.019 110.494 181.609  1.00  0.00    -0.504 OA
ATOM     78  H   UNL     1       6.022 110.646 181.642  1.00  0.00     0.293 HD
ENDBRANCH  74  77
BRANCH  75  79
ATOM     79  O   UNL     1       1.410 107.733 179.886  1.00  0.00    -0.504 OA
ATOM     80  H   UNL     1       0.768 107.954 180.635  1.00  0.00     0.293 HD
ENDBRANCH  75  79
BRANCH  76  81
ATOM     81  O   UNL     1       2.599 109.119 182.024  1.00  0.00    -0.502 OA
ATOM     82  H   UNL     1       1.600 109.037 182.142  1.00  0.00     0.293 HD
ENDBRANCH  76  81
ENDBRANCH  69  71
ENDBRANCH  68  69
ENDBRANCH   4  68
TORSDOF 31
ENDMDL
MODEL 4
REMARK VINA RESULT:    -5.195      2.367      7.599
REMARK INTER + INTRA:         -20.165
REMARK INTER:                 -12.386
REMARK INTRA:                  -7.779
REMARK UNBOUND:                -7.833
REMARK SMILES O=C(OC[C@H]1O[C@H](OC(=O)c2cc(O)c(O)c(O)c2)[C@H](OC(=O)c2cc(O)c(O)c(O)c2)[C@@H](OC(=O)c2cc(O)c(O)c(O)c2)[C@H]1OC(=O)c1cc(O)c(O)c(O)c1)c1cc(O)c(O)c(O)c1
REMARK SMILES IDX 5 1 46 2 33 3 20 4 7 5 6 6 4 7 3 8 2 9 1 10 59 11 60 12
REMARK SMILES IDX 61 13 67 14 63 15 65 16 62 17 64 19 66 21 47 23 48 24 49 25
REMARK SMILES IDX 50 26 58 27 51 28 56 29 52 30 54 31 57 32 53 34 55 36 34 38
REMARK SMILES IDX 35 39 36 40 37 41 45 42 38 43 43 44 39 45 41 46 44 47 40 49
REMARK SMILES IDX 42 51 8 53 9 54 10 55 11 56 19 57 12 58 17 59 13 60 15 61
REMARK SMILES IDX 18 62 14 64 16 66 21 68 22 69 23 70 24 71 32 72 25 73 30 74
REMARK SMILES IDX 26 75 28 76 31 77 27 79 29 81
REMARK H PARENT 62 18 64 20 66 22 57 33 53 35 55 37 44 48 40 50 42 52 18 63
REMARK H PARENT 14 65 16 67 31 78 27 80 29 82
REMARK Flexibility Score: inf
ROOT
ATOM      1  C   UNL     1       8.669 107.755 177.984  1.00  0.00     0.205 C 
ATOM      2  C   UNL     1       7.752 108.987 177.870  1.00  0.00     0.254 C 
ATOM      3  C   UNL     1       6.986 108.868 176.548  1.00  0.00     0.267 C 
ATOM      4  C   UNL     1       6.204 107.542 176.520  1.00  0.00     0.290 C 
ATOM      5  C   UNL     1       7.162 106.369 176.830  1.00  0.00     0.357 C 
ATOM      6  O   UNL     1       7.887 106.569 178.038  1.00  0.00    -0.329 OA
ENDROOT
BRANCH   1   7
ATOM      7  C   UNL     1       9.579 107.816 179.224  1.00  0.00     0.269 C 
BRANCH   7   8
ATOM      8  O   UNL     1       9.316 106.696 180.063  1.00  0.00    -0.459 OA
BRANCH   8   9
ATOM      9  C   UNL     1       8.895 106.837 181.393  1.00  0.00     0.338 C 
ATOM     10  O   UNL     1       9.749 107.027 182.307  1.00  0.00    -0.246 OA
BRANCH   9  11
ATOM     11  C   UNL     1       7.460 106.730 181.729  1.00  0.00     0.067 A 
ATOM     12  C   UNL     1       6.568 106.125 180.833  1.00  0.00     0.066 A 
ATOM     13  C   UNL     1       5.201 106.062 181.113  1.00  0.00     0.162 A 
ATOM     14  C   UNL     1       6.966 107.273 182.932  1.00  0.00     0.066 A 
ATOM     15  C   UNL     1       4.702 106.641 182.304  1.00  0.00     0.200 A 
ATOM     16  C   UNL     1       5.595 107.239 183.211  1.00  0.00     0.162 A 
BRANCH  13  17
ATOM     17  O   UNL     1       4.382 105.409 180.192  1.00  0.00    -0.504 OA
ATOM     18  H   UNL     1       4.361 105.629 179.211  1.00  0.00     0.293 HD
ENDBRANCH  13  17
BRANCH  15  19
ATOM     19  O   UNL     1       3.337 106.644 182.611  1.00  0.00    -0.502 OA
ATOM     20  H   UNL     1       2.630 106.167 182.073  1.00  0.00     0.293 HD
ENDBRANCH  15  19
BRANCH  16  21
ATOM     21  O   UNL     1       5.141 107.812 184.399  1.00  0.00    -0.504 OA
ATOM     22  H   UNL     1       4.165 107.788 184.668  1.00  0.00     0.293 HD
ENDBRANCH  16  21
ENDBRANCH   9  11
ENDBRANCH   8   9
ENDBRANCH   7   8
ENDBRANCH   1   7
BRANCH   2  23
ATOM     23  O   UNL     1       6.816 109.010 178.948  1.00  0.00    -0.452 OA
BRANCH  23  24
ATOM     24  C   UNL     1       6.804 109.980 179.960  1.00  0.00     0.338 C 
ATOM     25  O   UNL     1       7.806 110.721 180.130  1.00  0.00    -0.246 OA
BRANCH  24  26
ATOM     26  C   UNL     1       5.601 110.133 180.808  1.00  0.00     0.067 A 
ATOM     27  C   UNL     1       5.649 110.877 182.002  1.00  0.00     0.066 A 
ATOM     28  C   UNL     1       4.404 109.487 180.455  1.00  0.00     0.066 A 
ATOM     29  C   UNL     1       4.523 110.962 182.837  1.00  0.00     0.162 A 
ATOM     30  C   UNL     1       3.277 109.578 181.278  1.00  0.00     0.162 A 
ATOM     31  C   UNL     1       3.332 110.312 182.472  1.00  0.00     0.200 A 
BRANCH  29  32
ATOM     32  O   UNL     1       4.585 111.682 184.027  1.00  0.00    -0.504 OA
ATOM     33  H   UNL     1       4.110 112.571 184.134  1.00  0.00     0.293 HD
ENDBRANCH  29  32
BRANCH  30  34
ATOM     34  O   UNL     1       2.110 108.921 180.895  1.00  0.00    -0.504 OA
ATOM     35  H   UNL     1       1.267 108.945 181.460  1.00  0.00     0.293 HD
ENDBRANCH  30  34
BRANCH  31  36
ATOM     36  O   UNL     1       2.201 110.379 183.283  1.00  0.00    -0.502 OA
ATOM     37  H   UNL     1       1.262 110.389 182.904  1.00  0.00     0.293 HD
ENDBRANCH  31  36
ENDBRANCH  24  26
ENDBRANCH  23  24
ENDBRANCH   2  23
BRANCH   3  38
ATOM     38  O   UNL     1       6.115 109.986 176.375  1.00  0.00    -0.450 OA
BRANCH  38  39
ATOM     39  C   UNL     1       6.589 111.281 176.125  1.00  0.00     0.338 C 
ATOM     40  O   UNL     1       7.563 111.457 175.343  1.00  0.00    -0.246 OA
BRANCH  39  41
ATOM     41  C   UNL     1       5.936 112.447 176.760  1.00  0.00     0.067 A 
ATOM     42  C   UNL     1       5.260 112.304 177.984  1.00  0.00     0.066 A 
ATOM     43  C   UNL     1       5.988 113.710 176.148  1.00  0.00     0.066 A 
ATOM     44  C   UNL     1       4.641 113.402 178.587  1.00  0.00     0.162 A 
ATOM     45  C   UNL     1       5.369 114.816 176.739  1.00  0.00     0.162 A 
ATOM     46  C   UNL     1       4.677 114.662 177.969  1.00  0.00     0.200 A 
BRANCH  44  47
ATOM     47  O   UNL     1       3.986 113.242 179.809  1.00  0.00    -0.504 OA
ATOM     48  H   UNL     1       3.596 112.347 180.093  1.00  0.00     0.293 HD
ENDBRANCH  44  47
BRANCH  45  49
ATOM     49  O   UNL     1       5.461 116.039 176.074  1.00  0.00    -0.504 OA
ATOM     50  H   UNL     1       5.107 116.911 176.440  1.00  0.00     0.293 HD
ENDBRANCH  45  49
BRANCH  46  51
ATOM     51  O   UNL     1       4.017 115.718 178.603  1.00  0.00    -0.502 OA
ATOM     52  H   UNL     1       4.481 116.562 178.919  1.00  0.00     0.293 HD
ENDBRANCH  46  51
ENDBRANCH  39  41
ENDBRANCH  38  39
ENDBRANCH   3  38
BRANCH   5  53
ATOM     53  O   UNL     1       8.048 106.146 175.735  1.00  0.00    -0.428 OA
BRANCH  53  54
ATOM     54  C   UNL     1       8.582 104.891 175.420  1.00  0.00     0.340 C 
ATOM     55  O   UNL     1       9.804 104.761 175.155  1.00  0.00    -0.246 OA
BRANCH  54  56
ATOM     56  C   UNL     1       7.698 103.714 175.409  1.00  0.00     0.067 A 
ATOM     57  C   UNL     1       7.605 102.876 176.527  1.00  0.00     0.066 A 
ATOM     58  C   UNL     1       6.928 103.432 174.275  1.00  0.00     0.066 A 
ATOM     59  C   UNL     1       6.730 101.782 176.537  1.00  0.00     0.162 A 
ATOM     60  C   UNL     1       6.071 102.331 174.252  1.00  0.00     0.162 A 
ATOM     61  C   UNL     1       5.949 101.502 175.387  1.00  0.00     0.200 A 
BRANCH  59  62
ATOM     62  O   UNL     1       6.670 101.015 177.705  1.00  0.00    -0.504 OA
ATOM     63  H   UNL     1       6.668 100.001 177.717  1.00  0.00     0.293 HD
ENDBRANCH  59  62
BRANCH  60  64
ATOM     64  O   UNL     1       5.352 102.071 173.085  1.00  0.00    -0.504 OA
ATOM     65  H   UNL     1       4.985 101.149 172.874  1.00  0.00     0.293 HD
ENDBRANCH  60  64
BRANCH  61  66
ATOM     66  O   UNL     1       5.049 100.427 175.339  1.00  0.00    -0.502 OA
ATOM     67  H   UNL     1       5.154  99.575 175.874  1.00  0.00     0.293 HD
ENDBRANCH  61  66
ENDBRANCH  54  56
ENDBRANCH  53  54
ENDBRANCH   5  53
BRANCH   4  68
ATOM     68  O   UNL     1       5.644 107.328 175.226  1.00  0.00    -0.448 OA
BRANCH  68  69
ATOM     69  C   UNL     1       4.288 107.090 174.986  1.00  0.00     0.339 C 
ATOM     70  O   UNL     1       3.864 106.961 173.803  1.00  0.00    -0.246 OA
BRANCH  69  71
ATOM     71  C   UNL     1       3.351 107.004 176.126  1.00  0.00     0.067 A 
ATOM     72  C   UNL     1       2.680 108.140 176.594  1.00  0.00     0.066 A 
ATOM     73  C   UNL     1       3.114 105.770 176.753  1.00  0.00     0.066 A 
ATOM     74  C   UNL     1       1.774 108.051 177.662  1.00  0.00     0.162 A 
ATOM     75  C   UNL     1       2.211 105.669 177.816  1.00  0.00     0.162 A 
ATOM     76  C   UNL     1       1.536 106.809 178.274  1.00  0.00     0.200 A 
BRANCH  74  77
ATOM     77  O   UNL     1       1.102 109.188 178.110  1.00  0.00    -0.504 OA
ATOM     78  H   UNL     1       0.996 110.008 177.521  1.00  0.00     0.293 HD
ENDBRANCH  74  77
BRANCH  75  79
ATOM     79  O   UNL     1       1.994 104.421 178.404  1.00  0.00    -0.504 OA
ATOM     80  H   UNL     1       1.879 104.307 179.401  1.00  0.00     0.293 HD
ENDBRANCH  75  79
BRANCH  76  81
ATOM     81  O   UNL     1       0.635 106.700 179.336  1.00  0.00    -0.502 OA
ATOM     82  H   UNL     1       0.860 107.002 180.272  1.00  0.00     0.293 HD
ENDBRANCH  76  81
ENDBRANCH  69  71
ENDBRANCH  68  69
ENDBRANCH   4  68
TORSDOF 31
ENDMDL
MODEL 5
REMARK VINA RESULT:    -5.165      1.903      7.335
REMARK INTER + INTRA:         -20.094
REMARK INTER:                 -11.126
REMARK INTRA:                  -8.968
REMARK UNBOUND:                -7.833
REMARK SMILES O=C(OC[C@H]1O[C@H](OC(=O)c2cc(O)c(O)c(O)c2)[C@H](OC(=O)c2cc(O)c(O)c(O)c2)[C@@H](OC(=O)c2cc(O)c(O)c(O)c2)[C@H]1OC(=O)c1cc(O)c(O)c(O)c1)c1cc(O)c(O)c(O)c1
REMARK SMILES IDX 5 1 46 2 33 3 20 4 7 5 6 6 4 7 3 8 2 9 1 10 59 11 60 12
REMARK SMILES IDX 61 13 67 14 63 15 65 16 62 17 64 19 66 21 47 23 48 24 49 25
REMARK SMILES IDX 50 26 58 27 51 28 56 29 52 30 54 31 57 32 53 34 55 36 34 38
REMARK SMILES IDX 35 39 36 40 37 41 45 42 38 43 43 44 39 45 41 46 44 47 40 49
REMARK SMILES IDX 42 51 8 53 9 54 10 55 11 56 19 57 12 58 17 59 13 60 15 61
REMARK SMILES IDX 18 62 14 64 16 66 21 68 22 69 23 70 24 71 32 72 25 73 30 74
REMARK SMILES IDX 26 75 28 76 31 77 27 79 29 81
REMARK H PARENT 62 18 64 20 66 22 57 33 53 35 55 37 44 48 40 50 42 52 18 63
REMARK H PARENT 14 65 16 67 31 78 27 80 29 82
REMARK Flexibility Score: inf
ROOT
ATOM      1  C   UNL     1       4.205 107.299 180.277  1.00  0.00     0.205 C 
ATOM      2  C   UNL     1       4.863 106.601 179.073  1.00  0.00     0.254 C 
ATOM      3  C   UNL     1       6.366 106.894 179.137  1.00  0.00     0.267 C 
ATOM      4  C   UNL     1       6.930 106.409 180.486  1.00  0.00     0.290 C 
ATOM      5  C   UNL     1       6.096 107.007 181.642  1.00  0.00     0.357 C 
ATOM      6  O   UNL     1       4.704 106.753 181.491  1.00  0.00    -0.329 OA
ENDROOT
BRANCH   1   7
ATOM      7  C   UNL     1       2.670 107.173 180.260  1.00  0.00     0.269 C 
BRANCH   7   8
ATOM      8  O   UNL     1       2.136 108.015 179.244  1.00  0.00    -0.459 OA
BRANCH   8   9
ATOM      9  C   UNL     1       1.339 107.520 178.202  1.00  0.00     0.338 C 
ATOM     10  O   UNL     1       0.158 107.134 178.440  1.00  0.00    -0.246 OA
BRANCH   9  11
ATOM     11  C   UNL     1       1.891 107.419 176.835  1.00  0.00     0.067 A 
ATOM     12  C   UNL     1       1.348 106.506 175.920  1.00  0.00     0.066 A 
ATOM     13  C   UNL     1       1.892 106.362 174.641  1.00  0.00     0.162 A 
ATOM     14  C   UNL     1       2.995 108.206 176.450  1.00  0.00     0.066 A 
ATOM     15  C   UNL     1       3.023 107.127 174.270  1.00  0.00     0.200 A 
ATOM     16  C   UNL     1       3.563 108.052 175.181  1.00  0.00     0.162 A 
BRANCH  13  17
ATOM     17  O   UNL     1       1.273 105.462 173.773  1.00  0.00    -0.504 OA
ATOM     18  H   UNL     1       0.343 105.586 173.411  1.00  0.00     0.293 HD
ENDBRANCH  13  17
BRANCH  15  19
ATOM     19  O   UNL     1       3.632 106.989 173.018  1.00  0.00    -0.502 OA
ATOM     20  H   UNL     1       3.418 107.558 172.213  1.00  0.00     0.293 HD
ENDBRANCH  15  19
BRANCH  16  21
ATOM     21  O   UNL     1       4.673 108.830 174.847  1.00  0.00    -0.504 OA
ATOM     22  H   UNL     1       4.596 109.649 174.257  1.00  0.00     0.293 HD
ENDBRANCH  16  21
ENDBRANCH   9  11
ENDBRANCH   8   9
ENDBRANCH   7   8
ENDBRANCH   1   7
BRANCH   2  23
ATOM     23  O   UNL     1       4.661 105.189 179.148  1.00  0.00    -0.452 OA
BRANCH  23  24
ATOM     24  C   UNL     1       3.913 104.449 178.222  1.00  0.00     0.338 C 
ATOM     25  O   UNL     1       2.666 104.355 178.358  1.00  0.00    -0.246 OA
BRANCH  24  26
ATOM     26  C   UNL     1       4.598 103.802 177.082  1.00  0.00     0.067 A 
ATOM     27  C   UNL     1       4.145 103.996 175.764  1.00  0.00     0.066 A 
ATOM     28  C   UNL     1       5.681 102.937 177.311  1.00  0.00     0.066 A 
ATOM     29  C   UNL     1       4.757 103.324 174.692  1.00  0.00     0.162 A 
ATOM     30  C   UNL     1       6.299 102.274 176.246  1.00  0.00     0.162 A 
ATOM     31  C   UNL     1       5.840 102.462 174.934  1.00  0.00     0.200 A 
BRANCH  29  32
ATOM     32  O   UNL     1       4.290 103.505 173.393  1.00  0.00    -0.504 OA
ATOM     33  H   UNL     1       3.960 102.725 172.836  1.00  0.00     0.293 HD
ENDBRANCH  29  32
BRANCH  30  34
ATOM     34  O   UNL     1       7.369 101.423 176.515  1.00  0.00    -0.504 OA
ATOM     35  H   UNL     1       7.981 101.077 175.782  1.00  0.00     0.293 HD
ENDBRANCH  30  34
BRANCH  31  36
ATOM     36  O   UNL     1       6.464 101.783 173.890  1.00  0.00    -0.502 OA
ATOM     37  H   UNL     1       6.400 102.091 172.928  1.00  0.00     0.293 HD
ENDBRANCH  31  36
ENDBRANCH  24  26
ENDBRANCH  23  24
ENDBRANCH   2  23
BRANCH   3  38
ATOM     38  O   UNL     1       7.040 106.275 178.042  1.00  0.00    -0.450 OA
BRANCH  38  39
ATOM     39  C   UNL     1       7.147 106.880 176.782  1.00  0.00     0.338 C 
ATOM     40  O   UNL     1       6.965 108.122 176.661  1.00  0.00    -0.246 OA
BRANCH  39  41
ATOM     41  C   UNL     1       7.494 106.068 175.594  1.00  0.00     0.067 A 
ATOM     42  C   UNL     1       8.532 105.122 175.659  1.00  0.00     0.066 A 
ATOM     43  C   UNL     1       6.788 106.231 174.392  1.00  0.00     0.066 A 
ATOM     44  C   UNL     1       8.864 104.354 174.540  1.00  0.00     0.162 A 
ATOM     45  C   UNL     1       7.113 105.471 173.264  1.00  0.00     0.162 A 
ATOM     46  C   UNL     1       8.170 104.527 173.332  1.00  0.00     0.200 A 
BRANCH  44  47
ATOM     47  O   UNL     1       9.889 103.410 174.628  1.00  0.00    -0.504 OA
ATOM     48  H   UNL     1       9.840 102.522 174.135  1.00  0.00     0.293 HD
ENDBRANCH  44  47
BRANCH  45  49
ATOM     49  O   UNL     1       6.368 105.688 172.104  1.00  0.00    -0.504 OA
ATOM     50  H   UNL     1       6.769 105.947 171.214  1.00  0.00     0.293 HD
ENDBRANCH  45  49
BRANCH  46  51
ATOM     51  O   UNL     1       8.563 103.751 172.238  1.00  0.00    -0.502 OA
ATOM     52  H   UNL     1       9.517 103.442 172.082  1.00  0.00     0.293 HD
ENDBRANCH  46  51
ENDBRANCH  39  41
ENDBRANCH  38  39
ENDBRANCH   3  38
BRANCH   5  53
ATOM     53  O   UNL     1       6.347 108.406 181.767  1.00  0.00    -0.428 OA
BRANCH  53  54
ATOM     54  C   UNL     1       6.422 109.066 182.998  1.00  0.00     0.340 C 
ATOM     55  O   UNL     1       7.362 108.826 183.799  1.00  0.00    -0.246 OA
BRANCH  54  56
ATOM     56  C   UNL     1       5.392 110.056 183.349  1.00  0.00     0.067 A 
ATOM     57  C   UNL     1       4.033 109.778 183.154  1.00  0.00     0.066 A 
ATOM     58  C   UNL     1       5.766 111.288 183.899  1.00  0.00     0.066 A 
ATOM     59  C   UNL     1       3.047 110.698 183.530  1.00  0.00     0.162 A 
ATOM     60  C   UNL     1       4.802 112.232 184.254  1.00  0.00     0.162 A 
ATOM     61  C   UNL     1       3.431 111.943 184.090  1.00  0.00     0.200 A 
BRANCH  59  62
ATOM     62  O   UNL     1       1.712 110.330 183.334  1.00  0.00    -0.504 OA
ATOM     63  H   UNL     1       1.003 110.948 182.956  1.00  0.00     0.293 HD
ENDBRANCH  59  62
BRANCH  60  64
ATOM     64  O   UNL     1       5.228 113.458 184.764  1.00  0.00    -0.504 OA
ATOM     65  H   UNL     1       5.585 114.195 184.164  1.00  0.00     0.293 HD
ENDBRANCH  60  64
BRANCH  61  66
ATOM     66  O   UNL     1       2.490 112.902 184.494  1.00  0.00    -0.502 OA
ATOM     67  H   UNL     1       2.208 113.051 185.453  1.00  0.00     0.293 HD
ENDBRANCH  61  66
ENDBRANCH  54  56
ENDBRANCH  53  54
ENDBRANCH   5  53
BRANCH   4  68
ATOM     68  O   UNL     1       8.279 106.845 180.639  1.00  0.00    -0.448 OA
BRANCH  68  69
ATOM     69  C   UNL     1       9.360 105.991 180.875  1.00  0.00     0.339 C 
ATOM     70  O   UNL     1      10.106 106.170 181.877  1.00  0.00    -0.246 OA
BRANCH  69  71
ATOM     71  C   UNL     1       9.632 104.885 179.933  1.00  0.00     0.067 A 
ATOM     72  C   UNL     1       8.963 103.659 180.048  1.00  0.00     0.066 A 
ATOM     73  C   UNL     1      10.566 105.052 178.898  1.00  0.00     0.066 A 
ATOM     74  C   UNL     1       9.207 102.620 179.139  1.00  0.00     0.162 A 
ATOM     75  C   UNL     1      10.815 104.024 177.984  1.00  0.00     0.162 A 
ATOM     76  C   UNL     1      10.135 102.802 178.100  1.00  0.00     0.200 A 
BRANCH  74  77
ATOM     77  O   UNL     1       8.524 101.409 179.257  1.00  0.00    -0.504 OA
ATOM     78  H   UNL     1       7.597 101.283 178.864  1.00  0.00     0.293 HD
ENDBRANCH  74  77
BRANCH  75  79
ATOM     79  O   UNL     1      11.742 104.236 176.962  1.00  0.00    -0.504 OA
ATOM     80  H   UNL     1      12.486 104.916 177.039  1.00  0.00     0.293 HD
ENDBRANCH  75  79
BRANCH  76  81
ATOM     81  O   UNL     1      10.389 101.780 177.183  1.00  0.00    -0.502 OA
ATOM     82  H   UNL     1      11.284 101.320 177.118  1.00  0.00     0.293 HD
ENDBRANCH  76  81
ENDBRANCH  69  71
ENDBRANCH  68  69
ENDBRANCH   4  68
TORSDOF 31
ENDMDL
MODEL 6
REMARK VINA RESULT:    -5.152      0.459      2.377
REMARK INTER + INTRA:         -20.064
REMARK INTER:                 -12.184
REMARK INTRA:                  -7.880
REMARK UNBOUND:                -7.833
REMARK SMILES O=C(OC[C@H]1O[C@H](OC(=O)c2cc(O)c(O)c(O)c2)[C@H](OC(=O)c2cc(O)c(O)c(O)c2)[C@@H](OC(=O)c2cc(O)c(O)c(O)c2)[C@H]1OC(=O)c1cc(O)c(O)c(O)c1)c1cc(O)c(O)c(O)c1
REMARK SMILES IDX 5 1 46 2 33 3 20 4 7 5 6 6 4 7 3 8 2 9 1 10 59 11 60 12
REMARK SMILES IDX 61 13 67 14 63 15 65 16 62 17 64 19 66 21 47 23 48 24 49 25
REMARK SMILES IDX 50 26 58 27 51 28 56 29 52 30 54 31 57 32 53 34 55 36 34 38
REMARK SMILES IDX 35 39 36 40 37 41 45 42 38 43 43 44 39 45 41 46 44 47 40 49
REMARK SMILES IDX 42 51 8 53 9 54 10 55 11 56 19 57 12 58 17 59 13 60 15 61
REMARK SMILES IDX 18 62 14 64 16 66 21 68 22 69 23 70 24 71 32 72 25 73 30 74
REMARK SMILES IDX 26 75 28 76 31 77 27 79 29 81
REMARK H PARENT 62 18 64 20 66 22 57 33 53 35 55 37 44 48 40 50 42 52 18 63
REMARK H PARENT 14 65 16 67 31 78 27 80 29 82
REMARK Flexibility Score: inf
ROOT
ATOM      1  C   UNL     1       8.509 105.893 179.937  1.00  0.00     0.205 C 
ATOM      2  C   UNL     1       7.454 105.052 179.196  1.00  0.00     0.254 C 
ATOM      3  C   UNL     1       6.269 105.972 178.882  1.00  0.00     0.267 C 
ATOM      4  C   UNL     1       6.755 107.177 178.056  1.00  0.00     0.290 C 
ATOM      5  C   UNL     1       7.940 107.858 178.779  1.00  0.00     0.357 C 
ATOM      6  O   UNL     1       8.978 106.938 179.096  1.00  0.00    -0.329 OA
ENDROOT
BRANCH   1   7
ATOM      7  C   UNL     1       9.706 105.048 180.409  1.00  0.00     0.269 C 
BRANCH   7   8
ATOM      8  O   UNL     1       9.930 105.277 181.797  1.00  0.00    -0.459 OA
BRANCH   8   9
ATOM      9  C   UNL     1      10.525 106.452 182.277  1.00  0.00     0.338 C 
ATOM     10  O   UNL     1      11.771 106.626 182.147  1.00  0.00    -0.246 OA
BRANCH   9  11
ATOM     11  C   UNL     1       9.701 107.468 182.964  1.00  0.00     0.067 A 
ATOM     12  C   UNL     1      10.269 108.686 183.362  1.00  0.00     0.066 A 
ATOM     13  C   UNL     1       9.517 109.635 184.058  1.00  0.00     0.162 A 
ATOM     14  C   UNL     1       8.349 107.207 183.265  1.00  0.00     0.066 A 
ATOM     15  C   UNL     1       8.171 109.357 184.392  1.00  0.00     0.200 A 
ATOM     16  C   UNL     1       7.594 108.140 183.984  1.00  0.00     0.162 A 
BRANCH  13  17
ATOM     17  O   UNL     1      10.140 110.840 184.386  1.00  0.00    -0.504 OA
ATOM     18  H   UNL     1       9.659 111.722 184.430  1.00  0.00     0.293 HD
ENDBRANCH  13  17
BRANCH  15  19
ATOM     19  O   UNL     1       7.387 110.254 185.125  1.00  0.00    -0.502 OA
ATOM     20  H   UNL     1       6.490 110.605 184.826  1.00  0.00     0.293 HD
ENDBRANCH  15  19
BRANCH  16  21
ATOM     21  O   UNL     1       6.267 107.834 184.287  1.00  0.00    -0.504 OA
ATOM     22  H   UNL     1       6.021 107.101 184.942  1.00  0.00     0.293 HD
ENDBRANCH  16  21
ENDBRANCH   9  11
ENDBRANCH   8   9
ENDBRANCH   7   8
ENDBRANCH   1   7
BRANCH   2  23
ATOM     23  O   UNL     1       7.991 104.552 177.970  1.00  0.00    -0.452 OA
BRANCH  23  24
ATOM     24  C   UNL     1       7.860 103.226 177.535  1.00  0.00     0.338 C 
ATOM     25  O   UNL     1       8.434 102.301 178.165  1.00  0.00    -0.246 OA
BRANCH  24  26
ATOM     26  C   UNL     1       7.030 102.928 176.347  1.00  0.00     0.067 A 
ATOM     27  C   UNL     1       6.772 103.917 175.380  1.00  0.00     0.066 A 
ATOM     28  C   UNL     1       6.442 101.661 176.200  1.00  0.00     0.066 A 
ATOM     29  C   UNL     1       5.928 103.648 174.290  1.00  0.00     0.162 A 
ATOM     30  C   UNL     1       5.608 101.385 175.111  1.00  0.00     0.162 A 
ATOM     31  C   UNL     1       5.346 102.376 174.154  1.00  0.00     0.200 A 
BRANCH  29  32
ATOM     32  O   UNL     1       5.660 104.639 173.349  1.00  0.00    -0.504 OA
ATOM     33  H   UNL     1       5.435 105.587 173.628  1.00  0.00     0.293 HD
ENDBRANCH  29  32
BRANCH  30  34
ATOM     34  O   UNL     1       5.042 100.117 175.002  1.00  0.00    -0.504 OA
ATOM     35  H   UNL     1       4.549  99.816 174.168  1.00  0.00     0.293 HD
ENDBRANCH  30  34
BRANCH  31  36
ATOM     36  O   UNL     1       4.503 102.084 173.084  1.00  0.00    -0.502 OA
ATOM     37  H   UNL     1       4.777 101.463 172.333  1.00  0.00     0.293 HD
ENDBRANCH  31  36
ENDBRANCH  24  26
ENDBRANCH  23  24
ENDBRANCH   2  23
BRANCH   3  38
ATOM     38  O   UNL     1       5.248 105.252 178.194  1.00  0.00    -0.450 OA
BRANCH  38  39
ATOM     39  C   UNL     1       3.968 105.056 178.733  1.00  0.00     0.338 C 
ATOM     40  O   UNL     1       3.329 104.000 178.473  1.00  0.00    -0.246 OA
BRANCH  39  41
ATOM     41  C   UNL     1       3.372 106.075 179.624  1.00  0.00     0.067 A 
ATOM     42  C   UNL     1       2.280 106.847 179.190  1.00  0.00     0.066 A 
ATOM     43  C   UNL     1       3.888 106.280 180.914  1.00  0.00     0.066 A 
ATOM     44  C   UNL     1       1.715 107.812 180.027  1.00  0.00     0.162 A 
ATOM     45  C   UNL     1       3.333 107.245 181.760  1.00  0.00     0.162 A 
ATOM     46  C   UNL     1       2.240 108.030 181.311  1.00  0.00     0.200 A 
BRANCH  44  47
ATOM     47  O   UNL     1       0.623 108.560 179.583  1.00  0.00    -0.504 OA
ATOM     48  H   UNL     1       0.105 109.172 180.209  1.00  0.00     0.293 HD
ENDBRANCH  44  47
BRANCH  45  49
ATOM     49  O   UNL     1       3.898 107.393 183.027  1.00  0.00    -0.504 OA
ATOM     50  H   UNL     1       3.372 107.624 183.858  1.00  0.00     0.293 HD
ENDBRANCH  45  49
BRANCH  46  51
ATOM     51  O   UNL     1       1.652 109.028 182.094  1.00  0.00    -0.502 OA
ATOM     52  H   UNL     1       0.955 108.844 182.808  1.00  0.00     0.293 HD
ENDBRANCH  46  51
ENDBRANCH  39  41
ENDBRANCH  38  39
ENDBRANCH   3  38
BRANCH   5  53
ATOM     53  O   UNL     1       7.487 108.538 179.948  1.00  0.00    -0.428 OA
BRANCH  53  54
ATOM     54  C   UNL     1       7.994 109.774 180.364  1.00  0.00     0.340 C 
ATOM     55  O   UNL     1       9.142 110.148 180.011  1.00  0.00    -0.246 OA
BRANCH  54  56
ATOM     56  C   UNL     1       7.168 110.642 181.218  1.00  0.00     0.067 A 
ATOM     57  C   UNL     1       5.897 110.233 181.641  1.00  0.00     0.066 A 
ATOM     58  C   UNL     1       7.657 111.888 181.627  1.00  0.00     0.066 A 
ATOM     59  C   UNL     1       5.127 111.035 182.491  1.00  0.00     0.162 A 
ATOM     60  C   UNL     1       6.895 112.717 182.450  1.00  0.00     0.162 A 
ATOM     61  C   UNL     1       5.629 112.295 182.906  1.00  0.00     0.200 A 
BRANCH  59  62
ATOM     62  O   UNL     1       3.883 110.539 182.896  1.00  0.00    -0.504 OA
ATOM     63  H   UNL     1       3.299 110.979 183.598  1.00  0.00     0.293 HD
ENDBRANCH  59  62
BRANCH  60  64
ATOM     64  O   UNL     1       7.413 113.964 182.801  1.00  0.00    -0.504 OA
ATOM     65  H   UNL     1       7.272 114.364 183.723  1.00  0.00     0.293 HD
ENDBRANCH  60  64
BRANCH  61  66
ATOM     66  O   UNL     1       4.908 113.140 183.764  1.00  0.00    -0.502 OA
ATOM     67  H   UNL     1       3.978 112.941 184.107  1.00  0.00     0.293 HD
ENDBRANCH  61  66
ENDBRANCH  54  56
ENDBRANCH  53  54
ENDBRANCH   5  53
BRANCH   4  68
ATOM     68  O   UNL     1       5.707 108.136 177.922  1.00  0.00    -0.448 OA
BRANCH  68  69
ATOM     69  C   UNL     1       5.205 108.585 176.697  1.00  0.00     0.339 C 
ATOM     70  O   UNL     1       5.823 109.468 176.040  1.00  0.00    -0.246 OA
BRANCH  69  71
ATOM     71  C   UNL     1       3.936 108.028 176.183  1.00  0.00     0.067 A 
ATOM     72  C   UNL     1       2.721 108.693 176.390  1.00  0.00     0.066 A 
ATOM     73  C   UNL     1       3.933 106.820 175.468  1.00  0.00     0.066 A 
ATOM     74  C   UNL     1       1.521 108.173 175.882  1.00  0.00     0.162 A 
ATOM     75  C   UNL     1       2.745 106.294 174.954  1.00  0.00     0.162 A 
ATOM     76  C   UNL     1       1.532 106.969 175.158  1.00  0.00     0.200 A 
BRANCH  74  77
ATOM     77  O   UNL     1       0.320 108.853 176.084  1.00  0.00    -0.504 OA
ATOM     78  H   UNL     1      -0.171 109.303 175.318  1.00  0.00     0.293 HD
ENDBRANCH  74  77
BRANCH  75  79
ATOM     79  O   UNL     1       2.787 105.096 174.237  1.00  0.00    -0.504 OA
ATOM     80  H   UNL     1       3.657 104.669 173.951  1.00  0.00     0.293 HD
ENDBRANCH  75  79
BRANCH  76  81
ATOM     81  O   UNL     1       0.349 106.438 174.640  1.00  0.00    -0.502 OA
ATOM     82  H   UNL     1      -0.461 107.006 174.443  1.00  0.00     0.293 HD
ENDBRANCH  76  81
ENDBRANCH  69  71
ENDBRANCH  68  69
ENDBRANCH   4  68
TORSDOF 31
ENDMDL
MODEL 7
REMARK VINA RESULT:    -5.141      1.722      7.601
REMARK INTER + INTRA:         -20.036
REMARK INTER:                 -11.258
REMARK INTRA:                  -8.778
REMARK UNBOUND:                -7.833
REMARK SMILES O=C(OC[C@H]1O[C@H](OC(=O)c2cc(O)c(O)c(O)c2)[C@H](OC(=O)c2cc(O)c(O)c(O)c2)[C@@H](OC(=O)c2cc(O)c(O)c(O)c2)[C@H]1OC(=O)c1cc(O)c(O)c(O)c1)c1cc(O)c(O)c(O)c1
REMARK SMILES IDX 5 1 46 2 33 3 20 4 7 5 6 6 4 7 3 8 2 9 1 10 59 11 60 12
REMARK SMILES IDX 61 13 67 14 63 15 65 16 62 17 64 19 66 21 47 23 48 24 49 25
REMARK SMILES IDX 50 26 58 27 51 28 56 29 52 30 54 31 57 32 53 34 55 36 34 38
REMARK SMILES IDX 35 39 36 40 37 41 45 42 38 43 43 44 39 45 41 46 44 47 40 49
REMARK SMILES IDX 42 51 8 53 9 54 10 55 11 56 19 57 12 58 17 59 13 60 15 61
REMARK SMILES IDX 18 62 14 64 16 66 21 68 22 69 23 70 24 71 32 72 25 73 30 74
REMARK SMILES IDX 26 75 28 76 31 77 27 79 29 81
REMARK H PARENT 62 18 64 20 66 22 57 33 53 35 55 37 44 48 40 50 42 52 18 63
REMARK H PARENT 14 65 16 67 31 78 27 80 29 82
REMARK Flexibility Score: inf
ROOT
ATOM      1  C   UNL     1      10.107 104.702 179.780  1.00  0.00     0.205 C 
ATOM      2  C   UNL     1       9.277 105.829 180.421  1.00  0.00     0.254 C 
ATOM      3  C   UNL     1       8.168 106.202 179.431  1.00  0.00     0.267 C 
ATOM      4  C   UNL     1       7.325 104.956 179.104  1.00  0.00     0.290 C 
ATOM      5  C   UNL     1       8.254 103.808 178.646  1.00  0.00     0.357 C 
ATOM      6  O   UNL     1       9.296 103.552 179.579  1.00  0.00    -0.329 OA
ENDROOT
BRANCH   1   7
ATOM      7  C   UNL     1      11.328 104.316 180.636  1.00  0.00     0.269 C 
BRANCH   7   8
ATOM      8  O   UNL     1      12.345 105.301 180.484  1.00  0.00    -0.459 OA
BRANCH   8   9
ATOM      9  C   UNL     1      12.751 106.129 181.540  1.00  0.00     0.338 C 
ATOM     10  O   UNL     1      13.509 105.671 182.443  1.00  0.00    -0.246 OA
BRANCH   9  11
ATOM     11  C   UNL     1      12.268 107.523 181.613  1.00  0.00     0.067 A 
ATOM     12  C   UNL     1      11.754 108.153 180.472  1.00  0.00     0.066 A 
ATOM     13  C   UNL     1      11.341 109.487 180.513  1.00  0.00     0.162 A 
ATOM     14  C   UNL     1      12.358 108.247 182.819  1.00  0.00     0.066 A 
ATOM     15  C   UNL     1      11.467 110.224 181.714  1.00  0.00     0.200 A 
ATOM     16  C   UNL     1      11.972 109.591 182.865  1.00  0.00     0.162 A 
BRANCH  13  17
ATOM     17  O   UNL     1      10.804 110.034 179.346  1.00  0.00    -0.504 OA
ATOM     18  H   UNL     1       9.829 109.988 179.107  1.00  0.00     0.293 HD
ENDBRANCH  13  17
BRANCH  15  19
ATOM     19  O   UNL     1      11.109 111.574 181.796  1.00  0.00    -0.502 OA
ATOM     20  H   UNL     1      10.206 111.908 182.095  1.00  0.00     0.293 HD
ENDBRANCH  15  19
BRANCH  16  21
ATOM     21  O   UNL     1      12.102 110.283 184.069  1.00  0.00    -0.504 OA
ATOM     22  H   UNL     1      12.485 111.219 184.112  1.00  0.00     0.293 HD
ENDBRANCH  16  21
ENDBRANCH   9  11
ENDBRANCH   8   9
ENDBRANCH   7   8
ENDBRANCH   1   7
BRANCH   2  23
ATOM     23  O   UNL     1       8.680 105.375 181.637  1.00  0.00    -0.452 OA
BRANCH  23  24
ATOM     24  C   UNL     1       9.029 105.845 182.910  1.00  0.00     0.338 C 
ATOM     25  O   UNL     1       9.965 105.295 183.546  1.00  0.00    -0.246 OA
BRANCH  24  26
ATOM     26  C   UNL     1       8.303 106.999 183.485  1.00  0.00     0.067 A 
ATOM     27  C   UNL     1       6.898 107.007 183.551  1.00  0.00     0.066 A 
ATOM     28  C   UNL     1       9.013 108.130 183.922  1.00  0.00     0.066 A 
ATOM     29  C   UNL     1       6.211 108.134 184.034  1.00  0.00     0.162 A 
ATOM     30  C   UNL     1       8.334 109.250 184.413  1.00  0.00     0.162 A 
ATOM     31  C   UNL     1       6.932 109.258 184.469  1.00  0.00     0.200 A 
BRANCH  29  32
ATOM     32  O   UNL     1       4.819 108.142 184.076  1.00  0.00    -0.504 OA
ATOM     33  H   UNL     1       4.292 107.309 184.310  1.00  0.00     0.293 HD
ENDBRANCH  29  32
BRANCH  30  34
ATOM     34  O   UNL     1       9.074 110.352 184.836  1.00  0.00    -0.504 OA
ATOM     35  H   UNL     1       8.637 111.162 185.266  1.00  0.00     0.293 HD
ENDBRANCH  30  34
BRANCH  31  36
ATOM     36  O   UNL     1       6.276 110.389 184.951  1.00  0.00    -0.502 OA
ATOM     37  H   UNL     1       6.101 110.535 185.937  1.00  0.00     0.293 HD
ENDBRANCH  31  36
ENDBRANCH  24  26
ENDBRANCH  23  24
ENDBRANCH   2  23
BRANCH   3  38
ATOM     38  O   UNL     1       7.358 107.250 179.963  1.00  0.00    -0.450 OA
BRANCH  38  39
ATOM     39  C   UNL     1       7.528 108.594 179.603  1.00  0.00     0.338 C 
ATOM     40  O   UNL     1       8.140 108.890 178.541  1.00  0.00    -0.246 OA
BRANCH  39  41
ATOM     41  C   UNL     1       6.973 109.668 180.456  1.00  0.00     0.067 A 
ATOM     42  C   UNL     1       5.594 109.723 180.722  1.00  0.00     0.066 A 
ATOM     43  C   UNL     1       7.819 110.642 181.012  1.00  0.00     0.066 A 
ATOM     44  C   UNL     1       5.065 110.736 181.526  1.00  0.00     0.162 A 
ATOM     45  C   UNL     1       7.301 111.663 181.815  1.00  0.00     0.162 A 
ATOM     46  C   UNL     1       5.906 111.720 182.069  1.00  0.00     0.200 A 
BRANCH  44  47
ATOM     47  O   UNL     1       3.694 110.766 181.789  1.00  0.00    -0.504 OA
ATOM     48  H   UNL     1       3.188 111.644 181.881  1.00  0.00     0.293 HD
ENDBRANCH  44  47
BRANCH  45  49
ATOM     49  O   UNL     1       8.201 112.595 182.333  1.00  0.00    -0.504 OA
ATOM     50  H   UNL     1       7.979 113.248 183.070  1.00  0.00     0.293 HD
ENDBRANCH  45  49
BRANCH  46  51
ATOM     51  O   UNL     1       5.318 112.725 182.842  1.00  0.00    -0.502 OA
ATOM     52  H   UNL     1       4.499 113.249 182.555  1.00  0.00     0.293 HD
ENDBRANCH  46  51
ENDBRANCH  39  41
ENDBRANCH  38  39
ENDBRANCH   3  38
BRANCH   5  53
ATOM     53  O   UNL     1       8.785 104.083 177.351  1.00  0.00    -0.428 OA
BRANCH  53  54
ATOM     54  C   UNL     1       8.819 103.139 176.318  1.00  0.00     0.340 C 
ATOM     55  O   UNL     1       9.873 102.502 176.065  1.00  0.00    -0.246 OA
BRANCH  54  56
ATOM     56  C   UNL     1       7.603 102.892 175.527  1.00  0.00     0.067 A 
ATOM     57  C   UNL     1       7.079 103.883 174.687  1.00  0.00     0.066 A 
ATOM     58  C   UNL     1       6.965 101.649 175.600  1.00  0.00     0.066 A 
ATOM     59  C   UNL     1       5.949 103.635 173.897  1.00  0.00     0.162 A 
ATOM     60  C   UNL     1       5.820 101.390 174.844  1.00  0.00     0.162 A 
ATOM     61  C   UNL     1       5.308 102.372 173.972  1.00  0.00     0.200 A 
BRANCH  59  62
ATOM     62  O   UNL     1       5.510 104.665 173.059  1.00  0.00    -0.504 OA
ATOM     63  H   UNL     1       5.734 104.727 172.072  1.00  0.00     0.293 HD
ENDBRANCH  59  62
BRANCH  60  64
ATOM     64  O   UNL     1       5.201 100.147 174.980  1.00  0.00    -0.504 OA
ATOM     65  H   UNL     1       4.292 100.046 175.420  1.00  0.00     0.293 HD
ENDBRANCH  60  64
BRANCH  61  66
ATOM     66  O   UNL     1       4.178 102.062 173.201  1.00  0.00    -0.502 OA
ATOM     67  H   UNL     1       3.887 102.584 172.385  1.00  0.00     0.293 HD
ENDBRANCH  61  66
ENDBRANCH  54  56
ENDBRANCH  53  54
ENDBRANCH   5  53
BRANCH   4  68
ATOM     68  O   UNL     1       6.416 105.242 178.044  1.00  0.00    -0.448 OA
BRANCH  68  69
ATOM     69  C   UNL     1       5.033 105.054 178.121  1.00  0.00     0.339 C 
ATOM     70  O   UNL     1       4.485 104.095 177.510  1.00  0.00    -0.246 OA
BRANCH  69  71
ATOM     71  C   UNL     1       4.214 105.996 178.913  1.00  0.00     0.067 A 
ATOM     72  C   UNL     1       3.479 107.013 178.289  1.00  0.00     0.066 A 
ATOM     73  C   UNL     1       4.154 105.878 180.311  1.00  0.00     0.066 A 
ATOM     74  C   UNL     1       2.686 107.891 179.041  1.00  0.00     0.162 A 
ATOM     75  C   UNL     1       3.364 106.746 181.070  1.00  0.00     0.162 A 
ATOM     76  C   UNL     1       2.625 107.756 180.438  1.00  0.00     0.200 A 
BRANCH  74  77
ATOM     77  O   UNL     1       1.949 108.891 178.405  1.00  0.00    -0.504 OA
ATOM     78  H   UNL     1       0.989 108.738 178.114  1.00  0.00     0.293 HD
ENDBRANCH  74  77
BRANCH  75  79
ATOM     79  O   UNL     1       3.323 106.586 182.456  1.00  0.00    -0.504 OA
ATOM     80  H   UNL     1       2.599 106.052 182.918  1.00  0.00     0.293 HD
ENDBRANCH  75  79
BRANCH  76  81
ATOM     81  O   UNL     1       1.837 108.619 181.204  1.00  0.00    -0.502 OA
ATOM     82  H   UNL     1       2.028 108.809 182.176  1.00  0.00     0.293 HD
ENDBRANCH  76  81
ENDBRANCH  69  71
ENDBRANCH  68  69
ENDBRANCH   4  68
TORSDOF 31
ENDMDL
MODEL 8
REMARK VINA RESULT:    -5.120      2.058      7.715
REMARK INTER + INTRA:         -19.988
REMARK INTER:                 -11.899
REMARK INTRA:                  -8.089
REMARK UNBOUND:                -7.833
REMARK SMILES O=C(OC[C@H]1O[C@H](OC(=O)c2cc(O)c(O)c(O)c2)[C@H](OC(=O)c2cc(O)c(O)c(O)c2)[C@@H](OC(=O)c2cc(O)c(O)c(O)c2)[C@H]1OC(=O)c1cc(O)c(O)c(O)c1)c1cc(O)c(O)c(O)c1
REMARK SMILES IDX 5 1 46 2 33 3 20 4 7 5 6 6 4 7 3 8 2 9 1 10 59 11 60 12
REMARK SMILES IDX 61 13 67 14 63 15 65 16 62 17 64 19 66 21 47 23 48 24 49 25
REMARK SMILES IDX 50 26 58 27 51 28 56 29 52 30 54 31 57 32 53 34 55 36 34 38
REMARK SMILES IDX 35 39 36 40 37 41 45 42 38 43 43 44 39 45 41 46 44 47 40 49
REMARK SMILES IDX 42 51 8 53 9 54 10 55 11 56 19 57 12 58 17 59 13 60 15 61
REMARK SMILES IDX 18 62 14 64 16 66 21 68 22 69 23 70 24 71 32 72 25 73 30 74
REMARK SMILES IDX 26 75 28 76 31 77 27 79 29 81
REMARK H PARENT 62 18 64 20 66 22 57 33 53 35 55 37 44 48 40 50 42 52 18 63
REMARK H PARENT 14 65 16 67 31 78 27 80 29 82
REMARK Flexibility Score: inf
ROOT
ATOM      1  C   UNL     1       4.061 107.334 180.280  1.00  0.00     0.205 C 
ATOM      2  C   UNL     1       4.710 106.480 179.176  1.00  0.00     0.254 C 
ATOM      3  C   UNL     1       6.224 106.490 179.417  1.00  0.00     0.267 C 
ATOM      4  C   UNL     1       6.525 105.962 180.832  1.00  0.00     0.290 C 
ATOM      5  C   UNL     1       5.691 106.748 181.868  1.00  0.00     0.357 C 
ATOM      6  O   UNL     1       4.304 106.752 181.554  1.00  0.00    -0.329 OA
ENDROOT
BRANCH   1   7
ATOM      7  C   UNL     1       2.543 107.495 180.079  1.00  0.00     0.269 C 
BRANCH   7   8
ATOM      8  O   UNL     1       2.299 108.282 178.917  1.00  0.00    -0.459 OA
BRANCH   8   9
ATOM      9  C   UNL     1       1.397 107.886 177.920  1.00  0.00     0.338 C 
ATOM     10  O   UNL     1       0.165 107.786 178.188  1.00  0.00    -0.246 OA
BRANCH   9  11
ATOM     11  C   UNL     1       1.890 107.555 176.567  1.00  0.00     0.067 A 
ATOM     12  C   UNL     1       3.010 108.214 176.043  1.00  0.00     0.066 A 
ATOM     13  C   UNL     1       3.457 107.950 174.746  1.00  0.00     0.162 A 
ATOM     14  C   UNL     1       1.215 106.606 175.773  1.00  0.00     0.066 A 
ATOM     15  C   UNL     1       2.757 107.024 173.937  1.00  0.00     0.200 A 
ATOM     16  C   UNL     1       1.639 106.352 174.464  1.00  0.00     0.162 A 
BRANCH  13  17
ATOM     17  O   UNL     1       4.602 108.617 174.308  1.00  0.00    -0.504 OA
ATOM     18  H   UNL     1       5.402 108.152 173.914  1.00  0.00     0.293 HD
ENDBRANCH  13  17
BRANCH  15  19
ATOM     19  O   UNL     1       3.137 106.755 172.619  1.00  0.00    -0.502 OA
ATOM     20  H   UNL     1       2.599 107.013 171.805  1.00  0.00     0.293 HD
ENDBRANCH  15  19
BRANCH  16  21
ATOM     21  O   UNL     1       0.929 105.425 173.700  1.00  0.00    -0.504 OA
ATOM     22  H   UNL     1       0.768 104.477 174.018  1.00  0.00     0.293 HD
ENDBRANCH  16  21
ENDBRANCH   9  11
ENDBRANCH   8   9
ENDBRANCH   7   8
ENDBRANCH   1   7
BRANCH   2  23
ATOM     23  O   UNL     1       4.238 105.134 179.248  1.00  0.00    -0.452 OA
BRANCH  23  24
ATOM     24  C   UNL     1       3.544 104.486 178.217  1.00  0.00     0.338 C 
ATOM     25  O   UNL     1       2.288 104.435 178.243  1.00  0.00    -0.246 OA
BRANCH  24  26
ATOM     26  C   UNL     1       4.300 103.885 177.096  1.00  0.00     0.067 A 
ATOM     27  C   UNL     1       3.989 104.206 175.762  1.00  0.00     0.066 A 
ATOM     28  C   UNL     1       5.307 102.939 177.353  1.00  0.00     0.066 A 
ATOM     29  C   UNL     1       4.664 103.580 174.700  1.00  0.00     0.162 A 
ATOM     30  C   UNL     1       5.988 102.321 176.300  1.00  0.00     0.162 A 
ATOM     31  C   UNL     1       5.669 102.636 174.971  1.00  0.00     0.200 A 
BRANCH  29  32
ATOM     32  O   UNL     1       4.335 103.887 173.383  1.00  0.00    -0.504 OA
ATOM     33  H   UNL     1       5.005 104.318 172.757  1.00  0.00     0.293 HD
ENDBRANCH  29  32
BRANCH  30  34
ATOM     34  O   UNL     1       6.978 101.387 176.596  1.00  0.00    -0.504 OA
ATOM     35  H   UNL     1       7.329 101.253 177.540  1.00  0.00     0.293 HD
ENDBRANCH  30  34
BRANCH  31  36
ATOM     36  O   UNL     1       6.353 102.000 173.937  1.00  0.00    -0.502 OA
ATOM     37  H   UNL     1       7.119 102.439 173.443  1.00  0.00     0.293 HD
ENDBRANCH  31  36
ENDBRANCH  24  26
ENDBRANCH  23  24
ENDBRANCH   2  23
BRANCH   3  38
ATOM     38  O   UNL     1       6.892 105.716 178.422  1.00  0.00    -0.450 OA
BRANCH  38  39
ATOM     39  C   UNL     1       7.846 106.263 177.553  1.00  0.00     0.338 C 
ATOM     40  O   UNL     1       8.671 107.118 177.978  1.00  0.00    -0.246 OA
BRANCH  39  41
ATOM     41  C   UNL     1       7.903 105.826 176.141  1.00  0.00     0.067 A 
ATOM     42  C   UNL     1       7.010 106.360 175.195  1.00  0.00     0.066 A 
ATOM     43  C   UNL     1       8.852 104.877 175.729  1.00  0.00     0.066 A 
ATOM     44  C   UNL     1       7.059 105.950 173.861  1.00  0.00     0.162 A 
ATOM     45  C   UNL     1       8.908 104.454 174.397  1.00  0.00     0.162 A 
ATOM     46  C   UNL     1       7.996 104.988 173.450  1.00  0.00     0.200 A 
BRANCH  44  47
ATOM     47  O   UNL     1       6.173 106.502 172.934  1.00  0.00    -0.504 OA
ATOM     48  H   UNL     1       5.466 105.937 172.469  1.00  0.00     0.293 HD
ENDBRANCH  44  47
BRANCH  45  49
ATOM     49  O   UNL     1       9.877 103.508 174.061  1.00  0.00    -0.504 OA
ATOM     50  H   UNL     1       9.691 102.521 173.957  1.00  0.00     0.293 HD
ENDBRANCH  45  49
BRANCH  46  51
ATOM     51  O   UNL     1       7.981 104.595 172.109  1.00  0.00    -0.502 OA
ATOM     52  H   UNL     1       8.619 103.912 171.716  1.00  0.00     0.293 HD
ENDBRANCH  46  51
ENDBRANCH  39  41
ENDBRANCH  38  39
ENDBRANCH   3  38
BRANCH   5  53
ATOM     53  O   UNL     1       6.187 108.080 182.001  1.00  0.00    -0.428 OA
BRANCH  53  54
ATOM     54  C   UNL     1       6.247 108.760 183.222  1.00  0.00     0.340 C 
ATOM     55  O   UNL     1       7.116 108.462 184.081  1.00  0.00    -0.246 OA
BRANCH  54  56
ATOM     56  C   UNL     1       5.283 109.838 183.495  1.00  0.00     0.067 A 
ATOM     57  C   UNL     1       3.912 109.646 183.283  1.00  0.00     0.066 A 
ATOM     58  C   UNL     1       5.735 111.069 183.986  1.00  0.00     0.066 A 
ATOM     59  C   UNL     1       2.988 110.654 183.585  1.00  0.00     0.162 A 
ATOM     60  C   UNL     1       4.834 112.097 184.267  1.00  0.00     0.162 A 
ATOM     61  C   UNL     1       3.449 111.898 184.086  1.00  0.00     0.200 A 
BRANCH  59  62
ATOM     62  O   UNL     1       1.634 110.371 183.377  1.00  0.00    -0.504 OA
ATOM     63  H   UNL     1       0.920 110.459 184.092  1.00  0.00     0.293 HD
ENDBRANCH  59  62
BRANCH  60  64
ATOM     64  O   UNL     1       5.338 113.316 184.721  1.00  0.00    -0.504 OA
ATOM     65  H   UNL     1       5.202 113.632 185.676  1.00  0.00     0.293 HD
ENDBRANCH  60  64
BRANCH  61  66
ATOM     66  O   UNL     1       2.572 112.942 184.415  1.00  0.00    -0.502 OA
ATOM     67  H   UNL     1       1.569 112.896 184.304  1.00  0.00     0.293 HD
ENDBRANCH  61  66
ENDBRANCH  54  56
ENDBRANCH  53  54
ENDBRANCH   5  53
BRANCH   4  68
ATOM     68  O   UNL     1       7.906 106.145 181.141  1.00  0.00    -0.448 OA
BRANCH  68  69
ATOM     69  C   UNL     1       8.676 105.233 181.868  1.00  0.00     0.339 C 
ATOM     70  O   UNL     1       9.202 105.574 182.964  1.00  0.00    -0.246 OA
BRANCH  69  71
ATOM     71  C   UNL     1       8.885 103.870 181.336  1.00  0.00     0.067 A 
ATOM     72  C   UNL     1       8.893 102.757 182.187  1.00  0.00     0.066 A 
ATOM     73  C   UNL     1       9.071 103.670 179.958  1.00  0.00     0.066 A 
ATOM     74  C   UNL     1       9.068 101.463 181.675  1.00  0.00     0.162 A 
ATOM     75  C   UNL     1       9.244 102.385 179.437  1.00  0.00     0.162 A 
ATOM     76  C   UNL     1       9.242 101.274 180.294  1.00  0.00     0.200 A 
BRANCH  74  77
ATOM     77  O   UNL     1       9.061 100.362 182.533  1.00  0.00    -0.504 OA
ATOM     78  H   UNL     1       9.387 100.434 183.491  1.00  0.00     0.293 HD
ENDBRANCH  74  77
BRANCH  75  79
ATOM     79  O   UNL     1       9.413 102.228 178.061  1.00  0.00    -0.504 OA
ATOM     80  H   UNL     1       8.776 101.684 177.496  1.00  0.00     0.293 HD
ENDBRANCH  75  79
BRANCH  76  81
ATOM     81  O   UNL     1       9.415  99.993 179.766  1.00  0.00    -0.502 OA
ATOM     82  H   UNL     1      10.323  99.617 179.540  1.00  0.00     0.293 HD
ENDBRANCH  76  81
ENDBRANCH  69  71
ENDBRANCH  68  69
ENDBRANCH   4  68
TORSDOF 31
ENDMDL
MODEL 9
REMARK VINA RESULT:    -5.059      1.958      8.785
REMARK INTER + INTRA:         -19.842
REMARK INTER:                 -11.779
REMARK INTRA:                  -8.063
REMARK UNBOUND:                -7.833
REMARK SMILES O=C(OC[C@H]1O[C@H](OC(=O)c2cc(O)c(O)c(O)c2)[C@H](OC(=O)c2cc(O)c(O)c(O)c2)[C@@H](OC(=O)c2cc(O)c(O)c(O)c2)[C@H]1OC(=O)c1cc(O)c(O)c(O)c1)c1cc(O)c(O)c(O)c1
REMARK SMILES IDX 5 1 46 2 33 3 20 4 7 5 6 6 4 7 3 8 2 9 1 10 59 11 60 12
REMARK SMILES IDX 61 13 67 14 63 15 65 16 62 17 64 19 66 21 47 23 48 24 49 25
REMARK SMILES IDX 50 26 58 27 51 28 56 29 52 30 54 31 57 32 53 34 55 36 34 38
REMARK SMILES IDX 35 39 36 40 37 41 45 42 38 43 43 44 39 45 41 46 44 47 40 49
REMARK SMILES IDX 42 51 8 53 9 54 10 55 11 56 19 57 12 58 17 59 13 60 15 61
REMARK SMILES IDX 18 62 14 64 16 66 21 68 22 69 23 70 24 71 32 72 25 73 30 74
REMARK SMILES IDX 26 75 28 76 31 77 27 79 29 81
REMARK H PARENT 62 18 64 20 66 22 57 33 53 35 55 37 44 48 40 50 42 52 18 63
REMARK H PARENT 14 65 16 67 31 78 27 80 29 82
REMARK Flexibility Score: inf
ROOT
ATOM      1  C   UNL     1       6.057 107.191 175.543  1.00  0.00     0.205 C 
ATOM      2  C   UNL     1       5.624 107.632 176.952  1.00  0.00     0.254 C 
ATOM      3  C   UNL     1       6.637 107.053 177.946  1.00  0.00     0.267 C 
ATOM      4  C   UNL     1       8.053 107.536 177.582  1.00  0.00     0.290 C 
ATOM      5  C   UNL     1       8.341 107.224 176.095  1.00  0.00     0.357 C 
ATOM      6  O   UNL     1       7.333 107.735 175.231  1.00  0.00    -0.329 OA
ENDROOT
BRANCH   1   7
ATOM      7  C   UNL     1       5.048 107.617 174.460  1.00  0.00     0.269 C 
BRANCH   7   8
ATOM      8  O   UNL     1       4.530 106.460 173.812  1.00  0.00    -0.459 OA
BRANCH   8   9
ATOM      9  C   UNL     1       3.290 105.902 174.152  1.00  0.00     0.338 C 
ATOM     10  O   UNL     1       2.381 105.806 173.278  1.00  0.00    -0.246 OA
BRANCH   9  11
ATOM     11  C   UNL     1       3.036 105.457 175.538  1.00  0.00     0.067 A 
ATOM     12  C   UNL     1       1.969 105.997 176.269  1.00  0.00     0.066 A 
ATOM     13  C   UNL     1       1.747 105.625 177.597  1.00  0.00     0.162 A 
ATOM     14  C   UNL     1       3.889 104.520 176.155  1.00  0.00     0.066 A 
ATOM     15  C   UNL     1       2.626 104.712 178.226  1.00  0.00     0.200 A 
ATOM     16  C   UNL     1       3.692 104.160 177.493  1.00  0.00     0.162 A 
BRANCH  13  17
ATOM     17  O   UNL     1       0.641 106.175 178.246  1.00  0.00    -0.504 OA
ATOM     18  H   UNL     1      -0.104 106.654 177.769  1.00  0.00     0.293 HD
ENDBRANCH  13  17
BRANCH  15  19
ATOM     19  O   UNL     1       2.474 104.341 179.566  1.00  0.00    -0.502 OA
ATOM     20  H   UNL     1       3.200 103.925 180.129  1.00  0.00     0.293 HD
ENDBRANCH  15  19
BRANCH  16  21
ATOM     21  O   UNL     1       4.573 103.250 178.077  1.00  0.00    -0.504 OA
ATOM     22  H   UNL     1       5.576 103.318 177.953  1.00  0.00     0.293 HD
ENDBRANCH  16  21
ENDBRANCH   9  11
ENDBRANCH   8   9
ENDBRANCH   7   8
ENDBRANCH   1   7
BRANCH   2  23
ATOM     23  O   UNL     1       5.638 109.056 177.052  1.00  0.00    -0.452 OA
BRANCH  23  24
ATOM     24  C   UNL     1       4.528 109.832 177.414  1.00  0.00     0.338 C 
ATOM     25  O   UNL     1       3.390 109.548 176.957  1.00  0.00    -0.246 OA
BRANCH  24  26
ATOM     26  C   UNL     1       4.704 110.967 178.346  1.00  0.00     0.067 A 
ATOM     27  C   UNL     1       4.852 110.749 179.728  1.00  0.00     0.066 A 
ATOM     28  C   UNL     1       4.671 112.286 177.863  1.00  0.00     0.066 A 
ATOM     29  C   UNL     1       4.950 111.834 180.616  1.00  0.00     0.162 A 
ATOM     30  C   UNL     1       4.778 113.368 178.743  1.00  0.00     0.162 A 
ATOM     31  C   UNL     1       4.916 113.148 180.121  1.00  0.00     0.200 A 
BRANCH  29  32
ATOM     32  O   UNL     1       5.074 111.610 181.985  1.00  0.00    -0.504 OA
ATOM     33  H   UNL     1       5.339 112.353 182.621  1.00  0.00     0.293 HD
ENDBRANCH  29  32
BRANCH  30  34
ATOM     34  O   UNL     1       4.738 114.661 178.225  1.00  0.00    -0.504 OA
ATOM     35  H   UNL     1       5.385 114.975 177.508  1.00  0.00     0.293 HD
ENDBRANCH  30  34
BRANCH  31  36
ATOM     36  O   UNL     1       5.009 114.241 180.980  1.00  0.00    -0.502 OA
ATOM     37  H   UNL     1       4.449 114.320 181.819  1.00  0.00     0.293 HD
ENDBRANCH  31  36
ENDBRANCH  24  26
ENDBRANCH  23  24
ENDBRANCH   2  23
BRANCH   3  38
ATOM     38  O   UNL     1       6.293 107.423 179.281  1.00  0.00    -0.450 OA
BRANCH  38  39
ATOM     39  C   UNL     1       5.336 106.728 180.034  1.00  0.00     0.338 C 
ATOM     40  O   UNL     1       5.365 105.468 180.083  1.00  0.00    -0.246 OA
BRANCH  39  41
ATOM     41  C   UNL     1       4.303 107.470 180.791  1.00  0.00     0.067 A 
ATOM     42  C   UNL     1       4.611 108.048 182.034  1.00  0.00     0.066 A 
ATOM     43  C   UNL     1       3.005 107.607 180.273  1.00  0.00     0.066 A 
ATOM     44  C   UNL     1       3.639 108.748 182.753  1.00  0.00     0.162 A 
ATOM     45  C   UNL     1       2.022 108.302 180.984  1.00  0.00     0.162 A 
ATOM     46  C   UNL     1       2.336 108.873 182.245  1.00  0.00     0.200 A 
BRANCH  44  47
ATOM     47  O   UNL     1       3.968 109.327 183.980  1.00  0.00    -0.504 OA
ATOM     48  H   UNL     1       4.203 110.313 184.059  1.00  0.00     0.293 HD
ENDBRANCH  44  47
BRANCH  45  49
ATOM     49  O   UNL     1       0.755 108.398 180.407  1.00  0.00    -0.504 OA
ATOM     50  H   UNL     1       0.395 109.232 179.966  1.00  0.00     0.293 HD
ENDBRANCH  45  49
BRANCH  46  51
ATOM     51  O   UNL     1       1.398 109.560 183.019  1.00  0.00    -0.502 OA
ATOM     52  H   UNL     1       1.616 110.389 183.562  1.00  0.00     0.293 HD
ENDBRANCH  46  51
ENDBRANCH  39  41
ENDBRANCH  38  39
ENDBRANCH   3  38
BRANCH   5  53
ATOM     53  O   UNL     1       8.512 105.820 175.905  1.00  0.00    -0.428 OA
BRANCH  53  54
ATOM     54  C   UNL     1       8.247 105.171 174.694  1.00  0.00     0.340 C 
ATOM     55  O   UNL     1       8.741 105.593 173.618  1.00  0.00    -0.246 OA
BRANCH  54  56
ATOM     56  C   UNL     1       7.385 103.978 174.690  1.00  0.00     0.067 A 
ATOM     57  C   UNL     1       6.607 103.658 173.569  1.00  0.00     0.066 A 
ATOM     58  C   UNL     1       7.348 103.140 175.810  1.00  0.00     0.066 A 
ATOM     59  C   UNL     1       5.822 102.499 173.543  1.00  0.00     0.162 A 
ATOM     60  C   UNL     1       6.550 101.995 175.817  1.00  0.00     0.162 A 
ATOM     61  C   UNL     1       5.791 101.651 174.680  1.00  0.00     0.200 A 
BRANCH  59  62
ATOM     62  O   UNL     1       5.102 102.234 172.374  1.00  0.00    -0.504 OA
ATOM     63  H   UNL     1       4.972 102.904 171.624  1.00  0.00     0.293 HD
ENDBRANCH  59  62
BRANCH  60  64
ATOM     64  O   UNL     1       6.520 101.213 176.972  1.00  0.00    -0.504 OA
ATOM     65  H   UNL     1       5.728 101.223 177.607  1.00  0.00     0.293 HD
ENDBRANCH  60  64
BRANCH  61  66
ATOM     66  O   UNL     1       5.030 100.473 174.711  1.00  0.00    -0.502 OA
ATOM     67  H   UNL     1       4.116 100.376 174.290  1.00  0.00     0.293 HD
ENDBRANCH  61  66
ENDBRANCH  54  56
ENDBRANCH  53  54
ENDBRANCH   5  53
BRANCH   4  68
ATOM     68  O   UNL     1       9.024 106.856 178.375  1.00  0.00    -0.448 OA
BRANCH  68  69
ATOM     69  C   UNL     1       9.761 107.456 179.400  1.00  0.00     0.339 C 
ATOM     70  O   UNL     1      10.991 107.697 179.244  1.00  0.00    -0.246 OA
BRANCH  69  71
ATOM     71  C   UNL     1       9.094 107.791 180.676  1.00  0.00     0.067 A 
ATOM     72  C   UNL     1       8.759 109.115 180.987  1.00  0.00     0.066 A 
ATOM     73  C   UNL     1       8.777 106.778 181.595  1.00  0.00     0.066 A 
ATOM     74  C   UNL     1       8.106 109.427 182.189  1.00  0.00     0.162 A 
ATOM     75  C   UNL     1       8.123 107.077 182.794  1.00  0.00     0.162 A 
ATOM     76  C   UNL     1       7.783 108.404 183.096  1.00  0.00     0.200 A 
BRANCH  74  77
ATOM     77  O   UNL     1       7.766 110.748 182.481  1.00  0.00    -0.504 OA
ATOM     78  H   UNL     1       8.096 111.207 183.324  1.00  0.00     0.293 HD
ENDBRANCH  74  77
BRANCH  75  79
ATOM     79  O   UNL     1       7.815 106.038 183.674  1.00  0.00    -0.504 OA
ATOM     80  H   UNL     1       7.879 106.144 184.678  1.00  0.00     0.293 HD
ENDBRANCH  75  79
BRANCH  76  81
ATOM     81  O   UNL     1       7.130 108.694 184.295  1.00  0.00    -0.502 OA
ATOM     82  H   UNL     1       6.149 108.925 184.336  1.00  0.00     0.293 HD
ENDBRANCH  76  81
ENDBRANCH  69  71
ENDBRANCH  68  69
ENDBRANCH   4  68
TORSDOF 31
ENDMDL
