MODEL 1
REMARK VINA RESULT:    -2.109      0.000      0.000
REMARK INTER + INTRA:          -2.772
REMARK INTER:                  -2.849
REMARK INTRA:                   0.077
REMARK UNBOUND:                 0.077
REMARK SMILES CC(=O)CCC=C(C)CCC=C(C)C
REMARK SMILES IDX 7 1 6 2 8 3 9 4 10 5 11 6 13 7 12 8 14 9 5 10 4 11 2 12 3 13
REMARK SMILES IDX 1 14
REMARK H PARENT
REMARK Flexibility Score: inf
ROOT
ATOM      1  C   UNL     1      -3.435   5.491   6.925  1.00  0.00    -0.077 C 
ATOM      2  C   UNL     1      -2.794   6.272   7.824  1.00  0.00    -0.028 C 
ATOM      3  C   UNL     1      -3.824   6.103   5.602  1.00  0.00     0.039 C 
ENDROOT
BRANCH   1   4
ATOM      4  C   UNL     1      -3.770   4.032   7.178  1.00  0.00     0.034 C 
BRANCH   4   5
ATOM      5  C   UNL     1      -3.865   3.718   8.678  1.00  0.00     0.032 C 
BRANCH   5   6
ATOM      6  C   UNL     1      -5.262   3.300   9.073  1.00  0.00    -0.028 C 
ATOM      7  C   UNL     1      -5.807   5.507  10.125  1.00  0.00     0.039 C 
ATOM      8  C   UNL     1      -6.155   4.102   9.694  1.00  0.00    -0.080 C 
ATOM      9  C   UNL     1      -7.532   3.559   9.975  1.00  0.00     0.039 C 
ENDBRANCH   5   6
ENDBRANCH   4   5
ENDBRANCH   1   4
BRANCH   2  10
ATOM     10  C   UNL     1      -2.392   5.854   9.220  1.00  0.00     0.035 C 
BRANCH  10  11
ATOM     11  C   UNL     1      -2.193   7.076  10.124  1.00  0.00     0.079 C 
BRANCH  11  12
ATOM     12  C   UNL     1      -0.848   7.717   9.908  1.00  0.00     0.130 C 
ATOM     13  O   UNL     1       0.143   7.015   9.769  1.00  0.00    -0.300 OA
ATOM     14  C   UNL     1      -0.719   9.207   9.836  1.00  0.00     0.087 C 
ENDBRANCH  11  12
ENDBRANCH  10  11
ENDBRANCH   2  10
TORSDOF 6
ENDMDL
MODEL 2
REMARK VINA RESULT:    -1.486      1.051      3.514
REMARK INTER + INTRA:          -1.931
REMARK INTER:                  -2.947
REMARK INTRA:                   1.016
REMARK UNBOUND:                 0.077
REMARK SMILES CC(=O)CCC=C(C)CCC=C(C)C
REMARK SMILES IDX 7 1 6 2 8 3 9 4 10 5 11 6 13 7 12 8 14 9 5 10 4 11 2 12 3 13
REMARK SMILES IDX 1 14
REMARK H PARENT
REMARK Flexibility Score: inf
ROOT
ATOM      1  C   UNL     1      -5.719   4.226   9.739  1.00  0.00    -0.077 C 
ATOM      2  C   UNL     1      -5.174   5.427  10.043  1.00  0.00    -0.028 C 
ATOM      3  C   UNL     1      -7.219   4.089   9.801  1.00  0.00     0.039 C 
ENDROOT
BRANCH   1   4
ATOM      4  C   UNL     1      -4.894   3.019   9.330  1.00  0.00     0.034 C 
BRANCH   4   5
ATOM      5  C   UNL     1      -4.263   3.200   7.941  1.00  0.00     0.032 C 
BRANCH   5   6
ATOM      6  C   UNL     1      -3.882   4.639   7.686  1.00  0.00    -0.028 C 
ATOM      7  C   UNL     1      -3.100   4.193   5.348  1.00  0.00     0.039 C 
ATOM      8  C   UNL     1      -3.388   5.105   6.518  1.00  0.00    -0.080 C 
ATOM      9  C   UNL     1      -3.105   6.580   6.397  1.00  0.00     0.039 C 
ENDBRANCH   5   6
ENDBRANCH   4   5
ENDBRANCH   1   4
BRANCH   2  10
ATOM     10  C   UNL     1      -3.695   5.730  10.103  1.00  0.00     0.035 C 
BRANCH  10  11
ATOM     11  C   UNL     1      -3.442   7.242  10.081  1.00  0.00     0.079 C 
BRANCH  11  12
ATOM     12  C   UNL     1      -1.977   7.559   9.943  1.00  0.00     0.130 C 
ATOM     13  O   UNL     1      -1.187   6.670   9.665  1.00  0.00    -0.300 OA
ATOM     14  C   UNL     1      -1.483   8.962  10.120  1.00  0.00     0.087 C 
ENDBRANCH  11  12
ENDBRANCH  10  11
ENDBRANCH   2  10
TORSDOF 6
ENDMDL
MODEL 3
REMARK VINA RESULT:    -0.987      2.301      5.976
REMARK INTER + INTRA:          -1.256
REMARK INTER:                  -0.857
REMARK INTRA:                  -0.399
REMARK UNBOUND:                 0.077
REMARK SMILES CC(=O)CCC=C(C)CCC=C(C)C
REMARK SMILES IDX 7 1 6 2 8 3 9 4 10 5 11 6 13 7 12 8 14 9 5 10 4 11 2 12 3 13
REMARK SMILES IDX 1 14
REMARK H PARENT
REMARK Flexibility Score: inf
ROOT
ATOM      1  C   UNL     1      -4.118   6.251  10.021  1.00  0.00    -0.077 C 
ATOM      2  C   UNL     1      -5.016   5.243  10.105  1.00  0.00    -0.028 C 
ATOM      3  C   UNL     1      -4.627   7.667  10.125  1.00  0.00     0.039 C 
ENDROOT
BRANCH   1   4
ATOM      4  C   UNL     1      -2.627   6.025   9.840  1.00  0.00     0.034 C 
BRANCH   4   5
ATOM      5  C   UNL     1      -1.844   7.346   9.824  1.00  0.00     0.032 C 
BRANCH   5   6
ATOM      6  C   UNL     1      -0.354   7.111   9.907  1.00  0.00    -0.028 C 
ATOM      7  C   UNL     1       0.198   9.554   9.943  1.00  0.00     0.039 C 
ATOM      8  C   UNL     1       0.572   8.091   9.992  1.00  0.00    -0.080 C 
ATOM      9  C   UNL     1       2.021   7.699  10.124  1.00  0.00     0.039 C 
ENDBRANCH   5   6
ENDBRANCH   4   5
ENDBRANCH   1   4
BRANCH   2  10
ATOM     10  C   UNL     1      -4.702   3.773   9.954  1.00  0.00     0.035 C 
BRANCH  10  11
ATOM     11  C   UNL     1      -5.274   3.220   8.643  1.00  0.00     0.079 C 
BRANCH  11  12
ATOM     12  C   UNL     1      -4.222   3.130   7.570  1.00  0.00     0.130 C 
ATOM     13  O   UNL     1      -3.920   2.041   7.106  1.00  0.00    -0.300 OA
ATOM     14  C   UNL     1      -3.561   4.369   7.049  1.00  0.00     0.087 C 
ENDBRANCH  11  12
ENDBRANCH  10  11
ENDBRANCH   2  10
TORSDOF 6
ENDMDL
MODEL 4
REMARK VINA RESULT:    -0.957      1.794      4.981
REMARK INTER + INTRA:          -1.215
REMARK INTER:                  -1.542
REMARK INTRA:                   0.327
REMARK UNBOUND:                 0.077
REMARK SMILES CC(=O)CCC=C(C)CCC=C(C)C
REMARK SMILES IDX 7 1 6 2 8 3 9 4 10 5 11 6 13 7 12 8 14 9 5 10 4 11 2 12 3 13
REMARK SMILES IDX 1 14
REMARK H PARENT
REMARK Flexibility Score: inf
ROOT
ATOM      1  C   UNL     1      -6.001   4.299   9.732  1.00  0.00    -0.077 C 
ATOM      2  C   UNL     1      -5.223   3.400   9.086  1.00  0.00    -0.028 C 
ATOM      3  C   UNL     1      -7.399   3.883  10.115  1.00  0.00     0.039 C 
ENDROOT
BRANCH   1   4
ATOM      4  C   UNL     1      -5.531   5.695  10.100  1.00  0.00     0.034 C 
BRANCH   4   5
ATOM      5  C   UNL     1      -4.003   5.826  10.015  1.00  0.00     0.032 C 
BRANCH   5   6
ATOM      6  C   UNL     1      -3.561   7.266  10.125  1.00  0.00    -0.028 C 
ATOM      7  C   UNL     1      -1.201   6.768   9.448  1.00  0.00     0.039 C 
ATOM      8  C   UNL     1      -2.315   7.708   9.844  1.00  0.00    -0.080 C 
ATOM      9  C   UNL     1      -2.038   9.186   9.949  1.00  0.00     0.039 C 
ENDBRANCH   5   6
ENDBRANCH   4   5
ENDBRANCH   1   4
BRANCH   2  10
ATOM     10  C   UNL     1      -3.828   3.661   8.566  1.00  0.00     0.035 C 
BRANCH  10  11
ATOM     11  C   UNL     1      -3.745   3.395   7.058  1.00  0.00     0.079 C 
BRANCH  11  12
ATOM     12  C   UNL     1      -3.316   4.622   6.299  1.00  0.00     0.130 C 
ATOM     13  O   UNL     1      -2.644   4.505   5.286  1.00  0.00    -0.300 OA
ATOM     14  C   UNL     1      -3.729   5.985   6.763  1.00  0.00     0.087 C 
ENDBRANCH  11  12
ENDBRANCH  10  11
ENDBRANCH   2  10
TORSDOF 6
ENDMDL
MODEL 5
REMARK VINA RESULT:    -0.725      1.526      3.021
REMARK INTER + INTRA:          -0.902
REMARK INTER:                  -0.280
REMARK INTRA:                  -0.621
REMARK UNBOUND:                 0.077
REMARK SMILES CC(=O)CCC=C(C)CCC=C(C)C
REMARK SMILES IDX 7 1 6 2 8 3 9 4 10 5 11 6 13 7 12 8 14 9 5 10 4 11 2 12 3 13
REMARK SMILES IDX 1 14
REMARK H PARENT
REMARK Flexibility Score: inf
ROOT
ATOM      1  C   UNL     1      -3.187   6.466   9.311  1.00  0.00    -0.077 C 
ATOM      2  C   UNL     1      -2.289   7.158  10.049  1.00  0.00    -0.028 C 
ATOM      3  C   UNL     1      -4.353   5.828  10.024  1.00  0.00     0.039 C 
ENDROOT
BRANCH   1   4
ATOM      4  C   UNL     1      -3.084   6.314   7.804  1.00  0.00     0.034 C 
BRANCH   4   5
ATOM      5  C   UNL     1      -4.054   5.252   7.267  1.00  0.00     0.032 C 
BRANCH   5   6
ATOM      6  C   UNL     1      -3.425   3.879   7.252  1.00  0.00    -0.028 C 
ATOM      7  C   UNL     1      -5.480   2.743   8.124  1.00  0.00     0.039 C 
ATOM      8  C   UNL     1      -4.062   2.740   7.604  1.00  0.00    -0.080 C 
ATOM      9  C   UNL     1      -3.317   1.436   7.485  1.00  0.00     0.039 C 
ENDBRANCH   5   6
ENDBRANCH   4   5
ENDBRANCH   1   4
BRANCH   2  10
ATOM     10  C   UNL     1      -1.028   7.803   9.521  1.00  0.00     0.035 C 
BRANCH  10  11
ATOM     11  C   UNL     1       0.219   7.147  10.124  1.00  0.00     0.079 C 
BRANCH  11  12
ATOM     12  C   UNL     1       1.403   8.078  10.103  1.00  0.00     0.130 C 
ATOM     13  O   UNL     1       2.534   7.619  10.061  1.00  0.00    -0.300 OA
ATOM     14  C   UNL     1       1.202   9.562  10.108  1.00  0.00     0.087 C 
ENDBRANCH  11  12
ENDBRANCH  10  11
ENDBRANCH   2  10
TORSDOF 6
ENDMDL
MODEL 6
REMARK VINA RESULT:    -0.622      1.534      2.493
REMARK INTER + INTRA:          -0.763
REMARK INTER:                  -0.276
REMARK INTRA:                  -0.487
REMARK UNBOUND:                 0.077
REMARK SMILES CC(=O)CCC=C(C)CCC=C(C)C
REMARK SMILES IDX 7 1 6 2 8 3 9 4 10 5 11 6 13 7 12 8 14 9 5 10 4 11 2 12 3 13
REMARK SMILES IDX 1 14
REMARK H PARENT
REMARK Flexibility Score: inf
ROOT
ATOM      1  C   UNL     1      -3.347   5.943   8.049  1.00  0.00    -0.077 C 
ATOM      2  C   UNL     1      -2.127   6.362   8.457  1.00  0.00    -0.028 C 
ATOM      3  C   UNL     1      -3.531   5.603   6.591  1.00  0.00     0.039 C 
ENDROOT
BRANCH   1   4
ATOM      4  C   UNL     1      -4.531   5.788   8.987  1.00  0.00     0.034 C 
BRANCH   4   5
ATOM      5  C   UNL     1      -4.726   4.330   9.427  1.00  0.00     0.032 C 
BRANCH   5   6
ATOM      6  C   UNL     1      -5.031   3.429   8.252  1.00  0.00    -0.028 C 
ATOM      7  C   UNL     1      -2.884   2.155   8.457  1.00  0.00     0.039 C 
ATOM      8  C   UNL     1      -4.228   2.430   7.825  1.00  0.00    -0.080 C 
ATOM      9  C   UNL     1      -4.694   1.580   6.671  1.00  0.00     0.039 C 
ENDBRANCH   5   6
ENDBRANCH   4   5
ENDBRANCH   1   4
BRANCH   2  10
ATOM     10  C   UNL     1      -1.776   6.811   9.857  1.00  0.00     0.035 C 
BRANCH  10  11
ATOM     11  C   UNL     1      -1.573   8.329   9.914  1.00  0.00     0.079 C 
BRANCH  11  12
ATOM     12  C   UNL     1      -0.113   8.696   9.898  1.00  0.00     0.130 C 
ATOM     13  O   UNL     1       0.218   9.859   9.723  1.00  0.00    -0.300 OA
ATOM     14  C   UNL     1       0.936   7.650  10.120  1.00  0.00     0.087 C 
ENDBRANCH  11  12
ENDBRANCH  10  11
ENDBRANCH   2  10
TORSDOF 6
ENDMDL
MODEL 7
REMARK VINA RESULT:     0.631      2.491      5.229
REMARK INTER + INTRA:           0.929
REMARK INTER:                   0.909
REMARK INTRA:                   0.020
REMARK UNBOUND:                 0.077
REMARK SMILES CC(=O)CCC=C(C)CCC=C(C)C
REMARK SMILES IDX 7 1 6 2 8 3 9 4 10 5 11 6 13 7 12 8 14 9 5 10 4 11 2 12 3 13
REMARK SMILES IDX 1 14
REMARK H PARENT
REMARK Flexibility Score: inf
ROOT
ATOM      1  C   UNL     1      -3.180   7.601  10.083  1.00  0.00    -0.077 C 
ATOM      2  C   UNL     1      -4.387   6.990  10.118  1.00  0.00    -0.028 C 
ATOM      3  C   UNL     1      -3.146   9.108  10.101  1.00  0.00     0.039 C 
ENDROOT
BRANCH   1   4
ATOM      4  C   UNL     1      -1.865   6.844  10.038  1.00  0.00     0.034 C 
BRANCH   4   5
ATOM      5  C   UNL     1      -1.735   5.994   8.766  1.00  0.00     0.032 C 
BRANCH   5   6
ATOM      6  C   UNL     1      -2.513   6.591   7.616  1.00  0.00    -0.028 C 
ATOM      7  C   UNL     1      -3.479   4.391   6.907  1.00  0.00     0.039 C 
ATOM      8  C   UNL     1      -3.323   5.889   6.793  1.00  0.00    -0.080 C 
ATOM      9  C   UNL     1      -4.076   6.635   5.722  1.00  0.00     0.039 C 
ENDBRANCH   5   6
ENDBRANCH   4   5
ENDBRANCH   1   4
BRANCH   2  10
ATOM     10  C   UNL     1      -4.618   5.499  10.037  1.00  0.00     0.035 C 
BRANCH  10  11
ATOM     11  C   UNL     1      -6.116   5.173  10.036  1.00  0.00     0.079 C 
BRANCH  11  12
ATOM     12  C   UNL     1      -6.384   3.781   9.530  1.00  0.00     0.130 C 
ATOM     13  O   UNL     1      -7.534   3.379   9.438  1.00  0.00    -0.300 OA
ATOM     14  C   UNL     1      -5.251   2.893   9.115  1.00  0.00     0.087 C 
ENDBRANCH  11  12
ENDBRANCH  10  11
ENDBRANCH   2  10
TORSDOF 6
ENDMDL
