MODEL 1
REMARK VINA RESULT:    -5.371      0.000      0.000
REMARK INTER + INTRA:         -12.155
REMARK INTER:                 -10.082
REMARK INTRA:                  -2.073
REMARK UNBOUND:                -2.073
REMARK SMILES CCCCCCCCC=CCCCCCCCC(=O)[O-]
REMARK SMILES IDX 10 1 9 2 11 3 12 4 13 5 14 6 15 7 16 8 17 9 18 10 19 11
REMARK SMILES IDX 20 12 8 13 7 14 6 15 5 16 4 17 3 18 2 19 1 20
REMARK H PARENT
REMARK Flexibility Score: inf
ROOT
ATOM      1  C   UNL     1      23.271  11.108  35.793  1.00  0.00    -0.031 C 
ATOM      2  C   UNL     1      22.150  10.362  35.821  1.00  0.00    -0.031 C 
ENDROOT
BRANCH   1   3
ATOM      3  C   UNL     1      23.548  12.223  34.813  1.00  0.00     0.027 C 
BRANCH   3   4
ATOM      4  C   UNL     1      24.831  11.929  34.025  1.00  0.00     0.004 C 
BRANCH   4   5
ATOM      5  C   UNL     1      25.942  11.309  34.893  1.00  0.00     0.000 C 
BRANCH   5   6
ATOM      6  C   UNL     1      27.076  12.274  35.290  1.00  0.00     0.000 C 
BRANCH   6   7
ATOM      7  C   UNL     1      27.728  13.035  34.120  1.00  0.00     0.000 C 
BRANCH   7   8
ATOM      8  C   UNL     1      28.488  12.125  33.130  1.00  0.00     0.006 C 
BRANCH   8   9
ATOM      9  C   UNL     1      28.289  12.548  31.669  1.00  0.00     0.053 C 
BRANCH   9  10
ATOM     10  C   UNL     1      27.311  11.640  30.991  1.00  0.00     0.041 C 
ATOM     11  O   UNL     1      27.643  10.463  30.687  1.00  0.00    -0.550 OA
ATOM     12  O   UNL     1      26.025  12.086  30.714  1.00  0.00    -0.550 OA
ENDBRANCH   9  10
ENDBRANCH   8   9
ENDBRANCH   7   8
ENDBRANCH   6   7
ENDBRANCH   5   6
ENDBRANCH   4   5
ENDBRANCH   3   4
ENDBRANCH   1   3
BRANCH   2  13
ATOM     13  C   UNL     1      20.969  10.550  34.901  1.00  0.00     0.027 C 
BRANCH  13  14
ATOM     14  C   UNL     1      19.684  10.935  35.662  1.00  0.00     0.004 C 
BRANCH  14  15
ATOM     15  C   UNL     1      19.147  12.332  35.306  1.00  0.00     0.000 C 
BRANCH  15  16
ATOM     16  C   UNL     1      20.167  13.450  35.579  1.00  0.00     0.000 C 
BRANCH  16  17
ATOM     17  C   UNL     1      20.557  14.214  34.303  1.00  0.00    -0.000 C 
BRANCH  17  18
ATOM     18  C   UNL     1      19.513  14.077  33.186  1.00  0.00    -0.000 C 
BRANCH  18  19
ATOM     19  C   UNL     1      20.186  13.836  31.830  1.00  0.00    -0.003 C 
ATOM     20  C   UNL     1      21.312  12.815  31.947  1.00  0.00     0.004 C 
ENDBRANCH  18  19
ENDBRANCH  17  18
ENDBRANCH  16  17
ENDBRANCH  15  16
ENDBRANCH  14  15
ENDBRANCH  13  14
ENDBRANCH   2  13
TORSDOF 15
ENDMDL
MODEL 2
REMARK VINA RESULT:    -5.306      1.315      2.190
REMARK INTER + INTRA:         -12.033
REMARK INTER:                  -9.717
REMARK INTRA:                  -2.316
REMARK UNBOUND:                -2.073
REMARK SMILES CCCCCCCCC=CCCCCCCCC(=O)[O-]
REMARK SMILES IDX 10 1 9 2 11 3 12 4 13 5 14 6 15 7 16 8 17 9 18 10 19 11
REMARK SMILES IDX 20 12 8 13 7 14 6 15 5 16 4 17 3 18 2 19 1 20
REMARK H PARENT
REMARK Flexibility Score: inf
ROOT
ATOM      1  C   UNL     1      22.196  10.785  35.901  1.00  0.00    -0.031 C 
ATOM      2  C   UNL     1      21.123  10.070  35.515  1.00  0.00    -0.031 C 
ENDROOT
BRANCH   1   3
ATOM      3  C   UNL     1      23.312  11.236  34.990  1.00  0.00     0.027 C 
BRANCH   3   4
ATOM      4  C   UNL     1      24.652  11.200  35.735  1.00  0.00     0.004 C 
BRANCH   4   5
ATOM      5  C   UNL     1      25.186  12.603  36.083  1.00  0.00     0.000 C 
BRANCH   5   6
ATOM      6  C   UNL     1      26.269  13.144  35.130  1.00  0.00     0.000 C 
BRANCH   6   7
ATOM      7  C   UNL     1      27.658  12.494  35.280  1.00  0.00     0.000 C 
BRANCH   7   8
ATOM      8  C   UNL     1      28.021  11.527  34.133  1.00  0.00     0.006 C 
BRANCH   8   9
ATOM      9  C   UNL     1      27.055  11.633  32.946  1.00  0.00     0.053 C 
BRANCH   9  10
ATOM     10  C   UNL     1      27.810  11.610  31.654  1.00  0.00     0.041 C 
ATOM     11  O   UNL     1      28.575  12.563  31.349  1.00  0.00    -0.550 OA
ATOM     12  O   UNL     1      27.685  10.526  30.795  1.00  0.00    -0.550 OA
ENDBRANCH   9  10
ENDBRANCH   8   9
ENDBRANCH   7   8
ENDBRANCH   6   7
ENDBRANCH   5   6
ENDBRANCH   4   5
ENDBRANCH   3   4
ENDBRANCH   1   3
BRANCH   2  13
ATOM     13  C   UNL     1      20.840   9.638  34.097  1.00  0.00     0.027 C 
BRANCH  13  14
ATOM     14  C   UNL     1      19.456  10.103  33.603  1.00  0.00     0.004 C 
BRANCH  14  15
ATOM     15  C   UNL     1      19.518  11.115  32.445  1.00  0.00     0.000 C 
BRANCH  15  16
ATOM     16  C   UNL     1      20.957  11.510  32.075  1.00  0.00     0.000 C 
BRANCH  16  17
ATOM     17  C   UNL     1      21.285  12.962  32.458  1.00  0.00    -0.000 C 
BRANCH  17  18
ATOM     18  C   UNL     1      20.161  13.631  33.263  1.00  0.00    -0.000 C 
BRANCH  18  19
ATOM     19  C   UNL     1      20.615  13.930  34.697  1.00  0.00    -0.003 C 
ATOM     20  C   UNL     1      19.599  13.419  35.714  1.00  0.00     0.004 C 
ENDBRANCH  18  19
ENDBRANCH  17  18
ENDBRANCH  16  17
ENDBRANCH  15  16
ENDBRANCH  14  15
ENDBRANCH  13  14
ENDBRANCH   2  13
TORSDOF 15
ENDMDL
MODEL 3
REMARK VINA RESULT:    -5.230      1.231      2.265
REMARK INTER + INTRA:         -11.889
REMARK INTER:                  -9.654
REMARK INTRA:                  -2.235
REMARK UNBOUND:                -2.073
REMARK SMILES CCCCCCCCC=CCCCCCCCC(=O)[O-]
REMARK SMILES IDX 10 1 9 2 11 3 12 4 13 5 14 6 15 7 16 8 17 9 18 10 19 11
REMARK SMILES IDX 20 12 8 13 7 14 6 15 5 16 4 17 3 18 2 19 1 20
REMARK H PARENT
REMARK Flexibility Score: inf
ROOT
ATOM      1  C   UNL     1      21.805  11.358  35.582  1.00  0.00    -0.031 C 
ATOM      2  C   UNL     1      20.511  11.691  35.741  1.00  0.00    -0.031 C 
ENDROOT
BRANCH   1   3
ATOM      3  C   UNL     1      22.950  12.339  35.495  1.00  0.00     0.027 C 
BRANCH   3   4
ATOM      4  C   UNL     1      24.091  11.748  34.657  1.00  0.00     0.004 C 
BRANCH   4   5
ATOM      5  C   UNL     1      25.352  11.441  35.487  1.00  0.00     0.000 C 
BRANCH   5   6
ATOM      6  C   UNL     1      26.600  11.067  34.664  1.00  0.00     0.000 C 
BRANCH   6   7
ATOM      7  C   UNL     1      27.696  12.149  34.607  1.00  0.00     0.000 C 
BRANCH   7   8
ATOM      8  C   UNL     1      27.409  13.273  33.589  1.00  0.00     0.006 C 
BRANCH   8   9
ATOM      9  C   UNL     1      26.790  12.746  32.288  1.00  0.00     0.053 C 
BRANCH   9  10
ATOM     10  C   UNL     1      27.845  12.138  31.417  1.00  0.00     0.041 C 
ATOM     11  O   UNL     1      28.842  12.819  31.059  1.00  0.00    -0.550 OA
ATOM     12  O   UNL     1      27.736  10.812  31.017  1.00  0.00    -0.550 OA
ENDBRANCH   9  10
ENDBRANCH   8   9
ENDBRANCH   7   8
ENDBRANCH   6   7
ENDBRANCH   5   6
ENDBRANCH   4   5
ENDBRANCH   3   4
ENDBRANCH   1   3
BRANCH   2  13
ATOM     13  C   UNL     1      19.998  13.102  35.900  1.00  0.00     0.027 C 
BRANCH  13  14
ATOM     14  C   UNL     1      19.349  13.642  34.610  1.00  0.00     0.004 C 
BRANCH  14  15
ATOM     15  C   UNL     1      20.359  14.219  33.602  1.00  0.00     0.000 C 
BRANCH  15  16
ATOM     16  C   UNL     1      19.822  14.233  32.162  1.00  0.00     0.000 C 
BRANCH  16  17
ATOM     17  C   UNL     1      20.725  13.455  31.191  1.00  0.00    -0.000 C 
BRANCH  17  18
ATOM     18  C   UNL     1      21.746  12.565  31.914  1.00  0.00    -0.000 C 
BRANCH  18  19
ATOM     19  C   UNL     1      21.545  11.089  31.549  1.00  0.00    -0.003 C 
ATOM     20  C   UNL     1      20.306  10.517  32.230  1.00  0.00     0.004 C 
ENDBRANCH  18  19
ENDBRANCH  17  18
ENDBRANCH  16  17
ENDBRANCH  15  16
ENDBRANCH  14  15
ENDBRANCH  13  14
ENDBRANCH   2  13
TORSDOF 15
ENDMDL
MODEL 4
REMARK VINA RESULT:    -5.209      1.351      2.586
REMARK INTER + INTRA:         -11.850
REMARK INTER:                  -9.524
REMARK INTRA:                  -2.326
REMARK UNBOUND:                -2.073
REMARK SMILES CCCCCCCCC=CCCCCCCCC(=O)[O-]
REMARK SMILES IDX 10 1 9 2 11 3 12 4 13 5 14 6 15 7 16 8 17 9 18 10 19 11
REMARK SMILES IDX 20 12 8 13 7 14 6 15 5 16 4 17 3 18 2 19 1 20
REMARK H PARENT
REMARK Flexibility Score: inf
ROOT
ATOM      1  C   UNL     1      23.025  11.562  34.102  1.00  0.00    -0.031 C 
ATOM      2  C   UNL     1      22.231  12.572  33.700  1.00  0.00    -0.031 C 
ENDROOT
BRANCH   1   3
ATOM      3  C   UNL     1      23.202  11.112  35.532  1.00  0.00     0.027 C 
BRANCH   3   4
ATOM      4  C   UNL     1      24.666  11.273  35.961  1.00  0.00     0.004 C 
BRANCH   4   5
ATOM      5  C   UNL     1      25.084  12.746  36.135  1.00  0.00     0.000 C 
BRANCH   5   6
ATOM      6  C   UNL     1      26.216  13.218  35.203  1.00  0.00     0.000 C 
BRANCH   6   7
ATOM      7  C   UNL     1      27.508  12.379  35.263  1.00  0.00     0.000 C 
BRANCH   7   8
ATOM      8  C   UNL     1      28.014  11.914  33.880  1.00  0.00     0.006 C 
BRANCH   8   9
ATOM      9  C   UNL     1      27.900  13.009  32.812  1.00  0.00     0.053 C 
BRANCH   9  10
ATOM     10  C   UNL     1      27.503  12.417  31.497  1.00  0.00     0.041 C 
ATOM     11  O   UNL     1      26.808  13.084  30.684  1.00  0.00    -0.550 OA
ATOM     12  O   UNL     1      27.918  11.136  31.158  1.00  0.00    -0.550 OA
ENDBRANCH   9  10
ENDBRANCH   8   9
ENDBRANCH   7   8
ENDBRANCH   6   7
ENDBRANCH   5   6
ENDBRANCH   4   5
ENDBRANCH   3   4
ENDBRANCH   1   3
BRANCH   2  13
ATOM     13  C   UNL     1      21.356  13.394  34.614  1.00  0.00     0.027 C 
BRANCH  13  14
ATOM     14  C   UNL     1      19.921  13.553  34.071  1.00  0.00     0.004 C 
BRANCH  14  15
ATOM     15  C   UNL     1      18.895  12.631  34.750  1.00  0.00     0.000 C 
BRANCH  15  16
ATOM     16  C   UNL     1      19.456  11.932  35.999  1.00  0.00     0.000 C 
BRANCH  16  17
ATOM     17  C   UNL     1      19.633  10.418  35.796  1.00  0.00    -0.000 C 
BRANCH  17  18
ATOM     18  C   UNL     1      19.054   9.926  34.462  1.00  0.00    -0.000 C 
BRANCH  18  19
ATOM     19  C   UNL     1      20.136   9.255  33.608  1.00  0.00    -0.003 C 
ATOM     20  C   UNL     1      20.222   9.892  32.225  1.00  0.00     0.004 C 
ENDBRANCH  18  19
ENDBRANCH  17  18
ENDBRANCH  16  17
ENDBRANCH  15  16
ENDBRANCH  14  15
ENDBRANCH  13  14
ENDBRANCH   2  13
TORSDOF 15
ENDMDL
MODEL 5
REMARK VINA RESULT:    -5.202      2.974      6.961
REMARK INTER + INTRA:         -11.837
REMARK INTER:                  -9.790
REMARK INTRA:                  -2.046
REMARK UNBOUND:                -2.073
REMARK SMILES CCCCCCCCC=CCCCCCCCC(=O)[O-]
REMARK SMILES IDX 10 1 9 2 11 3 12 4 13 5 14 6 15 7 16 8 17 9 18 10 19 11
REMARK SMILES IDX 20 12 8 13 7 14 6 15 5 16 4 17 3 18 2 19 1 20
REMARK H PARENT
REMARK Flexibility Score: inf
ROOT
ATOM      1  C   UNL     1      23.665  11.655  35.739  1.00  0.00    -0.031 C 
ATOM      2  C   UNL     1      24.999  11.635  35.912  1.00  0.00    -0.031 C 
ENDROOT
BRANCH   1   3
ATOM      3  C   UNL     1      22.943  11.198  34.494  1.00  0.00     0.027 C 
BRANCH   3   4
ATOM      4  C   UNL     1      22.918  12.324  33.453  1.00  0.00     0.004 C 
BRANCH   4   5
ATOM      5  C   UNL     1      21.605  12.372  32.648  1.00  0.00     0.000 C 
BRANCH   5   6
ATOM      6  C   UNL     1      20.708  13.591  32.934  1.00  0.00     0.000 C 
BRANCH   6   7
ATOM      7  C   UNL     1      20.666  14.043  34.407  1.00  0.00     0.000 C 
BRANCH   7   8
ATOM      8  C   UNL     1      19.400  13.586  35.163  1.00  0.00     0.006 C 
BRANCH   8   9
ATOM      9  C   UNL     1      19.669  12.403  36.103  1.00  0.00     0.053 C 
BRANCH   9  10
ATOM     10  C   UNL     1      19.340  11.111  35.424  1.00  0.00     0.041 C 
ATOM     11  O   UNL     1      18.583  11.097  34.417  1.00  0.00    -0.550 OA
ATOM     12  O   UNL     1      19.887   9.922  35.891  1.00  0.00    -0.550 OA
ENDBRANCH   9  10
ENDBRANCH   8   9
ENDBRANCH   7   8
ENDBRANCH   6   7
ENDBRANCH   5   6
ENDBRANCH   4   5
ENDBRANCH   3   4
ENDBRANCH   1   3
BRANCH   2  13
ATOM     13  C   UNL     1      25.991  11.112  34.901  1.00  0.00     0.027 C 
BRANCH  13  14
ATOM     14  C   UNL     1      27.415  11.653  35.137  1.00  0.00     0.004 C 
BRANCH  14  15
ATOM     15  C   UNL     1      27.544  13.172  34.931  1.00  0.00     0.000 C 
BRANCH  15  16
ATOM     16  C   UNL     1      27.272  13.602  33.481  1.00  0.00     0.000 C 
BRANCH  16  17
ATOM     17  C   UNL     1      28.074  12.776  32.462  1.00  0.00    -0.000 C 
BRANCH  17  18
ATOM     18  C   UNL     1      27.176  12.034  31.461  1.00  0.00    -0.000 C 
BRANCH  18  19
ATOM     19  C   UNL     1      25.816  12.728  31.323  1.00  0.00    -0.003 C 
ATOM     20  C   UNL     1      25.796  13.667  30.121  1.00  0.00     0.004 C 
ENDBRANCH  18  19
ENDBRANCH  17  18
ENDBRANCH  16  17
ENDBRANCH  15  16
ENDBRANCH  14  15
ENDBRANCH  13  14
ENDBRANCH   2  13
TORSDOF 15
ENDMDL
MODEL 6
REMARK VINA RESULT:    -5.194      1.384      2.077
REMARK INTER + INTRA:         -11.823
REMARK INTER:                  -9.698
REMARK INTRA:                  -2.125
REMARK UNBOUND:                -2.073
REMARK SMILES CCCCCCCCC=CCCCCCCCC(=O)[O-]
REMARK SMILES IDX 10 1 9 2 11 3 12 4 13 5 14 6 15 7 16 8 17 9 18 10 19 11
REMARK SMILES IDX 20 12 8 13 7 14 6 15 5 16 4 17 3 18 2 19 1 20
REMARK H PARENT
REMARK Flexibility Score: inf
ROOT
ATOM      1  C   UNL     1      23.634  12.243  35.747  1.00  0.00    -0.031 C 
ATOM      2  C   UNL     1      22.632  12.230  34.847  1.00  0.00    -0.031 C 
ENDROOT
BRANCH   1   3
ATOM      3  C   UNL     1      24.664  11.152  35.915  1.00  0.00     0.027 C 
BRANCH   3   4
ATOM      4  C   UNL     1      25.888  11.439  35.037  1.00  0.00     0.004 C 
BRANCH   4   5
ATOM      5  C   UNL     1      26.413  12.879  35.187  1.00  0.00     0.000 C 
BRANCH   5   6
ATOM      6  C   UNL     1      27.884  13.084  34.777  1.00  0.00     0.000 C 
BRANCH   6   7
ATOM      7  C   UNL     1      28.403  12.119  33.693  1.00  0.00     0.000 C 
BRANCH   7   8
ATOM      8  C   UNL     1      28.148  12.607  32.250  1.00  0.00     0.006 C 
BRANCH   8   9
ATOM      9  C   UNL     1      27.018  11.834  31.558  1.00  0.00     0.053 C 
BRANCH   9  10
ATOM     10  C   UNL     1      25.871  12.747  31.253  1.00  0.00     0.041 C 
ATOM     11  O   UNL     1      24.755  12.571  31.809  1.00  0.00    -0.550 OA
ATOM     12  O   UNL     1      26.042  13.806  30.370  1.00  0.00    -0.550 OA
ENDBRANCH   9  10
ENDBRANCH   8   9
ENDBRANCH   7   8
ENDBRANCH   6   7
ENDBRANCH   5   6
ENDBRANCH   4   5
ENDBRANCH   3   4
ENDBRANCH   1   3
BRANCH   2  13
ATOM     13  C   UNL     1      22.402  11.139  33.831  1.00  0.00     0.027 C 
BRANCH  13  14
ATOM     14  C   UNL     1      21.009  10.492  33.966  1.00  0.00     0.004 C 
BRANCH  14  15
ATOM     15  C   UNL     1      20.443  10.529  35.396  1.00  0.00     0.000 C 
BRANCH  15  16
ATOM     16  C   UNL     1      19.118  11.302  35.493  1.00  0.00     0.000 C 
BRANCH  16  17
ATOM     17  C   UNL     1      19.238  12.567  36.359  1.00  0.00    -0.000 C 
BRANCH  17  18
ATOM     18  C   UNL     1      19.521  13.829  35.531  1.00  0.00    -0.000 C 
BRANCH  18  19
ATOM     19  C   UNL     1      19.011  13.669  34.094  1.00  0.00    -0.003 C 
ATOM     20  C   UNL     1      20.038  14.173  33.086  1.00  0.00     0.004 C 
ENDBRANCH  18  19
ENDBRANCH  17  18
ENDBRANCH  16  17
ENDBRANCH  15  16
ENDBRANCH  14  15
ENDBRANCH  13  14
ENDBRANCH   2  13
TORSDOF 15
ENDMDL
MODEL 7
REMARK VINA RESULT:    -5.186      1.220      2.748
REMARK INTER + INTRA:         -11.807
REMARK INTER:                  -9.744
REMARK INTRA:                  -2.063
REMARK UNBOUND:                -2.073
REMARK SMILES CCCCCCCCC=CCCCCCCCC(=O)[O-]
REMARK SMILES IDX 10 1 9 2 11 3 12 4 13 5 14 6 15 7 16 8 17 9 18 10 19 11
REMARK SMILES IDX 20 12 8 13 7 14 6 15 5 16 4 17 3 18 2 19 1 20
REMARK H PARENT
REMARK Flexibility Score: inf
ROOT
ATOM      1  C   UNL     1      23.870  12.149  32.976  1.00  0.00    -0.031 C 
ATOM      2  C   UNL     1      22.857  12.321  32.106  1.00  0.00    -0.031 C 
ENDROOT
BRANCH   1   3
ATOM      3  C   UNL     1      23.742  11.533  34.349  1.00  0.00     0.027 C 
BRANCH   3   4
ATOM      4  C   UNL     1      23.896  12.609  35.430  1.00  0.00     0.004 C 
BRANCH   4   5
ATOM      5  C   UNL     1      25.273  12.576  36.121  1.00  0.00     0.000 C 
BRANCH   5   6
ATOM      6  C   UNL     1      26.472  12.885  35.204  1.00  0.00     0.000 C 
BRANCH   6   7
ATOM      7  C   UNL     1      27.562  11.796  35.163  1.00  0.00     0.000 C 
BRANCH   7   8
ATOM      8  C   UNL     1      28.341  11.745  33.830  1.00  0.00     0.006 C 
BRANCH   8   9
ATOM      9  C   UNL     1      27.639  12.520  32.708  1.00  0.00     0.053 C 
BRANCH   9  10
ATOM     10  C   UNL     1      28.147  12.079  31.371  1.00  0.00     0.041 C 
ATOM     11  O   UNL     1      27.736  11.004  30.858  1.00  0.00    -0.550 OA
ATOM     12  O   UNL     1      29.060  12.866  30.681  1.00  0.00    -0.550 OA
ENDBRANCH   9  10
ENDBRANCH   8   9
ENDBRANCH   7   8
ENDBRANCH   6   7
ENDBRANCH   5   6
ENDBRANCH   4   5
ENDBRANCH   3   4
ENDBRANCH   1   3
BRANCH   2  13
ATOM     13  C   UNL     1      21.433  11.884  32.347  1.00  0.00     0.027 C 
BRANCH  13  14
ATOM     14  C   UNL     1      20.454  13.074  32.410  1.00  0.00     0.004 C 
BRANCH  14  15
ATOM     15  C   UNL     1      20.503  13.849  33.738  1.00  0.00     0.000 C 
BRANCH  15  16
ATOM     16  C   UNL     1      19.162  13.826  34.491  1.00  0.00     0.000 C 
BRANCH  16  17
ATOM     17  C   UNL     1      19.257  13.093  35.838  1.00  0.00    -0.000 C 
BRANCH  17  18
ATOM     18  C   UNL     1      20.370  12.035  35.861  1.00  0.00    -0.000 C 
BRANCH  18  19
ATOM     19  C   UNL     1      19.819  10.650  35.504  1.00  0.00    -0.003 C 
ATOM     20  C   UNL     1      20.878   9.569  35.696  1.00  0.00     0.004 C 
ENDBRANCH  18  19
ENDBRANCH  17  18
ENDBRANCH  16  17
ENDBRANCH  15  16
ENDBRANCH  14  15
ENDBRANCH  13  14
ENDBRANCH   2  13
TORSDOF 15
ENDMDL
MODEL 8
REMARK VINA RESULT:    -5.137      3.284      6.788
REMARK INTER + INTRA:         -11.715
REMARK INTER:                  -9.404
REMARK INTRA:                  -2.312
REMARK UNBOUND:                -2.073
REMARK SMILES CCCCCCCCC=CCCCCCCCC(=O)[O-]
REMARK SMILES IDX 10 1 9 2 11 3 12 4 13 5 14 6 15 7 16 8 17 9 18 10 19 11
REMARK SMILES IDX 20 12 8 13 7 14 6 15 5 16 4 17 3 18 2 19 1 20
REMARK H PARENT
REMARK Flexibility Score: inf
ROOT
ATOM      1  C   UNL     1      21.390   9.790  35.509  1.00  0.00    -0.031 C 
ATOM      2  C   UNL     1      22.421  10.553  35.918  1.00  0.00    -0.031 C 
ENDROOT
BRANCH   1   3
ATOM      3  C   UNL     1      20.231  10.273  34.670  1.00  0.00     0.027 C 
BRANCH   3   4
ATOM      4  C   UNL     1      20.264   9.609  33.288  1.00  0.00     0.004 C 
BRANCH   4   5
ATOM      5  C   UNL     1      20.376  10.624  32.135  1.00  0.00     0.000 C 
BRANCH   5   6
ATOM      6  C   UNL     1      21.745  11.319  32.007  1.00  0.00     0.000 C 
BRANCH   6   7
ATOM      7  C   UNL     1      21.708  12.857  32.082  1.00  0.00     0.000 C 
BRANCH   7   8
ATOM      8  C   UNL     1      20.333  13.429  32.490  1.00  0.00     0.006 C 
BRANCH   8   9
ATOM      9  C   UNL     1      20.356  14.086  33.876  1.00  0.00     0.053 C 
BRANCH   9  10
ATOM     10  C   UNL     1      19.216  13.590  34.708  1.00  0.00     0.041 C 
ATOM     11  O   UNL     1      18.139  13.232  34.161  1.00  0.00    -0.550 OA
ATOM     12  O   UNL     1      19.349  13.503  36.088  1.00  0.00    -0.550 OA
ENDBRANCH   9  10
ENDBRANCH   8   9
ENDBRANCH   7   8
ENDBRANCH   6   7
ENDBRANCH   5   6
ENDBRANCH   4   5
ENDBRANCH   3   4
ENDBRANCH   1   3
BRANCH   2  13
ATOM     13  C   UNL     1      22.607  12.009  35.569  1.00  0.00     0.027 C 
BRANCH  13  14
ATOM     14  C   UNL     1      24.045  12.328  35.115  1.00  0.00     0.004 C 
BRANCH  14  15
ATOM     15  C   UNL     1      25.015  11.141  35.247  1.00  0.00     0.000 C 
BRANCH  15  16
ATOM     16  C   UNL     1      26.096  11.129  34.154  1.00  0.00     0.000 C 
BRANCH  16  17
ATOM     17  C   UNL     1      27.515  11.262  34.728  1.00  0.00    -0.000 C 
BRANCH  17  18
ATOM     18  C   UNL     1      28.290  12.445  34.130  1.00  0.00    -0.000 C 
BRANCH  18  19
ATOM     19  C   UNL     1      27.361  13.636  33.872  1.00  0.00    -0.003 C 
ATOM     20  C   UNL     1      27.305  14.564  35.082  1.00  0.00     0.004 C 
ENDBRANCH  18  19
ENDBRANCH  17  18
ENDBRANCH  16  17
ENDBRANCH  15  16
ENDBRANCH  14  15
ENDBRANCH  13  14
ENDBRANCH   2  13
TORSDOF 15
ENDMDL
MODEL 9
REMARK VINA RESULT:    -5.092      1.605      6.438
REMARK INTER + INTRA:         -11.630
REMARK INTER:                  -9.463
REMARK INTRA:                  -2.167
REMARK UNBOUND:                -2.073
REMARK SMILES CCCCCCCCC=CCCCCCCCC(=O)[O-]
REMARK SMILES IDX 10 1 9 2 11 3 12 4 13 5 14 6 15 7 16 8 17 9 18 10 19 11
REMARK SMILES IDX 20 12 8 13 7 14 6 15 5 16 4 17 3 18 2 19 1 20
REMARK H PARENT
REMARK Flexibility Score: inf
ROOT
ATOM      1  C   UNL     1      23.895  12.095  34.225  1.00  0.00    -0.031 C 
ATOM      2  C   UNL     1      25.162  11.692  34.013  1.00  0.00    -0.031 C 
ENDROOT
BRANCH   1   3
ATOM      3  C   UNL     1      23.217  12.156  35.573  1.00  0.00     0.027 C 
BRANCH   3   4
ATOM      4  C   UNL     1      22.048  11.165  35.624  1.00  0.00     0.004 C 
BRANCH   4   5
ATOM      5  C   UNL     1      20.671  11.854  35.559  1.00  0.00     0.000 C 
BRANCH   5   6
ATOM      6  C   UNL     1      20.712  13.395  35.558  1.00  0.00     0.000 C 
BRANCH   6   7
ATOM      7  C   UNL     1      20.411  14.057  34.200  1.00  0.00     0.000 C 
BRANCH   7   8
ATOM      8  C   UNL     1      19.815  13.090  33.154  1.00  0.00     0.006 C 
BRANCH   8   9
ATOM      9  C   UNL     1      20.509  13.198  31.790  1.00  0.00     0.053 C 
BRANCH   9  10
ATOM     10  C   UNL     1      21.501  12.091  31.620  1.00  0.00     0.041 C 
ATOM     11  O   UNL     1      21.282  10.958  32.126  1.00  0.00    -0.550 OA
ATOM     12  O   UNL     1      22.660  12.303  30.883  1.00  0.00    -0.550 OA
ENDBRANCH   9  10
ENDBRANCH   8   9
ENDBRANCH   7   8
ENDBRANCH   6   7
ENDBRANCH   5   6
ENDBRANCH   4   5
ENDBRANCH   3   4
ENDBRANCH   1   3
BRANCH   2  13
ATOM     13  C   UNL     1      26.126  11.276  35.096  1.00  0.00     0.027 C 
BRANCH  13  14
ATOM     14  C   UNL     1      27.193  12.351  35.382  1.00  0.00     0.004 C 
BRANCH  14  15
ATOM     15  C   UNL     1      27.667  13.104  34.127  1.00  0.00     0.000 C 
BRANCH  15  16
ATOM     16  C   UNL     1      28.506  12.225  33.185  1.00  0.00     0.000 C 
BRANCH  16  17
ATOM     17  C   UNL     1      28.282  12.568  31.704  1.00  0.00    -0.000 C 
BRANCH  17  18
ATOM     18  C   UNL     1      27.581  11.440  30.933  1.00  0.00    -0.000 C 
BRANCH  18  19
ATOM     19  C   UNL     1      26.200  11.887  30.438  1.00  0.00    -0.003 C 
ATOM     20  C   UNL     1      25.989  13.380  30.668  1.00  0.00     0.004 C 
ENDBRANCH  18  19
ENDBRANCH  17  18
ENDBRANCH  16  17
ENDBRANCH  15  16
ENDBRANCH  14  15
ENDBRANCH  13  14
ENDBRANCH   2  13
TORSDOF 15
ENDMDL
