MODEL 1
REMARK VINA RESULT:    -6.190      0.000      0.000
REMARK INTER + INTRA:          -6.552
REMARK INTER:                  -6.552
REMARK INTRA:                   0.000
REMARK UNBOUND:                 0.000
REMARK SMILES O=c1ccc2cc(O)c(O)cc2o1
REMARK SMILES IDX 4 1 3 2 2 3 1 4 13 5 12 6 11 7 9 8 7 9 6 10 5 11 8 12 10 14
REMARK H PARENT 8 13 10 15
REMARK Flexibility Score: inf
ROOT
ATOM      1  C   UNL     1      79.724 -26.321  84.324  1.00  0.00     0.019 A 
ATOM      2  C   UNL     1      79.032 -25.972  85.483  1.00  0.00     0.094 A 
ATOM      3  C   UNL     1      77.708 -26.397  85.636  1.00  0.00     0.336 A 
ATOM      4  O   UNL     1      77.067 -26.091  86.676  1.00  0.00    -0.246 OA
ATOM      5  O   UNL     1      77.120 -27.121  84.688  1.00  0.00    -0.423 OA
ATOM      6  C   UNL     1      77.743 -27.476  83.567  1.00  0.00     0.142 A 
ATOM      7  C   UNL     1      77.073 -28.239  82.606  1.00  0.00     0.098 A 
ATOM      8  C   UNL     1      77.727 -28.616  81.423  1.00  0.00     0.161 A 
ATOM      9  C   UNL     1      79.056 -28.227  81.201  1.00  0.00     0.158 A 
ATOM     10  C   UNL     1      79.733 -27.461  82.162  1.00  0.00     0.062 A 
ATOM     11  C   UNL     1      79.081 -27.084  83.344  1.00  0.00     0.022 A 
ENDROOT
BRANCH   9  12
ATOM     12  O   UNL     1      79.698 -28.605  80.023  1.00  0.00    -0.504 OA
ATOM     13  H   UNL     1      80.659 -28.345  79.836  1.00  0.00     0.293 HD
ENDBRANCH   9  12
BRANCH   8  14
ATOM     14  O   UNL     1      77.062 -29.376  80.463  1.00  0.00    -0.504 OA
ATOM     15  H   UNL     1      76.057 -29.506  80.493  1.00  0.00     0.293 HD
ENDBRANCH   8  14
TORSDOF 2
ENDMDL
MODEL 2
REMARK VINA RESULT:    -6.162      2.352      4.965
REMARK INTER + INTRA:          -6.522
REMARK INTER:                  -6.522
REMARK INTRA:                   0.000
REMARK UNBOUND:                 0.000
REMARK SMILES O=c1ccc2cc(O)c(O)cc2o1
REMARK SMILES IDX 4 1 3 2 2 3 1 4 13 5 12 6 11 7 9 8 7 9 6 10 5 11 8 12 10 14
REMARK H PARENT 8 13 10 15
REMARK Flexibility Score: inf
ROOT
ATOM      1  C   UNL     1      78.649 -26.399  86.058  1.00  0.00     0.019 A 
ATOM      2  C   UNL     1      79.515 -26.667  84.999  1.00  0.00     0.094 A 
ATOM      3  C   UNL     1      78.989 -26.791  83.708  1.00  0.00     0.336 A 
ATOM      4  O   UNL     1      79.756 -27.033  82.739  1.00  0.00    -0.246 OA
ATOM      5  O   UNL     1      77.683 -26.654  83.497  1.00  0.00    -0.423 OA
ATOM      6  C   UNL     1      76.822 -26.397  84.479  1.00  0.00     0.142 A 
ATOM      7  C   UNL     1      75.459 -26.264  84.196  1.00  0.00     0.098 A 
ATOM      8  C   UNL     1      74.548 -25.993  85.228  1.00  0.00     0.161 A 
ATOM      9  C   UNL     1      75.003 -25.856  86.548  1.00  0.00     0.158 A 
ATOM     10  C   UNL     1      76.368 -25.988  86.837  1.00  0.00     0.062 A 
ATOM     11  C   UNL     1      77.280 -26.259  85.807  1.00  0.00     0.022 A 
ENDROOT
BRANCH   9  12
ATOM     12  O   UNL     1      74.090 -25.586  87.567  1.00  0.00    -0.504 OA
ATOM     13  H   UNL     1      73.830 -24.638  87.808  1.00  0.00     0.293 HD
ENDBRANCH   9  12
BRANCH   8  14
ATOM     14  O   UNL     1      73.189 -25.859  84.950  1.00  0.00    -0.504 OA
ATOM     15  H   UNL     1      72.802 -26.132  84.054  1.00  0.00     0.293 HD
ENDBRANCH   8  14
TORSDOF 2
ENDMDL
MODEL 3
REMARK VINA RESULT:    -6.071      1.219      2.287
REMARK INTER + INTRA:          -6.426
REMARK INTER:                  -6.426
REMARK INTRA:                   0.000
REMARK UNBOUND:                 0.000
REMARK SMILES O=c1ccc2cc(O)c(O)cc2o1
REMARK SMILES IDX 4 1 3 2 2 3 1 4 13 5 12 6 11 7 9 8 7 9 6 10 5 11 8 12 10 14
REMARK H PARENT 8 13 10 15
REMARK Flexibility Score: inf
ROOT
ATOM      1  C   UNL     1      77.120 -26.859  84.707  1.00  0.00     0.019 A 
ATOM      2  C   UNL     1      77.846 -26.037  85.569  1.00  0.00     0.094 A 
ATOM      3  C   UNL     1      79.163 -25.701  85.237  1.00  0.00     0.336 A 
ATOM      4  O   UNL     1      79.833 -24.960  86.004  1.00  0.00    -0.246 OA
ATOM      5  O   UNL     1      79.713 -26.160  84.117  1.00  0.00    -0.423 OA
ATOM      6  C   UNL     1      79.057 -26.946  83.267  1.00  0.00     0.142 A 
ATOM      7  C   UNL     1      79.688 -27.398  82.104  1.00  0.00     0.098 A 
ATOM      8  C   UNL     1      79.001 -28.227  81.205  1.00  0.00     0.161 A 
ATOM      9  C   UNL     1      77.677 -28.605  81.471  1.00  0.00     0.158 A 
ATOM     10  C   UNL     1      77.039 -28.154  82.636  1.00  0.00     0.062 A 
ATOM     11  C   UNL     1      77.724 -27.327  83.535  1.00  0.00     0.022 A 
ENDROOT
BRANCH   9  12
ATOM     12  O   UNL     1      77.001 -29.429  80.572  1.00  0.00    -0.504 OA
ATOM     13  H   UNL     1      76.258 -30.047  80.875  1.00  0.00     0.293 HD
ENDBRANCH   9  12
BRANCH   8  14
ATOM     14  O   UNL     1      79.627 -28.680  80.045  1.00  0.00    -0.504 OA
ATOM     15  H   UNL     1      79.855 -28.048  79.285  1.00  0.00     0.293 HD
ENDBRANCH   8  14
TORSDOF 2
ENDMDL
MODEL 4
REMARK VINA RESULT:    -6.037      2.996      4.970
REMARK INTER + INTRA:          -6.390
REMARK INTER:                  -6.390
REMARK INTRA:                   0.000
REMARK UNBOUND:                 0.000
REMARK SMILES O=c1ccc2cc(O)c(O)cc2o1
REMARK SMILES IDX 4 1 3 2 2 3 1 4 13 5 12 6 11 7 9 8 7 9 6 10 5 11 8 12 10 14
REMARK H PARENT 8 13 10 15
REMARK Flexibility Score: inf
ROOT
ATOM      1  C   UNL     1      77.832 -26.759  83.624  1.00  0.00     0.019 A 
ATOM      2  C   UNL     1      79.153 -26.942  84.033  1.00  0.00     0.094 A 
ATOM      3  C   UNL     1      79.465 -26.824  85.391  1.00  0.00     0.336 A 
ATOM      4  O   UNL     1      80.652 -26.985  85.778  1.00  0.00    -0.246 OA
ATOM      5  O   UNL     1      78.515 -26.539  86.278  1.00  0.00    -0.423 OA
ATOM      6  C   UNL     1      77.244 -26.357  85.932  1.00  0.00     0.142 A 
ATOM      7  C   UNL     1      76.289 -26.061  86.909  1.00  0.00     0.098 A 
ATOM      8  C   UNL     1      74.947 -25.868  86.549  1.00  0.00     0.161 A 
ATOM      9  C   UNL     1      74.559 -25.972  85.205  1.00  0.00     0.158 A 
ATOM     10  C   UNL     1      75.512 -26.269  84.221  1.00  0.00     0.062 A 
ATOM     11  C   UNL     1      76.853 -26.461  84.579  1.00  0.00     0.022 A 
ENDROOT
BRANCH   9  12
ATOM     12  O   UNL     1      73.223 -25.778  84.856  1.00  0.00    -0.504 OA
ATOM     13  H   UNL     1      72.785 -26.315  84.117  1.00  0.00     0.293 HD
ENDBRANCH   9  12
BRANCH   8  14
ATOM     14  O   UNL     1      73.992 -25.572  87.521  1.00  0.00    -0.504 OA
ATOM     15  H   UNL     1      73.441 -26.300  87.960  1.00  0.00     0.293 HD
ENDBRANCH   8  14
TORSDOF 2
ENDMDL
MODEL 5
REMARK VINA RESULT:    -5.831      2.088      4.987
REMARK INTER + INTRA:          -6.172
REMARK INTER:                  -6.172
REMARK INTRA:                   0.000
REMARK UNBOUND:                 0.000
REMARK SMILES O=c1ccc2cc(O)c(O)cc2o1
REMARK SMILES IDX 4 1 3 2 2 3 1 4 13 5 12 6 11 7 9 8 7 9 6 10 5 11 8 12 10 14
REMARK H PARENT 8 13 10 15
REMARK Flexibility Score: inf
ROOT
ATOM      1  C   UNL     1      76.729 -28.139  82.828  1.00  0.00     0.019 A 
ATOM      2  C   UNL     1      77.919 -28.855  82.699  1.00  0.00     0.094 A 
ATOM      3  C   UNL     1      79.019 -28.489  83.483  1.00  0.00     0.336 A 
ATOM      4  O   UNL     1      80.101 -29.124  83.380  1.00  0.00    -0.246 OA
ATOM      5  O   UNL     1      78.929 -27.474  84.337  1.00  0.00    -0.423 OA
ATOM      6  C   UNL     1      77.813 -26.765  84.491  1.00  0.00     0.142 A 
ATOM      7  C   UNL     1      77.778 -25.707  85.405  1.00  0.00     0.098 A 
ATOM      8  C   UNL     1      76.605 -24.957  85.571  1.00  0.00     0.161 A 
ATOM      9  C   UNL     1      75.462 -25.266  84.820  1.00  0.00     0.158 A 
ATOM     10  C   UNL     1      75.491 -26.325  83.902  1.00  0.00     0.062 A 
ATOM     11  C   UNL     1      76.663 -27.076  83.734  1.00  0.00     0.022 A 
ENDROOT
BRANCH   9  12
ATOM     12  O   UNL     1      74.299 -24.515  84.991  1.00  0.00    -0.504 OA
ATOM     13  H   UNL     1      73.442 -24.935  85.328  1.00  0.00     0.293 HD
ENDBRANCH   9  12
BRANCH   8  14
ATOM     14  O   UNL     1      76.566 -23.902  86.481  1.00  0.00    -0.504 OA
ATOM     15  H   UNL     1      77.386 -23.631  87.013  1.00  0.00     0.293 HD
ENDBRANCH   8  14
TORSDOF 2
ENDMDL
MODEL 6
REMARK VINA RESULT:    -5.746      1.809      2.755
REMARK INTER + INTRA:          -6.082
REMARK INTER:                  -6.082
REMARK INTRA:                   0.000
REMARK UNBOUND:                 0.000
REMARK SMILES O=c1ccc2cc(O)c(O)cc2o1
REMARK SMILES IDX 4 1 3 2 2 3 1 4 13 5 12 6 11 7 9 8 7 9 6 10 5 11 8 12 10 14
REMARK H PARENT 8 13 10 15
REMARK Flexibility Score: inf
ROOT
ATOM      1  C   UNL     1      75.584 -26.390  83.909  1.00  0.00     0.019 A 
ATOM      2  C   UNL     1      75.568 -25.319  84.803  1.00  0.00     0.094 A 
ATOM      3  C   UNL     1      76.754 -24.959  85.451  1.00  0.00     0.336 A 
ATOM      4  O   UNL     1      76.759 -23.995  86.260  1.00  0.00    -0.246 OA
ATOM      5  O   UNL     1      77.879 -25.629  85.217  1.00  0.00    -0.423 OA
ATOM      6  C   UNL     1      77.938 -26.656  84.373  1.00  0.00     0.142 A 
ATOM      7  C   UNL     1      79.150 -27.323  84.168  1.00  0.00     0.098 A 
ATOM      8  C   UNL     1      79.218 -28.407  83.280  1.00  0.00     0.161 A 
ATOM      9  C   UNL     1      78.068 -28.824  82.594  1.00  0.00     0.158 A 
ATOM     10  C   UNL     1      76.850 -28.159  82.795  1.00  0.00     0.062 A 
ATOM     11  C   UNL     1      76.781 -27.077  83.683  1.00  0.00     0.022 A 
ENDROOT
BRANCH   9  12
ATOM     12  O   UNL     1      78.144 -29.902  81.712  1.00  0.00    -0.504 OA
ATOM     13  H   UNL     1      77.322 -30.261  81.242  1.00  0.00     0.293 HD
ENDBRANCH   9  12
BRANCH   8  14
ATOM     14  O   UNL     1      80.424 -29.074  83.073  1.00  0.00    -0.504 OA
ATOM     15  H   UNL     1      81.096 -28.752  82.386  1.00  0.00     0.293 HD
ENDBRANCH   8  14
TORSDOF 2
ENDMDL
MODEL 7
REMARK VINA RESULT:    -5.682      1.817      2.153
REMARK INTER + INTRA:          -6.015
REMARK INTER:                  -6.015
REMARK INTRA:                   0.000
REMARK UNBOUND:                 0.000
REMARK SMILES O=c1ccc2cc(O)c(O)cc2o1
REMARK SMILES IDX 4 1 3 2 2 3 1 4 13 5 12 6 11 7 9 8 7 9 6 10 5 11 8 12 10 14
REMARK H PARENT 8 13 10 15
REMARK Flexibility Score: inf
ROOT
ATOM      1  C   UNL     1      77.767 -25.698  85.453  1.00  0.00     0.019 A 
ATOM      2  C   UNL     1      76.553 -25.058  85.701  1.00  0.00     0.094 A 
ATOM      3  C   UNL     1      75.418 -25.459  84.988  1.00  0.00     0.336 A 
ATOM      4  O   UNL     1      74.313 -24.892  85.198  1.00  0.00    -0.246 OA
ATOM      5  O   UNL     1      75.497 -26.435  84.089  1.00  0.00    -0.423 OA
ATOM      6  C   UNL     1      76.635 -27.072  83.822  1.00  0.00     0.142 A 
ATOM      7  C   UNL     1      76.657 -28.091  82.865  1.00  0.00     0.098 A 
ATOM      8  C   UNL     1      77.854 -28.766  82.580  1.00  0.00     0.161 A 
ATOM      9  C   UNL     1      79.033 -28.418  83.256  1.00  0.00     0.158 A 
ATOM     10  C   UNL     1      79.016 -27.397  84.217  1.00  0.00     0.062 A 
ATOM     11  C   UNL     1      77.822 -26.722  84.502  1.00  0.00     0.022 A 
ENDROOT
BRANCH   9  12
ATOM     12  O   UNL     1      80.219 -29.093  82.967  1.00  0.00    -0.504 OA
ATOM     13  H   UNL     1      81.122 -28.648  83.076  1.00  0.00     0.293 HD
ENDBRANCH   9  12
BRANCH   8  14
ATOM     14  O   UNL     1      77.880 -29.782  81.628  1.00  0.00    -0.504 OA
ATOM     15  H   UNL     1      77.331 -29.726  80.778  1.00  0.00     0.293 HD
ENDBRANCH   8  14
TORSDOF 2
ENDMDL
MODEL 8
REMARK VINA RESULT:    -5.529      2.784      4.534
REMARK INTER + INTRA:          -5.852
REMARK INTER:                  -5.852
REMARK INTRA:                   0.000
REMARK UNBOUND:                 0.000
REMARK SMILES O=c1ccc2cc(O)c(O)cc2o1
REMARK SMILES IDX 4 1 3 2 2 3 1 4 13 5 12 6 11 7 9 8 7 9 6 10 5 11 8 12 10 14
REMARK H PARENT 8 13 10 15
REMARK Flexibility Score: inf
ROOT
ATOM      1  C   UNL     1      80.933 -24.553  85.369  1.00  0.00     0.019 A 
ATOM      2  C   UNL     1      81.322 -23.470  86.157  1.00  0.00     0.094 A 
ATOM      3  C   UNL     1      80.428 -22.966  87.106  1.00  0.00     0.336 A 
ATOM      4  O   UNL     1      80.761 -21.989  87.826  1.00  0.00    -0.246 OA
ATOM      5  O   UNL     1      79.224 -23.513  87.255  1.00  0.00    -0.423 OA
ATOM      6  C   UNL     1      78.812 -24.547  86.525  1.00  0.00     0.142 A 
ATOM      7  C   UNL     1      77.535 -25.079  86.726  1.00  0.00     0.098 A 
ATOM      8  C   UNL     1      77.097 -26.170  85.959  1.00  0.00     0.161 A 
ATOM      9  C   UNL     1      77.940 -26.728  84.987  1.00  0.00     0.158 A 
ATOM     10  C   UNL     1      79.222 -26.198  84.782  1.00  0.00     0.062 A 
ATOM     11  C   UNL     1      79.661 -25.109  85.547  1.00  0.00     0.022 A 
ENDROOT
BRANCH   9  12
ATOM     12  O   UNL     1      77.497 -27.812  84.230  1.00  0.00    -0.504 OA
ATOM     13  H   UNL     1      78.103 -28.278  83.567  1.00  0.00     0.293 HD
ENDBRANCH   9  12
BRANCH   8  14
ATOM     14  O   UNL     1      75.825 -26.703  86.156  1.00  0.00    -0.504 OA
ATOM     15  H   UNL     1      75.603 -27.655  85.890  1.00  0.00     0.293 HD
ENDBRANCH   8  14
TORSDOF 2
ENDMDL
MODEL 9
REMARK VINA RESULT:    -5.489      4.657      6.182
REMARK INTER + INTRA:          -5.810
REMARK INTER:                  -5.810
REMARK INTRA:                   0.000
REMARK UNBOUND:                 0.000
REMARK SMILES O=c1ccc2cc(O)c(O)cc2o1
REMARK SMILES IDX 4 1 3 2 2 3 1 4 13 5 12 6 11 7 9 8 7 9 6 10 5 11 8 12 10 14
REMARK H PARENT 8 13 10 15
REMARK Flexibility Score: inf
ROOT
ATOM      1  C   UNL     1      82.176 -23.876  86.328  1.00  0.00     0.019 A 
ATOM      2  C   UNL     1      83.408 -23.463  86.834  1.00  0.00     0.094 A 
ATOM      3  C   UNL     1      84.268 -24.417  87.389  1.00  0.00     0.336 A 
ATOM      4  O   UNL     1      85.384 -24.063  87.851  1.00  0.00    -0.246 OA
ATOM      5  O   UNL     1      83.913 -25.698  87.432  1.00  0.00    -0.423 OA
ATOM      6  C   UNL     1      82.748 -26.135  86.960  1.00  0.00     0.142 A 
ATOM      7  C   UNL     1      82.430 -27.494  87.033  1.00  0.00     0.098 A 
ATOM      8  C   UNL     1      81.203 -27.960  86.537  1.00  0.00     0.161 A 
ATOM      9  C   UNL     1      80.290 -27.060  85.966  1.00  0.00     0.158 A 
ATOM     10  C   UNL     1      80.604 -25.696  85.890  1.00  0.00     0.062 A 
ATOM     11  C   UNL     1      81.829 -25.230  86.386  1.00  0.00     0.022 A 
ENDROOT
BRANCH   9  12
ATOM     12  O   UNL     1      79.073 -27.531  85.475  1.00  0.00    -0.504 OA
ATOM     13  H   UNL     1      78.494 -26.967  84.864  1.00  0.00     0.293 HD
ENDBRANCH   9  12
BRANCH   8  14
ATOM     14  O   UNL     1      80.882 -29.314  86.608  1.00  0.00    -0.504 OA
ATOM     15  H   UNL     1      81.301 -29.922  87.302  1.00  0.00     0.293 HD
ENDBRANCH   8  14
TORSDOF 2
ENDMDL
