MODEL 1
REMARK VINA RESULT:    -3.770      0.000      0.000
REMARK INTER + INTRA:          -4.723
REMARK INTER:                  -4.652
REMARK INTRA:                  -0.071
REMARK UNBOUND:                -0.071
REMARK SMILES CCCCCC=O
REMARK SMILES IDX 4 1 3 2 2 3 1 4 5 5 6 6 7 7
REMARK H PARENT
REMARK Flexibility Score: inf
ROOT
ATOM      1  C   UNL     1      24.639  47.504  33.524  1.00  0.00     0.008 C 
ENDROOT
BRANCH   1   2
ATOM      2  C   UNL     1      25.900  47.020  32.791  1.00  0.00     0.000 C 
BRANCH   2   3
ATOM      3  C   UNL     1      25.604  46.532  31.365  1.00  0.00    -0.003 C 
ATOM      4  C   UNL     1      26.666  45.543  30.892  1.00  0.00     0.004 C 
ENDBRANCH   2   3
ENDBRANCH   1   2
BRANCH   1   5
ATOM      5  C   UNL     1      24.957  48.480  34.665  1.00  0.00     0.072 C 
BRANCH   5   6
ATOM      6  C   UNL     1      26.273  49.158  34.434  1.00  0.00     0.224 C 
ATOM      7  O   UNL     1      26.593  50.134  35.095  1.00  0.00    -0.303 OA
ENDBRANCH   5   6
ENDBRANCH   1   5
TORSDOF 4
ENDMDL
MODEL 2
REMARK VINA RESULT:    -3.393      2.673      4.457
REMARK INTER + INTRA:          -4.258
REMARK INTER:                  -4.201
REMARK INTRA:                  -0.057
REMARK UNBOUND:                -0.071
REMARK SMILES CCCCCC=O
REMARK SMILES IDX 4 1 3 2 2 3 1 4 5 5 6 6 7 7
REMARK H PARENT
REMARK Flexibility Score: inf
ROOT
ATOM      1  C   UNL     1      25.853  47.125  32.577  1.00  0.00     0.008 C 
ENDROOT
BRANCH   1   2
ATOM      2  C   UNL     1      24.539  47.497  33.282  1.00  0.00     0.000 C 
BRANCH   2   3
ATOM      3  C   UNL     1      24.753  47.928  34.740  1.00  0.00    -0.003 C 
ATOM      4  C   UNL     1      25.823  49.012  34.841  1.00  0.00     0.004 C 
ENDBRANCH   2   3
ENDBRANCH   1   2
BRANCH   1   5
ATOM      5  C   UNL     1      25.625  46.501  31.194  1.00  0.00     0.072 C 
BRANCH   5   6
ATOM      6  C   UNL     1      26.663  45.461  30.901  1.00  0.00     0.224 C 
ATOM      7  O   UNL     1      27.324  45.515  29.875  1.00  0.00    -0.303 OA
ENDBRANCH   5   6
ENDBRANCH   1   5
TORSDOF 4
ENDMDL
MODEL 3
REMARK VINA RESULT:    -3.354     11.389     11.835
REMARK INTER + INTRA:          -4.209
REMARK INTER:                  -4.130
REMARK INTRA:                  -0.079
REMARK UNBOUND:                -0.071
REMARK SMILES CCCCCC=O
REMARK SMILES IDX 4 1 3 2 2 3 1 4 5 5 6 6 7 7
REMARK H PARENT
REMARK Flexibility Score: inf
ROOT
ATOM      1  C   UNL     1      21.022  47.569  45.014  1.00  0.00     0.008 C 
ENDROOT
BRANCH   1   2
ATOM      2  C   UNL     1      20.549  46.170  44.587  1.00  0.00     0.000 C 
BRANCH   2   3
ATOM      3  C   UNL     1      21.567  45.451  43.689  1.00  0.00    -0.003 C 
ATOM      4  C   UNL     1      22.150  44.228  44.391  1.00  0.00     0.004 C 
ENDBRANCH   2   3
ENDBRANCH   1   2
BRANCH   1   5
ATOM      5  C   UNL     1      21.453  48.435  43.822  1.00  0.00     0.072 C 
BRANCH   5   6
ATOM      6  C   UNL     1      22.277  49.600  44.280  1.00  0.00     0.224 C 
ATOM      7  O   UNL     1      22.895  50.278  43.474  1.00  0.00    -0.303 OA
ENDBRANCH   5   6
ENDBRANCH   1   5
TORSDOF 4
ENDMDL
MODEL 4
REMARK VINA RESULT:    -3.247     11.355     11.894
REMARK INTER + INTRA:          -4.077
REMARK INTER:                  -4.015
REMARK INTRA:                  -0.062
REMARK UNBOUND:                -0.071
REMARK SMILES CCCCCC=O
REMARK SMILES IDX 4 1 3 2 2 3 1 4 5 5 6 6 7 7
REMARK H PARENT
REMARK Flexibility Score: inf
ROOT
ATOM      1  C   UNL     1      21.371  47.655  43.311  1.00  0.00     0.008 C 
ENDROOT
BRANCH   1   2
ATOM      2  C   UNL     1      21.352  46.570  44.399  1.00  0.00     0.000 C 
BRANCH   2   3
ATOM      3  C   UNL     1      21.161  45.160  43.823  1.00  0.00    -0.003 C 
ATOM      4  C   UNL     1      22.211  44.196  44.372  1.00  0.00     0.004 C 
ENDBRANCH   2   3
ENDBRANCH   1   2
BRANCH   1   5
ATOM      5  C   UNL     1      21.811  49.024  43.850  1.00  0.00     0.072 C 
BRANCH   5   6
ATOM      6  C   UNL     1      20.635  49.796  44.366  1.00  0.00     0.224 C 
ATOM      7  O   UNL     1      19.623  49.908  43.692  1.00  0.00    -0.303 OA
ENDBRANCH   5   6
ENDBRANCH   1   5
TORSDOF 4
ENDMDL
MODEL 5
REMARK VINA RESULT:    -3.244     11.456     12.277
REMARK INTER + INTRA:          -4.074
REMARK INTER:                  -3.988
REMARK INTRA:                  -0.085
REMARK UNBOUND:                -0.071
REMARK SMILES CCCCCC=O
REMARK SMILES IDX 4 1 3 2 2 3 1 4 5 5 6 6 7 7
REMARK H PARENT
REMARK Flexibility Score: inf
ROOT
ATOM      1  C   UNL     1      21.445  47.537  43.361  1.00  0.00     0.008 C 
ENDROOT
BRANCH   1   2
ATOM      2  C   UNL     1      21.204  48.958  43.894  1.00  0.00     0.000 C 
BRANCH   2   3
ATOM      3  C   UNL     1      22.490  49.796  43.946  1.00  0.00    -0.003 C 
ATOM      4  C   UNL     1      23.056  49.846  45.363  1.00  0.00     0.004 C 
ENDBRANCH   2   3
ENDBRANCH   1   2
BRANCH   1   5
ATOM      5  C   UNL     1      21.312  46.467  44.452  1.00  0.00     0.072 C 
BRANCH   5   6
ATOM      6  C   UNL     1      21.373  45.091  43.860  1.00  0.00     0.224 C 
ATOM      7  O   UNL     1      22.212  44.289  44.241  1.00  0.00    -0.303 OA
ENDBRANCH   5   6
ENDBRANCH   1   5
TORSDOF 4
ENDMDL
MODEL 6
REMARK VINA RESULT:    -3.049     11.485     12.296
REMARK INTER + INTRA:          -3.833
REMARK INTER:                  -3.730
REMARK INTRA:                  -0.103
REMARK UNBOUND:                -0.071
REMARK SMILES CCCCCC=O
REMARK SMILES IDX 4 1 3 2 2 3 1 4 5 5 6 6 7 7
REMARK H PARENT
REMARK Flexibility Score: inf
ROOT
ATOM      1  C   UNL     1      21.388  47.565  44.774  1.00  0.00     0.008 C 
ENDROOT
BRANCH   1   2
ATOM      2  C   UNL     1      21.601  48.470  43.550  1.00  0.00     0.000 C 
BRANCH   2   3
ATOM      3  C   UNL     1      22.354  49.764  43.895  1.00  0.00    -0.003 C 
ATOM      4  C   UNL     1      22.930  49.702  45.308  1.00  0.00     0.004 C 
ENDBRANCH   2   3
ENDBRANCH   1   2
BRANCH   1   5
ATOM      5  C   UNL     1      20.274  46.532  44.557  1.00  0.00     0.072 C 
BRANCH   5   6
ATOM      6  C   UNL     1      20.566  45.677  43.361  1.00  0.00     0.224 C 
ATOM      7  O   UNL     1      19.794  45.649  42.415  1.00  0.00    -0.303 OA
ENDBRANCH   5   6
ENDBRANCH   1   5
TORSDOF 4
ENDMDL
MODEL 7
REMARK VINA RESULT:    -2.774     11.596     12.172
REMARK INTER + INTRA:          -3.494
REMARK INTER:                  -3.446
REMARK INTRA:                  -0.048
REMARK UNBOUND:                -0.071
REMARK SMILES CCCCCC=O
REMARK SMILES IDX 4 1 3 2 2 3 1 4 5 5 6 6 7 7
REMARK H PARENT
REMARK Flexibility Score: inf
ROOT
ATOM      1  C   UNL     1      19.573  48.231  43.589  1.00  0.00     0.008 C 
ENDROOT
BRANCH   1   2
ATOM      2  C   UNL     1      20.966  47.619  43.379  1.00  0.00     0.000 C 
BRANCH   2   3
ATOM      3  C   UNL     1      21.358  46.645  44.501  1.00  0.00    -0.003 C 
ATOM      4  C   UNL     1      21.550  45.232  43.959  1.00  0.00     0.004 C 
ENDBRANCH   2   3
ENDBRANCH   1   2
BRANCH   1   5
ATOM      5  C   UNL     1      19.622  49.751  43.799  1.00  0.00     0.072 C 
BRANCH   5   6
ATOM      6  C   UNL     1      18.404  50.408  43.224  1.00  0.00     0.224 C 
ATOM      7  O   UNL     1      17.750  49.852  42.356  1.00  0.00    -0.303 OA
ENDBRANCH   5   6
ENDBRANCH   1   5
TORSDOF 4
ENDMDL
MODEL 8
REMARK VINA RESULT:    -2.762      2.215      2.951
REMARK INTER + INTRA:          -3.479
REMARK INTER:                  -3.385
REMARK INTRA:                  -0.094
REMARK UNBOUND:                -0.071
REMARK SMILES CCCCCC=O
REMARK SMILES IDX 4 1 3 2 2 3 1 4 5 5 6 6 7 7
REMARK H PARENT
REMARK Flexibility Score: inf
ROOT
ATOM      1  C   UNL     1      26.262  49.739  35.028  1.00  0.00     0.008 C 
ENDROOT
BRANCH   1   2
ATOM      2  C   UNL     1      26.636  48.728  33.933  1.00  0.00     0.000 C 
BRANCH   2   3
ATOM      3  C   UNL     1      25.836  47.421  34.038  1.00  0.00    -0.003 C 
ATOM      4  C   UNL     1      24.725  47.372  32.993  1.00  0.00     0.004 C 
ENDBRANCH   2   3
ENDBRANCH   1   2
BRANCH   1   5
ATOM      5  C   UNL     1      25.465  49.101  36.174  1.00  0.00     0.072 C 
BRANCH   5   6
ATOM      6  C   UNL     1      25.776  49.772  37.477  1.00  0.00     0.224 C 
ATOM      7  O   UNL     1      25.142  49.495  38.484  1.00  0.00    -0.303 OA
ENDBRANCH   5   6
ENDBRANCH   1   5
TORSDOF 4
ENDMDL
