MODEL 1
REMARK VINA RESULT:    -5.638      0.000      0.000
REMARK INTER + INTRA:          -6.097
REMARK INTER:                  -5.968
REMARK INTRA:                  -0.129
REMARK UNBOUND:                -0.129
REMARK SMILES C=C(C)[C@@H]1CC=C(C)CC1
REMARK SMILES IDX 8 1 7 2 6 3 5 4 4 5 10 6 9 7 2 8 1 9 3 10
REMARK H PARENT
REMARK Flexibility Score: inf
ROOT
ATOM      1  C   UNL     1     134.936 139.355 123.303  1.00  0.00     0.039 C 
ATOM      2  C   UNL     1     136.019 138.336 123.533  1.00  0.00    -0.077 C 
ATOM      3  C   UNL     1     136.017 137.626 124.682  1.00  0.00    -0.027 C 
ATOM      4  C   UNL     1     137.029 136.546 124.981  1.00  0.00     0.035 C 
ATOM      5  C   UNL     1     138.321 136.716 124.164  1.00  0.00     0.018 C 
ATOM      6  C   UNL     1     137.975 136.949 122.685  1.00  0.00     0.013 C 
ATOM      7  C   UNL     1     137.151 138.232 122.529  1.00  0.00     0.031 C 
ENDROOT
BRANCH   5   8
ATOM      8  C   UNL     1     139.259 135.530 124.345  1.00  0.00    -0.077 C 
ATOM      9  C   UNL     1     139.340 134.875 125.516  1.00  0.00     0.008 C 
ATOM     10  C   UNL     1     140.117 135.064 123.196  1.00  0.00     0.039 C 
ENDBRANCH   5   8
TORSDOF 1
ENDMDL
MODEL 2
REMARK VINA RESULT:    -5.556      0.985      4.606
REMARK INTER + INTRA:          -6.010
REMARK INTER:                  -5.881
REMARK INTRA:                  -0.129
REMARK UNBOUND:                -0.129
REMARK SMILES C=C(C)[C@@H]1CC=C(C)CC1
REMARK SMILES IDX 8 1 7 2 6 3 5 4 4 5 10 6 9 7 2 8 1 9 3 10
REMARK H PARENT
REMARK Flexibility Score: inf
ROOT
ATOM      1  C   UNL     1     140.031 134.875 122.980  1.00  0.00     0.039 C 
ATOM      2  C   UNL     1     138.926 135.870 123.215  1.00  0.00    -0.077 C 
ATOM      3  C   UNL     1     138.512 136.643 122.187  1.00  0.00    -0.027 C 
ATOM      4  C   UNL     1     137.378 137.631 122.309  1.00  0.00     0.035 C 
ATOM      5  C   UNL     1     137.135 138.062 123.766  1.00  0.00     0.018 C 
ATOM      6  C   UNL     1     137.073 136.824 124.672  1.00  0.00     0.013 C 
ATOM      7  C   UNL     1     138.404 136.065 124.625  1.00  0.00     0.031 C 
ENDROOT
BRANCH   5   8
ATOM      8  C   UNL     1     135.882 138.920 123.895  1.00  0.00    -0.077 C 
ATOM      9  C   UNL     1     134.880 138.832 123.003  1.00  0.00     0.008 C 
ATOM     10  C   UNL     1     135.745 139.888 125.042  1.00  0.00     0.039 C 
ENDBRANCH   5   8
TORSDOF 1
ENDMDL
MODEL 3
REMARK VINA RESULT:    -4.757     14.253     16.671
REMARK INTER + INTRA:          -5.164
REMARK INTER:                  -5.039
REMARK INTRA:                  -0.124
REMARK UNBOUND:                -0.129
REMARK SMILES C=C(C)[C@@H]1CC=C(C)CC1
REMARK SMILES IDX 8 1 7 2 6 3 5 4 4 5 10 6 9 7 2 8 1 9 3 10
REMARK H PARENT
REMARK Flexibility Score: inf
ROOT
ATOM      1  C   UNL     1     140.031 155.125 124.875  1.00  0.00     0.039 C 
ATOM      2  C   UNL     1     138.856 154.365 124.322  1.00  0.00    -0.077 C 
ATOM      3  C   UNL     1     137.712 154.316 125.038  1.00  0.00    -0.027 C 
ATOM      4  C   UNL     1     136.463 153.625 124.545  1.00  0.00     0.035 C 
ATOM      5  C   UNL     1     136.771 152.558 123.480  1.00  0.00     0.018 C 
ATOM      6  C   UNL     1     137.705 153.144 122.410  1.00  0.00     0.013 C 
ATOM      7  C   UNL     1     139.036 153.569 123.043  1.00  0.00     0.031 C 
ENDROOT
BRANCH   5   8
ATOM      8  C   UNL     1     135.495 151.993 122.867  1.00  0.00    -0.077 C 
ATOM      9  C   UNL     1     134.875 152.614 121.849  1.00  0.00     0.008 C 
ATOM     10  C   UNL     1     134.906 150.712 123.398  1.00  0.00     0.039 C 
ENDBRANCH   5   8
TORSDOF 1
ENDMDL
MODEL 4
REMARK VINA RESULT:    -4.521      0.949      4.293
REMARK INTER + INTRA:          -4.914
REMARK INTER:                  -4.784
REMARK INTRA:                  -0.130
REMARK UNBOUND:                -0.129
REMARK SMILES C=C(C)[C@@H]1CC=C(C)CC1
REMARK SMILES IDX 8 1 7 2 6 3 5 4 4 5 10 6 9 7 2 8 1 9 3 10
REMARK H PARENT
REMARK Flexibility Score: inf
ROOT
ATOM      1  C   UNL     1     139.910 134.875 123.895  1.00  0.00     0.039 C 
ATOM      2  C   UNL     1     138.869 135.960 123.900  1.00  0.00    -0.077 C 
ATOM      3  C   UNL     1     138.213 136.234 125.049  1.00  0.00    -0.027 C 
ATOM      4  C   UNL     1     137.190 137.338 125.167  1.00  0.00     0.035 C 
ATOM      5  C   UNL     1     136.583 137.718 123.805  1.00  0.00     0.018 C 
ATOM      6  C   UNL     1     137.704 137.922 122.774  1.00  0.00     0.013 C 
ATOM      7  C   UNL     1     138.494 136.621 122.587  1.00  0.00     0.031 C 
ENDROOT
BRANCH   5   8
ATOM      8  C   UNL     1     135.686 138.944 123.914  1.00  0.00    -0.077 C 
ATOM      9  C   UNL     1     135.600 139.648 125.056  1.00  0.00     0.008 C 
ATOM     10  C   UNL     1     134.875 139.394 122.726  1.00  0.00     0.039 C 
ENDBRANCH   5   8
TORSDOF 1
ENDMDL
MODEL 5
REMARK VINA RESULT:    -4.341     14.997     16.157
REMARK INTER + INTRA:          -4.723
REMARK INTER:                  -4.598
REMARK INTRA:                  -0.125
REMARK UNBOUND:                -0.129
REMARK SMILES C=C(C)[C@@H]1CC=C(C)CC1
REMARK SMILES IDX 8 1 7 2 6 3 5 4 4 5 10 6 9 7 2 8 1 9 3 10
REMARK H PARENT
REMARK Flexibility Score: inf
ROOT
ATOM      1  C   UNL     1     137.900 152.868 120.043  1.00  0.00     0.039 C 
ATOM      2  C   UNL     1     137.220 152.794 121.383  1.00  0.00    -0.077 C 
ATOM      3  C   UNL     1     137.866 153.265 122.471  1.00  0.00    -0.027 C 
ATOM      4  C   UNL     1     137.248 153.283 123.849  1.00  0.00     0.035 C 
ATOM      5  C   UNL     1     136.114 152.253 123.991  1.00  0.00     0.018 C 
ATOM      6  C   UNL     1     135.151 152.370 122.800  1.00  0.00     0.013 C 
ATOM      7  C   UNL     1     135.890 152.073 121.490  1.00  0.00     0.031 C 
ENDROOT
BRANCH   5   8
ATOM      8  C   UNL     1     135.387 152.400 125.322  1.00  0.00    -0.077 C 
ATOM      9  C   UNL     1     134.875 151.334 125.961  1.00  0.00     0.008 C 
ATOM     10  C   UNL     1     135.234 153.761 125.951  1.00  0.00     0.039 C 
ENDBRANCH   5   8
TORSDOF 1
ENDMDL
MODEL 6
REMARK VINA RESULT:    -4.202      1.459      2.513
REMARK INTER + INTRA:          -4.577
REMARK INTER:                  -4.450
REMARK INTRA:                  -0.127
REMARK UNBOUND:                -0.129
REMARK SMILES C=C(C)[C@@H]1CC=C(C)CC1
REMARK SMILES IDX 8 1 7 2 6 3 5 4 4 5 10 6 9 7 2 8 1 9 3 10
REMARK H PARENT
REMARK Flexibility Score: inf
ROOT
ATOM      1  C   UNL     1     137.835 138.251 120.148  1.00  0.00     0.039 C 
ATOM      2  C   UNL     1     137.888 137.457 121.424  1.00  0.00    -0.077 C 
ATOM      3  C   UNL     1     137.231 137.919 122.510  1.00  0.00    -0.027 C 
ATOM      4  C   UNL     1     137.179 137.169 123.820  1.00  0.00     0.035 C 
ATOM      5  C   UNL     1     138.348 136.178 123.969  1.00  0.00     0.018 C 
ATOM      6  C   UNL     1     138.480 135.333 122.693  1.00  0.00     0.013 C 
ATOM      7  C   UNL     1     138.783 136.234 121.490  1.00  0.00     0.031 C 
ENDROOT
BRANCH   5   8
ATOM      8  C   UNL     1     138.189 135.308 125.209  1.00  0.00    -0.077 C 
ATOM      9  C   UNL     1     136.978 134.902 125.628  1.00  0.00     0.008 C 
ATOM     10  C   UNL     1     139.404 134.879 125.991  1.00  0.00     0.039 C 
ENDBRANCH   5   8
TORSDOF 1
ENDMDL
MODEL 7
REMARK VINA RESULT:    -3.943     13.712     16.071
REMARK INTER + INTRA:          -4.303
REMARK INTER:                  -4.179
REMARK INTRA:                  -0.123
REMARK UNBOUND:                -0.129
REMARK SMILES C=C(C)[C@@H]1CC=C(C)CC1
REMARK SMILES IDX 8 1 7 2 6 3 5 4 4 5 10 6 9 7 2 8 1 9 3 10
REMARK H PARENT
REMARK Flexibility Score: inf
ROOT
ATOM      1  C   UNL     1     150.931 134.890 124.986  1.00  0.00     0.039 C 
ATOM      2  C   UNL     1     151.888 135.925 124.458  1.00  0.00    -0.077 C 
ATOM      3  C   UNL     1     151.619 136.523 123.277  1.00  0.00    -0.027 C 
ATOM      4  C   UNL     1     152.488 137.609 122.690  1.00  0.00     0.035 C 
ATOM      5  C   UNL     1     153.924 137.567 123.242  1.00  0.00     0.018 C 
ATOM      6  C   UNL     1     153.889 137.462 124.774  1.00  0.00     0.013 C 
ATOM      7  C   UNL     1     153.187 136.167 125.201  1.00  0.00     0.031 C 
ENDROOT
BRANCH   5   8
ATOM      8  C   UNL     1     154.738 138.768 122.777  1.00  0.00    -0.077 C 
ATOM      9  C   UNL     1     155.125 138.895 121.496  1.00  0.00     0.008 C 
ATOM     10  C   UNL     1     155.121 139.845 123.757  1.00  0.00     0.039 C 
ENDBRANCH   5   8
TORSDOF 1
ENDMDL
MODEL 8
REMARK VINA RESULT:    -3.730     22.344     23.027
REMARK INTER + INTRA:          -4.077
REMARK INTER:                  -3.952
REMARK INTRA:                  -0.125
REMARK UNBOUND:                -0.129
REMARK SMILES C=C(C)[C@@H]1CC=C(C)CC1
REMARK SMILES IDX 8 1 7 2 6 3 5 4 4 5 10 6 9 7 2 8 1 9 3 10
REMARK H PARENT
REMARK Flexibility Score: inf
ROOT
ATOM      1  C   UNL     1     152.952 152.552 119.844  1.00  0.00     0.039 C 
ATOM      2  C   UNL     1     152.860 153.159 121.217  1.00  0.00    -0.077 C 
ATOM      3  C   UNL     1     153.440 152.519 122.256  1.00  0.00    -0.027 C 
ATOM      4  C   UNL     1     153.449 153.074 123.660  1.00  0.00     0.035 C 
ATOM      5  C   UNL     1     152.312 154.085 123.894  1.00  0.00     0.018 C 
ATOM      6  C   UNL     1     152.281 155.107 122.747  1.00  0.00     0.013 C 
ATOM      7  C   UNL     1     152.010 154.400 121.414  1.00  0.00     0.031 C 
ENDROOT
BRANCH   5   8
ATOM      8  C   UNL     1     152.437 154.764 125.252  1.00  0.00    -0.077 C 
ATOM      9  C   UNL     1     151.350 155.125 125.955  1.00  0.00     0.008 C 
ATOM     10  C   UNL     1     153.798 155.038 125.837  1.00  0.00     0.039 C 
ENDBRANCH   5   8
TORSDOF 1
ENDMDL
