MODEL 1
REMARK VINA RESULT:    -3.957      0.000      0.000
REMARK INTER + INTRA:          -5.272
REMARK INTER:                  -5.114
REMARK INTRA:                  -0.158
REMARK UNBOUND:                -0.158
REMARK SMILES CCCCCCC(=O)[O-]
REMARK SMILES IDX 5 1 6 2 7 3 8 4 9 5 4 6 3 7 2 8 1 9
REMARK H PARENT
REMARK Flexibility Score: inf
ROOT
ATOM      1  C   UNL     1      37.011  72.286  73.976  1.00  0.00     0.006 C 
ENDROOT
BRANCH   1   2
ATOM      2  C   UNL     1      36.657  72.074  75.455  1.00  0.00     0.053 C 
BRANCH   2   3
ATOM      3  C   UNL     1      36.635  70.621  75.816  1.00  0.00     0.041 C 
ATOM      4  O   UNL     1      37.412  70.176  76.703  1.00  0.00    -0.550 OA
ATOM      5  O   UNL     1      35.783  69.749  75.149  1.00  0.00    -0.550 OA
ENDBRANCH   2   3
ENDBRANCH   1   2
BRANCH   1   6
ATOM      6  C   UNL     1      37.255  73.768  73.644  1.00  0.00     0.000 C 
BRANCH   6   7
ATOM      7  C   UNL     1      38.142  73.965  72.402  1.00  0.00    -0.000 C 
BRANCH   7   8
ATOM      8  C   UNL     1      39.260  75.011  72.567  1.00  0.00    -0.003 C 
ATOM      9  C   UNL     1      39.895  74.994  73.957  1.00  0.00     0.004 C 
ENDBRANCH   7   8
ENDBRANCH   6   7
ENDBRANCH   1   6
TORSDOF 5
ENDMDL
MODEL 2
REMARK VINA RESULT:    -3.742      1.616      2.548
REMARK INTER + INTRA:          -4.994
REMARK INTER:                  -4.895
REMARK INTRA:                  -0.099
REMARK UNBOUND:                -0.158
REMARK SMILES CCCCCCC(=O)[O-]
REMARK SMILES IDX 5 1 6 2 7 3 8 4 9 5 4 6 3 7 2 8 1 9
REMARK H PARENT
REMARK Flexibility Score: inf
ROOT
ATOM      1  C   UNL     1      36.403  71.153  75.525  1.00  0.00     0.006 C 
ENDROOT
BRANCH   1   2
ATOM      2  C   UNL     1      37.145  70.018  76.245  1.00  0.00     0.053 C 
BRANCH   2   3
ATOM      3  C   UNL     1      36.731  68.673  75.733  1.00  0.00     0.041 C 
ATOM      4  O   UNL     1      35.788  68.573  74.904  1.00  0.00    -0.550 OA
ATOM      5  O   UNL     1      37.362  67.525  76.199  1.00  0.00    -0.550 OA
ENDBRANCH   2   3
ENDBRANCH   1   2
BRANCH   1   6
ATOM      6  C   UNL     1      37.364  72.228  74.990  1.00  0.00     0.000 C 
BRANCH   6   7
ATOM      7  C   UNL     1      36.717  73.134  73.928  1.00  0.00    -0.000 C 
BRANCH   7   8
ATOM      8  C   UNL     1      37.702  73.751  72.919  1.00  0.00    -0.003 C 
ATOM      9  C   UNL     1      37.379  73.388  71.470  1.00  0.00     0.004 C 
ENDBRANCH   7   8
ENDBRANCH   6   7
ENDBRANCH   1   6
TORSDOF 5
ENDMDL
MODEL 3
REMARK VINA RESULT:    -3.731      2.961      5.272
REMARK INTER + INTRA:          -4.980
REMARK INTER:                  -4.879
REMARK INTRA:                  -0.101
REMARK UNBOUND:                -0.158
REMARK SMILES CCCCCCC(=O)[O-]
REMARK SMILES IDX 5 1 6 2 7 3 8 4 9 5 4 6 3 7 2 8 1 9
REMARK H PARENT
REMARK Flexibility Score: inf
ROOT
ATOM      1  C   UNL     1      36.981  72.198  74.004  1.00  0.00     0.006 C 
ENDROOT
BRANCH   1   2
ATOM      2  C   UNL     1      36.938  73.697  73.676  1.00  0.00     0.053 C 
BRANCH   2   3
ATOM      3  C   UNL     1      38.085  74.107  72.804  1.00  0.00     0.041 C 
ATOM      4  O   UNL     1      37.992  74.018  71.551  1.00  0.00    -0.550 OA
ATOM      5  O   UNL     1      39.270  74.552  73.377  1.00  0.00    -0.550 OA
ENDBRANCH   2   3
ENDBRANCH   1   2
BRANCH   1   6
ATOM      6  C   UNL     1      36.725  71.921  75.495  1.00  0.00     0.000 C 
BRANCH   6   7
ATOM      7  C   UNL     1      36.272  70.476  75.767  1.00  0.00    -0.000 C 
BRANCH   7   8
ATOM      8  C   UNL     1      37.376  69.542  76.293  1.00  0.00    -0.003 C 
ATOM      9  C   UNL     1      37.136  68.074  75.941  1.00  0.00     0.004 C 
ENDBRANCH   7   8
ENDBRANCH   6   7
ENDBRANCH   1   6
TORSDOF 5
ENDMDL
MODEL 4
REMARK VINA RESULT:    -3.652      3.221      5.238
REMARK INTER + INTRA:          -4.878
REMARK INTER:                  -4.774
REMARK INTRA:                  -0.104
REMARK UNBOUND:                -0.158
REMARK SMILES CCCCCCC(=O)[O-]
REMARK SMILES IDX 5 1 6 2 7 3 8 4 9 5 4 6 3 7 2 8 1 9
REMARK H PARENT
REMARK Flexibility Score: inf
ROOT
ATOM      1  C   UNL     1      37.182  73.793  73.656  1.00  0.00     0.006 C 
ENDROOT
BRANCH   1   2
ATOM      2  C   UNL     1      38.104  74.050  72.455  1.00  0.00     0.053 C 
BRANCH   2   3
ATOM      3  C   UNL     1      39.299  74.867  72.840  1.00  0.00     0.041 C 
ATOM      4  O   UNL     1      39.966  75.470  71.957  1.00  0.00    -0.550 OA
ATOM      5  O   UNL     1      39.699  74.933  74.169  1.00  0.00    -0.550 OA
ENDBRANCH   2   3
ENDBRANCH   1   2
BRANCH   1   6
ATOM      6  C   UNL     1      37.003  72.292  73.939  1.00  0.00     0.000 C 
BRANCH   6   7
ATOM      7  C   UNL     1      36.705  71.994  75.420  1.00  0.00    -0.000 C 
BRANCH   7   8
ATOM      8  C   UNL     1      36.342  70.529  75.723  1.00  0.00    -0.003 C 
ATOM      9  C   UNL     1      37.455  69.775  76.449  1.00  0.00     0.004 C 
ENDBRANCH   7   8
ENDBRANCH   6   7
ENDBRANCH   1   6
TORSDOF 5
ENDMDL
MODEL 5
REMARK VINA RESULT:    -3.197     13.193     14.362
REMARK INTER + INTRA:          -4.289
REMARK INTER:                  -4.011
REMARK INTRA:                  -0.278
REMARK UNBOUND:                -0.158
REMARK SMILES CCCCCCC(=O)[O-]
REMARK SMILES IDX 5 1 6 2 7 3 8 4 9 5 4 6 3 7 2 8 1 9
REMARK H PARENT
REMARK Flexibility Score: inf
ROOT
ATOM      1  C   UNL     1      26.323  67.243  75.837  1.00  0.00     0.006 C 
ENDROOT
BRANCH   1   2
ATOM      2  C   UNL     1      24.864  67.117  76.300  1.00  0.00     0.053 C 
BRANCH   2   3
ATOM      3  C   UNL     1      24.200  68.454  76.412  1.00  0.00     0.041 C 
ATOM      4  O   UNL     1      23.922  69.113  75.376  1.00  0.00    -0.550 OA
ATOM      5  O   UNL     1      23.922  68.991  77.664  1.00  0.00    -0.550 OA
ENDBRANCH   2   3
ENDBRANCH   1   2
BRANCH   1   6
ATOM      6  C   UNL     1      26.827  65.964  75.149  1.00  0.00     0.000 C 
BRANCH   6   7
ATOM      7  C   UNL     1      25.763  65.307  74.251  1.00  0.00    -0.000 C 
BRANCH   7   8
ATOM      8  C   UNL     1      25.481  63.826  74.562  1.00  0.00    -0.003 C 
ATOM      9  C   UNL     1      25.877  63.427  75.983  1.00  0.00     0.004 C 
ENDBRANCH   7   8
ENDBRANCH   6   7
ENDBRANCH   1   6
TORSDOF 5
ENDMDL
MODEL 6
REMARK VINA RESULT:    -3.165     13.384     14.287
REMARK INTER + INTRA:          -4.249
REMARK INTER:                  -3.938
REMARK INTRA:                  -0.311
REMARK UNBOUND:                -0.158
REMARK SMILES CCCCCCC(=O)[O-]
REMARK SMILES IDX 5 1 6 2 7 3 8 4 9 5 4 6 3 7 2 8 1 9
REMARK H PARENT
REMARK Flexibility Score: inf
ROOT
ATOM      1  C   UNL     1      25.239  64.551  74.523  1.00  0.00     0.006 C 
ENDROOT
BRANCH   1   2
ATOM      2  C   UNL     1      26.088  64.978  73.317  1.00  0.00     0.053 C 
BRANCH   2   3
ATOM      3  C   UNL     1      25.246  65.569  72.229  1.00  0.00     0.041 C 
ATOM      4  O   UNL     1      25.477  65.286  71.023  1.00  0.00    -0.550 OA
ATOM      5  O   UNL     1      24.227  66.461  72.543  1.00  0.00    -0.550 OA
ENDBRANCH   2   3
ENDBRANCH   1   2
BRANCH   1   6
ATOM      6  C   UNL     1      25.678  65.254  75.819  1.00  0.00     0.000 C 
BRANCH   6   7
ATOM      7  C   UNL     1      26.491  66.534  75.560  1.00  0.00    -0.000 C 
BRANCH   7   8
ATOM      8  C   UNL     1      25.745  67.846  75.866  1.00  0.00    -0.003 C 
ATOM      9  C   UNL     1      24.573  67.657  76.827  1.00  0.00     0.004 C 
ENDBRANCH   7   8
ENDBRANCH   6   7
ENDBRANCH   1   6
TORSDOF 5
ENDMDL
MODEL 7
REMARK VINA RESULT:    -2.991     19.117     19.988
REMARK INTER + INTRA:          -4.024
REMARK INTER:                  -3.854
REMARK INTRA:                  -0.170
REMARK UNBOUND:                -0.158
REMARK SMILES CCCCCCC(=O)[O-]
REMARK SMILES IDX 5 1 6 2 7 3 8 4 9 5 4 6 3 7 2 8 1 9
REMARK H PARENT
REMARK Flexibility Score: inf
ROOT
ATOM      1  C   UNL     1      29.923  58.610  86.062  1.00  0.00     0.006 C 
ENDROOT
BRANCH   1   2
ATOM      2  C   UNL     1      31.130  57.664  86.001  1.00  0.00     0.053 C 
BRANCH   2   3
ATOM      3  C   UNL     1      31.699  57.579  84.618  1.00  0.00     0.041 C 
ATOM      4  O   UNL     1      30.978  57.840  83.619  1.00  0.00    -0.550 OA
ATOM      5  O   UNL     1      33.016  57.178  84.430  1.00  0.00    -0.550 OA
ENDBRANCH   2   3
ENDBRANCH   1   2
BRANCH   1   6
ATOM      6  C   UNL     1      28.807  58.071  86.973  1.00  0.00     0.000 C 
BRANCH   6   7
ATOM      7  C   UNL     1      27.980  59.189  87.632  1.00  0.00    -0.000 C 
BRANCH   7   8
ATOM      8  C   UNL     1      27.931  60.508  86.840  1.00  0.00    -0.003 C 
ATOM      9  C   UNL     1      28.020  61.745  87.733  1.00  0.00     0.004 C 
ENDBRANCH   7   8
ENDBRANCH   6   7
ENDBRANCH   1   6
TORSDOF 5
ENDMDL
MODEL 8
REMARK VINA RESULT:    -2.989     13.474     14.305
REMARK INTER + INTRA:          -4.021
REMARK INTER:                  -3.702
REMARK INTRA:                  -0.319
REMARK UNBOUND:                -0.158
REMARK SMILES CCCCCCC(=O)[O-]
REMARK SMILES IDX 5 1 6 2 7 3 8 4 9 5 4 6 3 7 2 8 1 9
REMARK H PARENT
REMARK Flexibility Score: inf
ROOT
ATOM      1  C   UNL     1      25.334  66.035  76.185  1.00  0.00     0.006 C 
ENDROOT
BRANCH   1   2
ATOM      2  C   UNL     1      25.750  67.491  75.934  1.00  0.00     0.053 C 
BRANCH   2   3
ATOM      3  C   UNL     1      24.608  68.437  76.143  1.00  0.00     0.041 C 
ATOM      4  O   UNL     1      24.091  69.034  75.161  1.00  0.00    -0.550 OA
ATOM      5  O   UNL     1      24.137  68.688  77.426  1.00  0.00    -0.550 OA
ENDBRANCH   2   3
ENDBRANCH   1   2
BRANCH   1   6
ATOM      6  C   UNL     1      26.194  65.039  75.387  1.00  0.00     0.000 C 
BRANCH   6   7
ATOM      7  C   UNL     1      26.220  65.345  73.879  1.00  0.00    -0.000 C 
BRANCH   7   8
ATOM      8  C   UNL     1      24.901  65.055  73.139  1.00  0.00    -0.003 C 
ATOM      9  C   UNL     1      24.215  66.320  72.624  1.00  0.00     0.004 C 
ENDBRANCH   7   8
ENDBRANCH   6   7
ENDBRANCH   1   6
TORSDOF 5
ENDMDL
MODEL 9
REMARK VINA RESULT:    -2.978     13.226     14.454
REMARK INTER + INTRA:          -4.007
REMARK INTER:                  -3.840
REMARK INTRA:                  -0.167
REMARK UNBOUND:                -0.158
REMARK SMILES CCCCCCC(=O)[O-]
REMARK SMILES IDX 5 1 6 2 7 3 8 4 9 5 4 6 3 7 2 8 1 9
REMARK H PARENT
REMARK Flexibility Score: inf
ROOT
ATOM      1  C   UNL     1      25.755  64.932  75.836  1.00  0.00     0.006 C 
ENDROOT
BRANCH   1   2
ATOM      2  C   UNL     1      25.762  63.709  74.909  1.00  0.00     0.053 C 
BRANCH   2   3
ATOM      3  C   UNL     1      25.807  62.427  75.683  1.00  0.00     0.041 C 
ATOM      4  O   UNL     1      25.149  61.426  75.291  1.00  0.00    -0.550 OA
ATOM      5  O   UNL     1      26.546  62.348  76.857  1.00  0.00    -0.550 OA
ENDBRANCH   2   3
ENDBRANCH   1   2
BRANCH   1   6
ATOM      6  C   UNL     1      26.542  66.114  75.244  1.00  0.00     0.000 C 
BRANCH   6   7
ATOM      7  C   UNL     1      26.145  67.466  75.862  1.00  0.00    -0.000 C 
BRANCH   7   8
ATOM      8  C   UNL     1      24.629  67.729  75.921  1.00  0.00    -0.003 C 
ATOM      9  C   UNL     1      24.207  68.512  77.164  1.00  0.00     0.004 C 
ENDBRANCH   7   8
ENDBRANCH   6   7
ENDBRANCH   1   6
TORSDOF 5
ENDMDL
