MODEL 1
REMARK VINA RESULT:    -2.745      0.000      0.000
REMARK INTER + INTRA:          -4.974
REMARK INTER:                  -4.028
REMARK INTRA:                  -0.946
REMARK UNBOUND:                -0.946
REMARK SMILES CCCCCCCCCC=O
REMARK SMILES IDX 6 1 5 2 4 3 3 4 2 5 1 6 7 7 8 8 9 9 10 10 11 11
REMARK H PARENT
REMARK Flexibility Score: inf
ROOT
ATOM      1  C   UNL     1     139.172 140.603 142.443  1.00  0.00     0.000 C 
ENDROOT
BRANCH   1   2
ATOM      2  C   UNL     1     139.470 139.524 141.390  1.00  0.00     0.000 C 
BRANCH   2   3
ATOM      3  C   UNL     1     140.766 138.748 141.685  1.00  0.00    -0.000 C 
BRANCH   3   4
ATOM      4  C   UNL     1     141.293 138.999 143.107  1.00  0.00    -0.000 C 
BRANCH   4   5
ATOM      5  C   UNL     1     142.774 139.402 143.124  1.00  0.00    -0.003 C 
ATOM      6  C   UNL     1     143.303 139.609 141.707  1.00  0.00     0.004 C 
ENDBRANCH   4   5
ENDBRANCH   3   4
ENDBRANCH   2   3
ENDBRANCH   1   2
BRANCH   1   7
ATOM      7  C   UNL     1     139.519 142.018 141.952  1.00  0.00     0.000 C 
BRANCH   7   8
ATOM      8  C   UNL     1     140.505 142.750 142.882  1.00  0.00     0.008 C 
BRANCH   8   9
ATOM      9  C   UNL     1     141.902 142.998 142.286  1.00  0.00     0.072 C 
BRANCH   9  10
ATOM     10  C   UNL     1     141.845 143.441 140.853  1.00  0.00     0.224 C 
ATOM     11  O   UNL     1     141.481 144.571 140.565  1.00  0.00    -0.303 OA
ENDBRANCH   9  10
ENDBRANCH   8   9
ENDBRANCH   7   8
ENDBRANCH   1   7
TORSDOF 8
ENDMDL
MODEL 2
REMARK VINA RESULT:    -2.685      1.872      3.183
REMARK INTER + INTRA:          -4.886
REMARK INTER:                  -3.957
REMARK INTRA:                  -0.929
REMARK UNBOUND:                -0.946
REMARK SMILES CCCCCCCCCC=O
REMARK SMILES IDX 6 1 5 2 4 3 3 4 2 5 1 6 7 7 8 8 9 9 10 10 11 11
REMARK H PARENT
REMARK Flexibility Score: inf
ROOT
ATOM      1  C   UNL     1     142.002 142.014 141.634  1.00  0.00     0.000 C 
ENDROOT
BRANCH   1   2
ATOM      2  C   UNL     1     142.540 141.365 142.919  1.00  0.00     0.000 C 
BRANCH   2   3
ATOM      3  C   UNL     1     142.676 139.837 142.801  1.00  0.00    -0.000 C 
BRANCH   3   4
ATOM      4  C   UNL     1     141.744 139.243 141.732  1.00  0.00    -0.000 C 
BRANCH   4   5
ATOM      5  C   UNL     1     140.467 138.639 142.333  1.00  0.00    -0.003 C 
ATOM      6  C   UNL     1     139.770 137.721 141.332  1.00  0.00     0.004 C 
ENDBRANCH   4   5
ENDBRANCH   3   4
ENDBRANCH   2   3
ENDBRANCH   1   2
BRANCH   1   7
ATOM      7  C   UNL     1     140.773 142.902 141.892  1.00  0.00     0.000 C 
BRANCH   7   8
ATOM      8  C   UNL     1     139.825 142.320 142.957  1.00  0.00     0.008 C 
BRANCH   8   9
ATOM      9  C   UNL     1     138.465 141.838 142.426  1.00  0.00     0.072 C 
BRANCH   9  10
ATOM     10  C   UNL     1     138.401 141.832 140.927  1.00  0.00     0.224 C 
ATOM     11  O   UNL     1     138.384 140.779 140.308  1.00  0.00    -0.303 OA
ENDBRANCH   9  10
ENDBRANCH   8   9
ENDBRANCH   7   8
ENDBRANCH   1   7
TORSDOF 8
ENDMDL
MODEL 3
REMARK VINA RESULT:    -2.632      2.206      3.354
REMARK INTER + INTRA:          -4.809
REMARK INTER:                  -3.880
REMARK INTRA:                  -0.929
REMARK UNBOUND:                -0.946
REMARK SMILES CCCCCCCCCC=O
REMARK SMILES IDX 6 1 5 2 4 3 3 4 2 5 1 6 7 7 8 8 9 9 10 10 11 11
REMARK H PARENT
REMARK Flexibility Score: inf
ROOT
ATOM      1  C   UNL     1     139.620 139.750 141.964  1.00  0.00     0.000 C 
ENDROOT
BRANCH   1   2
ATOM      2  C   UNL     1     140.971 139.315 142.555  1.00  0.00     0.000 C 
BRANCH   2   3
ATOM      3  C   UNL     1     142.157 140.101 141.967  1.00  0.00    -0.000 C 
BRANCH   3   4
ATOM      4  C   UNL     1     142.709 141.152 142.943  1.00  0.00    -0.000 C 
BRANCH   4   5
ATOM      5  C   UNL     1     142.058 142.530 142.756  1.00  0.00    -0.003 C 
ATOM      6  C   UNL     1     141.948 142.888 141.276  1.00  0.00     0.004 C 
ENDBRANCH   4   5
ENDBRANCH   3   4
ENDBRANCH   2   3
ENDBRANCH   1   2
BRANCH   1   7
ATOM      7  C   UNL     1     138.833 140.673 142.909  1.00  0.00     0.000 C 
BRANCH   7   8
ATOM      8  C   UNL     1     138.296 141.933 142.206  1.00  0.00     0.008 C 
BRANCH   8   9
ATOM      9  C   UNL     1     138.289 141.869 140.669  1.00  0.00     0.072 C 
BRANCH   9  10
ATOM     10  C   UNL     1     136.900 141.848 140.100  1.00  0.00     0.224 C 
ATOM     11  O   UNL     1     136.704 142.119 138.925  1.00  0.00    -0.303 OA
ENDBRANCH   9  10
ENDBRANCH   8   9
ENDBRANCH   7   8
ENDBRANCH   1   7
TORSDOF 8
ENDMDL
MODEL 4
REMARK VINA RESULT:    -2.625      2.863      4.995
REMARK INTER + INTRA:          -4.799
REMARK INTER:                  -3.949
REMARK INTRA:                  -0.850
REMARK UNBOUND:                -0.946
REMARK SMILES CCCCCCCCCC=O
REMARK SMILES IDX 6 1 5 2 4 3 3 4 2 5 1 6 7 7 8 8 9 9 10 10 11 11
REMARK H PARENT
REMARK Flexibility Score: inf
ROOT
ATOM      1  C   UNL     1     142.078 139.477 141.558  1.00  0.00     0.000 C 
ENDROOT
BRANCH   1   2
ATOM      2  C   UNL     1     143.126 140.422 142.167  1.00  0.00     0.000 C 
BRANCH   2   3
ATOM      3  C   UNL     1     142.509 141.457 143.125  1.00  0.00    -0.000 C 
BRANCH   3   4
ATOM      4  C   UNL     1     141.715 142.545 142.384  1.00  0.00    -0.000 C 
BRANCH   4   5
ATOM      5  C   UNL     1     140.228 142.556 142.769  1.00  0.00    -0.003 C 
ATOM      6  C   UNL     1     139.357 142.100 141.602  1.00  0.00     0.004 C 
ENDBRANCH   4   5
ENDBRANCH   3   4
ENDBRANCH   2   3
ENDBRANCH   1   2
BRANCH   1   7
ATOM      7  C   UNL     1     141.163 138.848 142.622  1.00  0.00     0.000 C 
BRANCH   7   8
ATOM      8  C   UNL     1     139.821 138.361 142.045  1.00  0.00     0.008 C 
BRANCH   8   9
ATOM      9  C   UNL     1     139.775 138.240 140.512  1.00  0.00     0.072 C 
BRANCH   9  10
ATOM     10  C   UNL     1     139.817 136.814 140.046  1.00  0.00     0.224 C 
ATOM     11  O   UNL     1     139.318 136.494 138.978  1.00  0.00    -0.303 OA
ENDBRANCH   9  10
ENDBRANCH   8   9
ENDBRANCH   7   8
ENDBRANCH   1   7
TORSDOF 8
ENDMDL
MODEL 5
REMARK VINA RESULT:    -2.620      1.950      3.785
REMARK INTER + INTRA:          -4.792
REMARK INTER:                  -3.820
REMARK INTRA:                  -0.972
REMARK UNBOUND:                -0.946
REMARK SMILES CCCCCCCCCC=O
REMARK SMILES IDX 6 1 5 2 4 3 3 4 2 5 1 6 7 7 8 8 9 9 10 10 11 11
REMARK H PARENT
REMARK Flexibility Score: inf
ROOT
ATOM      1  C   UNL     1     139.796 139.291 142.221  1.00  0.00     0.000 C 
ENDROOT
BRANCH   1   2
ATOM      2  C   UNL     1     139.102 140.482 142.901  1.00  0.00     0.000 C 
BRANCH   2   3
ATOM      3  C   UNL     1     139.367 141.815 142.179  1.00  0.00    -0.000 C 
BRANCH   3   4
ATOM      4  C   UNL     1     140.389 142.694 142.919  1.00  0.00    -0.000 C 
BRANCH   4   5
ATOM      5  C   UNL     1     141.514 143.189 141.999  1.00  0.00    -0.003 C 
ATOM      6  C   UNL     1     141.122 143.054 140.530  1.00  0.00     0.004 C 
ENDBRANCH   4   5
ENDBRANCH   3   4
ENDBRANCH   2   3
ENDBRANCH   1   2
BRANCH   1   7
ATOM      7  C   UNL     1     141.063 138.841 142.968  1.00  0.00     0.000 C 
BRANCH   7   8
ATOM      8  C   UNL     1     142.337 139.548 142.468  1.00  0.00     0.008 C 
BRANCH   8   9
ATOM      9  C   UNL     1     142.517 139.562 140.941  1.00  0.00     0.072 C 
BRANCH   9  10
ATOM     10  C   UNL     1     143.778 140.257 140.517  1.00  0.00     0.224 C 
ATOM     11  O   UNL     1     144.826 139.639 140.417  1.00  0.00    -0.303 OA
ENDBRANCH   9  10
ENDBRANCH   8   9
ENDBRANCH   7   8
ENDBRANCH   1   7
TORSDOF 8
ENDMDL
MODEL 6
REMARK VINA RESULT:    -2.616      2.631      4.148
REMARK INTER + INTRA:          -4.786
REMARK INTER:                  -3.867
REMARK INTRA:                  -0.919
REMARK UNBOUND:                -0.946
REMARK SMILES CCCCCCCCCC=O
REMARK SMILES IDX 6 1 5 2 4 3 3 4 2 5 1 6 7 7 8 8 9 9 10 10 11 11
REMARK H PARENT
REMARK Flexibility Score: inf
ROOT
ATOM      1  C   UNL     1     139.041 141.823 141.107  1.00  0.00     0.000 C 
ENDROOT
BRANCH   1   2
ATOM      2  C   UNL     1     139.940 142.288 142.264  1.00  0.00     0.000 C 
BRANCH   2   3
ATOM      3  C   UNL     1     141.208 143.012 141.777  1.00  0.00    -0.000 C 
BRANCH   3   4
ATOM      4  C   UNL     1     142.341 142.038 141.415  1.00  0.00    -0.000 C 
BRANCH   4   5
ATOM      5  C   UNL     1     142.625 141.023 142.532  1.00  0.00    -0.003 C 
ATOM      6  C   UNL     1     143.351 139.797 141.986  1.00  0.00     0.004 C 
ENDBRANCH   4   5
ENDBRANCH   3   4
ENDBRANCH   2   3
ENDBRANCH   1   2
BRANCH   1   7
ATOM      7  C   UNL     1     139.124 140.307 140.868  1.00  0.00     0.000 C 
BRANCH   7   8
ATOM      8  C   UNL     1     139.285 139.502 142.172  1.00  0.00     0.008 C 
BRANCH   8   9
ATOM      9  C   UNL     1     140.023 138.161 142.023  1.00  0.00     0.072 C 
BRANCH   9  10
ATOM     10  C   UNL     1     140.215 137.766 140.588  1.00  0.00     0.224 C 
ATOM     11  O   UNL     1     139.620 136.806 140.122  1.00  0.00    -0.303 OA
ENDBRANCH   9  10
ENDBRANCH   8   9
ENDBRANCH   7   8
ENDBRANCH   1   7
TORSDOF 8
ENDMDL
MODEL 7
REMARK VINA RESULT:    -2.615      2.378      3.690
REMARK INTER + INTRA:          -4.784
REMARK INTER:                  -3.903
REMARK INTRA:                  -0.881
REMARK UNBOUND:                -0.946
REMARK SMILES CCCCCCCCCC=O
REMARK SMILES IDX 6 1 5 2 4 3 3 4 2 5 1 6 7 7 8 8 9 9 10 10 11 11
REMARK H PARENT
REMARK Flexibility Score: inf
ROOT
ATOM      1  C   UNL     1     140.570 142.570 141.320  1.00  0.00     0.000 C 
ENDROOT
BRANCH   1   2
ATOM      2  C   UNL     1     142.078 142.400 141.565  1.00  0.00     0.000 C 
BRANCH   2   3
ATOM      3  C   UNL     1     142.387 141.542 142.805  1.00  0.00    -0.000 C 
BRANCH   3   4
ATOM      4  C   UNL     1     143.113 140.235 142.451  1.00  0.00    -0.000 C 
BRANCH   4   5
ATOM      5  C   UNL     1     143.110 139.948 140.943  1.00  0.00    -0.003 C 
ATOM      6  C   UNL     1     144.532 139.781 140.413  1.00  0.00     0.004 C 
ENDBRANCH   4   5
ENDBRANCH   3   4
ENDBRANCH   2   3
ENDBRANCH   1   2
BRANCH   1   7
ATOM      7  C   UNL     1     139.729 142.214 142.557  1.00  0.00     0.000 C 
BRANCH   7   8
ATOM      8  C   UNL     1     138.724 141.077 142.293  1.00  0.00     0.008 C 
BRANCH   8   9
ATOM      9  C   UNL     1     139.262 139.919 141.435  1.00  0.00     0.072 C 
BRANCH   9  10
ATOM     10  C   UNL     1     139.669 138.733 142.260  1.00  0.00     0.224 C 
ATOM     11  O   UNL     1     140.189 137.759 141.736  1.00  0.00    -0.303 OA
ENDBRANCH   9  10
ENDBRANCH   8   9
ENDBRANCH   7   8
ENDBRANCH   1   7
TORSDOF 8
ENDMDL
MODEL 8
REMARK VINA RESULT:    -2.588      1.799      3.067
REMARK INTER + INTRA:          -4.744
REMARK INTER:                  -3.864
REMARK INTRA:                  -0.880
REMARK UNBOUND:                -0.946
REMARK SMILES CCCCCCCCCC=O
REMARK SMILES IDX 6 1 5 2 4 3 3 4 2 5 1 6 7 7 8 8 9 9 10 10 11 11
REMARK H PARENT
REMARK Flexibility Score: inf
ROOT
ATOM      1  C   UNL     1     142.725 140.942 141.969  1.00  0.00     0.000 C 
ENDROOT
BRANCH   1   2
ATOM      2  C   UNL     1     142.255 139.479 141.938  1.00  0.00     0.000 C 
BRANCH   2   3
ATOM      3  C   UNL     1     141.206 139.169 143.021  1.00  0.00    -0.000 C 
BRANCH   3   4
ATOM      4  C   UNL     1     139.901 138.607 142.433  1.00  0.00    -0.000 C 
BRANCH   4   5
ATOM      5  C   UNL     1     139.927 138.540 140.899  1.00  0.00    -0.003 C 
ATOM      6  C   UNL     1     139.845 137.095 140.412  1.00  0.00     0.004 C 
ENDBRANCH   4   5
ENDBRANCH   3   4
ENDBRANCH   2   3
ENDBRANCH   1   2
BRANCH   1   7
ATOM      7  C   UNL     1     141.868 141.817 142.899  1.00  0.00     0.000 C 
BRANCH   7   8
ATOM      8  C   UNL     1     141.047 142.875 142.138  1.00  0.00     0.008 C 
BRANCH   8   9
ATOM      9  C   UNL     1     140.143 142.322 141.024  1.00  0.00     0.072 C 
BRANCH   9  10
ATOM     10  C   UNL     1     138.737 142.082 141.490  1.00  0.00     0.224 C 
ATOM     11  O   UNL     1     138.460 142.122 142.679  1.00  0.00    -0.303 OA
ENDBRANCH   9  10
ENDBRANCH   8   9
ENDBRANCH   7   8
ENDBRANCH   1   7
TORSDOF 8
ENDMDL
MODEL 9
REMARK VINA RESULT:    -2.554      0.826      1.493
REMARK INTER + INTRA:          -4.695
REMARK INTER:                  -3.903
REMARK INTRA:                  -0.792
REMARK UNBOUND:                -0.946
REMARK SMILES CCCCCCCCCC=O
REMARK SMILES IDX 6 1 5 2 4 3 3 4 2 5 1 6 7 7 8 8 9 9 10 10 11 11
REMARK H PARENT
REMARK Flexibility Score: inf
ROOT
ATOM      1  C   UNL     1     139.592 139.841 141.858  1.00  0.00     0.000 C 
ENDROOT
BRANCH   1   2
ATOM      2  C   UNL     1     140.817 138.914 141.857  1.00  0.00     0.000 C 
BRANCH   2   3
ATOM      3  C   UNL     1     141.789 139.213 143.013  1.00  0.00    -0.000 C 
BRANCH   3   4
ATOM      4  C   UNL     1     143.221 139.483 142.525  1.00  0.00    -0.000 C 
BRANCH   4   5
ATOM      5  C   UNL     1     143.257 140.144 141.139  1.00  0.00    -0.003 C 
ATOM      6  C   UNL     1     144.500 139.721 140.361  1.00  0.00     0.004 C 
ENDBRANCH   4   5
ENDBRANCH   3   4
ENDBRANCH   2   3
ENDBRANCH   1   2
BRANCH   1   7
ATOM      7  C   UNL     1     139.532 140.738 143.105  1.00  0.00     0.000 C 
BRANCH   7   8
ATOM      8  C   UNL     1     139.574 142.240 142.766  1.00  0.00     0.008 C 
BRANCH   8   9
ATOM      9  C   UNL     1     140.975 142.802 142.473  1.00  0.00     0.072 C 
BRANCH   9  10
ATOM     10  C   UNL     1     141.121 143.276 141.057  1.00  0.00     0.224 C 
ATOM     11  O   UNL     1     141.507 144.410 140.816  1.00  0.00    -0.303 OA
ENDBRANCH   9  10
ENDBRANCH   8   9
ENDBRANCH   7   8
ENDBRANCH   1   7
TORSDOF 8
ENDMDL
