MODEL 1
REMARK VINA RESULT:    -6.113      0.000      0.000
REMARK INTER + INTRA:          -7.385
REMARK INTER:                  -7.363
REMARK INTRA:                  -0.022
REMARK UNBOUND:                -0.022
REMARK SMILES Oc1cc(O)c2c(c1)O[C@@H](c1ccc(O)c(O)c1)[C@H](O)C2
REMARK SMILES IDX 21 1 19 2 10 3 9 4 7 5 8 6 2 7 3 8 4 9 6 10 20 11 11 13
REMARK SMILES IDX 18 14 12 15 16 16 13 17 14 18 17 19 15 21 5 23 1 25
REMARK H PARENT 20 12 17 20 15 22 5 24 1 26
REMARK Flexibility Score: inf
ROOT
ATOM      1  C   UNL     1      31.055   6.775  30.114  1.00  0.00     0.079 C 
ATOM      2  C   UNL     1      30.934   7.211  28.642  1.00  0.00     0.164 C 
ATOM      3  C   UNL     1      29.785   8.223  28.490  1.00  0.00     0.232 C 
ATOM      4  O   UNL     1      30.003   9.335  29.356  1.00  0.00    -0.482 OA
ATOM      5  C   UNL     1      30.525   9.187  30.645  1.00  0.00     0.131 A 
ATOM      6  C   UNL     1      30.534  10.290  31.504  1.00  0.00     0.093 A 
ATOM      7  C   UNL     1      31.034  10.169  32.802  1.00  0.00     0.122 A 
ATOM      8  C   UNL     1      31.520   8.935  33.247  1.00  0.00     0.092 A 
ATOM      9  C   UNL     1      31.518   7.819  32.401  1.00  0.00     0.126 A 
ATOM     10  C   UNL     1      31.053   7.949  31.071  1.00  0.00     0.039 A 
ENDROOT
BRANCH   2  11
ATOM     11  O   UNL     1      30.689   6.090  27.832  1.00  0.00    -0.389 OA
ATOM     12  H   UNL     1      30.170   5.448  28.383  1.00  0.00     0.211 HD
ENDBRANCH   2  11
BRANCH   3  13
ATOM     13  C   UNL     1      29.670   8.707  27.063  1.00  0.00    -0.001 A 
ATOM     14  C   UNL     1      30.756   8.590  26.178  1.00  0.00     0.057 A 
ATOM     15  C   UNL     1      28.457   9.236  26.591  1.00  0.00     0.012 A 
ATOM     16  C   UNL     1      30.639   9.014  24.846  1.00  0.00     0.157 A 
ATOM     17  C   UNL     1      28.339   9.659  25.265  1.00  0.00     0.050 A 
ATOM     18  C   UNL     1      29.424   9.553  24.389  1.00  0.00     0.157 A 
BRANCH  16  19
ATOM     19  O   UNL     1      31.723   8.900  23.977  1.00  0.00    -0.504 OA
ATOM     20  H   UNL     1      32.162   8.006  23.790  1.00  0.00     0.293 HD
ENDBRANCH  16  19
BRANCH  18  21
ATOM     21  O   UNL     1      29.277   9.985  23.072  1.00  0.00    -0.504 OA
ATOM     22  H   UNL     1      28.416  10.398  22.734  1.00  0.00     0.293 HD
ENDBRANCH  18  21
ENDBRANCH   3  13
BRANCH   9  23
ATOM     23  O   UNL     1      31.973   6.604  32.916  1.00  0.00    -0.507 OA
ATOM     24  H   UNL     1      32.867   6.495  33.377  1.00  0.00     0.293 HD
ENDBRANCH   9  23
BRANCH   7  25
ATOM     25  O   UNL     1      31.037  11.279  33.643  1.00  0.00    -0.508 OA
ATOM     26  H   UNL     1      31.368  11.218  34.599  1.00  0.00     0.293 HD
ENDBRANCH   7  25
TORSDOF 6
ENDMDL
MODEL 2
REMARK VINA RESULT:    -5.924      1.693      2.071
REMARK INTER + INTRA:          -7.158
REMARK INTER:                  -6.871
REMARK INTRA:                  -0.287
REMARK UNBOUND:                -0.022
REMARK SMILES Oc1cc(O)c2c(c1)O[C@@H](c1ccc(O)c(O)c1)[C@H](O)C2
REMARK SMILES IDX 21 1 19 2 10 3 9 4 7 5 8 6 2 7 3 8 4 9 6 10 20 11 11 13
REMARK SMILES IDX 18 14 12 15 16 16 13 17 14 18 17 19 15 21 5 23 1 25
REMARK H PARENT 20 12 17 20 15 22 5 24 1 26
REMARK Flexibility Score: inf
ROOT
ATOM      1  C   UNL     1      30.892   7.693  30.510  1.00  0.00     0.079 C 
ATOM      2  C   UNL     1      31.034   7.365  29.012  1.00  0.00     0.164 C 
ATOM      3  C   UNL     1      29.810   7.890  28.243  1.00  0.00     0.232 C 
ATOM      4  O   UNL     1      29.662   9.292  28.468  1.00  0.00    -0.482 OA
ATOM      5  C   UNL     1      29.904   9.878  29.714  1.00  0.00     0.131 A 
ATOM      6  C   UNL     1      29.559  11.218  29.913  1.00  0.00     0.093 A 
ATOM      7  C   UNL     1      29.773  11.826  31.150  1.00  0.00     0.122 A 
ATOM      8  C   UNL     1      30.327  11.087  32.201  1.00  0.00     0.092 A 
ATOM      9  C   UNL     1      30.678   9.743  32.022  1.00  0.00     0.126 A 
ATOM     10  C   UNL     1      30.503   9.136  30.755  1.00  0.00     0.039 A 
ENDROOT
BRANCH   2  11
ATOM     11  O   UNL     1      31.144   5.976  28.837  1.00  0.00    -0.389 OA
ATOM     12  H   UNL     1      30.247   5.651  28.562  1.00  0.00     0.211 HD
ENDBRANCH   2  11
BRANCH   3  13
ATOM     13  C   UNL     1      29.940   7.625  26.761  1.00  0.00    -0.001 A 
ATOM     14  C   UNL     1      30.748   8.448  25.957  1.00  0.00     0.057 A 
ATOM     15  C   UNL     1      29.292   6.523  26.180  1.00  0.00     0.012 A 
ATOM     16  C   UNL     1      30.890   8.185  24.586  1.00  0.00     0.157 A 
ATOM     17  C   UNL     1      29.433   6.261  24.814  1.00  0.00     0.050 A 
ATOM     18  C   UNL     1      30.227   7.086  24.014  1.00  0.00     0.157 A 
BRANCH  16  19
ATOM     19  O   UNL     1      31.689   9.009  23.795  1.00  0.00    -0.504 OA
ATOM     20  H   UNL     1      32.076   8.687  22.915  1.00  0.00     0.293 HD
ENDBRANCH  16  19
BRANCH  18  21
ATOM     21  O   UNL     1      30.348   6.800  22.655  1.00  0.00    -0.504 OA
ATOM     22  H   UNL     1      29.558   6.501  22.095  1.00  0.00     0.293 HD
ENDBRANCH  18  21
ENDBRANCH   3  13
BRANCH   9  23
ATOM     23  O   UNL     1      31.185   9.044  33.119  1.00  0.00    -0.507 OA
ATOM     24  H   UNL     1      31.247   8.036  33.155  1.00  0.00     0.293 HD
ENDBRANCH   9  23
BRANCH   7  25
ATOM     25  O   UNL     1      29.425  13.163  31.328  1.00  0.00    -0.508 OA
ATOM     26  H   UNL     1      28.456  13.459  31.357  1.00  0.00     0.293 HD
ENDBRANCH   7  25
TORSDOF 6
ENDMDL
MODEL 3
REMARK VINA RESULT:    -5.869      2.266      7.337
REMARK INTER + INTRA:          -7.091
REMARK INTER:                  -6.929
REMARK INTRA:                  -0.162
REMARK UNBOUND:                -0.022
REMARK SMILES Oc1cc(O)c2c(c1)O[C@@H](c1ccc(O)c(O)c1)[C@H](O)C2
REMARK SMILES IDX 21 1 19 2 10 3 9 4 7 5 8 6 2 7 3 8 4 9 6 10 20 11 11 13
REMARK SMILES IDX 18 14 12 15 16 16 13 17 14 18 17 19 15 21 5 23 1 25
REMARK H PARENT 20 12 17 20 15 22 5 24 1 26
REMARK Flexibility Score: inf
ROOT
ATOM      1  C   UNL     1      28.244   9.972  24.613  1.00  0.00     0.079 C 
ATOM      2  C   UNL     1      28.623   9.338  25.965  1.00  0.00     0.164 C 
ATOM      3  C   UNL     1      30.016   8.693  25.868  1.00  0.00     0.232 C 
ATOM      4  O   UNL     1      30.973   9.666  25.452  1.00  0.00    -0.482 OA
ATOM      5  C   UNL     1      30.678  10.641  24.493  1.00  0.00     0.131 A 
ATOM      6  C   UNL     1      31.712  11.438  23.996  1.00  0.00     0.093 A 
ATOM      7  C   UNL     1      31.453  12.409  23.027  1.00  0.00     0.122 A 
ATOM      8  C   UNL     1      30.150  12.576  22.543  1.00  0.00     0.092 A 
ATOM      9  C   UNL     1      29.102  11.785  23.028  1.00  0.00     0.126 A 
ATOM     10  C   UNL     1      29.354  10.831  24.043  1.00  0.00     0.039 A 
ENDROOT
BRANCH   2  11
ATOM     11  O   UNL     1      27.673   8.366  26.317  1.00  0.00    -0.389 OA
ATOM     12  H   UNL     1      28.125   7.485  26.245  1.00  0.00     0.211 HD
ENDBRANCH   2  11
BRANCH   3  13
ATOM     13  C   UNL     1      30.438   8.101  27.193  1.00  0.00    -0.001 A 
ATOM     14  C   UNL     1      30.000   8.671  28.401  1.00  0.00     0.057 A 
ATOM     15  C   UNL     1      31.234   6.945  27.230  1.00  0.00     0.012 A 
ATOM     16  C   UNL     1      30.369   8.105  29.631  1.00  0.00     0.157 A 
ATOM     17  C   UNL     1      31.603   6.381  28.455  1.00  0.00     0.050 A 
ATOM     18  C   UNL     1      31.176   6.955  29.656  1.00  0.00     0.157 A 
BRANCH  16  19
ATOM     19  O   UNL     1      29.935   8.680  30.824  1.00  0.00    -0.504 OA
ATOM     20  H   UNL     1      30.050   8.208  31.713  1.00  0.00     0.293 HD
ENDBRANCH  16  19
BRANCH  18  21
ATOM     21  O   UNL     1      31.562   6.371  30.861  1.00  0.00    -0.504 OA
ATOM     22  H   UNL     1      31.089   5.560  31.242  1.00  0.00     0.293 HD
ENDBRANCH  18  21
ENDBRANCH   3  13
BRANCH   9  23
ATOM     23  O   UNL     1      27.832  11.967  22.475  1.00  0.00    -0.507 OA
ATOM     24  H   UNL     1      26.975  11.787  22.981  1.00  0.00     0.293 HD
ENDBRANCH   9  23
BRANCH   7  25
ATOM     25  O   UNL     1      32.495  13.196  22.546  1.00  0.00    -0.508 OA
ATOM     26  H   UNL     1      33.324  13.376  23.103  1.00  0.00     0.293 HD
ENDBRANCH   7  25
TORSDOF 6
ENDMDL
MODEL 4
REMARK VINA RESULT:    -5.820      2.513      3.684
REMARK INTER + INTRA:          -7.033
REMARK INTER:                  -6.700
REMARK INTRA:                  -0.333
REMARK UNBOUND:                -0.022
REMARK SMILES Oc1cc(O)c2c(c1)O[C@@H](c1ccc(O)c(O)c1)[C@H](O)C2
REMARK SMILES IDX 21 1 19 2 10 3 9 4 7 5 8 6 2 7 3 8 4 9 6 10 20 11 11 13
REMARK SMILES IDX 18 14 12 15 16 16 13 17 14 18 17 19 15 21 5 23 1 25
REMARK H PARENT 20 12 17 20 15 22 5 24 1 26
REMARK Flexibility Score: inf
ROOT
ATOM      1  C   UNL     1      29.958   7.485  27.672  1.00  0.00     0.079 C 
ATOM      2  C   UNL     1      30.427   7.327  26.214  1.00  0.00     0.164 C 
ATOM      3  C   UNL     1      29.583   8.224  25.293  1.00  0.00     0.232 C 
ATOM      4  O   UNL     1      29.663   9.580  25.732  1.00  0.00    -0.482 OA
ATOM      5  C   UNL     1      29.675   9.926  27.087  1.00  0.00     0.131 A 
ATOM      6  C   UNL     1      29.563  11.273  27.443  1.00  0.00     0.093 A 
ATOM      7  C   UNL     1      29.556  11.649  28.787  1.00  0.00     0.122 A 
ATOM      8  C   UNL     1      29.650  10.670  29.783  1.00  0.00     0.092 A 
ATOM      9  C   UNL     1      29.761   9.316  29.445  1.00  0.00     0.126 A 
ATOM     10  C   UNL     1      29.814   8.936  28.083  1.00  0.00     0.039 A 
ENDROOT
BRANCH   2  11
ATOM     11  O   UNL     1      30.301   5.986  25.816  1.00  0.00    -0.389 OA
ATOM     12  H   UNL     1      29.441   5.659  26.187  1.00  0.00     0.211 HD
ENDBRANCH   2  11
BRANCH   3  13
ATOM     13  C   UNL     1      30.049   8.128  23.859  1.00  0.00    -0.001 A 
ATOM     14  C   UNL     1      31.262   8.716  23.461  1.00  0.00     0.057 A 
ATOM     15  C   UNL     1      29.296   7.407  22.917  1.00  0.00     0.012 A 
ATOM     16  C   UNL     1      31.708   8.602  22.135  1.00  0.00     0.157 A 
ATOM     17  C   UNL     1      29.739   7.293  21.597  1.00  0.00     0.050 A 
ATOM     18  C   UNL     1      30.940   7.888  21.199  1.00  0.00     0.157 A 
BRANCH  16  19
ATOM     19  O   UNL     1      32.909   9.193  21.748  1.00  0.00    -0.504 OA
ATOM     20  H   UNL     1      33.768   9.038  22.263  1.00  0.00     0.293 HD
ENDBRANCH  16  19
BRANCH  18  21
ATOM     21  O   UNL     1      31.355   7.759  19.875  1.00  0.00    -0.504 OA
ATOM     22  H   UNL     1      30.731   7.440  19.143  1.00  0.00     0.293 HD
ENDBRANCH  18  21
ENDBRANCH   3  13
BRANCH   9  23
ATOM     23  O   UNL     1      29.807   8.382  30.482  1.00  0.00    -0.507 OA
ATOM     24  H   UNL     1      29.256   7.533  30.490  1.00  0.00     0.293 HD
ENDBRANCH   9  23
BRANCH   7  25
ATOM     25  O   UNL     1      29.446  12.996  29.124  1.00  0.00    -0.508 OA
ATOM     26  H   UNL     1      29.197  13.290  30.062  1.00  0.00     0.293 HD
ENDBRANCH   7  25
TORSDOF 6
ENDMDL
MODEL 5
REMARK VINA RESULT:    -5.810      1.694      2.213
REMARK INTER + INTRA:          -7.021
REMARK INTER:                  -6.772
REMARK INTRA:                  -0.249
REMARK UNBOUND:                -0.022
REMARK SMILES Oc1cc(O)c2c(c1)O[C@@H](c1ccc(O)c(O)c1)[C@H](O)C2
REMARK SMILES IDX 21 1 19 2 10 3 9 4 7 5 8 6 2 7 3 8 4 9 6 10 20 11 11 13
REMARK SMILES IDX 18 14 12 15 16 16 13 17 14 18 17 19 15 21 5 23 1 25
REMARK H PARENT 20 12 17 20 15 22 5 24 1 26
REMARK Flexibility Score: inf
ROOT
ATOM      1  C   UNL     1      29.780   7.997  28.841  1.00  0.00     0.079 C 
ATOM      2  C   UNL     1      29.998   8.114  27.321  1.00  0.00     0.164 C 
ATOM      3  C   UNL     1      29.204   9.310  26.769  1.00  0.00     0.232 C 
ATOM      4  O   UNL     1      29.588  10.502  27.453  1.00  0.00    -0.482 OA
ATOM      5  C   UNL     1      29.856  10.522  28.825  1.00  0.00     0.131 A 
ATOM      6  C   UNL     1      30.040  11.753  29.463  1.00  0.00     0.093 A 
ATOM      7  C   UNL     1      30.294  11.806  30.835  1.00  0.00     0.122 A 
ATOM      8  C   UNL     1      30.354  10.621  31.576  1.00  0.00     0.092 A 
ATOM      9  C   UNL     1      30.171   9.380  30.955  1.00  0.00     0.126 A 
ATOM     10  C   UNL     1      29.959   9.320  29.558  1.00  0.00     0.039 A 
ENDROOT
BRANCH   2  11
ATOM     11  O   UNL     1      29.578   6.933  26.688  1.00  0.00    -0.389 OA
ATOM     12  H   UNL     1      29.149   6.373  27.386  1.00  0.00     0.211 HD
ENDBRANCH   2  11
BRANCH   3  13
ATOM     13  C   UNL     1      29.434   9.481  25.286  1.00  0.00    -0.001 A 
ATOM     14  C   UNL     1      30.710   9.278  24.732  1.00  0.00     0.057 A 
ATOM     15  C   UNL     1      28.362   9.798  24.436  1.00  0.00     0.012 A 
ATOM     16  C   UNL     1      30.917   9.410  23.351  1.00  0.00     0.157 A 
ATOM     17  C   UNL     1      28.567   9.930  23.059  1.00  0.00     0.050 A 
ATOM     18  C   UNL     1      29.838   9.739  22.512  1.00  0.00     0.157 A 
BRANCH  16  19
ATOM     19  O   UNL     1      32.187   9.213  22.811  1.00  0.00    -0.504 OA
ATOM     20  H   UNL     1      32.949   8.844  23.368  1.00  0.00     0.293 HD
ENDBRANCH  16  19
BRANCH  18  21
ATOM     21  O   UNL     1      30.012   9.879  21.136  1.00  0.00    -0.504 OA
ATOM     22  H   UNL     1      30.430   9.150  20.569  1.00  0.00     0.293 HD
ENDBRANCH  18  21
ENDBRANCH   3  13
BRANCH   9  23
ATOM     23  O   UNL     1      30.198   8.235  31.755  1.00  0.00    -0.507 OA
ATOM     24  H   UNL     1      31.040   7.704  31.937  1.00  0.00     0.293 HD
ENDBRANCH   9  23
BRANCH   7  25
ATOM     25  O   UNL     1      30.477  13.041  31.452  1.00  0.00    -0.508 OA
ATOM     26  H   UNL     1      29.690  13.611  31.741  1.00  0.00     0.293 HD
ENDBRANCH   7  25
TORSDOF 6
ENDMDL
MODEL 6
REMARK VINA RESULT:    -5.793      2.931      3.932
REMARK INTER + INTRA:          -6.999
REMARK INTER:                  -6.793
REMARK INTRA:                  -0.206
REMARK UNBOUND:                -0.022
REMARK SMILES Oc1cc(O)c2c(c1)O[C@@H](c1ccc(O)c(O)c1)[C@H](O)C2
REMARK SMILES IDX 21 1 19 2 10 3 9 4 7 5 8 6 2 7 3 8 4 9 6 10 20 11 11 13
REMARK SMILES IDX 18 14 12 15 16 16 13 17 14 18 17 19 15 21 5 23 1 25
REMARK H PARENT 20 12 17 20 15 22 5 24 1 26
REMARK Flexibility Score: inf
ROOT
ATOM      1  C   UNL     1      29.134   8.302  27.195  1.00  0.00     0.079 C 
ATOM      2  C   UNL     1      28.993   9.660  26.481  1.00  0.00     0.164 C 
ATOM      3  C   UNL     1      28.353  10.686  27.432  1.00  0.00     0.232 C 
ATOM      4  O   UNL     1      29.130  10.792  28.623  1.00  0.00    -0.482 OA
ATOM      5  C   UNL     1      29.725   9.681  29.229  1.00  0.00     0.131 A 
ATOM      6  C   UNL     1      30.310   9.827  30.490  1.00  0.00     0.093 A 
ATOM      7  C   UNL     1      30.898   8.733  31.126  1.00  0.00     0.122 A 
ATOM      8  C   UNL     1      30.892   7.480  30.502  1.00  0.00     0.092 A 
ATOM      9  C   UNL     1      30.309   7.315  29.240  1.00  0.00     0.126 A 
ATOM     10  C   UNL     1      29.753   8.432  28.572  1.00  0.00     0.039 A 
ENDROOT
BRANCH   2  11
ATOM     11  O   UNL     1      28.195   9.513  25.335  1.00  0.00    -0.389 OA
ATOM     12  H   UNL     1      28.725   9.863  24.572  1.00  0.00     0.211 HD
ENDBRANCH   2  11
BRANCH   3  13
ATOM     13  C   UNL     1      28.242  12.043  26.776  1.00  0.00    -0.001 A 
ATOM     14  C   UNL     1      29.231  12.487  25.881  1.00  0.00     0.057 A 
ATOM     15  C   UNL     1      27.122  12.856  27.017  1.00  0.00     0.012 A 
ATOM     16  C   UNL     1      29.113  13.735  25.251  1.00  0.00     0.157 A 
ATOM     17  C   UNL     1      27.005  14.100  26.391  1.00  0.00     0.050 A 
ATOM     18  C   UNL     1      27.995  14.545  25.510  1.00  0.00     0.157 A 
BRANCH  16  19
ATOM     19  O   UNL     1      30.102  14.170  24.370  1.00  0.00    -0.504 OA
ATOM     20  H   UNL     1      30.111  15.116  24.007  1.00  0.00     0.293 HD
ENDBRANCH  16  19
BRANCH  18  21
ATOM     21  O   UNL     1      27.850  15.790  24.901  1.00  0.00    -0.504 OA
ATOM     22  H   UNL     1      27.978  16.657  25.410  1.00  0.00     0.293 HD
ENDBRANCH  18  21
ENDBRANCH   3  13
BRANCH   9  23
ATOM     23  O   UNL     1      30.294   6.032  28.687  1.00  0.00    -0.507 OA
ATOM     24  H   UNL     1      29.443   5.538  28.453  1.00  0.00     0.293 HD
ENDBRANCH   9  23
BRANCH   7  25
ATOM     25  O   UNL     1      31.478   8.898  32.381  1.00  0.00    -0.508 OA
ATOM     26  H   UNL     1      32.338   8.425  32.634  1.00  0.00     0.293 HD
ENDBRANCH   7  25
TORSDOF 6
ENDMDL
MODEL 7
REMARK VINA RESULT:    -5.789      3.349      4.852
REMARK INTER + INTRA:          -6.995
REMARK INTER:                  -6.725
REMARK INTRA:                  -0.270
REMARK UNBOUND:                -0.022
REMARK SMILES Oc1cc(O)c2c(c1)O[C@@H](c1ccc(O)c(O)c1)[C@H](O)C2
REMARK SMILES IDX 21 1 19 2 10 3 9 4 7 5 8 6 2 7 3 8 4 9 6 10 20 11 11 13
REMARK SMILES IDX 18 14 12 15 16 16 13 17 14 18 17 19 15 21 5 23 1 25
REMARK H PARENT 20 12 17 20 15 22 5 24 1 26
REMARK Flexibility Score: inf
ROOT
ATOM      1  C   UNL     1      29.646   8.558  26.325  1.00  0.00     0.079 C 
ATOM      2  C   UNL     1      29.466  10.088  26.351  1.00  0.00     0.164 C 
ATOM      3  C   UNL     1      28.688  10.502  27.612  1.00  0.00     0.232 C 
ATOM      4  O   UNL     1      29.365  10.028  28.775  1.00  0.00    -0.482 OA
ATOM      5  C   UNL     1      29.986   8.776  28.819  1.00  0.00     0.131 A 
ATOM      6  C   UNL     1      30.463   8.298  30.043  1.00  0.00     0.093 A 
ATOM      7  C   UNL     1      31.074   7.046  30.123  1.00  0.00     0.122 A 
ATOM      8  C   UNL     1      31.200   6.260  28.971  1.00  0.00     0.092 A 
ATOM      9  C   UNL     1      30.728   6.722  27.737  1.00  0.00     0.126 A 
ATOM     10  C   UNL     1      30.148   8.010  27.645  1.00  0.00     0.039 A 
ENDROOT
BRANCH   2  11
ATOM     11  O   UNL     1      28.769  10.504  25.205  1.00  0.00    -0.389 OA
ATOM     12  H   UNL     1      28.186  11.257  25.484  1.00  0.00     0.211 HD
ENDBRANCH   2  11
BRANCH   3  13
ATOM     13  C   UNL     1      28.535  12.003  27.691  1.00  0.00    -0.001 A 
ATOM     14  C   UNL     1      29.607  12.849  27.356  1.00  0.00     0.057 A 
ATOM     15  C   UNL     1      27.303  12.570  28.054  1.00  0.00     0.012 A 
ATOM     16  C   UNL     1      29.455  14.243  27.403  1.00  0.00     0.157 A 
ATOM     17  C   UNL     1      27.151  13.959  28.102  1.00  0.00     0.050 A 
ATOM     18  C   UNL     1      28.221  14.799  27.780  1.00  0.00     0.157 A 
BRANCH  16  19
ATOM     19  O   UNL     1      30.525  15.074  27.075  1.00  0.00    -0.504 OA
ATOM     20  H   UNL     1      30.475  16.079  27.202  1.00  0.00     0.293 HD
ENDBRANCH  16  19
BRANCH  18  21
ATOM     21  O   UNL     1      28.040  16.180  27.838  1.00  0.00    -0.504 OA
ATOM     22  H   UNL     1      27.471  16.619  28.552  1.00  0.00     0.293 HD
ENDBRANCH  18  21
ENDBRANCH   3  13
BRANCH   9  23
ATOM     23  O   UNL     1      30.841   5.875  26.632  1.00  0.00    -0.507 OA
ATOM     24  H   UNL     1      31.531   6.002  25.903  1.00  0.00     0.293 HD
ENDBRANCH   9  23
BRANCH   7  25
ATOM     25  O   UNL     1      31.545   6.587  31.350  1.00  0.00    -0.508 OA
ATOM     26  H   UNL     1      31.240   5.701  31.738  1.00  0.00     0.293 HD
ENDBRANCH   7  25
TORSDOF 6
ENDMDL
MODEL 8
REMARK VINA RESULT:    -5.765      2.703      3.018
REMARK INTER + INTRA:          -6.967
REMARK INTER:                  -6.962
REMARK INTRA:                  -0.005
REMARK UNBOUND:                -0.022
REMARK SMILES Oc1cc(O)c2c(c1)O[C@@H](c1ccc(O)c(O)c1)[C@H](O)C2
REMARK SMILES IDX 21 1 19 2 10 3 9 4 7 5 8 6 2 7 3 8 4 9 6 10 20 11 11 13
REMARK SMILES IDX 18 14 12 15 16 16 13 17 14 18 17 19 15 21 5 23 1 25
REMARK H PARENT 20 12 17 20 15 22 5 24 1 26
REMARK Flexibility Score: inf
ROOT
ATOM      1  C   UNL     1      30.105   7.761  29.074  1.00  0.00     0.079 C 
ATOM      2  C   UNL     1      30.013   8.948  28.096  1.00  0.00     0.164 C 
ATOM      3  C   UNL     1      29.243  10.107  28.752  1.00  0.00     0.232 C 
ATOM      4  O   UNL     1      29.875  10.476  29.977  1.00  0.00    -0.482 OA
ATOM      5  C   UNL     1      30.422   9.531  30.849  1.00  0.00     0.131 A 
ATOM      6  C   UNL     1      30.854   9.943  32.113  1.00  0.00     0.093 A 
ATOM      7  C   UNL     1      31.390   9.020  33.012  1.00  0.00     0.122 A 
ATOM      8  C   UNL     1      31.486   7.672  32.649  1.00  0.00     0.092 A 
ATOM      9  C   UNL     1      31.058   7.240  31.387  1.00  0.00     0.126 A 
ATOM     10  C   UNL     1      30.556   8.181  30.457  1.00  0.00     0.039 A 
ENDROOT
BRANCH   2  11
ATOM     11  O   UNL     1      29.358   8.547  26.921  1.00  0.00    -0.389 OA
ATOM     12  H   UNL     1      28.413   8.837  27.008  1.00  0.00     0.211 HD
ENDBRANCH   2  11
BRANCH   3  13
ATOM     13  C   UNL     1      29.176  11.306  27.834  1.00  0.00    -0.001 A 
ATOM     14  C   UNL     1      30.006  12.420  28.052  1.00  0.00     0.057 A 
ATOM     15  C   UNL     1      28.316  11.300  26.724  1.00  0.00     0.012 A 
ATOM     16  C   UNL     1      29.963  13.521  27.184  1.00  0.00     0.157 A 
ATOM     17  C   UNL     1      28.272  12.397  25.859  1.00  0.00     0.050 A 
ATOM     18  C   UNL     1      29.089  13.508  26.083  1.00  0.00     0.157 A 
BRANCH  16  19
ATOM     19  O   UNL     1      30.785  14.623  27.411  1.00  0.00    -0.504 OA
ATOM     20  H   UNL     1      31.020  14.927  28.349  1.00  0.00     0.293 HD
ENDBRANCH  16  19
BRANCH  18  21
ATOM     21  O   UNL     1      29.022  14.588  25.204  1.00  0.00    -0.504 OA
ATOM     22  H   UNL     1      29.851  14.996  24.787  1.00  0.00     0.293 HD
ENDBRANCH  18  21
ENDBRANCH   3  13
BRANCH   9  23
ATOM     23  O   UNL     1      31.138   5.876  31.098  1.00  0.00    -0.507 OA
ATOM     24  H   UNL     1      30.480   5.395  30.500  1.00  0.00     0.293 HD
ENDBRANCH   9  23
BRANCH   7  25
ATOM     25  O   UNL     1      31.817   9.449  34.266  1.00  0.00    -0.508 OA
ATOM     26  H   UNL     1      32.620  10.059  34.372  1.00  0.00     0.293 HD
ENDBRANCH   7  25
TORSDOF 6
ENDMDL
MODEL 9
REMARK VINA RESULT:    -5.689      2.244      3.788
REMARK INTER + INTRA:          -6.874
REMARK INTER:                  -6.627
REMARK INTRA:                  -0.247
REMARK UNBOUND:                -0.022
REMARK SMILES Oc1cc(O)c2c(c1)O[C@@H](c1ccc(O)c(O)c1)[C@H](O)C2
REMARK SMILES IDX 21 1 19 2 10 3 9 4 7 5 8 6 2 7 3 8 4 9 6 10 20 11 11 13
REMARK SMILES IDX 18 14 12 15 16 16 13 17 14 18 17 19 15 21 5 23 1 25
REMARK H PARENT 20 12 17 20 15 22 5 24 1 26
REMARK Flexibility Score: inf
ROOT
ATOM      1  C   UNL     1      30.506   7.507  26.053  1.00  0.00     0.079 C 
ATOM      2  C   UNL     1      30.322   8.643  25.028  1.00  0.00     0.164 C 
ATOM      3  C   UNL     1      29.059   9.453  25.367  1.00  0.00     0.232 C 
ATOM      4  O   UNL     1      29.148   9.951  26.701  1.00  0.00    -0.482 OA
ATOM      5  C   UNL     1      29.694   9.198  27.745  1.00  0.00     0.131 A 
ATOM      6  C   UNL     1      29.577   9.670  29.056  1.00  0.00     0.093 A 
ATOM      7  C   UNL     1      30.098   8.933  30.121  1.00  0.00     0.122 A 
ATOM      8  C   UNL     1      30.732   7.710  29.874  1.00  0.00     0.092 A 
ATOM      9  C   UNL     1      30.857   7.220  28.569  1.00  0.00     0.126 A 
ATOM     10  C   UNL     1      30.370   7.987  27.483  1.00  0.00     0.039 A 
ENDROOT
BRANCH   2  11
ATOM     11  O   UNL     1      30.208   8.104  23.737  1.00  0.00    -0.389 OA
ATOM     12  H   UNL     1      30.892   8.557  23.178  1.00  0.00     0.211 HD
ENDBRANCH   2  11
BRANCH   3  13
ATOM     13  C   UNL     1      28.876  10.605  24.407  1.00  0.00    -0.001 A 
ATOM     14  C   UNL     1      29.557  11.818  24.607  1.00  0.00     0.057 A 
ATOM     15  C   UNL     1      28.057  10.459  23.275  1.00  0.00     0.012 A 
ATOM     16  C   UNL     1      29.408  12.877  23.700  1.00  0.00     0.157 A 
ATOM     17  C   UNL     1      27.906  11.514  22.371  1.00  0.00     0.050 A 
ATOM     18  C   UNL     1      28.576  12.723  22.578  1.00  0.00     0.157 A 
BRANCH  16  19
ATOM     19  O   UNL     1      30.083  14.079  23.909  1.00  0.00    -0.504 OA
ATOM     20  H   UNL     1      31.093  14.116  23.972  1.00  0.00     0.293 HD
ENDBRANCH  16  19
BRANCH  18  21
ATOM     21  O   UNL     1      28.405  13.758  21.659  1.00  0.00    -0.504 OA
ATOM     22  H   UNL     1      28.582  14.726  21.900  1.00  0.00     0.293 HD
ENDBRANCH  18  21
ENDBRANCH   3  13
BRANCH   9  23
ATOM     23  O   UNL     1      31.459   5.973  28.389  1.00  0.00    -0.507 OA
ATOM     24  H   UNL     1      32.457   5.821  28.465  1.00  0.00     0.293 HD
ENDBRANCH   9  23
BRANCH   7  25
ATOM     25  O   UNL     1      29.974   9.420  31.419  1.00  0.00    -0.508 OA
ATOM     26  H   UNL     1      29.411  10.237  31.627  1.00  0.00     0.293 HD
ENDBRANCH   7  25
TORSDOF 6
ENDMDL
