MODEL 1
REMARK VINA RESULT:    -7.131      0.000      0.000
REMARK INTER + INTRA:          -7.808
REMARK INTER:                  -7.547
REMARK INTRA:                  -0.261
REMARK UNBOUND:                -0.261
REMARK SMILES O=c1cc(-c2ccccc2)oc2ccccc12
REMARK SMILES IDX 4 1 3 2 2 3 1 4 17 5 16 6 15 7 14 8 13 9 12 10 11 11 5 12
REMARK SMILES IDX 8 13 7 14 9 15 6 16 10 17
REMARK H PARENT
REMARK Flexibility Score: inf
ROOT
ATOM      1  C   UNL     1     145.571 -22.218  77.226  1.00  0.00     0.138 A 
ATOM      2  C   UNL     1     146.147 -22.979  78.264  1.00  0.00     0.100 A 
ATOM      3  C   UNL     1     147.432 -23.501  78.104  1.00  0.00     0.193 A 
ATOM      4  O   UNL     1     147.947 -24.183  79.031  1.00  0.00    -0.289 OA
ATOM      5  C   UNL     1     148.130 -23.261  76.912  1.00  0.00     0.065 A 
ATOM      6  C   UNL     1     149.428 -23.758  76.686  1.00  0.00     0.016 A 
ATOM      7  C   UNL     1     150.080 -23.488  75.478  1.00  0.00     0.001 A 
ATOM      8  C   UNL     1     149.447 -22.725  74.494  1.00  0.00     0.004 A 
ATOM      9  C   UNL     1     148.159 -22.227  74.710  1.00  0.00     0.048 A 
ATOM     10  C   UNL     1     147.497 -22.491  75.914  1.00  0.00     0.138 A 
ATOM     11  O   UNL     1     146.272 -22.013  76.110  1.00  0.00    -0.456 OA
ENDROOT
BRANCH   1  12
ATOM     12  C   UNL     1     144.201 -21.622  77.316  1.00  0.00     0.017 A 
ATOM     13  C   UNL     1     141.643 -20.435  77.417  1.00  0.00     0.000 A 
ATOM     14  C   UNL     1     141.948 -21.508  78.254  1.00  0.00     0.001 A 
ATOM     15  C   UNL     1     142.603 -19.950  76.530  1.00  0.00     0.001 A 
ATOM     16  C   UNL     1     143.215 -22.100  78.209  1.00  0.00     0.012 A 
ATOM     17  C   UNL     1     143.871 -20.535  76.479  1.00  0.00     0.012 A 
ENDBRANCH   1  12
TORSDOF 1
ENDMDL
MODEL 2
REMARK VINA RESULT:    -6.879      5.000      9.324
REMARK INTER + INTRA:          -7.542
REMARK INTER:                  -7.322
REMARK INTRA:                  -0.220
REMARK UNBOUND:                -0.261
REMARK SMILES O=c1cc(-c2ccccc2)oc2ccccc12
REMARK SMILES IDX 4 1 3 2 2 3 1 4 17 5 16 6 15 7 14 8 13 9 12 10 11 11 5 12
REMARK SMILES IDX 8 13 7 14 9 15 6 16 10 17
REMARK H PARENT
REMARK Flexibility Score: inf
ROOT
ATOM      1  C   UNL     1     140.534 -18.646  78.392  1.00  0.00     0.138 A 
ATOM      2  C   UNL     1     139.208 -18.584  77.916  1.00  0.00     0.100 A 
ATOM      3  C   UNL     1     138.363 -17.565  78.362  1.00  0.00     0.193 A 
ATOM      4  O   UNL     1     137.176 -17.511  77.938  1.00  0.00    -0.289 OA
ATOM      5  C   UNL     1     138.846 -16.619  79.277  1.00  0.00     0.065 A 
ATOM      6  C   UNL     1     138.047 -15.568  79.766  1.00  0.00     0.016 A 
ATOM      7  C   UNL     1     138.580 -14.651  80.678  1.00  0.00     0.001 A 
ATOM      8  C   UNL     1     139.905 -14.773  81.105  1.00  0.00     0.004 A 
ATOM      9  C   UNL     1     140.705 -15.814  80.624  1.00  0.00     0.048 A 
ATOM     10  C   UNL     1     140.182 -16.738  79.712  1.00  0.00     0.138 A 
ATOM     11  O   UNL     1     140.951 -17.724  79.261  1.00  0.00    -0.456 OA
ENDROOT
BRANCH   1  12
ATOM     12  C   UNL     1     141.504 -19.702  77.966  1.00  0.00     0.017 A 
ATOM     13  C   UNL     1     143.368 -21.633  77.094  1.00  0.00     0.000 A 
ATOM     14  C   UNL     1     142.495 -21.929  78.141  1.00  0.00     0.001 A 
ATOM     15  C   UNL     1     143.319 -20.384  76.479  1.00  0.00     0.001 A 
ATOM     16  C   UNL     1     141.569 -20.975  78.577  1.00  0.00     0.012 A 
ATOM     17  C   UNL     1     142.395 -19.425  76.908  1.00  0.00     0.012 A 
ENDBRANCH   1  12
TORSDOF 1
ENDMDL
MODEL 3
REMARK VINA RESULT:    -6.852      5.018      9.405
REMARK INTER + INTRA:          -7.513
REMARK INTER:                  -7.293
REMARK INTRA:                  -0.220
REMARK UNBOUND:                -0.261
REMARK SMILES O=c1cc(-c2ccccc2)oc2ccccc12
REMARK SMILES IDX 4 1 3 2 2 3 1 4 17 5 16 6 15 7 14 8 13 9 12 10 11 11 5 12
REMARK SMILES IDX 8 13 7 14 9 15 6 16 10 17
REMARK H PARENT
REMARK Flexibility Score: inf
ROOT
ATOM      1  C   UNL     1     140.553 -18.596  78.389  1.00  0.00     0.138 A 
ATOM      2  C   UNL     1     139.228 -18.518  77.913  1.00  0.00     0.100 A 
ATOM      3  C   UNL     1     138.387 -17.504  78.377  1.00  0.00     0.193 A 
ATOM      4  O   UNL     1     137.202 -17.435  77.953  1.00  0.00    -0.289 OA
ATOM      5  C   UNL     1     138.874 -16.579  79.311  1.00  0.00     0.065 A 
ATOM      6  C   UNL     1     138.080 -15.533  79.820  1.00  0.00     0.016 A 
ATOM      7  C   UNL     1     138.616 -14.637  80.751  1.00  0.00     0.001 A 
ATOM      8  C   UNL     1     139.939 -14.775  81.178  1.00  0.00     0.004 A 
ATOM      9  C   UNL     1     140.735 -15.810  80.678  1.00  0.00     0.048 A 
ATOM     10  C   UNL     1     140.209 -16.713  79.747  1.00  0.00     0.138 A 
ATOM     11  O   UNL     1     140.974 -17.694  79.277  1.00  0.00    -0.456 OA
ENDROOT
BRANCH   1  12
ATOM     12  C   UNL     1     141.518 -19.649  77.943  1.00  0.00     0.017 A 
ATOM     13  C   UNL     1     143.302 -21.694  77.170  1.00  0.00     0.000 A 
ATOM     14  C   UNL     1     143.317 -20.468  76.506  1.00  0.00     0.001 A 
ATOM     15  C   UNL     1     142.406 -21.909  78.216  1.00  0.00     0.001 A 
ATOM     16  C   UNL     1     142.434 -19.450  76.885  1.00  0.00     0.012 A 
ATOM     17  C   UNL     1     141.521 -20.897  78.601  1.00  0.00     0.012 A 
ENDBRANCH   1  12
TORSDOF 1
ENDMDL
MODEL 4
REMARK VINA RESULT:    -6.245      1.238      2.279
REMARK INTER + INTRA:          -6.871
REMARK INTER:                  -6.606
REMARK INTRA:                  -0.265
REMARK UNBOUND:                -0.261
REMARK SMILES O=c1cc(-c2ccccc2)oc2ccccc12
REMARK SMILES IDX 4 1 3 2 2 3 1 4 17 5 16 6 15 7 14 8 13 9 12 10 11 11 5 12
REMARK SMILES IDX 8 13 7 14 9 15 6 16 10 17
REMARK H PARENT
REMARK Flexibility Score: inf
ROOT
ATOM      1  C   UNL     1     145.825 -22.135  76.698  1.00  0.00     0.138 A 
ATOM      2  C   UNL     1     146.748 -21.416  75.910  1.00  0.00     0.100 A 
ATOM      3  C   UNL     1     148.013 -21.956  75.667  1.00  0.00     0.193 A 
ATOM      4  O   UNL     1     148.839 -21.313  74.964  1.00  0.00    -0.289 OA
ATOM      5  C   UNL     1     148.345 -23.205  76.210  1.00  0.00     0.065 A 
ATOM      6  C   UNL     1     149.602 -23.806  76.003  1.00  0.00     0.016 A 
ATOM      7  C   UNL     1     149.882 -25.054  76.568  1.00  0.00     0.001 A 
ATOM      8  C   UNL     1     148.917 -25.709  77.338  1.00  0.00     0.004 A 
ATOM      9  C   UNL     1     147.667 -25.120  77.548  1.00  0.00     0.048 A 
ATOM     10  C   UNL     1     147.376 -23.872  76.988  1.00  0.00     0.138 A 
ATOM     11  O   UNL     1     146.184 -23.320  77.194  1.00  0.00    -0.456 OA
ENDROOT
BRANCH   1  12
ATOM     12  C   UNL     1     144.451 -21.629  77.006  1.00  0.00     0.017 A 
ATOM     13  C   UNL     1     141.871 -20.607  77.521  1.00  0.00     0.000 A 
ATOM     14  C   UNL     1     142.334 -21.719  78.223  1.00  0.00     0.001 A 
ATOM     15  C   UNL     1     142.684 -20.001  76.564  1.00  0.00     0.001 A 
ATOM     16  C   UNL     1     143.612 -22.231  77.973  1.00  0.00     0.012 A 
ATOM     17  C   UNL     1     143.963 -20.505  76.308  1.00  0.00     0.012 A 
ENDBRANCH   1  12
TORSDOF 1
ENDMDL
MODEL 5
REMARK VINA RESULT:    -6.030      7.704     10.031
REMARK INTER + INTRA:          -6.644
REMARK INTER:                  -6.386
REMARK INTRA:                  -0.258
REMARK UNBOUND:                -0.261
REMARK SMILES O=c1cc(-c2ccccc2)oc2ccccc12
REMARK SMILES IDX 4 1 3 2 2 3 1 4 17 5 16 6 15 7 14 8 13 9 12 10 11 11 5 12
REMARK SMILES IDX 8 13 7 14 9 15 6 16 10 17
REMARK H PARENT
REMARK Flexibility Score: inf
ROOT
ATOM      1  C   UNL     1     140.000 -17.097  79.340  1.00  0.00     0.138 A 
ATOM      2  C   UNL     1     141.367 -16.971  79.661  1.00  0.00     0.100 A 
ATOM      3  C   UNL     1     141.835 -15.786  80.232  1.00  0.00     0.193 A 
ATOM      4  O   UNL     1     143.058 -15.672  80.517  1.00  0.00    -0.289 OA
ATOM      5  C   UNL     1     140.937 -14.737  80.477  1.00  0.00     0.065 A 
ATOM      6  C   UNL     1     141.342 -13.517  81.049  1.00  0.00     0.016 A 
ATOM      7  C   UNL     1     140.404 -12.503  81.272  1.00  0.00     0.001 A 
ATOM      8  C   UNL     1     139.063 -12.699  80.930  1.00  0.00     0.004 A 
ATOM      9  C   UNL     1     138.653 -13.908  80.361  1.00  0.00     0.048 A 
ATOM     10  C   UNL     1     139.582 -14.928  80.133  1.00  0.00     0.138 A 
ATOM     11  O   UNL     1     139.181 -16.074  79.592  1.00  0.00    -0.456 OA
ENDROOT
BRANCH   1  12
ATOM     12  C   UNL     1     139.417 -18.332  78.728  1.00  0.00     0.017 A 
ATOM     13  C   UNL     1     138.389 -20.712  77.614  1.00  0.00     0.000 A 
ATOM     14  C   UNL     1     137.737 -19.500  77.392  1.00  0.00     0.001 A 
ATOM     15  C   UNL     1     139.549 -20.747  78.387  1.00  0.00     0.001 A 
ATOM     16  C   UNL     1     138.242 -18.316  77.941  1.00  0.00     0.012 A 
ATOM     17  C   UNL     1     140.060 -19.569  78.939  1.00  0.00     0.012 A 
ENDBRANCH   1  12
TORSDOF 1
ENDMDL
MODEL 6
REMARK VINA RESULT:    -6.025      5.012      7.633
REMARK INTER + INTRA:          -6.638
REMARK INTER:                  -6.376
REMARK INTRA:                  -0.261
REMARK UNBOUND:                -0.261
REMARK SMILES O=c1cc(-c2ccccc2)oc2ccccc12
REMARK SMILES IDX 4 1 3 2 2 3 1 4 17 5 16 6 15 7 14 8 13 9 12 10 11 11 5 12
REMARK SMILES IDX 8 13 7 14 9 15 6 16 10 17
REMARK H PARENT
REMARK Flexibility Score: inf
ROOT
ATOM      1  C   UNL     1     140.624 -17.742  79.016  1.00  0.00     0.138 A 
ATOM      2  C   UNL     1     139.492 -18.581  78.954  1.00  0.00     0.100 A 
ATOM      3  C   UNL     1     139.549 -19.760  78.209  1.00  0.00     0.193 A 
ATOM      4  O   UNL     1     138.536 -20.509  78.152  1.00  0.00    -0.289 OA
ATOM      5  C   UNL     1     140.731 -20.093  77.533  1.00  0.00     0.065 A 
ATOM      6  C   UNL     1     140.855 -21.267  76.765  1.00  0.00     0.016 A 
ATOM      7  C   UNL     1     142.059 -21.551  76.111  1.00  0.00     0.001 A 
ATOM      8  C   UNL     1     143.141 -20.673  76.218  1.00  0.00     0.004 A 
ATOM      9  C   UNL     1     143.026 -19.506  76.979  1.00  0.00     0.048 A 
ATOM     10  C   UNL     1     141.827 -19.211  77.637  1.00  0.00     0.138 A 
ATOM     11  O   UNL     1     141.729 -18.099  78.358  1.00  0.00    -0.456 OA
ENDROOT
BRANCH   1  12
ATOM     12  C   UNL     1     140.649 -16.462  79.790  1.00  0.00     0.017 A 
ATOM     13  C   UNL     1     140.597 -14.048  81.252  1.00  0.00     0.000 A 
ATOM     14  C   UNL     1     141.817 -14.632  80.912  1.00  0.00     0.001 A 
ATOM     15  C   UNL     1     139.403 -14.658  80.869  1.00  0.00     0.001 A 
ATOM     16  C   UNL     1     141.849 -15.829  80.187  1.00  0.00     0.012 A 
ATOM     17  C   UNL     1     139.426 -15.853  80.144  1.00  0.00     0.012 A 
ENDBRANCH   1  12
TORSDOF 1
ENDMDL
MODEL 7
REMARK VINA RESULT:    -5.713      3.436      4.838
REMARK INTER + INTRA:          -6.308
REMARK INTER:                  -6.044
REMARK INTRA:                  -0.264
REMARK UNBOUND:                -0.261
REMARK SMILES O=c1cc(-c2ccccc2)oc2ccccc12
REMARK SMILES IDX 4 1 3 2 2 3 1 4 17 5 16 6 15 7 14 8 13 9 12 10 11 11 5 12
REMARK SMILES IDX 8 13 7 14 9 15 6 16 10 17
REMARK H PARENT
REMARK Flexibility Score: inf
ROOT
ATOM      1  C   UNL     1     147.947 -22.302  76.133  1.00  0.00     0.138 A 
ATOM      2  C   UNL     1     147.303 -23.507  76.483  1.00  0.00     0.100 A 
ATOM      3  C   UNL     1     147.379 -23.972  77.797  1.00  0.00     0.193 A 
ATOM      4  O   UNL     1     146.805 -25.050  78.110  1.00  0.00    -0.289 OA
ATOM      5  C   UNL     1     148.093 -23.232  78.750  1.00  0.00     0.065 A 
ATOM      6  C   UNL     1     148.209 -23.644  80.091  1.00  0.00     0.016 A 
ATOM      7  C   UNL     1     148.934 -22.868  81.001  1.00  0.00     0.001 A 
ATOM      8  C   UNL     1     149.545 -21.683  80.584  1.00  0.00     0.004 A 
ATOM      9  C   UNL     1     149.436 -21.267  79.254  1.00  0.00     0.048 A 
ATOM     10  C   UNL     1     148.713 -22.035  78.334  1.00  0.00     0.138 A 
ATOM     11  O   UNL     1     148.615 -21.631  77.072  1.00  0.00    -0.456 OA
ENDROOT
BRANCH   1  12
ATOM     12  C   UNL     1     147.915 -21.734  74.749  1.00  0.00     0.017 A 
ATOM     13  C   UNL     1     147.889 -20.578  72.174  1.00  0.00     0.000 A 
ATOM     14  C   UNL     1     147.495 -21.905  72.348  1.00  0.00     0.001 A 
ATOM     15  C   UNL     1     148.296 -19.824  73.274  1.00  0.00     0.001 A 
ATOM     16  C   UNL     1     147.506 -22.483  73.622  1.00  0.00     0.012 A 
ATOM     17  C   UNL     1     148.309 -20.394  74.550  1.00  0.00     0.012 A 
ENDBRANCH   1  12
TORSDOF 1
ENDMDL
MODEL 8
REMARK VINA RESULT:    -5.710     16.301     17.351
REMARK INTER + INTRA:          -6.304
REMARK INTER:                  -6.074
REMARK INTRA:                  -0.230
REMARK UNBOUND:                -0.261
REMARK SMILES O=c1cc(-c2ccccc2)oc2ccccc12
REMARK SMILES IDX 4 1 3 2 2 3 1 4 17 5 16 6 15 7 14 8 13 9 12 10 11 11 5 12
REMARK SMILES IDX 8 13 7 14 9 15 6 16 10 17
REMARK H PARENT
REMARK Flexibility Score: inf
ROOT
ATOM      1  C   UNL     1     130.915 -14.766  75.574  1.00  0.00     0.138 A 
ATOM      2  C   UNL     1     131.018 -15.394  74.316  1.00  0.00     0.100 A 
ATOM      3  C   UNL     1     130.904 -16.783  74.228  1.00  0.00     0.193 A 
ATOM      4  O   UNL     1     130.997 -17.346  73.103  1.00  0.00    -0.289 OA
ATOM      5  C   UNL     1     130.688 -17.532  75.394  1.00  0.00     0.065 A 
ATOM      6  C   UNL     1     130.564 -18.934  75.375  1.00  0.00     0.016 A 
ATOM      7  C   UNL     1     130.350 -19.633  76.568  1.00  0.00     0.001 A 
ATOM      8  C   UNL     1     130.257 -18.943  77.780  1.00  0.00     0.004 A 
ATOM      9  C   UNL     1     130.380 -17.551  77.807  1.00  0.00     0.048 A 
ATOM     10  C   UNL     1     130.594 -16.842  76.620  1.00  0.00     0.138 A 
ATOM     11  O   UNL     1     130.709 -15.518  76.656  1.00  0.00    -0.456 OA
ENDROOT
BRANCH   1  12
ATOM     12  C   UNL     1     131.025 -13.285  75.756  1.00  0.00     0.017 A 
ATOM     13  C   UNL     1     131.150 -10.480  76.048  1.00  0.00     0.000 A 
ATOM     14  C   UNL     1     132.128 -11.287  76.629  1.00  0.00     0.001 A 
ATOM     15  C   UNL     1     130.110 -11.061  75.323  1.00  0.00     0.001 A 
ATOM     16  C   UNL     1     132.071 -12.678  76.488  1.00  0.00     0.012 A 
ATOM     17  C   UNL     1     130.046 -12.450  75.176  1.00  0.00     0.012 A 
ENDBRANCH   1  12
TORSDOF 1
ENDMDL
MODEL 9
REMARK VINA RESULT:    -5.080     15.793     17.202
REMARK INTER + INTRA:          -5.638
REMARK INTER:                  -5.417
REMARK INTRA:                  -0.222
REMARK UNBOUND:                -0.261
REMARK SMILES O=c1cc(-c2ccccc2)oc2ccccc12
REMARK SMILES IDX 4 1 3 2 2 3 1 4 17 5 16 6 15 7 14 8 13 9 12 10 11 11 5 12
REMARK SMILES IDX 8 13 7 14 9 15 6 16 10 17
REMARK H PARENT
REMARK Flexibility Score: inf
ROOT
ATOM      1  C   UNL     1     130.943 -14.258  75.630  1.00  0.00     0.138 A 
ATOM      2  C   UNL     1     130.593 -15.103  76.703  1.00  0.00     0.100 A 
ATOM      3  C   UNL     1     130.632 -16.488  76.530  1.00  0.00     0.193 A 
ATOM      4  O   UNL     1     130.317 -17.245  77.488  1.00  0.00    -0.289 OA
ATOM      5  C   UNL     1     131.020 -17.018  75.291  1.00  0.00     0.065 A 
ATOM      6  C   UNL     1     131.081 -18.403  75.049  1.00  0.00     0.016 A 
ATOM      7  C   UNL     1     131.476 -18.878  73.794  1.00  0.00     0.001 A 
ATOM      8  C   UNL     1     131.810 -17.980  72.777  1.00  0.00     0.004 A 
ATOM      9  C   UNL     1     131.752 -16.603  73.008  1.00  0.00     0.048 A 
ATOM     10  C   UNL     1     131.359 -16.117  74.260  1.00  0.00     0.138 A 
ATOM     11  O   UNL     1     131.308 -14.805  74.470  1.00  0.00    -0.456 OA
ENDROOT
BRANCH   1  12
ATOM     12  C   UNL     1     130.929 -12.765  75.731  1.00  0.00     0.017 A 
ATOM     13  C   UNL     1     130.987  -9.953  75.967  1.00  0.00     0.000 A 
ATOM     14  C   UNL     1     129.910 -10.579  75.341  1.00  0.00     0.001 A 
ATOM     15  C   UNL     1     132.035 -10.718  76.477  1.00  0.00     0.001 A 
ATOM     16  C   UNL     1     129.875 -11.972  75.221  1.00  0.00     0.012 A 
ATOM     17  C   UNL     1     132.008 -12.111  76.362  1.00  0.00     0.012 A 
ENDBRANCH   1  12
TORSDOF 1
ENDMDL
