MODEL 1
REMARK VINA RESULT:    -5.033      0.000      0.000
REMARK INTER + INTRA:          -5.708
REMARK INTER:                  -5.621
REMARK INTRA:                  -0.086
REMARK UNBOUND:                -0.086
REMARK SMILES CCc1ccc(O)cc1O
REMARK SMILES IDX 3 1 9 2 8 3 6 4 5 5 4 6 2 7 1 8 10 9 7 11
REMARK H PARENT 10 10 7 12
REMARK Flexibility Score: inf
ROOT
ATOM      1  C   UNL     1      25.362  47.081  32.343  1.00  0.00    -0.006 A 
ATOM      2  C   UNL     1      24.174  47.461  32.999  1.00  0.00     0.122 A 
ATOM      3  C   UNL     1      24.240  48.174  34.206  1.00  0.00     0.092 A 
ATOM      4  C   UNL     1      25.477  48.501  34.768  1.00  0.00     0.119 A 
ATOM      5  C   UNL     1      26.658  48.111  34.124  1.00  0.00     0.047 A 
ATOM      6  C   UNL     1      26.601  47.401  32.923  1.00  0.00     0.011 A 
ENDROOT
BRANCH   1   7
ATOM      7  C   UNL     1      25.320  46.287  31.061  1.00  0.00     0.036 C 
ATOM      8  C   UNL     1      26.646  45.572  30.824  1.00  0.00     0.009 C 
ENDBRANCH   1   7
BRANCH   2   9
ATOM      9  O   UNL     1      22.933  47.128  32.455  1.00  0.00    -0.508 OA
ATOM     10  H   UNL     1      22.180  47.803  32.400  1.00  0.00     0.293 HD
ENDBRANCH   2   9
BRANCH   4  11
ATOM     11  O   UNL     1      25.523  49.210  35.966  1.00  0.00    -0.508 OA
ATOM     12  H   UNL     1      25.627  50.217  35.983  1.00  0.00     0.293 HD
ENDBRANCH   4  11
TORSDOF 3
ENDMDL
MODEL 2
REMARK VINA RESULT:    -4.492     11.599     12.144
REMARK INTER + INTRA:          -5.103
REMARK INTER:                  -5.017
REMARK INTRA:                  -0.086
REMARK UNBOUND:                -0.086
REMARK SMILES CCc1ccc(O)cc1O
REMARK SMILES IDX 3 1 9 2 8 3 6 4 5 5 4 6 2 7 1 8 10 9 7 11
REMARK H PARENT 10 10 7 12
REMARK Flexibility Score: inf
ROOT
ATOM      1  C   UNL     1      20.930  48.283  44.225  1.00  0.00    -0.006 A 
ATOM      2  C   UNL     1      19.802  48.129  43.394  1.00  0.00     0.122 A 
ATOM      3  C   UNL     1      19.444  46.854  42.931  1.00  0.00     0.092 A 
ATOM      4  C   UNL     1      20.205  45.735  43.279  1.00  0.00     0.119 A 
ATOM      5  C   UNL     1      21.335  45.888  44.093  1.00  0.00     0.047 A 
ATOM      6  C   UNL     1      21.697  47.154  44.558  1.00  0.00     0.011 A 
ENDROOT
BRANCH   1   7
ATOM      7  C   UNL     1      21.356  49.646  44.711  1.00  0.00     0.036 C 
ATOM      8  C   UNL     1      22.802  49.621  45.194  1.00  0.00     0.009 C 
ENDBRANCH   1   7
BRANCH   2   9
ATOM      9  O   UNL     1      19.043  49.240  43.027  1.00  0.00    -0.508 OA
ATOM     10  H   UNL     1      18.482  49.246  42.184  1.00  0.00     0.293 HD
ENDBRANCH   2   9
BRANCH   4  11
ATOM     11  O   UNL     1      19.834  44.477  42.810  1.00  0.00    -0.508 OA
ATOM     12  H   UNL     1      19.737  43.686  43.435  1.00  0.00     0.293 HD
ENDBRANCH   4  11
TORSDOF 3
ENDMDL
MODEL 3
REMARK VINA RESULT:    -4.480      1.433      3.714
REMARK INTER + INTRA:          -5.090
REMARK INTER:                  -5.013
REMARK INTRA:                  -0.078
REMARK UNBOUND:                -0.086
REMARK SMILES CCc1ccc(O)cc1O
REMARK SMILES IDX 3 1 9 2 8 3 6 4 5 5 4 6 2 7 1 8 10 9 7 11
REMARK H PARENT 10 10 7 12
REMARK Flexibility Score: inf
ROOT
ATOM      1  C   UNL     1      25.791  47.213  32.930  1.00  0.00    -0.006 A 
ATOM      2  C   UNL     1      24.416  47.485  33.081  1.00  0.00     0.122 A 
ATOM      3  C   UNL     1      23.520  47.145  32.057  1.00  0.00     0.092 A 
ATOM      4  C   UNL     1      23.983  46.548  30.881  1.00  0.00     0.119 A 
ATOM      5  C   UNL     1      25.350  46.290  30.724  1.00  0.00     0.047 A 
ATOM      6  C   UNL     1      26.248  46.625  31.740  1.00  0.00     0.011 A 
ENDROOT
BRANCH   1   7
ATOM      7  C   UNL     1      26.780  47.597  34.002  1.00  0.00     0.036 C 
ATOM      8  C   UNL     1      27.208  49.052  33.848  1.00  0.00     0.009 C 
ENDBRANCH   1   7
BRANCH   2   9
ATOM      9  O   UNL     1      23.944  48.094  34.244  1.00  0.00    -0.508 OA
ATOM     10  H   UNL     1      24.286  48.998  34.547  1.00  0.00     0.293 HD
ENDBRANCH   2   9
BRANCH   4  11
ATOM     11  O   UNL     1      23.078  46.216  29.875  1.00  0.00    -0.508 OA
ATOM     12  H   UNL     1      22.285  46.809  29.660  1.00  0.00     0.293 HD
ENDBRANCH   4  11
TORSDOF 3
ENDMDL
MODEL 4
REMARK VINA RESULT:    -4.340     10.777     12.557
REMARK INTER + INTRA:          -4.933
REMARK INTER:                  -4.848
REMARK INTRA:                  -0.085
REMARK UNBOUND:                -0.086
REMARK SMILES CCc1ccc(O)cc1O
REMARK SMILES IDX 3 1 9 2 8 3 6 4 5 5 4 6 2 7 1 8 10 9 7 11
REMARK H PARENT 10 10 7 12
REMARK Flexibility Score: inf
ROOT
ATOM      1  C   UNL     1      20.579  47.733  45.027  1.00  0.00    -0.006 A 
ATOM      2  C   UNL     1      21.091  47.516  43.732  1.00  0.00     0.122 A 
ATOM      3  C   UNL     1      21.995  48.434  43.174  1.00  0.00     0.092 A 
ATOM      4  C   UNL     1      22.382  49.569  43.891  1.00  0.00     0.119 A 
ATOM      5  C   UNL     1      21.863  49.794  45.172  1.00  0.00     0.047 A 
ATOM      6  C   UNL     1      20.964  48.885  45.734  1.00  0.00     0.011 A 
ENDROOT
BRANCH   1   7
ATOM      7  C   UNL     1      19.583  46.780  45.637  1.00  0.00     0.036 C 
ATOM      8  C   UNL     1      19.507  46.970  47.148  1.00  0.00     0.009 C 
ENDBRANCH   1   7
BRANCH   2   9
ATOM      9  O   UNL     1      20.701  46.394  43.001  1.00  0.00    -0.508 OA
ATOM     10  H   UNL     1      21.364  45.861  42.450  1.00  0.00     0.293 HD
ENDBRANCH   2   9
BRANCH   4  11
ATOM     11  O   UNL     1      23.281  50.469  43.321  1.00  0.00    -0.508 OA
ATOM     12  H   UNL     1      24.249  50.508  43.615  1.00  0.00     0.293 HD
ENDBRANCH   4  11
TORSDOF 3
ENDMDL
MODEL 5
REMARK VINA RESULT:    -4.301     11.078     12.483
REMARK INTER + INTRA:          -4.890
REMARK INTER:                  -4.797
REMARK INTRA:                  -0.093
REMARK UNBOUND:                -0.086
REMARK SMILES CCc1ccc(O)cc1O
REMARK SMILES IDX 3 1 9 2 8 3 6 4 5 5 4 6 2 7 1 8 10 9 7 11
REMARK H PARENT 10 10 7 12
REMARK Flexibility Score: inf
ROOT
ATOM      1  C   UNL     1      20.640  48.268  43.881  1.00  0.00    -0.006 A 
ATOM      2  C   UNL     1      19.448  48.991  43.677  1.00  0.00     0.122 A 
ATOM      3  C   UNL     1      19.120  50.053  44.533  1.00  0.00     0.092 A 
ATOM      4  C   UNL     1      19.963  50.392  45.595  1.00  0.00     0.119 A 
ATOM      5  C   UNL     1      21.141  49.665  45.807  1.00  0.00     0.047 A 
ATOM      6  C   UNL     1      21.474  48.607  44.959  1.00  0.00     0.011 A 
ENDROOT
BRANCH   1   7
ATOM      7  C   UNL     1      21.002  47.102  42.995  1.00  0.00     0.036 C 
ATOM      8  C   UNL     1      21.342  45.872  43.830  1.00  0.00     0.009 C 
ENDBRANCH   1   7
BRANCH   2   9
ATOM      9  O   UNL     1      18.591  48.653  42.629  1.00  0.00    -0.508 OA
ATOM     10  H   UNL     1      17.625  48.398  42.794  1.00  0.00     0.293 HD
ENDBRANCH   2   9
BRANCH   4  11
ATOM     11  O   UNL     1      19.621  51.450  46.434  1.00  0.00    -0.508 OA
ATOM     12  H   UNL     1      19.930  52.397  46.246  1.00  0.00     0.293 HD
ENDBRANCH   4  11
TORSDOF 3
ENDMDL
MODEL 6
REMARK VINA RESULT:    -4.287     11.850     13.197
REMARK INTER + INTRA:          -4.874
REMARK INTER:                  -4.773
REMARK INTRA:                  -0.101
REMARK UNBOUND:                -0.086
REMARK SMILES CCc1ccc(O)cc1O
REMARK SMILES IDX 3 1 9 2 8 3 6 4 5 5 4 6 2 7 1 8 10 9 7 11
REMARK H PARENT 10 10 7 12
REMARK Flexibility Score: inf
ROOT
ATOM      1  C   UNL     1      21.102  48.582  44.523  1.00  0.00    -0.006 A 
ATOM      2  C   UNL     1      19.882  49.160  44.930  1.00  0.00     0.122 A 
ATOM      3  C   UNL     1      18.887  48.357  45.508  1.00  0.00     0.092 A 
ATOM      4  C   UNL     1      19.092  46.985  45.672  1.00  0.00     0.119 A 
ATOM      5  C   UNL     1      20.297  46.406  45.254  1.00  0.00     0.047 A 
ATOM      6  C   UNL     1      21.293  47.199  44.679  1.00  0.00     0.011 A 
ENDROOT
BRANCH   1   7
ATOM      7  C   UNL     1      22.176  49.416  43.870  1.00  0.00     0.036 C 
ATOM      8  C   UNL     1      23.158  49.944  44.911  1.00  0.00     0.009 C 
ENDBRANCH   1   7
BRANCH   2   9
ATOM      9  O   UNL     1      19.661  50.527  44.759  1.00  0.00    -0.508 OA
ATOM     10  H   UNL     1      19.502  51.142  45.547  1.00  0.00     0.293 HD
ENDBRANCH   2   9
BRANCH   4  11
ATOM     11  O   UNL     1      18.093  46.204  46.248  1.00  0.00    -0.508 OA
ATOM     12  H   UNL     1      18.050  45.203  46.099  1.00  0.00     0.293 HD
ENDBRANCH   4  11
TORSDOF 3
ENDMDL
MODEL 7
REMARK VINA RESULT:    -4.237     11.017     12.922
REMARK INTER + INTRA:          -4.818
REMARK INTER:                  -4.714
REMARK INTRA:                  -0.104
REMARK UNBOUND:                -0.086
REMARK SMILES CCc1ccc(O)cc1O
REMARK SMILES IDX 3 1 9 2 8 3 6 4 5 5 4 6 2 7 1 8 10 9 7 11
REMARK H PARENT 10 10 7 12
REMARK Flexibility Score: inf
ROOT
ATOM      1  C   UNL     1      20.679  47.794  45.230  1.00  0.00    -0.006 A 
ATOM      2  C   UNL     1      21.033  49.018  45.832  1.00  0.00     0.122 A 
ATOM      3  C   UNL     1      21.861  49.921  45.147  1.00  0.00     0.092 A 
ATOM      4  C   UNL     1      22.346  49.608  43.874  1.00  0.00     0.119 A 
ATOM      5  C   UNL     1      22.007  48.386  43.280  1.00  0.00     0.047 A 
ATOM      6  C   UNL     1      21.183  47.483  43.956  1.00  0.00     0.011 A 
ENDROOT
BRANCH   1   7
ATOM      7  C   UNL     1      19.817  46.793  45.957  1.00  0.00     0.036 C 
ATOM      8  C   UNL     1      18.351  46.956  45.567  1.00  0.00     0.009 C 
ENDBRANCH   1   7
BRANCH   2   9
ATOM      9  O   UNL     1      20.566  49.335  47.108  1.00  0.00    -0.508 OA
ATOM     10  H   UNL     1      20.542  50.291  47.443  1.00  0.00     0.293 HD
ENDBRANCH   2   9
BRANCH   4  11
ATOM     11  O   UNL     1      23.167  50.517  43.208  1.00  0.00    -0.508 OA
ATOM     12  H   UNL     1      23.852  50.212  42.528  1.00  0.00     0.293 HD
ENDBRANCH   4  11
TORSDOF 3
ENDMDL
MODEL 8
REMARK VINA RESULT:    -4.182     12.181     13.116
REMARK INTER + INTRA:          -4.757
REMARK INTER:                  -4.653
REMARK INTRA:                  -0.104
REMARK UNBOUND:                -0.086
REMARK SMILES CCc1ccc(O)cc1O
REMARK SMILES IDX 3 1 9 2 8 3 6 4 5 5 4 6 2 7 1 8 10 9 7 11
REMARK H PARENT 10 10 7 12
REMARK Flexibility Score: inf
ROOT
ATOM      1  C   UNL     1      20.885  47.364  44.862  1.00  0.00    -0.006 A 
ATOM      2  C   UNL     1      20.008  47.553  45.949  1.00  0.00     0.122 A 
ATOM      3  C   UNL     1      19.568  48.845  46.276  1.00  0.00     0.092 A 
ATOM      4  C   UNL     1      20.003  49.948  45.536  1.00  0.00     0.119 A 
ATOM      5  C   UNL     1      20.887  49.763  44.465  1.00  0.00     0.047 A 
ATOM      6  C   UNL     1      21.328  48.480  44.134  1.00  0.00     0.011 A 
ENDROOT
BRANCH   1   7
ATOM      7  C   UNL     1      21.398  45.990  44.509  1.00  0.00     0.036 C 
ATOM      8  C   UNL     1      20.545  45.359  43.413  1.00  0.00     0.009 C 
ENDBRANCH   1   7
BRANCH   2   9
ATOM      9  O   UNL     1      19.578  46.461  46.703  1.00  0.00    -0.508 OA
ATOM     10  H   UNL     1      18.833  45.854  46.382  1.00  0.00     0.293 HD
ENDBRANCH   2   9
BRANCH   4  11
ATOM     11  O   UNL     1      19.556  51.223  45.875  1.00  0.00    -0.508 OA
ATOM     12  H   UNL     1      19.823  51.665  46.746  1.00  0.00     0.293 HD
ENDBRANCH   4  11
TORSDOF 3
ENDMDL
MODEL 9
REMARK VINA RESULT:    -4.167     11.429     12.698
REMARK INTER + INTRA:          -4.741
REMARK INTER:                  -4.644
REMARK INTRA:                  -0.097
REMARK UNBOUND:                -0.086
REMARK SMILES CCc1ccc(O)cc1O
REMARK SMILES IDX 3 1 9 2 8 3 6 4 5 5 4 6 2 7 1 8 10 9 7 11
REMARK H PARENT 10 10 7 12
REMARK Flexibility Score: inf
ROOT
ATOM      1  C   UNL     1      20.725  46.615  44.438  1.00  0.00    -0.006 A 
ATOM      2  C   UNL     1      21.076  47.883  43.931  1.00  0.00     0.122 A 
ATOM      3  C   UNL     1      20.813  49.035  44.687  1.00  0.00     0.092 A 
ATOM      4  C   UNL     1      20.195  48.936  45.936  1.00  0.00     0.119 A 
ATOM      5  C   UNL     1      19.832  47.679  46.435  1.00  0.00     0.047 A 
ATOM      6  C   UNL     1      20.091  46.527  45.689  1.00  0.00     0.011 A 
ENDROOT
BRANCH   1   7
ATOM      7  C   UNL     1      20.967  45.363  43.634  1.00  0.00     0.036 C 
ATOM      8  C   UNL     1      22.020  44.485  44.301  1.00  0.00     0.009 C 
ENDBRANCH   1   7
BRANCH   2   9
ATOM      9  O   UNL     1      21.681  47.995  42.679  1.00  0.00    -0.508 OA
ATOM     10  H   UNL     1      22.504  47.458  42.437  1.00  0.00     0.293 HD
ENDBRANCH   2   9
BRANCH   4  11
ATOM     11  O   UNL     1      19.943  50.091  46.673  1.00  0.00    -0.508 OA
ATOM     12  H   UNL     1      20.083  50.122  47.675  1.00  0.00     0.293 HD
ENDBRANCH   4  11
TORSDOF 3
ENDMDL
