MODEL 1
REMARK VINA RESULT:    -5.249      0.000      0.000
REMARK INTER + INTRA:          -8.850
REMARK INTER:                  -8.011
REMARK INTRA:                  -0.839
REMARK UNBOUND:                -0.839
REMARK SMILES CCCCCCCCCC=CC(=O)[O-]
REMARK SMILES IDX 7 1 8 2 9 3 10 4 11 5 12 6 13 7 14 8 6 9 5 10 4 11 3 12 2 13
REMARK SMILES IDX 1 14
REMARK H PARENT
REMARK Flexibility Score: inf
ROOT
ATOM      1  C   UNL     1     -30.220  56.078   1.700  1.00  0.00     0.000 C 
ENDROOT
BRANCH   1   2
ATOM      2  C   UNL     1     -28.760  55.777   1.303  1.00  0.00     0.004 C 
BRANCH   2   3
ATOM      3  C   UNL     1     -28.030  56.951   0.623  1.00  0.00     0.027 C 
BRANCH   3   4
ATOM      4  C   UNL     1     -28.963  58.070   0.240  1.00  0.00    -0.025 C 
ATOM      5  C   UNL     1     -29.417  58.333  -0.997  1.00  0.00     0.020 C 
BRANCH   5   6
ATOM      6  C   UNL     1     -29.054  57.624  -2.240  1.00  0.00     0.064 C 
ATOM      7  O   UNL     1     -29.908  57.019  -2.939  1.00  0.00    -0.545 OA
ATOM      8  O   UNL     1     -27.722  57.597  -2.633  1.00  0.00    -0.545 OA
ENDBRANCH   5   6
ENDBRANCH   3   4
ENDBRANCH   2   3
ENDBRANCH   1   2
BRANCH   1   9
ATOM      9  C   UNL     1     -30.506  56.045   3.213  1.00  0.00     0.000 C 
BRANCH   9  10
ATOM     10  C   UNL     1     -31.217  57.312   3.715  1.00  0.00     0.000 C 
BRANCH  10  11
ATOM     11  C   UNL     1     -30.818  57.628   5.161  1.00  0.00    -0.000 C 
BRANCH  11  12
ATOM     12  C   UNL     1     -29.376  58.154   5.231  1.00  0.00    -0.000 C 
BRANCH  12  13
ATOM     13  C   UNL     1     -28.888  58.722   3.890  1.00  0.00    -0.003 C 
ATOM     14  C   UNL     1     -27.365  58.720   3.765  1.00  0.00     0.004 C 
ENDBRANCH  12  13
ENDBRANCH  11  12
ENDBRANCH  10  11
ENDBRANCH   9  10
ENDBRANCH   1   9
TORSDOF 9
ENDMDL
MODEL 2
REMARK VINA RESULT:    -5.143     10.218     12.191
REMARK INTER + INTRA:          -8.688
REMARK INTER:                  -7.938
REMARK INTRA:                  -0.750
REMARK UNBOUND:                -0.839
REMARK SMILES CCCCCCCCCC=CC(=O)[O-]
REMARK SMILES IDX 7 1 8 2 9 3 10 4 11 5 12 6 13 7 14 8 6 9 5 10 4 11 3 12 2 13
REMARK SMILES IDX 1 14
REMARK H PARENT
REMARK Flexibility Score: inf
ROOT
ATOM      1  C   UNL     1     -16.914  58.585  -5.978  1.00  0.00     0.000 C 
ENDROOT
BRANCH   1   2
ATOM      2  C   UNL     1     -18.215  57.805  -5.698  1.00  0.00     0.004 C 
BRANCH   2   3
ATOM      3  C   UNL     1     -19.435  58.288  -6.504  1.00  0.00     0.027 C 
BRANCH   3   4
ATOM      4  C   UNL     1     -20.431  59.035  -5.654  1.00  0.00    -0.025 C 
ATOM      5  C   UNL     1     -21.538  58.519  -5.096  1.00  0.00     0.020 C 
BRANCH   5   6
ATOM      6  C   UNL     1     -22.040  57.137  -5.244  1.00  0.00     0.064 C 
ATOM      7  O   UNL     1     -22.997  56.853  -6.010  1.00  0.00    -0.545 OA
ATOM      8  O   UNL     1     -21.458  56.127  -4.490  1.00  0.00    -0.545 OA
ENDBRANCH   5   6
ENDBRANCH   3   4
ENDBRANCH   2   3
ENDBRANCH   1   2
BRANCH   1   9
ATOM      9  C   UNL     1     -16.612  59.728  -4.993  1.00  0.00     0.000 C 
BRANCH   9  10
ATOM     10  C   UNL     1     -17.364  59.585  -3.661  1.00  0.00     0.000 C 
BRANCH  10  11
ATOM     11  C   UNL     1     -16.753  60.490  -2.585  1.00  0.00    -0.000 C 
BRANCH  11  12
ATOM     12  C   UNL     1     -17.103  59.985  -1.177  1.00  0.00    -0.000 C 
BRANCH  12  13
ATOM     13  C   UNL     1     -18.568  59.538  -1.058  1.00  0.00    -0.003 C 
ATOM     14  C   UNL     1     -19.383  60.429  -0.121  1.00  0.00     0.004 C 
ENDBRANCH  12  13
ENDBRANCH  11  12
ENDBRANCH  10  11
ENDBRANCH   9  10
ENDBRANCH   1   9
TORSDOF 9
ENDMDL
MODEL 3
REMARK VINA RESULT:    -5.131      6.580      8.206
REMARK INTER + INTRA:          -8.670
REMARK INTER:                  -7.878
REMARK INTRA:                  -0.792
REMARK UNBOUND:                -0.839
REMARK SMILES CCCCCCCCCC=CC(=O)[O-]
REMARK SMILES IDX 7 1 8 2 9 3 10 4 11 5 12 6 13 7 14 8 6 9 5 10 4 11 3 12 2 13
REMARK SMILES IDX 1 14
REMARK H PARENT
REMARK Flexibility Score: inf
ROOT
ATOM      1  C   UNL     1     -23.933  58.667   3.345  1.00  0.00     0.000 C 
ENDROOT
BRANCH   1   2
ATOM      2  C   UNL     1     -23.125  59.367   2.234  1.00  0.00     0.004 C 
BRANCH   2   3
ATOM      3  C   UNL     1     -21.843  60.068   2.721  1.00  0.00     0.027 C 
BRANCH   3   4
ATOM      4  C   UNL     1     -20.674  59.844   1.797  1.00  0.00    -0.025 C 
ATOM      5  C   UNL     1     -20.442  60.492   0.644  1.00  0.00     0.020 C 
BRANCH   5   6
ATOM      6  C   UNL     1     -21.308  61.510   0.014  1.00  0.00     0.064 C 
ATOM      7  O   UNL     1     -21.238  62.729   0.319  1.00  0.00    -0.545 OA
ATOM      8  O   UNL     1     -22.250  61.104  -0.922  1.00  0.00    -0.545 OA
ENDBRANCH   5   6
ENDBRANCH   3   4
ENDBRANCH   2   3
ENDBRANCH   1   2
BRANCH   1   9
ATOM      9  C   UNL     1     -23.423  57.270   3.743  1.00  0.00     0.000 C 
BRANCH   9  10
ATOM     10  C   UNL     1     -23.658  56.947   5.227  1.00  0.00     0.000 C 
BRANCH  10  11
ATOM     11  C   UNL     1     -22.331  56.688   5.950  1.00  0.00    -0.000 C 
BRANCH  11  12
ATOM     12  C   UNL     1     -21.212  57.572   5.378  1.00  0.00    -0.000 C 
BRANCH  12  13
ATOM     13  C   UNL     1     -20.385  58.260   6.475  1.00  0.00    -0.003 C 
ATOM     14  C   UNL     1     -20.938  58.009   7.878  1.00  0.00     0.004 C 
ENDBRANCH  12  13
ENDBRANCH  11  12
ENDBRANCH  10  11
ENDBRANCH   9  10
ENDBRANCH   1   9
TORSDOF 9
ENDMDL
MODEL 4
REMARK VINA RESULT:    -5.041      2.170      3.572
REMARK INTER + INTRA:          -8.532
REMARK INTER:                  -7.664
REMARK INTRA:                  -0.869
REMARK UNBOUND:                -0.839
REMARK SMILES CCCCCCCCCC=CC(=O)[O-]
REMARK SMILES IDX 7 1 8 2 9 3 10 4 11 5 12 6 13 7 14 8 6 9 5 10 4 11 3 12 2 13
REMARK SMILES IDX 1 14
REMARK H PARENT
REMARK Flexibility Score: inf
ROOT
ATOM      1  C   UNL     1     -29.745  58.069   3.451  1.00  0.00     0.000 C 
ENDROOT
BRANCH   1   2
ATOM      2  C   UNL     1     -30.072  56.574   3.251  1.00  0.00     0.004 C 
BRANCH   2   3
ATOM      3  C   UNL     1     -30.070  56.111   1.782  1.00  0.00     0.027 C 
BRANCH   3   4
ATOM      4  C   UNL     1     -28.710  56.219   1.143  1.00  0.00    -0.025 C 
ATOM      5  C   UNL     1     -28.366  57.059   0.153  1.00  0.00     0.020 C 
BRANCH   5   6
ATOM      6  C   UNL     1     -29.256  58.004  -0.553  1.00  0.00     0.064 C 
ATOM      7  O   UNL     1     -29.637  57.808  -1.736  1.00  0.00    -0.545 OA
ATOM      8  O   UNL     1     -29.658  59.162   0.100  1.00  0.00    -0.545 OA
ENDBRANCH   5   6
ENDBRANCH   3   4
ENDBRANCH   2   3
ENDBRANCH   1   2
BRANCH   1   9
ATOM      9  C   UNL     1     -28.421  58.357   4.180  1.00  0.00     0.000 C 
BRANCH   9  10
ATOM     10  C   UNL     1     -27.294  58.786   3.228  1.00  0.00     0.000 C 
BRANCH  10  11
ATOM     11  C   UNL     1     -25.919  58.575   3.873  1.00  0.00    -0.000 C 
BRANCH  11  12
ATOM     12  C   UNL     1     -24.935  57.944   2.876  1.00  0.00    -0.000 C 
BRANCH  12  13
ATOM     13  C   UNL     1     -23.469  58.237   3.228  1.00  0.00    -0.003 C 
ATOM     14  C   UNL     1     -22.955  59.528   2.592  1.00  0.00     0.004 C 
ENDBRANCH  12  13
ENDBRANCH  11  12
ENDBRANCH  10  11
ENDBRANCH   9  10
ENDBRANCH   1   9
TORSDOF 9
ENDMDL
MODEL 5
REMARK VINA RESULT:    -5.020      2.605      4.156
REMARK INTER + INTRA:          -8.500
REMARK INTER:                  -7.794
REMARK INTRA:                  -0.706
REMARK UNBOUND:                -0.839
REMARK SMILES CCCCCCCCCC=CC(=O)[O-]
REMARK SMILES IDX 7 1 8 2 9 3 10 4 11 5 12 6 13 7 14 8 6 9 5 10 4 11 3 12 2 13
REMARK SMILES IDX 1 14
REMARK H PARENT
REMARK Flexibility Score: inf
ROOT
ATOM      1  C   UNL     1     -27.507  56.168   0.776  1.00  0.00     0.000 C 
ENDROOT
BRANCH   1   2
ATOM      2  C   UNL     1     -28.765  56.739   1.462  1.00  0.00     0.004 C 
BRANCH   2   3
ATOM      3  C   UNL     1     -29.914  57.089   0.497  1.00  0.00     0.027 C 
BRANCH   3   4
ATOM      4  C   UNL     1     -29.740  58.442  -0.143  1.00  0.00    -0.025 C 
ATOM      5  C   UNL     1     -29.356  58.675  -1.409  1.00  0.00     0.020 C 
BRANCH   5   6
ATOM      6  C   UNL     1     -28.969  57.665  -2.414  1.00  0.00     0.064 C 
ATOM      7  O   UNL     1     -27.767  57.448  -2.716  1.00  0.00    -0.545 OA
ATOM      8  O   UNL     1     -29.966  56.954  -3.070  1.00  0.00    -0.545 OA
ENDBRANCH   5   6
ENDBRANCH   3   4
ENDBRANCH   2   3
ENDBRANCH   1   2
BRANCH   1   9
ATOM      9  C   UNL     1     -26.375  57.184   0.537  1.00  0.00     0.000 C 
BRANCH   9  10
ATOM     10  C   UNL     1     -25.163  56.957   1.453  1.00  0.00     0.000 C 
BRANCH  10  11
ATOM     11  C   UNL     1     -25.088  58.033   2.542  1.00  0.00    -0.000 C 
BRANCH  11  12
ATOM     12  C   UNL     1     -23.644  58.221   3.032  1.00  0.00    -0.000 C 
BRANCH  12  13
ATOM     13  C   UNL     1     -23.010  59.520   2.513  1.00  0.00    -0.003 C 
ATOM     14  C   UNL     1     -21.557  59.688   2.959  1.00  0.00     0.004 C 
ENDBRANCH  12  13
ENDBRANCH  11  12
ENDBRANCH  10  11
ENDBRANCH   9  10
ENDBRANCH   1   9
TORSDOF 9
ENDMDL
MODEL 6
REMARK VINA RESULT:    -5.013      1.329      2.034
REMARK INTER + INTRA:          -8.490
REMARK INTER:                  -7.985
REMARK INTRA:                  -0.505
REMARK UNBOUND:                -0.839
REMARK SMILES CCCCCCCCCC=CC(=O)[O-]
REMARK SMILES IDX 7 1 8 2 9 3 10 4 11 5 12 6 13 7 14 8 6 9 5 10 4 11 3 12 2 13
REMARK SMILES IDX 1 14
REMARK H PARENT
REMARK Flexibility Score: inf
ROOT
ATOM      1  C   UNL     1     -29.473  55.842   1.491  1.00  0.00     0.000 C 
ENDROOT
BRANCH   1   2
ATOM      2  C   UNL     1     -27.992  55.797   1.062  1.00  0.00     0.004 C 
BRANCH   2   3
ATOM      3  C   UNL     1     -27.448  57.127   0.507  1.00  0.00     0.027 C 
BRANCH   3   4
ATOM      4  C   UNL     1     -26.991  57.013  -0.924  1.00  0.00    -0.025 C 
ATOM      5  C   UNL     1     -27.735  57.267  -2.014  1.00  0.00     0.020 C 
BRANCH   5   6
ATOM      6  C   UNL     1     -29.161  57.651  -2.040  1.00  0.00     0.064 C 
ATOM      7  O   UNL     1     -29.632  58.528  -1.270  1.00  0.00    -0.545 OA
ATOM      8  O   UNL     1     -30.015  57.001  -2.922  1.00  0.00    -0.545 OA
ENDBRANCH   5   6
ENDBRANCH   3   4
ENDBRANCH   2   3
ENDBRANCH   1   2
BRANCH   1   9
ATOM      9  C   UNL     1     -29.874  57.068   2.331  1.00  0.00     0.000 C 
BRANCH   9  10
ATOM     10  C   UNL     1     -31.223  56.890   3.044  1.00  0.00     0.000 C 
BRANCH  10  11
ATOM     11  C   UNL     1     -31.123  57.298   4.519  1.00  0.00    -0.000 C 
BRANCH  11  12
ATOM     12  C   UNL     1     -29.817  58.061   4.790  1.00  0.00    -0.000 C 
BRANCH  12  13
ATOM     13  C   UNL     1     -29.687  58.505   6.255  1.00  0.00    -0.003 C 
ATOM     14  C   UNL     1     -31.024  58.504   6.995  1.00  0.00     0.004 C 
ENDBRANCH  12  13
ENDBRANCH  11  12
ENDBRANCH  10  11
ENDBRANCH   9  10
ENDBRANCH   1   9
TORSDOF 9
ENDMDL
MODEL 7
REMARK VINA RESULT:    -4.944      8.909     11.269
REMARK INTER + INTRA:          -8.384
REMARK INTER:                  -7.942
REMARK INTRA:                  -0.442
REMARK UNBOUND:                -0.839
REMARK SMILES CCCCCCCCCC=CC(=O)[O-]
REMARK SMILES IDX 7 1 8 2 9 3 10 4 11 5 12 6 13 7 14 8 6 9 5 10 4 11 3 12 2 13
REMARK SMILES IDX 1 14
REMARK H PARENT
REMARK Flexibility Score: inf
ROOT
ATOM      1  C   UNL     1     -23.543  58.247  10.885  1.00  0.00     0.000 C 
ENDROOT
BRANCH   1   2
ATOM      2  C   UNL     1     -23.825  58.337  12.398  1.00  0.00     0.004 C 
BRANCH   2   3
ATOM      3  C   UNL     1     -25.211  58.906  12.756  1.00  0.00     0.027 C 
BRANCH   3   4
ATOM      4  C   UNL     1     -25.694  59.925  11.757  1.00  0.00    -0.025 C 
ATOM      5  C   UNL     1     -26.784  59.816  10.980  1.00  0.00     0.020 C 
BRANCH   5   6
ATOM      6  C   UNL     1     -27.699  58.659  10.899  1.00  0.00     0.064 C 
ATOM      7  O   UNL     1     -27.288  57.500  10.634  1.00  0.00    -0.545 OA
ATOM      8  O   UNL     1     -29.059  58.864  11.092  1.00  0.00    -0.545 OA
ENDBRANCH   5   6
ENDBRANCH   3   4
ENDBRANCH   2   3
ENDBRANCH   1   2
BRANCH   1   9
ATOM      9  C   UNL     1     -22.087  57.916  10.509  1.00  0.00     0.000 C 
BRANCH   9  10
ATOM     10  C   UNL     1     -21.697  58.429   9.115  1.00  0.00     0.000 C 
BRANCH  10  11
ATOM     11  C   UNL     1     -21.528  57.266   8.130  1.00  0.00    -0.000 C 
BRANCH  11  12
ATOM     12  C   UNL     1     -22.833  56.466   7.994  1.00  0.00    -0.000 C 
BRANCH  12  13
ATOM     13  C   UNL     1     -23.264  56.283   6.531  1.00  0.00    -0.003 C 
ATOM     14  C   UNL     1     -22.336  56.997   5.548  1.00  0.00     0.004 C 
ENDBRANCH  12  13
ENDBRANCH  11  12
ENDBRANCH  10  11
ENDBRANCH   9  10
ENDBRANCH   1   9
TORSDOF 9
ENDMDL
MODEL 8
REMARK VINA RESULT:    -4.936     11.485     13.310
REMARK INTER + INTRA:          -8.372
REMARK INTER:                  -7.365
REMARK INTRA:                  -1.007
REMARK UNBOUND:                -0.839
REMARK SMILES CCCCCCCCCC=CC(=O)[O-]
REMARK SMILES IDX 7 1 8 2 9 3 10 4 11 5 12 6 13 7 14 8 6 9 5 10 4 11 3 12 2 13
REMARK SMILES IDX 1 14
REMARK H PARENT
REMARK Flexibility Score: inf
ROOT
ATOM      1  C   UNL     1     -16.263  60.242  -4.613  1.00  0.00     0.000 C 
ENDROOT
BRANCH   1   2
ATOM      2  C   UNL     1     -16.481  59.154  -5.684  1.00  0.00     0.004 C 
BRANCH   2   3
ATOM      3  C   UNL     1     -17.776  58.337  -5.510  1.00  0.00     0.027 C 
BRANCH   3   4
ATOM      4  C   UNL     1     -18.514  58.686  -4.243  1.00  0.00    -0.025 C 
ATOM      5  C   UNL     1     -19.413  57.912  -3.613  1.00  0.00     0.020 C 
BRANCH   5   6
ATOM      6  C   UNL     1     -19.906  56.592  -4.056  1.00  0.00     0.064 C 
ATOM      7  O   UNL     1     -19.315  55.522  -3.754  1.00  0.00    -0.545 OA
ATOM      8  O   UNL     1     -21.040  56.532  -4.856  1.00  0.00    -0.545 OA
ENDBRANCH   5   6
ENDBRANCH   3   4
ENDBRANCH   2   3
ENDBRANCH   1   2
BRANCH   1   9
ATOM      9  C   UNL     1     -14.807  60.421  -4.149  1.00  0.00     0.000 C 
BRANCH   9  10
ATOM     10  C   UNL     1     -14.696  60.931  -2.704  1.00  0.00     0.000 C 
BRANCH  10  11
ATOM     11  C   UNL     1     -16.083  61.220  -2.117  1.00  0.00    -0.000 C 
BRANCH  11  12
ATOM     12  C   UNL     1     -16.386  60.284  -0.937  1.00  0.00    -0.000 C 
BRANCH  12  13
ATOM     13  C   UNL     1     -17.891  60.033  -0.754  1.00  0.00    -0.003 C 
ATOM     14  C   UNL     1     -18.189  58.972   0.305  1.00  0.00     0.004 C 
ENDBRANCH  12  13
ENDBRANCH  11  12
ENDBRANCH  10  11
ENDBRANCH   9  10
ENDBRANCH   1   9
TORSDOF 9
ENDMDL
MODEL 9
REMARK VINA RESULT:    -4.933     10.624     12.521
REMARK INTER + INTRA:          -8.368
REMARK INTER:                  -7.759
REMARK INTRA:                  -0.609
REMARK UNBOUND:                -0.839
REMARK SMILES CCCCCCCCCC=CC(=O)[O-]
REMARK SMILES IDX 7 1 8 2 9 3 10 4 11 5 12 6 13 7 14 8 6 9 5 10 4 11 3 12 2 13
REMARK SMILES IDX 1 14
REMARK H PARENT
REMARK Flexibility Score: inf
ROOT
ATOM      1  C   UNL     1     -17.306  59.467  -4.695  1.00  0.00     0.000 C 
ENDROOT
BRANCH   1   2
ATOM      2  C   UNL     1     -17.329  58.585  -5.961  1.00  0.00     0.004 C 
BRANCH   2   3
ATOM      3  C   UNL     1     -18.606  57.739  -6.127  1.00  0.00     0.027 C 
BRANCH   3   4
ATOM      4  C   UNL     1     -19.004  57.036  -4.854  1.00  0.00    -0.025 C 
ATOM      5  C   UNL     1     -20.247  56.951  -4.354  1.00  0.00     0.020 C 
BRANCH   5   6
ATOM      6  C   UNL     1     -21.467  57.572  -4.909  1.00  0.00     0.064 C 
ATOM      7  O   UNL     1     -21.840  58.728  -4.577  1.00  0.00    -0.545 OA
ATOM      8  O   UNL     1     -22.244  56.846  -5.802  1.00  0.00    -0.545 OA
ENDBRANCH   5   6
ENDBRANCH   3   4
ENDBRANCH   2   3
ENDBRANCH   1   2
BRANCH   1   9
ATOM      9  C   UNL     1     -16.005  60.259  -4.474  1.00  0.00     0.000 C 
BRANCH   9  10
ATOM     10  C   UNL     1     -15.834  60.735  -3.023  1.00  0.00     0.000 C 
BRANCH  10  11
ATOM     11  C   UNL     1     -17.004  60.267  -2.150  1.00  0.00    -0.000 C 
BRANCH  11  12
ATOM     12  C   UNL     1     -16.865  60.796  -0.714  1.00  0.00    -0.000 C 
BRANCH  12  13
ATOM     13  C   UNL     1     -18.224  61.036  -0.039  1.00  0.00    -0.003 C 
ATOM     14  C   UNL     1     -19.242  59.941  -0.355  1.00  0.00     0.004 C 
ENDBRANCH  12  13
ENDBRANCH  11  12
ENDBRANCH  10  11
ENDBRANCH   9  10
ENDBRANCH   1   9
TORSDOF 9
ENDMDL
