MODEL 1
REMARK VINA RESULT:    -5.675      0.000      0.000
REMARK INTER + INTRA:          -7.671
REMARK INTER:                  -7.002
REMARK INTRA:                  -0.670
REMARK UNBOUND:                -0.670
REMARK SMILES CC(C)=CCC[C@H](C)c1ccc(C)cc1
REMARK SMILES IDX 6 1 7 2 8 3 9 4 13 5 12 6 11 7 14 8 10 9 15 10 5 11 4 12
REMARK SMILES IDX 2 13 1 14 3 15
REMARK H PARENT
REMARK Flexibility Score: inf
ROOT
ATOM      1  C   UNL     1       3.725 -17.715   7.934  1.00  0.00     0.012 C 
ENDROOT
BRANCH   1   2
ATOM      2  C   UNL     1       5.145 -17.102   7.867  1.00  0.00     0.016 C 
ATOM      3  C   UNL     1       5.803 -17.109   9.252  1.00  0.00     0.013 C 
BRANCH   2   4
ATOM      4  C   UNL     1       5.136 -15.698   7.288  1.00  0.00    -0.045 A 
ATOM      5  C   UNL     1       5.030 -11.718   5.613  1.00  0.00     0.044 C 
ATOM      6  C   UNL     1       5.098 -13.102   6.189  1.00  0.00    -0.051 A 
ATOM      7  C   UNL     1       5.326 -13.286   7.560  1.00  0.00     0.004 A 
ATOM      8  C   UNL     1       4.863 -14.219   5.374  1.00  0.00     0.004 A 
ATOM      9  C   UNL     1       5.351 -14.572   8.105  1.00  0.00     0.004 A 
ATOM     10  C   UNL     1       4.888 -15.506   5.917  1.00  0.00     0.004 A 
ENDBRANCH   2   4
ENDBRANCH   1   2
BRANCH   1  11
ATOM     11  C   UNL     1       3.556 -18.977   7.070  1.00  0.00     0.028 C 
BRANCH  11  12
ATOM     12  C   UNL     1       3.280 -20.206   7.903  1.00  0.00    -0.028 C 
ATOM     13  C   UNL     1       4.138 -21.238   8.058  1.00  0.00    -0.080 C 
ATOM     14  C   UNL     1       5.518 -21.233   7.444  1.00  0.00     0.039 C 
ATOM     15  C   UNL     1       3.702 -22.414   8.893  1.00  0.00     0.039 C 
ENDBRANCH  11  12
ENDBRANCH   1  11
TORSDOF 4
ENDMDL
MODEL 2
REMARK VINA RESULT:    -5.613      2.241      4.350
REMARK INTER + INTRA:          -7.595
REMARK INTER:                  -6.063
REMARK INTRA:                  -1.532
REMARK UNBOUND:                -0.670
REMARK SMILES CC(C)=CCC[C@H](C)c1ccc(C)cc1
REMARK SMILES IDX 6 1 7 2 8 3 9 4 13 5 12 6 11 7 14 8 10 9 15 10 5 11 4 12
REMARK SMILES IDX 2 13 1 14 3 15
REMARK H PARENT
REMARK Flexibility Score: inf
ROOT
ATOM      1  C   UNL     1       5.745 -17.703   6.790  1.00  0.00     0.012 C 
ENDROOT
BRANCH   1   2
ATOM      2  C   UNL     1       4.798 -17.315   7.952  1.00  0.00     0.016 C 
ATOM      3  C   UNL     1       3.424 -17.971   7.770  1.00  0.00     0.013 C 
BRANCH   2   4
ATOM      4  C   UNL     1       4.655 -15.810   8.096  1.00  0.00    -0.045 A 
ATOM      5  C   UNL     1       4.227 -11.541   8.590  1.00  0.00     0.044 C 
ATOM      6  C   UNL     1       4.367 -13.021   8.388  1.00  0.00    -0.051 A 
ATOM      7  C   UNL     1       5.595 -13.566   7.989  1.00  0.00     0.004 A 
ATOM      8  C   UNL     1       3.290 -13.877   8.665  1.00  0.00     0.004 A 
ATOM      9  C   UNL     1       5.738 -14.948   7.839  1.00  0.00     0.004 A 
ATOM     10  C   UNL     1       3.431 -15.258   8.515  1.00  0.00     0.004 A 
ENDBRANCH   2   4
ENDBRANCH   1   2
BRANCH   1  11
ATOM     11  C   UNL     1       5.066 -17.689   5.409  1.00  0.00     0.028 C 
BRANCH  11  12
ATOM     12  C   UNL     1       5.572 -16.567   4.534  1.00  0.00    -0.028 C 
ATOM     13  C   UNL     1       4.866 -15.458   4.223  1.00  0.00    -0.080 C 
ATOM     14  C   UNL     1       3.487 -15.201   4.784  1.00  0.00     0.039 C 
ATOM     15  C   UNL     1       5.495 -14.442   3.305  1.00  0.00     0.039 C 
ENDBRANCH  11  12
ENDBRANCH   1  11
TORSDOF 4
ENDMDL
MODEL 3
REMARK VINA RESULT:    -5.610      1.950      4.282
REMARK INTER + INTRA:          -7.591
REMARK INTER:                  -6.308
REMARK INTRA:                  -1.283
REMARK UNBOUND:                -0.670
REMARK SMILES CC(C)=CCC[C@H](C)c1ccc(C)cc1
REMARK SMILES IDX 6 1 7 2 8 3 9 4 13 5 12 6 11 7 14 8 10 9 15 10 5 11 4 12
REMARK SMILES IDX 2 13 1 14 3 15
REMARK H PARENT
REMARK Flexibility Score: inf
ROOT
ATOM      1  C   UNL     1       5.751 -18.579   6.393  1.00  0.00     0.012 C 
ENDROOT
BRANCH   1   2
ATOM      2  C   UNL     1       4.976 -18.256   7.693  1.00  0.00     0.016 C 
ATOM      3  C   UNL     1       3.623 -18.977   7.710  1.00  0.00     0.013 C 
BRANCH   2   4
ATOM      4  C   UNL     1       4.785 -16.761   7.889  1.00  0.00    -0.045 A 
ATOM      5  C   UNL     1       4.286 -12.498   8.371  1.00  0.00     0.044 C 
ATOM      6  C   UNL     1       4.460 -13.982   8.235  1.00  0.00    -0.051 A 
ATOM      7  C   UNL     1       3.340 -14.823   8.181  1.00  0.00     0.004 A 
ATOM      8  C   UNL     1       5.742 -14.532   8.090  1.00  0.00     0.004 A 
ATOM      9  C   UNL     1       3.500 -16.202   8.015  1.00  0.00     0.004 A 
ATOM     10  C   UNL     1       5.904 -15.910   7.924  1.00  0.00     0.004 A 
ENDBRANCH   2   4
ENDBRANCH   1   2
BRANCH   1  11
ATOM     11  C   UNL     1       4.946 -18.306   5.110  1.00  0.00     0.028 C 
BRANCH  11  12
ATOM     12  C   UNL     1       5.801 -17.716   4.014  1.00  0.00    -0.028 C 
ATOM     13  C   UNL     1       5.828 -16.407   3.680  1.00  0.00    -0.080 C 
ATOM     14  C   UNL     1       5.025 -15.371   4.431  1.00  0.00     0.039 C 
ATOM     15  C   UNL     1       6.708 -15.977   2.534  1.00  0.00     0.039 C 
ENDBRANCH  11  12
ENDBRANCH   1  11
TORSDOF 4
ENDMDL
MODEL 4
REMARK VINA RESULT:    -5.569      1.378      6.776
REMARK INTER + INTRA:          -7.541
REMARK INTER:                  -7.034
REMARK INTRA:                  -0.507
REMARK UNBOUND:                -0.670
REMARK SMILES CC(C)=CCC[C@H](C)c1ccc(C)cc1
REMARK SMILES IDX 6 1 7 2 8 3 9 4 13 5 12 6 11 7 14 8 10 9 15 10 5 11 4 12
REMARK SMILES IDX 2 13 1 14 3 15
REMARK H PARENT
REMARK Flexibility Score: inf
ROOT
ATOM      1  C   UNL     1       5.012 -16.703   6.722  1.00  0.00     0.012 C 
ENDROOT
BRANCH   1   2
ATOM      2  C   UNL     1       5.732 -17.970   6.201  1.00  0.00     0.016 C 
ATOM      3  C   UNL     1       5.651 -18.049   4.672  1.00  0.00     0.013 C 
BRANCH   2   4
ATOM      4  C   UNL     1       5.183 -19.239   6.830  1.00  0.00    -0.045 A 
ATOM      5  C   UNL     1       3.696 -22.856   8.664  1.00  0.00     0.044 C 
ATOM      6  C   UNL     1       4.196 -21.607   8.001  1.00  0.00    -0.051 A 
ATOM      7  C   UNL     1       3.499 -20.399   8.152  1.00  0.00     0.004 A 
ATOM      8  C   UNL     1       5.402 -21.621   7.284  1.00  0.00     0.004 A 
ATOM      9  C   UNL     1       3.985 -19.226   7.567  1.00  0.00     0.004 A 
ATOM     10  C   UNL     1       5.889 -20.449   6.699  1.00  0.00     0.004 A 
ENDBRANCH   2   4
ENDBRANCH   1   2
BRANCH   1  11
ATOM     11  C   UNL     1       5.716 -16.041   7.920  1.00  0.00     0.028 C 
BRANCH  11  12
ATOM     12  C   UNL     1       5.772 -14.537   7.791  1.00  0.00    -0.028 C 
ATOM     13  C   UNL     1       4.787 -13.696   8.174  1.00  0.00    -0.080 C 
ATOM     14  C   UNL     1       3.524 -14.189   8.840  1.00  0.00     0.039 C 
ATOM     15  C   UNL     1       4.977 -12.219   7.944  1.00  0.00     0.039 C 
ENDBRANCH  11  12
ENDBRANCH   1  11
TORSDOF 4
ENDMDL
MODEL 5
REMARK VINA RESULT:    -5.549      1.325      1.710
REMARK INTER + INTRA:          -7.516
REMARK INTER:                  -6.982
REMARK INTRA:                  -0.534
REMARK UNBOUND:                -0.670
REMARK SMILES CC(C)=CCC[C@H](C)c1ccc(C)cc1
REMARK SMILES IDX 6 1 7 2 8 3 9 4 13 5 12 6 11 7 14 8 10 9 15 10 5 11 4 12
REMARK SMILES IDX 2 13 1 14 3 15
REMARK H PARENT
REMARK Flexibility Score: inf
ROOT
ATOM      1  C   UNL     1       3.973 -17.614   7.686  1.00  0.00     0.012 C 
ENDROOT
BRANCH   1   2
ATOM      2  C   UNL     1       5.198 -16.742   8.053  1.00  0.00     0.016 C 
ATOM      3  C   UNL     1       5.843 -17.234   9.354  1.00  0.00     0.013 C 
BRANCH   2   4
ATOM      4  C   UNL     1       4.841 -15.269   8.158  1.00  0.00    -0.045 A 
ATOM      5  C   UNL     1       3.808 -11.093   8.542  1.00  0.00     0.044 C 
ATOM      6  C   UNL     1       4.157 -12.543   8.379  1.00  0.00    -0.051 A 
ATOM      7  C   UNL     1       5.443 -12.918   7.965  1.00  0.00     0.004 A 
ATOM      8  C   UNL     1       3.222 -13.536   8.706  1.00  0.00     0.004 A 
ATOM      9  C   UNL     1       5.782 -14.269   7.850  1.00  0.00     0.004 A 
ATOM     10  C   UNL     1       3.559 -14.887   8.592  1.00  0.00     0.004 A 
ENDBRANCH   2   4
ENDBRANCH   1   2
BRANCH   1  11
ATOM     11  C   UNL     1       4.340 -18.919   6.958  1.00  0.00     0.028 C 
BRANCH  11  12
ATOM     12  C   UNL     1       3.881 -20.144   7.713  1.00  0.00    -0.028 C 
ATOM     13  C   UNL     1       4.557 -21.313   7.765  1.00  0.00    -0.080 C 
ATOM     14  C   UNL     1       5.902 -21.492   7.102  1.00  0.00     0.039 C 
ATOM     15  C   UNL     1       3.949 -22.459   8.532  1.00  0.00     0.039 C 
ENDBRANCH  11  12
ENDBRANCH   1  11
TORSDOF 4
ENDMDL
MODEL 6
REMARK VINA RESULT:    -5.537      2.007      5.115
REMARK INTER + INTRA:          -7.502
REMARK INTER:                  -5.957
REMARK INTRA:                  -1.545
REMARK UNBOUND:                -0.670
REMARK SMILES CC(C)=CCC[C@H](C)c1ccc(C)cc1
REMARK SMILES IDX 6 1 7 2 8 3 9 4 13 5 12 6 11 7 14 8 10 9 15 10 5 11 4 12
REMARK SMILES IDX 2 13 1 14 3 15
REMARK H PARENT
REMARK Flexibility Score: inf
ROOT
ATOM      1  C   UNL     1       4.343 -14.011   8.482  1.00  0.00     0.012 C 
ENDROOT
BRANCH   1   2
ATOM      2  C   UNL     1       5.319 -14.521   7.395  1.00  0.00     0.016 C 
ATOM      3  C   UNL     1       5.001 -13.879   6.039  1.00  0.00     0.013 C 
BRANCH   2   4
ATOM      4  C   UNL     1       5.310 -16.036   7.283  1.00  0.00    -0.045 A 
ATOM      5  C   UNL     1       5.204 -20.345   7.001  1.00  0.00     0.044 C 
ATOM      6  C   UNL     1       5.272 -18.849   7.103  1.00  0.00    -0.051 A 
ATOM      7  C   UNL     1       5.422 -18.069   5.947  1.00  0.00     0.004 A 
ATOM      8  C   UNL     1       5.116 -18.218   8.345  1.00  0.00     0.004 A 
ATOM      9  C   UNL     1       5.446 -16.674   6.036  1.00  0.00     0.004 A 
ATOM     10  C   UNL     1       5.140 -16.824   8.436  1.00  0.00     0.004 A 
ENDBRANCH   2   4
ENDBRANCH   1   2
BRANCH   1  11
ATOM     11  C   UNL     1       2.887 -13.890   7.998  1.00  0.00     0.028 C 
BRANCH  11  12
ATOM     12  C   UNL     1       1.980 -14.904   8.653  1.00  0.00    -0.028 C 
ATOM     13  C   UNL     1       1.452 -15.979   8.027  1.00  0.00    -0.080 C 
ATOM     14  C   UNL     1       1.773 -16.309   6.589  1.00  0.00     0.039 C 
ATOM     15  C   UNL     1       0.532 -16.882   8.808  1.00  0.00     0.039 C 
ENDBRANCH  11  12
ENDBRANCH   1  11
TORSDOF 4
ENDMDL
MODEL 7
REMARK VINA RESULT:    -5.518      1.488      2.548
REMARK INTER + INTRA:          -7.478
REMARK INTER:                  -6.693
REMARK INTRA:                  -0.785
REMARK UNBOUND:                -0.670
REMARK SMILES CC(C)=CCC[C@H](C)c1ccc(C)cc1
REMARK SMILES IDX 6 1 7 2 8 3 9 4 13 5 12 6 11 7 14 8 10 9 15 10 5 11 4 12
REMARK SMILES IDX 2 13 1 14 3 15
REMARK H PARENT
REMARK Flexibility Score: inf
ROOT
ATOM      1  C   UNL     1       5.006 -19.530   6.953  1.00  0.00     0.012 C 
ENDROOT
BRANCH   1   2
ATOM      2  C   UNL     1       4.140 -18.759   7.977  1.00  0.00     0.016 C 
ATOM      3  C   UNL     1       2.649 -19.009   7.721  1.00  0.00     0.013 C 
BRANCH   2   4
ATOM      4  C   UNL     1       4.439 -17.269   7.974  1.00  0.00    -0.045 A 
ATOM      5  C   UNL     1       5.232 -13.024   8.030  1.00  0.00     0.044 C 
ATOM      6  C   UNL     1       4.961 -14.499   7.980  1.00  0.00    -0.051 A 
ATOM      7  C   UNL     1       6.005 -15.416   8.170  1.00  0.00     0.004 A 
ATOM      8  C   UNL     1       3.652 -14.972   7.812  1.00  0.00     0.004 A 
ATOM      9  C   UNL     1       5.748 -16.789   8.161  1.00  0.00     0.004 A 
ATOM     10  C   UNL     1       3.392 -16.344   7.804  1.00  0.00     0.004 A 
ENDBRANCH   2   4
ENDBRANCH   1   2
BRANCH   1  11
ATOM     11  C   UNL     1       5.490 -20.900   7.460  1.00  0.00     0.028 C 
BRANCH  11  12
ATOM     12  C   UNL     1       4.640 -22.035   6.941  1.00  0.00    -0.028 C 
ATOM     13  C   UNL     1       3.787 -22.763   7.695  1.00  0.00    -0.080 C 
ATOM     14  C   UNL     1       3.554 -22.465   9.157  1.00  0.00     0.039 C 
ATOM     15  C   UNL     1       3.034 -23.891   7.038  1.00  0.00     0.039 C 
ENDBRANCH  11  12
ENDBRANCH   1  11
TORSDOF 4
ENDMDL
MODEL 8
REMARK VINA RESULT:    -5.509      1.080      2.515
REMARK INTER + INTRA:          -7.466
REMARK INTER:                  -6.766
REMARK INTRA:                  -0.701
REMARK UNBOUND:                -0.670
REMARK SMILES CC(C)=CCC[C@H](C)c1ccc(C)cc1
REMARK SMILES IDX 6 1 7 2 8 3 9 4 13 5 12 6 11 7 14 8 10 9 15 10 5 11 4 12
REMARK SMILES IDX 2 13 1 14 3 15
REMARK H PARENT
REMARK Flexibility Score: inf
ROOT
ATOM      1  C   UNL     1       5.759 -16.784   7.356  1.00  0.00     0.012 C 
ENDROOT
BRANCH   1   2
ATOM      2  C   UNL     1       4.836 -16.021   6.375  1.00  0.00     0.016 C 
ATOM      3  C   UNL     1       5.073 -16.489   4.934  1.00  0.00     0.013 C 
BRANCH   2   4
ATOM      4  C   UNL     1       5.008 -14.516   6.481  1.00  0.00    -0.045 A 
ATOM      5  C   UNL     1       5.577 -10.247   6.818  1.00  0.00     0.044 C 
ATOM      6  C   UNL     1       5.348 -11.726   6.706  1.00  0.00    -0.051 A 
ATOM      7  C   UNL     1       5.102 -12.310   5.455  1.00  0.00     0.004 A 
ATOM      8  C   UNL     1       5.449 -12.545   7.840  1.00  0.00     0.004 A 
ATOM      9  C   UNL     1       4.928 -13.692   5.344  1.00  0.00     0.004 A 
ATOM     10  C   UNL     1       5.275 -13.927   7.731  1.00  0.00     0.004 A 
ENDBRANCH   2   4
ENDBRANCH   1   2
BRANCH   1  11
ATOM     11  C   UNL     1       4.995 -17.629   8.391  1.00  0.00     0.028 C 
BRANCH  11  12
ATOM     12  C   UNL     1       4.970 -19.094   8.027  1.00  0.00    -0.028 C 
ATOM     13  C   UNL     1       3.850 -19.800   7.757  1.00  0.00    -0.080 C 
ATOM     14  C   UNL     1       2.483 -19.158   7.737  1.00  0.00     0.039 C 
ATOM     15  C   UNL     1       3.986 -21.268   7.446  1.00  0.00     0.039 C 
ENDBRANCH  11  12
ENDBRANCH   1  11
TORSDOF 4
ENDMDL
MODEL 9
REMARK VINA RESULT:    -5.493      1.222      6.782
REMARK INTER + INTRA:          -7.447
REMARK INTER:                  -6.702
REMARK INTRA:                  -0.745
REMARK UNBOUND:                -0.670
REMARK SMILES CC(C)=CCC[C@H](C)c1ccc(C)cc1
REMARK SMILES IDX 6 1 7 2 8 3 9 4 13 5 12 6 11 7 14 8 10 9 15 10 5 11 4 12
REMARK SMILES IDX 2 13 1 14 3 15
REMARK H PARENT
REMARK Flexibility Score: inf
ROOT
ATOM      1  C   UNL     1       4.742 -15.557   8.555  1.00  0.00     0.012 C 
ENDROOT
BRANCH   1   2
ATOM      2  C   UNL     1       3.703 -16.229   7.625  1.00  0.00     0.016 C 
ATOM      3  C   UNL     1       2.293 -15.700   7.918  1.00  0.00     0.013 C 
BRANCH   2   4
ATOM      4  C   UNL     1       3.736 -17.744   7.730  1.00  0.00    -0.045 A 
ATOM      5  C   UNL     1       3.875 -22.045   8.102  1.00  0.00     0.044 C 
ATOM      6  C   UNL     1       3.827 -20.554   7.941  1.00  0.00    -0.051 A 
ATOM      7  C   UNL     1       2.594 -19.888   7.892  1.00  0.00     0.004 A 
ATOM      8  C   UNL     1       5.014 -19.808   7.910  1.00  0.00     0.004 A 
ATOM      9  C   UNL     1       2.547 -18.496   7.782  1.00  0.00     0.004 A 
ATOM     10  C   UNL     1       4.970 -18.416   7.799  1.00  0.00     0.004 A 
ENDBRANCH   2   4
ENDBRANCH   1   2
BRANCH   1  11
ATOM     11  C   UNL     1       5.770 -14.689   7.806  1.00  0.00     0.028 C 
BRANCH  11  12
ATOM     12  C   UNL     1       5.397 -13.226   7.816  1.00  0.00    -0.028 C 
ATOM     13  C   UNL     1       5.036 -12.518   6.724  1.00  0.00    -0.080 C 
ATOM     14  C   UNL     1       4.912 -13.155   5.360  1.00  0.00     0.039 C 
ATOM     15  C   UNL     1       4.729 -11.052   6.890  1.00  0.00     0.039 C 
ENDBRANCH  11  12
ENDBRANCH   1  11
TORSDOF 4
ENDMDL
