MODEL 1
REMARK VINA RESULT:    -3.919      0.000      0.000
REMARK INTER + INTRA:          -4.289
REMARK INTER:                  -4.263
REMARK INTRA:                  -0.026
REMARK UNBOUND:                -0.026
REMARK SMILES COc1ccccc1O
REMARK SMILES IDX 3 1 4 2 5 3 6 4 7 5 8 6 2 7 1 8 9 9
REMARK H PARENT 9 10
REMARK Flexibility Score: inf
ROOT
ATOM      1  C   UNL     1      -2.189 -16.277  -8.453  1.00  0.00     0.160 A 
ATOM      2  C   UNL     1      -1.273 -17.347  -8.503  1.00  0.00     0.050 A 
ATOM      3  C   UNL     1       0.015 -17.198  -7.982  1.00  0.00     0.004 A 
ATOM      4  C   UNL     1       0.404 -15.987  -7.407  1.00  0.00     0.004 A 
ATOM      5  C   UNL     1      -0.496 -14.921  -7.352  1.00  0.00     0.050 A 
ATOM      6  C   UNL     1      -1.788 -15.058  -7.872  1.00  0.00     0.157 A 
ENDROOT
BRANCH   1   7
ATOM      7  O   UNL     1      -3.491 -16.388  -8.966  1.00  0.00    -0.493 OA
ATOM      8  C   UNL     1      -3.915 -17.393  -9.881  1.00  0.00     0.278 C 
ENDBRANCH   1   7
BRANCH   6   9
ATOM      9  O   UNL     1      -2.661 -13.973  -7.799  1.00  0.00    -0.504 OA
ATOM     10  H   UNL     1      -3.576 -14.044  -7.371  1.00  0.00     0.293 HD
ENDBRANCH   6   9
TORSDOF 2
ENDMDL
MODEL 2
REMARK VINA RESULT:    -3.810      1.808      3.722
REMARK INTER + INTRA:          -4.170
REMARK INTER:                  -4.145
REMARK INTRA:                  -0.025
REMARK UNBOUND:                -0.026
REMARK SMILES COc1ccccc1O
REMARK SMILES IDX 3 1 4 2 5 3 6 4 7 5 8 6 2 7 1 8 9 9
REMARK H PARENT 9 10
REMARK Flexibility Score: inf
ROOT
ATOM      1  C   UNL     1      -0.699 -14.292  -6.273  1.00  0.00     0.160 A 
ATOM      2  C   UNL     1       0.451 -15.017  -5.902  1.00  0.00     0.050 A 
ATOM      3  C   UNL     1       0.854 -16.131  -6.644  1.00  0.00     0.004 A 
ATOM      4  C   UNL     1       0.118 -16.533  -7.761  1.00  0.00     0.004 A 
ATOM      5  C   UNL     1      -1.023 -15.822  -8.137  1.00  0.00     0.050 A 
ATOM      6  C   UNL     1      -1.436 -14.706  -7.400  1.00  0.00     0.157 A 
ENDROOT
BRANCH   1   7
ATOM      7  O   UNL     1      -1.135 -13.169  -5.553  1.00  0.00    -0.493 OA
ATOM      8  C   UNL     1      -0.402 -12.551  -4.501  1.00  0.00     0.278 C 
ENDBRANCH   1   7
BRANCH   6   9
ATOM      9  O   UNL     1      -2.580 -14.019  -7.806  1.00  0.00    -0.504 OA
ATOM     10  H   UNL     1      -2.901 -13.181  -7.336  1.00  0.00     0.293 HD
ENDBRANCH   6   9
TORSDOF 2
ENDMDL
MODEL 3
REMARK VINA RESULT:    -3.675      1.298      3.145
REMARK INTER + INTRA:          -4.023
REMARK INTER:                  -3.990
REMARK INTRA:                  -0.033
REMARK UNBOUND:                -0.026
REMARK SMILES COc1ccccc1O
REMARK SMILES IDX 3 1 4 2 5 3 6 4 7 5 8 6 2 7 1 8 9 9
REMARK H PARENT 9 10
REMARK Flexibility Score: inf
ROOT
ATOM      1  C   UNL     1      -0.777 -15.732  -7.928  1.00  0.00     0.160 A 
ATOM      2  C   UNL     1      -0.212 -16.962  -8.322  1.00  0.00     0.050 A 
ATOM      3  C   UNL     1      -1.016 -17.967  -8.865  1.00  0.00     0.004 A 
ATOM      4  C   UNL     1      -2.388 -17.759  -9.022  1.00  0.00     0.004 A 
ATOM      5  C   UNL     1      -2.958 -16.545  -8.635  1.00  0.00     0.050 A 
ATOM      6  C   UNL     1      -2.162 -15.532  -8.089  1.00  0.00     0.157 A 
ENDROOT
BRANCH   1   7
ATOM      7  O   UNL     1      -0.002 -14.700  -7.378  1.00  0.00    -0.493 OA
ATOM      8  C   UNL     1       0.253 -14.534  -5.987  1.00  0.00     0.278 C 
ENDBRANCH   1   7
BRANCH   6   9
ATOM      9  O   UNL     1      -2.765 -14.331  -7.714  1.00  0.00    -0.504 OA
ATOM     10  H   UNL     1      -2.566 -13.457  -8.185  1.00  0.00     0.293 HD
ENDBRANCH   6   9
TORSDOF 2
ENDMDL
MODEL 4
REMARK VINA RESULT:    -3.653      1.766      2.903
REMARK INTER + INTRA:          -3.999
REMARK INTER:                  -3.964
REMARK INTRA:                  -0.035
REMARK UNBOUND:                -0.026
REMARK SMILES COc1ccccc1O
REMARK SMILES IDX 3 1 4 2 5 3 6 4 7 5 8 6 2 7 1 8 9 9
REMARK H PARENT 9 10
REMARK Flexibility Score: inf
ROOT
ATOM      1  C   UNL     1      -0.239 -16.156  -7.744  1.00  0.00     0.160 A 
ATOM      2  C   UNL     1       0.640 -15.747  -6.721  1.00  0.00     0.050 A 
ATOM      3  C   UNL     1       0.295 -14.689  -5.875  1.00  0.00     0.004 A 
ATOM      4  C   UNL     1      -0.925 -14.030  -6.037  1.00  0.00     0.004 A 
ATOM      5  C   UNL     1      -1.803 -14.427  -7.047  1.00  0.00     0.050 A 
ATOM      6  C   UNL     1      -1.468 -15.484  -7.901  1.00  0.00     0.157 A 
ENDROOT
BRANCH   1   7
ATOM      7  O   UNL     1       0.072 -17.212  -8.613  1.00  0.00    -0.493 OA
ATOM      8  C   UNL     1       0.451 -18.519  -8.193  1.00  0.00     0.278 C 
ENDBRANCH   1   7
BRANCH   6   9
ATOM      9  O   UNL     1      -2.369 -15.854  -8.899  1.00  0.00    -0.504 OA
ATOM     10  H   UNL     1      -2.142 -15.785  -9.883  1.00  0.00     0.293 HD
ENDBRANCH   6   9
TORSDOF 2
ENDMDL
MODEL 5
REMARK VINA RESULT:    -3.609      1.682      2.430
REMARK INTER + INTRA:          -3.951
REMARK INTER:                  -3.920
REMARK INTRA:                  -0.032
REMARK UNBOUND:                -0.026
REMARK SMILES COc1ccccc1O
REMARK SMILES IDX 3 1 4 2 5 3 6 4 7 5 8 6 2 7 1 8 9 9
REMARK H PARENT 9 10
REMARK Flexibility Score: inf
ROOT
ATOM      1  C   UNL     1      -1.879 -15.387  -7.763  1.00  0.00     0.160 A 
ATOM      2  C   UNL     1      -2.231 -14.727  -6.569  1.00  0.00     0.050 A 
ATOM      3  C   UNL     1      -1.240 -14.258  -5.702  1.00  0.00     0.004 A 
ATOM      4  C   UNL     1       0.109 -14.439  -6.016  1.00  0.00     0.004 A 
ATOM      5  C   UNL     1       0.468 -15.090  -7.197  1.00  0.00     0.050 A 
ATOM      6  C   UNL     1      -0.516 -15.566  -8.072  1.00  0.00     0.157 A 
ENDROOT
BRANCH   1   7
ATOM      7  O   UNL     1      -2.846 -15.872  -8.658  1.00  0.00    -0.493 OA
ATOM      8  C   UNL     1      -3.998 -16.616  -8.275  1.00  0.00     0.278 C 
ENDBRANCH   1   7
BRANCH   6   9
ATOM      9  O   UNL     1      -0.120 -16.211  -9.243  1.00  0.00    -0.504 OA
ATOM     10  H   UNL     1       0.151 -15.701 -10.075  1.00  0.00     0.293 HD
ENDBRANCH   6   9
TORSDOF 2
ENDMDL
MODEL 6
REMARK VINA RESULT:    -3.528     12.818     13.987
REMARK INTER + INTRA:          -3.864
REMARK INTER:                  -3.837
REMARK INTRA:                  -0.026
REMARK UNBOUND:                -0.026
REMARK SMILES COc1ccccc1O
REMARK SMILES IDX 3 1 4 2 5 3 6 4 7 5 8 6 2 7 1 8 9 9
REMARK H PARENT 9 10
REMARK Flexibility Score: inf
ROOT
ATOM      1  C   UNL     1      12.083 -18.104  -8.846  1.00  0.00     0.160 A 
ATOM      2  C   UNL     1      11.730 -18.729  -7.634  1.00  0.00     0.050 A 
ATOM      3  C   UNL     1      10.674 -19.644  -7.593  1.00  0.00     0.004 A 
ATOM      4  C   UNL     1       9.960 -19.945  -8.755  1.00  0.00     0.004 A 
ATOM      5  C   UNL     1      10.302 -19.330  -9.961  1.00  0.00     0.050 A 
ATOM      6  C   UNL     1      11.357 -18.412 -10.014  1.00  0.00     0.157 A 
ENDROOT
BRANCH   1   7
ATOM      7  O   UNL     1      13.137 -17.180  -8.927  1.00  0.00    -0.493 OA
ATOM      8  C   UNL     1      13.621 -16.410  -7.832  1.00  0.00     0.278 C 
ENDBRANCH   1   7
BRANCH   6   9
ATOM      9  O   UNL     1      11.672 -17.818 -11.236  1.00  0.00    -0.504 OA
ATOM     10  H   UNL     1      10.976 -17.347 -11.801  1.00  0.00     0.293 HD
ENDBRANCH   6   9
TORSDOF 2
ENDMDL
MODEL 7
REMARK VINA RESULT:    -3.358     18.736     19.346
REMARK INTER + INTRA:          -3.678
REMARK INTER:                  -3.652
REMARK INTRA:                  -0.026
REMARK UNBOUND:                -0.026
REMARK SMILES COc1ccccc1O
REMARK SMILES IDX 3 1 4 2 5 3 6 4 7 5 8 6 2 7 1 8 9 9
REMARK H PARENT 9 10
REMARK Flexibility Score: inf
ROOT
ATOM      1  C   UNL     1      13.510 -13.963 -20.289  1.00  0.00     0.160 A 
ATOM      2  C   UNL     1      14.487 -14.259 -19.318  1.00  0.00     0.050 A 
ATOM      3  C   UNL     1      14.651 -13.429 -18.205  1.00  0.00     0.004 A 
ATOM      4  C   UNL     1      13.846 -12.298 -18.049  1.00  0.00     0.004 A 
ATOM      5  C   UNL     1      12.875 -11.996 -19.006  1.00  0.00     0.050 A 
ATOM      6  C   UNL     1      12.703 -12.820 -20.124  1.00  0.00     0.157 A 
ENDROOT
BRANCH   1   7
ATOM      7  O   UNL     1      13.316 -14.772 -21.419  1.00  0.00    -0.493 OA
ATOM      8  C   UNL     1      13.720 -16.135 -21.515  1.00  0.00     0.278 C 
ENDBRANCH   1   7
BRANCH   6   9
ATOM      9  O   UNL     1      11.723 -12.488 -21.059  1.00  0.00    -0.504 OA
ATOM     10  H   UNL     1      10.737 -12.485 -20.829  1.00  0.00     0.293 HD
ENDBRANCH   6   9
TORSDOF 2
ENDMDL
MODEL 8
REMARK VINA RESULT:    -3.346      1.539      3.314
REMARK INTER + INTRA:          -3.666
REMARK INTER:                  -3.632
REMARK INTRA:                  -0.034
REMARK UNBOUND:                -0.026
REMARK SMILES COc1ccccc1O
REMARK SMILES IDX 3 1 4 2 5 3 6 4 7 5 8 6 2 7 1 8 9 9
REMARK H PARENT 9 10
REMARK Flexibility Score: inf
ROOT
ATOM      1  C   UNL     1      -0.192 -15.631  -7.210  1.00  0.00     0.160 A 
ATOM      2  C   UNL     1       0.829 -16.482  -6.743  1.00  0.00     0.050 A 
ATOM      3  C   UNL     1       0.929 -17.793  -7.219  1.00  0.00     0.004 A 
ATOM      4  C   UNL     1       0.016 -18.267  -8.163  1.00  0.00     0.004 A 
ATOM      5  C   UNL     1      -0.998 -17.432  -8.633  1.00  0.00     0.050 A 
ATOM      6  C   UNL     1      -1.109 -16.118  -8.163  1.00  0.00     0.157 A 
ENDROOT
BRANCH   1   7
ATOM      7  O   UNL     1      -0.324 -14.310  -6.756  1.00  0.00    -0.493 OA
ATOM      8  C   UNL     1      -0.339 -13.925  -5.385  1.00  0.00     0.278 C 
ENDBRANCH   1   7
BRANCH   6   9
ATOM      9  O   UNL     1      -2.134 -15.311  -8.655  1.00  0.00    -0.504 OA
ATOM     10  H   UNL     1      -2.618 -14.639  -8.072  1.00  0.00     0.293 HD
ENDBRANCH   6   9
TORSDOF 2
ENDMDL
MODEL 9
REMARK VINA RESULT:    -3.269      3.008      4.565
REMARK INTER + INTRA:          -3.581
REMARK INTER:                  -3.544
REMARK INTRA:                  -0.037
REMARK UNBOUND:                -0.026
REMARK SMILES COc1ccccc1O
REMARK SMILES IDX 3 1 4 2 5 3 6 4 7 5 8 6 2 7 1 8 9 9
REMARK H PARENT 9 10
REMARK Flexibility Score: inf
ROOT
ATOM      1  C   UNL     1      -0.447 -14.391  -5.630  1.00  0.00     0.160 A 
ATOM      2  C   UNL     1      -1.636 -14.178  -6.356  1.00  0.00     0.050 A 
ATOM      3  C   UNL     1      -1.818 -14.780  -7.604  1.00  0.00     0.004 A 
ATOM      4  C   UNL     1      -0.822 -15.600  -8.140  1.00  0.00     0.004 A 
ATOM      5  C   UNL     1       0.359 -15.817  -7.428  1.00  0.00     0.050 A 
ATOM      6  C   UNL     1       0.553 -15.218  -6.178  1.00  0.00     0.157 A 
ENDROOT
BRANCH   1   7
ATOM      7  O   UNL     1      -0.228 -13.803  -4.374  1.00  0.00    -0.493 OA
ATOM      8  C   UNL     1      -0.258 -12.401  -4.123  1.00  0.00     0.278 C 
ENDBRANCH   1   7
BRANCH   6   9
ATOM      9  O   UNL     1       1.744 -15.458  -5.494  1.00  0.00    -0.504 OA
ATOM     10  H   UNL     1       2.069 -16.395  -5.289  1.00  0.00     0.293 HD
ENDBRANCH   6   9
TORSDOF 2
ENDMDL
