MODEL 1
REMARK VINA RESULT:    -1.958      0.000      0.000
REMARK INTER + INTRA:          -1.767
REMARK INTER:                  -2.359
REMARK INTRA:                   0.591
REMARK UNBOUND:                 0.591
REMARK SMILES O=c1c(O)c(-c2ccc(O)cc2O)oc2cc(O)cc(O)c12
REMARK SMILES IDX 5 1 3 2 2 3 1 4 22 5 20 6 19 7 17 8 16 9 15 10 14 11 6 12
REMARK SMILES IDX 8 13 7 14 9 15 11 16 12 17 10 18 13 20 4 22 21 24 18 26
REMARK H PARENT 10 19 13 21 4 23 21 25 18 27
REMARK Flexibility Score: inf
ROOT
ATOM      1  C   UNL     1      15.466  13.917  15.436  1.00  0.00     0.184 A 
ATOM      2  C   UNL     1      15.180  13.979  16.809  1.00  0.00     0.208 A 
ATOM      3  C   UNL     1      16.245  14.006  17.724  1.00  0.00     0.238 A 
ATOM      4  O   UNL     1      15.984  14.117  18.951  1.00  0.00    -0.285 OA
ATOM      5  C   UNL     1      17.579  13.952  17.254  1.00  0.00     0.111 A 
ATOM      6  C   UNL     1      18.734  13.931  18.092  1.00  0.00     0.134 A 
ATOM      7  C   UNL     1      20.008  14.009  17.516  1.00  0.00     0.093 A 
ATOM      8  C   UNL     1      20.171  14.040  16.132  1.00  0.00     0.123 A 
ATOM      9  C   UNL     1      19.051  14.000  15.301  1.00  0.00     0.094 A 
ATOM     10  C   UNL     1      17.766  13.959  15.846  1.00  0.00     0.146 A 
ATOM     11  O   UNL     1      16.726  13.934  15.021  1.00  0.00    -0.451 OA
ENDROOT
BRANCH   1  12
ATOM     12  C   UNL     1      14.391  13.870  14.422  1.00  0.00     0.063 A 
ATOM     13  C   UNL     1      12.017  13.742  13.917  1.00  0.00     0.047 A 
ATOM     14  C   UNL     1      13.057  13.782  14.849  1.00  0.00     0.020 A 
ATOM     15  C   UNL     1      12.296  13.804  12.548  1.00  0.00     0.119 A 
ATOM     16  C   UNL     1      13.621  13.915  12.114  1.00  0.00     0.093 A 
ATOM     17  C   UNL     1      14.671  13.962  13.043  1.00  0.00     0.130 A 
BRANCH  15  18
ATOM     18  O   UNL     1      11.267  13.761  11.610  1.00  0.00    -0.508 OA
ATOM     19  H   UNL     1      10.890  14.607  11.199  1.00  0.00     0.293 HD
ENDBRANCH  15  18
BRANCH  17  20
ATOM     20  O   UNL     1      15.984  14.122  12.599  1.00  0.00    -0.507 OA
ATOM     21  H   UNL     1      16.731  14.379  13.232  1.00  0.00     0.293 HD
ENDBRANCH  17  20
ENDBRANCH   1  12
BRANCH   2  22
ATOM     22  O   UNL     1      13.855  14.051  17.245  1.00  0.00    -0.502 OA
ATOM     23  H   UNL     1      13.281  13.226  17.377  1.00  0.00     0.293 HD
ENDBRANCH   2  22
BRANCH   6  24
ATOM     24  O   UNL     1      18.685  13.810  19.485  1.00  0.00    -0.507 OA
ATOM     25  H   UNL     1      18.543  14.576  20.123  1.00  0.00     0.293 HD
ENDBRANCH   6  24
BRANCH   8  26
ATOM     26  O   UNL     1      21.454  14.100  15.593  1.00  0.00    -0.508 OA
ATOM     27  H   UNL     1      22.277  13.970  16.169  1.00  0.00     0.293 HD
ENDBRANCH   8  26
TORSDOF 6
ENDMDL
MODEL 2
REMARK VINA RESULT:    -1.876      1.695      1.719
REMARK INTER + INTRA:          -1.669
REMARK INTER:                  -2.168
REMARK INTRA:                   0.499
REMARK UNBOUND:                 0.591
REMARK SMILES O=c1c(O)c(-c2ccc(O)cc2O)oc2cc(O)cc(O)c12
REMARK SMILES IDX 5 1 3 2 2 3 1 4 22 5 20 6 19 7 17 8 16 9 15 10 14 11 6 12
REMARK SMILES IDX 8 13 7 14 9 15 11 16 12 17 10 18 13 20 4 22 21 24 18 26
REMARK H PARENT 10 19 13 21 4 23 21 25 18 27
REMARK Flexibility Score: inf
ROOT
ATOM      1  C   UNL     1      15.063  12.722  15.369  1.00  0.00     0.184 A 
ATOM      2  C   UNL     1      14.743  11.826  16.402  1.00  0.00     0.208 A 
ATOM      3  C   UNL     1      15.726  11.505  17.351  1.00  0.00     0.238 A 
ATOM      4  O   UNL     1      15.418  10.745  18.306  1.00  0.00    -0.285 OA
ATOM      5  C   UNL     1      17.019  12.070  17.244  1.00  0.00     0.111 A 
ATOM      6  C   UNL     1      18.105  11.784  18.126  1.00  0.00     0.134 A 
ATOM      7  C   UNL     1      19.302  12.500  18.004  1.00  0.00     0.093 A 
ATOM      8  C   UNL     1      19.476  13.443  16.992  1.00  0.00     0.123 A 
ATOM      9  C   UNL     1      18.443  13.688  16.087  1.00  0.00     0.094 A 
ATOM     10  C   UNL     1      17.224  13.017  16.206  1.00  0.00     0.146 A 
ATOM     11  O   UNL     1      16.262  13.287  15.331  1.00  0.00    -0.451 OA
ENDROOT
BRANCH   1  12
ATOM     12  C   UNL     1      14.079  13.089  14.329  1.00  0.00     0.063 A 
ATOM     13  C   UNL     1      11.764  13.144  13.587  1.00  0.00     0.047 A 
ATOM     14  C   UNL     1      12.722  12.805  14.547  1.00  0.00     0.020 A 
ATOM     15  C   UNL     1      12.150  13.785  12.404  1.00  0.00     0.119 A 
ATOM     16  C   UNL     1      13.497  14.094  12.189  1.00  0.00     0.093 A 
ATOM     17  C   UNL     1      14.464  13.762  13.151  1.00  0.00     0.130 A 
BRANCH  15  18
ATOM     18  O   UNL     1      11.204  14.125  11.439  1.00  0.00    -0.508 OA
ATOM     19  H   UNL     1      10.965  15.091  11.250  1.00  0.00     0.293 HD
ENDBRANCH  15  18
BRANCH  17  20
ATOM     20  O   UNL     1      15.797  14.119  12.946  1.00  0.00    -0.507 OA
ATOM     21  H   UNL     1      16.380  14.452  13.704  1.00  0.00     0.293 HD
ENDBRANCH  17  20
ENDBRANCH   1  12
BRANCH   2  22
ATOM     22  O   UNL     1      13.453  11.298  16.495  1.00  0.00    -0.502 OA
ATOM     23  H   UNL     1      12.791  11.343  15.729  1.00  0.00     0.293 HD
ENDBRANCH   2  22
BRANCH   6  24
ATOM     24  O   UNL     1      18.067  10.795  19.114  1.00  0.00    -0.507 OA
ATOM     25  H   UNL     1      18.731  10.709  19.867  1.00  0.00     0.293 HD
ENDBRANCH   6  24
BRANCH   8  26
ATOM     26  O   UNL     1      20.687  14.125  16.890  1.00  0.00    -0.508 OA
ATOM     27  H   UNL     1      20.811  14.890  16.237  1.00  0.00     0.293 HD
ENDBRANCH   8  26
TORSDOF 6
ENDMDL
MODEL 3
REMARK VINA RESULT:    -1.702      1.828      3.890
REMARK INTER + INTRA:          -1.459
REMARK INTER:                  -1.518
REMARK INTRA:                   0.059
REMARK UNBOUND:                 0.591
REMARK SMILES O=c1c(O)c(-c2ccc(O)cc2O)oc2cc(O)cc(O)c12
REMARK SMILES IDX 5 1 3 2 2 3 1 4 22 5 20 6 19 7 17 8 16 9 15 10 14 11 6 12
REMARK SMILES IDX 8 13 7 14 9 15 11 16 12 17 10 18 13 20 4 22 21 24 18 26
REMARK H PARENT 10 19 13 21 4 23 21 25 18 27
REMARK Flexibility Score: inf
ROOT
ATOM      1  C   UNL     1      13.822  13.574  14.206  1.00  0.00     0.184 A 
ATOM      2  C   UNL     1      15.139  13.580  13.719  1.00  0.00     0.208 A 
ATOM      3  C   UNL     1      16.201  13.674  14.631  1.00  0.00     0.238 A 
ATOM      4  O   UNL     1      17.380  13.625  14.193  1.00  0.00    -0.285 OA
ATOM      5  C   UNL     1      15.931  13.778  16.017  1.00  0.00     0.111 A 
ATOM      6  C   UNL     1      16.928  13.920  17.029  1.00  0.00     0.134 A 
ATOM      7  C   UNL     1      16.554  13.882  18.378  1.00  0.00     0.093 A 
ATOM      8  C   UNL     1      15.215  13.775  18.751  1.00  0.00     0.123 A 
ATOM      9  C   UNL     1      14.227  13.696  17.770  1.00  0.00     0.094 A 
ATOM     10  C   UNL     1      14.571  13.694  16.416  1.00  0.00     0.146 A 
ATOM     11  O   UNL     1      13.601  13.606  15.514  1.00  0.00    -0.451 OA
ENDROOT
BRANCH   1  12
ATOM     12  C   UNL     1      12.659  13.493  13.298  1.00  0.00     0.063 A 
ATOM     13  C   UNL     1      11.650  14.064  11.160  1.00  0.00     0.047 A 
ATOM     14  C   UNL     1      12.729  14.125  12.046  1.00  0.00     0.020 A 
ATOM     15  C   UNL     1      10.494  13.358  11.509  1.00  0.00     0.119 A 
ATOM     16  C   UNL     1      10.424  12.705  12.744  1.00  0.00     0.093 A 
ATOM     17  C   UNL     1      11.505  12.757  13.636  1.00  0.00     0.130 A 
BRANCH  15  18
ATOM     18  O   UNL     1       9.410  13.293  10.634  1.00  0.00    -0.508 OA
ATOM     19  H   UNL     1       8.457  13.386  10.965  1.00  0.00     0.293 HD
ENDBRANCH  15  18
BRANCH  17  20
ATOM     20  O   UNL     1      11.441  12.061  14.844  1.00  0.00    -0.507 OA
ATOM     21  H   UNL     1      10.576  11.979  15.365  1.00  0.00     0.293 HD
ENDBRANCH  17  20
ENDBRANCH   1  12
BRANCH   2  22
ATOM     22  O   UNL     1      15.377  13.457  12.347  1.00  0.00    -0.502 OA
ATOM     23  H   UNL     1      14.627  13.405  11.668  1.00  0.00     0.293 HD
ENDBRANCH   2  22
BRANCH   6  24
ATOM     24  O   UNL     1      18.286  14.124  16.762  1.00  0.00    -0.507 OA
ATOM     25  H   UNL     1      18.896  13.446  16.336  1.00  0.00     0.293 HD
ENDBRANCH   6  24
BRANCH   8  26
ATOM     26  O   UNL     1      14.879  13.758  20.103  1.00  0.00    -0.508 OA
ATOM     27  H   UNL     1      15.584  13.844  20.825  1.00  0.00     0.293 HD
ENDBRANCH   8  26
TORSDOF 6
ENDMDL
MODEL 4
REMARK VINA RESULT:    -0.640      2.977      8.601
REMARK INTER + INTRA:          -0.179
REMARK INTER:                   0.128
REMARK INTRA:                  -0.307
REMARK UNBOUND:                 0.591
REMARK SMILES O=c1c(O)c(-c2ccc(O)cc2O)oc2cc(O)cc(O)c12
REMARK SMILES IDX 5 1 3 2 2 3 1 4 22 5 20 6 19 7 17 8 16 9 15 10 14 11 6 12
REMARK SMILES IDX 8 13 7 14 9 15 11 16 12 17 10 18 13 20 4 22 21 24 18 26
REMARK H PARENT 10 19 13 21 4 23 21 25 18 27
REMARK Flexibility Score: inf
ROOT
ATOM      1  C   UNL     1      12.240  13.415  13.538  1.00  0.00     0.184 A 
ATOM      2  C   UNL     1      12.696  13.641  12.230  1.00  0.00     0.208 A 
ATOM      3  C   UNL     1      11.757  13.869  11.212  1.00  0.00     0.238 A 
ATOM      4  O   UNL     1      12.174  14.125  10.052  1.00  0.00    -0.285 OA
ATOM      5  C   UNL     1      10.374  13.851  11.514  1.00  0.00     0.111 A 
ATOM      6  C   UNL     1       9.333  14.029  10.554  1.00  0.00     0.134 A 
ATOM      7  C   UNL     1       8.003  14.122  10.985  1.00  0.00     0.093 A 
ATOM      8  C   UNL     1       7.672  13.978  12.332  1.00  0.00     0.123 A 
ATOM      9  C   UNL     1       8.677  13.744  13.272  1.00  0.00     0.094 A 
ATOM     10  C   UNL     1      10.015  13.682  12.877  1.00  0.00     0.146 A 
ATOM     11  O   UNL     1      10.941  13.469  13.804  1.00  0.00    -0.451 OA
ENDROOT
BRANCH   1  12
ATOM     12  C   UNL     1      13.176  13.152  14.652  1.00  0.00     0.063 A 
ATOM     13  C   UNL     1      15.031  13.911  16.028  1.00  0.00     0.047 A 
ATOM     14  C   UNL     1      14.135  14.124  14.977  1.00  0.00     0.020 A 
ATOM     15  C   UNL     1      14.969  12.730  16.776  1.00  0.00     0.119 A 
ATOM     16  C   UNL     1      14.001  11.767  16.475  1.00  0.00     0.093 A 
ATOM     17  C   UNL     1      13.093  11.976  15.426  1.00  0.00     0.130 A 
BRANCH  15  18
ATOM     18  O   UNL     1      15.860  12.506  17.824  1.00  0.00    -0.508 OA
ATOM     19  H   UNL     1      15.545  12.462  18.786  1.00  0.00     0.293 HD
ENDBRANCH  15  18
BRANCH  17  20
ATOM     20  O   UNL     1      12.102  11.030  15.167  1.00  0.00    -0.507 OA
ATOM     21  H   UNL     1      12.166  10.394  14.381  1.00  0.00     0.293 HD
ENDBRANCH  17  20
ENDBRANCH   1  12
BRANCH   2  22
ATOM     22  O   UNL     1      14.068  13.673  11.964  1.00  0.00    -0.502 OA
ATOM     23  H   UNL     1      14.666  12.866  12.096  1.00  0.00     0.293 HD
ENDBRANCH   2  22
BRANCH   6  24
ATOM     24  O   UNL     1       9.547  14.094   9.173  1.00  0.00    -0.507 OA
ATOM     25  H   UNL     1      10.431  14.303   8.738  1.00  0.00     0.293 HD
ENDBRANCH   6  24
BRANCH   8  26
ATOM     26  O   UNL     1       6.338  14.060  12.723  1.00  0.00    -0.508 OA
ATOM     27  H   UNL     1       5.841  13.253  13.083  1.00  0.00     0.293 HD
ENDBRANCH   8  26
TORSDOF 6
ENDMDL
MODEL 5
REMARK VINA RESULT:     1.039      2.462      3.639
REMARK INTER + INTRA:           1.843
REMARK INTER:                   1.389
REMARK INTRA:                   0.453
REMARK UNBOUND:                 0.591
REMARK SMILES O=c1c(O)c(-c2ccc(O)cc2O)oc2cc(O)cc(O)c12
REMARK SMILES IDX 5 1 3 2 2 3 1 4 22 5 20 6 19 7 17 8 16 9 15 10 14 11 6 12
REMARK SMILES IDX 8 13 7 14 9 15 11 16 12 17 10 18 13 20 4 22 21 24 18 26
REMARK H PARENT 10 19 13 21 4 23 21 25 18 27
REMARK Flexibility Score: inf
ROOT
ATOM      1  C   UNL     1      12.634  12.572  14.111  1.00  0.00     0.184 A 
ATOM      2  C   UNL     1      12.316  11.571  15.043  1.00  0.00     0.208 A 
ATOM      3  C   UNL     1      13.267  11.217  16.012  1.00  0.00     0.238 A 
ATOM      4  O   UNL     1      12.956  10.359  16.878  1.00  0.00    -0.285 OA
ATOM      5  C   UNL     1      14.530  11.857  16.025  1.00  0.00     0.111 A 
ATOM      6  C   UNL     1      15.585  11.549  16.936  1.00  0.00     0.134 A 
ATOM      7  C   UNL     1      16.744  12.335  16.942  1.00  0.00     0.093 A 
ATOM      8  C   UNL     1      16.915  13.373  16.027  1.00  0.00     0.123 A 
ATOM      9  C   UNL     1      15.915  13.645  15.092  1.00  0.00     0.094 A 
ATOM     10  C   UNL     1      14.732  12.903  15.086  1.00  0.00     0.146 A 
ATOM     11  O   UNL     1      13.800  13.200  14.188  1.00  0.00    -0.451 OA
ENDROOT
BRANCH   1  12
ATOM     12  C   UNL     1      11.684  12.979  13.055  1.00  0.00     0.063 A 
ATOM     13  C   UNL     1       9.398  13.039  12.229  1.00  0.00     0.047 A 
ATOM     14  C   UNL     1      10.324  12.663  13.205  1.00  0.00     0.020 A 
ATOM     15  C   UNL     1       9.816  13.748  11.098  1.00  0.00     0.119 A 
ATOM     16  C   UNL     1      11.165  14.089  10.951  1.00  0.00     0.093 A 
ATOM     17  C   UNL     1      12.101  13.721  11.930  1.00  0.00     0.130 A 
BRANCH  15  18
ATOM     18  O   UNL     1       8.902  14.125  10.116  1.00  0.00    -0.508 OA
ATOM     19  H   UNL     1       8.707  15.100   9.921  1.00  0.00     0.293 HD
ENDBRANCH  15  18
BRANCH  17  20
ATOM     20  O   UNL     1      13.434  14.109  11.796  1.00  0.00    -0.507 OA
ATOM     21  H   UNL     1      13.702  15.085  11.756  1.00  0.00     0.293 HD
ENDBRANCH  17  20
ENDBRANCH   1  12
BRANCH   2  22
ATOM     22  O   UNL     1      11.054  10.970  15.019  1.00  0.00    -0.502 OA
ATOM     23  H   UNL     1      10.835  10.191  14.410  1.00  0.00     0.293 HD
ENDBRANCH   2  22
BRANCH   6  24
ATOM     24  O   UNL     1      15.554  10.475  17.831  1.00  0.00    -0.507 OA
ATOM     25  H   UNL     1      14.728   9.950  18.070  1.00  0.00     0.293 HD
ENDBRANCH   6  24
BRANCH   8  26
ATOM     26  O   UNL     1      18.088  14.124  16.051  1.00  0.00    -0.508 OA
ATOM     27  H   UNL     1      18.434  14.540  16.908  1.00  0.00     0.293 HD
ENDBRANCH   8  26
TORSDOF 6
ENDMDL
