MODEL 1
REMARK VINA RESULT:    -5.399      0.000      0.000
REMARK INTER + INTRA:          -6.909
REMARK INTER:                  -6.504
REMARK INTRA:                  -0.406
REMARK UNBOUND:                -0.406
REMARK SMILES O=c1c(O)c(-c2ccc(O)cc2O)oc2cc(O)cc(O)c12
REMARK SMILES IDX 5 1 3 2 2 3 1 4 22 5 20 6 19 7 17 8 16 9 15 10 14 11 6 12
REMARK SMILES IDX 8 13 7 14 9 15 11 16 12 17 10 18 13 20 4 22 21 24 18 26
REMARK H PARENT 10 19 13 21 4 23 21 25 18 27
REMARK Flexibility Score: inf
ROOT
ATOM      1  C   UNL     1     -42.345  34.081  14.216  1.00  0.00     0.184 A 
ATOM      2  C   UNL     1     -42.496  33.259  13.085  1.00  0.00     0.208 A 
ATOM      3  C   UNL     1     -41.426  32.440  12.695  1.00  0.00     0.238 A 
ATOM      4  O   UNL     1     -41.551  31.697  11.683  1.00  0.00    -0.285 OA
ATOM      5  C   UNL     1     -40.227  32.461  13.436  1.00  0.00     0.111 A 
ATOM      6  C   UNL     1     -39.100  31.669  13.109  1.00  0.00     0.134 A 
ATOM      7  C   UNL     1     -37.941  31.749  13.895  1.00  0.00     0.093 A 
ATOM      8  C   UNL     1     -37.886  32.604  14.998  1.00  0.00     0.123 A 
ATOM      9  C   UNL     1     -38.996  33.389  15.326  1.00  0.00     0.094 A 
ATOM     10  C   UNL     1     -40.160  33.324  14.557  1.00  0.00     0.146 A 
ATOM     11  O   UNL     1     -41.201  34.078  14.891  1.00  0.00    -0.451 OA
ENDROOT
BRANCH   1  12
ATOM     12  C   UNL     1     -43.444  34.951  14.686  1.00  0.00     0.063 A 
ATOM     13  C   UNL     1     -44.598  37.091  14.581  1.00  0.00     0.047 A 
ATOM     14  C   UNL     1     -43.540  36.266  14.196  1.00  0.00     0.020 A 
ATOM     15  C   UNL     1     -45.579  36.614  15.453  1.00  0.00     0.119 A 
ATOM     16  C   UNL     1     -45.496  35.307  15.946  1.00  0.00     0.093 A 
ATOM     17  C   UNL     1     -44.433  34.473  15.576  1.00  0.00     0.130 A 
BRANCH  15  18
ATOM     18  O   UNL     1     -46.632  37.449  15.825  1.00  0.00    -0.508 OA
ATOM     19  H   UNL     1     -46.852  37.621  16.799  1.00  0.00     0.293 HD
ENDBRANCH  15  18
BRANCH  17  20
ATOM     20  O   UNL     1     -44.380  33.190  16.125  1.00  0.00    -0.507 OA
ATOM     21  H   UNL     1     -45.184  32.579  16.180  1.00  0.00     0.293 HD
ENDBRANCH  17  20
ENDBRANCH   1  12
BRANCH   2  22
ATOM     22  O   UNL     1     -43.690  33.280  12.359  1.00  0.00    -0.502 OA
ATOM     23  H   UNL     1     -43.795  32.793  11.476  1.00  0.00     0.293 HD
ENDBRANCH   2  22
BRANCH   6  24
ATOM     24  O   UNL     1     -39.123  30.805  12.013  1.00  0.00    -0.507 OA
ATOM     25  H   UNL     1     -38.314  30.254  11.752  1.00  0.00     0.293 HD
ENDBRANCH   6  24
BRANCH   8  26
ATOM     26  O   UNL     1     -36.721  32.665  15.761  1.00  0.00    -0.508 OA
ATOM     27  H   UNL     1     -35.870  33.076  15.396  1.00  0.00     0.293 HD
ENDBRANCH   8  26
TORSDOF 6
ENDMDL
MODEL 2
REMARK VINA RESULT:    -5.286      3.144      5.263
REMARK INTER + INTRA:          -6.773
REMARK INTER:                  -6.376
REMARK INTRA:                  -0.398
REMARK UNBOUND:                -0.406
REMARK SMILES O=c1c(O)c(-c2ccc(O)cc2O)oc2cc(O)cc(O)c12
REMARK SMILES IDX 5 1 3 2 2 3 1 4 22 5 20 6 19 7 17 8 16 9 15 10 14 11 6 12
REMARK SMILES IDX 8 13 7 14 9 15 11 16 12 17 10 18 13 20 4 22 21 24 18 26
REMARK H PARENT 10 19 13 21 4 23 21 25 18 27
REMARK Flexibility Score: inf
ROOT
ATOM      1  C   UNL     1     -39.274  30.970  14.161  1.00  0.00     0.184 A 
ATOM      2  C   UNL     1     -37.966  31.346  13.806  1.00  0.00     0.208 A 
ATOM      3  C   UNL     1     -36.924  30.424  13.983  1.00  0.00     0.238 A 
ATOM      4  O   UNL     1     -35.747  30.751  13.665  1.00  0.00    -0.285 OA
ATOM      5  C   UNL     1     -37.204  29.149  14.514  1.00  0.00     0.111 A 
ATOM      6  C   UNL     1     -36.211  28.162  14.726  1.00  0.00     0.134 A 
ATOM      7  C   UNL     1     -36.571  26.917  15.263  1.00  0.00     0.093 A 
ATOM      8  C   UNL     1     -37.900  26.640  15.592  1.00  0.00     0.123 A 
ATOM      9  C   UNL     1     -38.885  27.610  15.385  1.00  0.00     0.094 A 
ATOM     10  C   UNL     1     -38.549  28.857  14.850  1.00  0.00     0.146 A 
ATOM     11  O   UNL     1     -39.503  29.760  14.662  1.00  0.00    -0.451 OA
ENDROOT
BRANCH   1  12
ATOM     12  C   UNL     1     -40.415  31.891  13.981  1.00  0.00     0.063 A 
ATOM     13  C   UNL     1     -41.866  33.617  14.898  1.00  0.00     0.047 A 
ATOM     14  C   UNL     1     -40.826  32.699  15.057  1.00  0.00     0.020 A 
ATOM     15  C   UNL     1     -42.504  33.749  13.663  1.00  0.00     0.119 A 
ATOM     16  C   UNL     1     -42.103  32.952  12.584  1.00  0.00     0.093 A 
ATOM     17  C   UNL     1     -41.069  32.019  12.734  1.00  0.00     0.130 A 
BRANCH  15  18
ATOM     18  O   UNL     1     -43.537  34.673  13.518  1.00  0.00    -0.508 OA
ATOM     19  H   UNL     1     -43.744  35.352  14.242  1.00  0.00     0.293 HD
ENDBRANCH  15  18
BRANCH  17  20
ATOM     20  O   UNL     1     -40.732  31.226  11.634  1.00  0.00    -0.507 OA
ATOM     21  H   UNL     1     -40.847  31.531  10.677  1.00  0.00     0.293 HD
ENDBRANCH  17  20
ENDBRANCH   1  12
BRANCH   2  22
ATOM     22  O   UNL     1     -37.719  32.626  13.304  1.00  0.00    -0.502 OA
ATOM     23  H   UNL     1     -36.963  33.206  13.649  1.00  0.00     0.293 HD
ENDBRANCH   2  22
BRANCH   6  24
ATOM     24  O   UNL     1     -34.875  28.408  14.408  1.00  0.00    -0.507 OA
ATOM     25  H   UNL     1     -34.170  28.527  15.125  1.00  0.00     0.293 HD
ENDBRANCH   6  24
BRANCH   8  26
ATOM     26  O   UNL     1     -38.230  25.395  16.125  1.00  0.00    -0.508 OA
ATOM     27  H   UNL     1     -37.598  24.606  16.055  1.00  0.00     0.293 HD
ENDBRANCH   8  26
TORSDOF 6
ENDMDL
MODEL 3
REMARK VINA RESULT:    -5.075      2.586      7.779
REMARK INTER + INTRA:          -6.520
REMARK INTER:                  -6.135
REMARK INTRA:                  -0.385
REMARK UNBOUND:                -0.406
REMARK SMILES O=c1c(O)c(-c2ccc(O)cc2O)oc2cc(O)cc(O)c12
REMARK SMILES IDX 5 1 3 2 2 3 1 4 22 5 20 6 19 7 17 8 16 9 15 10 14 11 6 12
REMARK SMILES IDX 8 13 7 14 9 15 11 16 12 17 10 18 13 20 4 22 21 24 18 26
REMARK H PARENT 10 19 13 21 4 23 21 25 18 27
REMARK Flexibility Score: inf
ROOT
ATOM      1  C   UNL     1     -38.472  31.427  14.860  1.00  0.00     0.184 A 
ATOM      2  C   UNL     1     -37.993  32.633  15.404  1.00  0.00     0.208 A 
ATOM      3  C   UNL     1     -38.758  33.798  15.248  1.00  0.00     0.238 A 
ATOM      4  O   UNL     1     -38.340  34.884  15.734  1.00  0.00    -0.285 OA
ATOM      5  C   UNL     1     -39.982  33.739  14.549  1.00  0.00     0.111 A 
ATOM      6  C   UNL     1     -40.813  34.868  14.346  1.00  0.00     0.134 A 
ATOM      7  C   UNL     1     -42.015  34.728  13.636  1.00  0.00     0.093 A 
ATOM      8  C   UNL     1     -42.401  33.486  13.127  1.00  0.00     0.123 A 
ATOM      9  C   UNL     1     -41.585  32.368  13.324  1.00  0.00     0.094 A 
ATOM     10  C   UNL     1     -40.384  32.485  14.029  1.00  0.00     0.146 A 
ATOM     11  O   UNL     1     -39.628  31.408  14.205  1.00  0.00    -0.451 OA
ENDROOT
BRANCH   1  12
ATOM     12  C   UNL     1     -37.719  30.164  15.007  1.00  0.00     0.063 A 
ATOM     13  C   UNL     1     -37.441  28.021  16.125  1.00  0.00     0.047 A 
ATOM     14  C   UNL     1     -38.101  29.245  16.000  1.00  0.00     0.020 A 
ATOM     15  C   UNL     1     -36.397  27.693  15.257  1.00  0.00     0.119 A 
ATOM     16  C   UNL     1     -36.008  28.599  14.263  1.00  0.00     0.093 A 
ATOM     17  C   UNL     1     -36.655  29.835  14.134  1.00  0.00     0.130 A 
BRANCH  15  18
ATOM     18  O   UNL     1     -35.751  26.465  15.391  1.00  0.00    -0.508 OA
ATOM     19  H   UNL     1     -36.199  25.599  15.112  1.00  0.00     0.293 HD
ENDBRANCH  15  18
BRANCH  17  20
ATOM     20  O   UNL     1     -36.204  30.716  13.148  1.00  0.00    -0.507 OA
ATOM     21  H   UNL     1     -36.554  30.707  12.199  1.00  0.00     0.293 HD
ENDBRANCH  17  20
ENDBRANCH   1  12
BRANCH   2  22
ATOM     22  O   UNL     1     -36.765  32.660  16.070  1.00  0.00    -0.502 OA
ATOM     23  H   UNL     1     -36.458  33.464  16.605  1.00  0.00     0.293 HD
ENDBRANCH   2  22
BRANCH   6  24
ATOM     24  O   UNL     1     -40.454  36.122  14.842  1.00  0.00    -0.507 OA
ATOM     25  H   UNL     1     -40.427  36.314  15.836  1.00  0.00     0.293 HD
ENDBRANCH   6  24
BRANCH   8  26
ATOM     26  O   UNL     1     -43.600  33.376  12.424  1.00  0.00    -0.508 OA
ATOM     27  H   UNL     1     -43.666  32.829  11.574  1.00  0.00     0.293 HD
ENDBRANCH   8  26
TORSDOF 6
ENDMDL
MODEL 4
REMARK VINA RESULT:    -5.035     16.211     17.225
REMARK INTER + INTRA:          -6.471
REMARK INTER:                  -6.070
REMARK INTRA:                  -0.401
REMARK UNBOUND:                -0.406
REMARK SMILES O=c1c(O)c(-c2ccc(O)cc2O)oc2cc(O)cc(O)c12
REMARK SMILES IDX 5 1 3 2 2 3 1 4 22 5 20 6 19 7 17 8 16 9 15 10 14 11 6 12
REMARK SMILES IDX 8 13 7 14 9 15 11 16 12 17 10 18 13 20 4 22 21 24 18 26
REMARK H PARENT 10 19 13 21 4 23 21 25 18 27
REMARK Flexibility Score: inf
ROOT
ATOM      1  C   UNL     1     -47.549  23.231   2.331  1.00  0.00     0.184 A 
ATOM      2  C   UNL     1     -46.165  23.003   2.241  1.00  0.00     0.208 A 
ATOM      3  C   UNL     1     -45.555  22.157   3.179  1.00  0.00     0.238 A 
ATOM      4  O   UNL     1     -44.314  21.943   3.107  1.00  0.00    -0.285 OA
ATOM      5  C   UNL     1     -46.337  21.560   4.189  1.00  0.00     0.111 A 
ATOM      6  C   UNL     1     -45.800  20.696   5.175  1.00  0.00     0.134 A 
ATOM      7  C   UNL     1     -46.644  20.143   6.150  1.00  0.00     0.093 A 
ATOM      8  C   UNL     1     -48.010  20.438   6.160  1.00  0.00     0.123 A 
ATOM      9  C   UNL     1     -48.545  21.290   5.189  1.00  0.00     0.094 A 
ATOM     10  C   UNL     1     -47.722  21.850   4.208  1.00  0.00     0.146 A 
ATOM     11  O   UNL     1     -48.256  22.655   3.297  1.00  0.00    -0.451 OA
ENDROOT
BRANCH   1  12
ATOM     12  C   UNL     1     -48.250  24.099   1.361  1.00  0.00     0.063 A 
ATOM     13  C   UNL     1     -49.634  24.308  -0.630  1.00  0.00     0.047 A 
ATOM     14  C   UNL     1     -48.919  23.515   0.270  1.00  0.00     0.020 A 
ATOM     15  C   UNL     1     -49.699  25.691  -0.451  1.00  0.00     0.119 A 
ATOM     16  C   UNL     1     -49.040  26.284   0.632  1.00  0.00     0.093 A 
ATOM     17  C   UNL     1     -48.309  25.502   1.536  1.00  0.00     0.130 A 
BRANCH  15  18
ATOM     18  O   UNL     1     -50.421  26.468  -1.355  1.00  0.00    -0.508 OA
ATOM     19  H   UNL     1     -51.277  26.128  -1.779  1.00  0.00     0.293 HD
ENDBRANCH  15  18
BRANCH  17  20
ATOM     20  O   UNL     1     -47.642  26.148   2.579  1.00  0.00    -0.507 OA
ATOM     21  H   UNL     1     -47.211  27.058   2.478  1.00  0.00     0.293 HD
ENDBRANCH  17  20
ENDBRANCH   1  12
BRANCH   2  22
ATOM     22  O   UNL     1     -45.416  23.630   1.242  1.00  0.00    -0.502 OA
ATOM     23  H   UNL     1     -45.342  24.638   1.172  1.00  0.00     0.293 HD
ENDBRANCH   2  22
BRANCH   6  24
ATOM     24  O   UNL     1     -44.440  20.383   5.192  1.00  0.00    -0.507 OA
ATOM     25  H   UNL     1     -43.919  20.320   6.058  1.00  0.00     0.293 HD
ENDBRANCH   6  24
BRANCH   8  26
ATOM     26  O   UNL     1     -48.825  19.876   7.140  1.00  0.00    -0.508 OA
ATOM     27  H   UNL     1     -49.203  20.434   7.897  1.00  0.00     0.293 HD
ENDBRANCH   8  26
TORSDOF 6
ENDMDL
MODEL 5
REMARK VINA RESULT:    -5.018      2.350      6.797
REMARK INTER + INTRA:          -6.450
REMARK INTER:                  -6.253
REMARK INTRA:                  -0.196
REMARK UNBOUND:                -0.406
REMARK SMILES O=c1c(O)c(-c2ccc(O)cc2O)oc2cc(O)cc(O)c12
REMARK SMILES IDX 5 1 3 2 2 3 1 4 22 5 20 6 19 7 17 8 16 9 15 10 14 11 6 12
REMARK SMILES IDX 8 13 7 14 9 15 11 16 12 17 10 18 13 20 4 22 21 24 18 26
REMARK H PARENT 10 19 13 21 4 23 21 25 18 27
REMARK Flexibility Score: inf
ROOT
ATOM      1  C   UNL     1     -40.536  32.224  14.733  1.00  0.00     0.184 A 
ATOM      2  C   UNL     1     -39.911  33.208  13.947  1.00  0.00     0.208 A 
ATOM      3  C   UNL     1     -40.567  34.431  13.742  1.00  0.00     0.238 A 
ATOM      4  O   UNL     1     -40.014  35.321  13.040  1.00  0.00    -0.285 OA
ATOM      5  C   UNL     1     -41.835  34.646  14.321  1.00  0.00     0.111 A 
ATOM      6  C   UNL     1     -42.565  35.849  14.163  1.00  0.00     0.134 A 
ATOM      7  C   UNL     1     -43.823  35.984  14.768  1.00  0.00     0.093 A 
ATOM      8  C   UNL     1     -44.365  34.943  15.527  1.00  0.00     0.123 A 
ATOM      9  C   UNL     1     -43.648  33.753  15.687  1.00  0.00     0.094 A 
ATOM     10  C   UNL     1     -42.393  33.598  15.093  1.00  0.00     0.146 A 
ATOM     11  O   UNL     1     -41.733  32.459  15.262  1.00  0.00    -0.451 OA
ENDROOT
BRANCH   1  12
ATOM     12  C   UNL     1     -39.886  30.924  14.998  1.00  0.00     0.063 A 
ATOM     13  C   UNL     1     -39.887  28.503  14.748  1.00  0.00     0.047 A 
ATOM     14  C   UNL     1     -40.506  29.740  14.559  1.00  0.00     0.020 A 
ATOM     15  C   UNL     1     -38.638  28.429  15.370  1.00  0.00     0.119 A 
ATOM     16  C   UNL     1     -38.010  29.600  15.810  1.00  0.00     0.093 A 
ATOM     17  C   UNL     1     -38.626  30.847  15.636  1.00  0.00     0.130 A 
BRANCH  15  18
ATOM     18  O   UNL     1     -38.031  27.187  15.547  1.00  0.00    -0.508 OA
ATOM     19  H   UNL     1     -38.371  26.360  15.070  1.00  0.00     0.293 HD
ENDBRANCH  15  18
BRANCH  17  20
ATOM     20  O   UNL     1     -37.971  31.980  16.125  1.00  0.00    -0.507 OA
ATOM     21  H   UNL     1     -37.063  32.278  15.795  1.00  0.00     0.293 HD
ENDBRANCH  17  20
ENDBRANCH   1  12
BRANCH   2  22
ATOM     22  O   UNL     1     -38.665  32.953  13.368  1.00  0.00    -0.502 OA
ATOM     23  H   UNL     1     -38.184  32.069  13.486  1.00  0.00     0.293 HD
ENDBRANCH   2  22
BRANCH   6  24
ATOM     24  O   UNL     1     -42.051  36.907  13.411  1.00  0.00    -0.507 OA
ATOM     25  H   UNL     1     -42.656  37.588  12.967  1.00  0.00     0.293 HD
ENDBRANCH   6  24
BRANCH   8  26
ATOM     26  O   UNL     1     -45.617  35.104  16.116  1.00  0.00    -0.508 OA
ATOM     27  H   UNL     1     -46.432  35.354  15.568  1.00  0.00     0.293 HD
ENDBRANCH   8  26
TORSDOF 6
ENDMDL
MODEL 6
REMARK VINA RESULT:    -4.840      2.805      5.105
REMARK INTER + INTRA:          -6.236
REMARK INTER:                  -6.050
REMARK INTRA:                  -0.186
REMARK UNBOUND:                -0.406
REMARK SMILES O=c1c(O)c(-c2ccc(O)cc2O)oc2cc(O)cc(O)c12
REMARK SMILES IDX 5 1 3 2 2 3 1 4 22 5 20 6 19 7 17 8 16 9 15 10 14 11 6 12
REMARK SMILES IDX 8 13 7 14 9 15 11 16 12 17 10 18 13 20 4 22 21 24 18 26
REMARK H PARENT 10 19 13 21 4 23 21 25 18 27
REMARK Flexibility Score: inf
ROOT
ATOM      1  C   UNL     1     -39.322  31.044  13.816  1.00  0.00     0.184 A 
ATOM      2  C   UNL     1     -39.034  30.344  15.001  1.00  0.00     0.208 A 
ATOM      3  C   UNL     1     -37.925  29.487  15.029  1.00  0.00     0.238 A 
ATOM      4  O   UNL     1     -37.655  28.856  16.088  1.00  0.00    -0.285 OA
ATOM      5  C   UNL     1     -37.129  29.340  13.875  1.00  0.00     0.111 A 
ATOM      6  C   UNL     1     -35.994  28.495  13.818  1.00  0.00     0.134 A 
ATOM      7  C   UNL     1     -35.255  28.400  12.629  1.00  0.00     0.093 A 
ATOM      8  C   UNL     1     -35.627  29.132  11.499  1.00  0.00     0.123 A 
ATOM      9  C   UNL     1     -36.746  29.969  11.549  1.00  0.00     0.094 A 
ATOM     10  C   UNL     1     -37.496  30.078  12.723  1.00  0.00     0.146 A 
ATOM     11  O   UNL     1     -38.553  30.880  12.745  1.00  0.00    -0.451 OA
ENDROOT
BRANCH   1  12
ATOM     12  C   UNL     1     -40.468  31.974  13.731  1.00  0.00     0.063 A 
ATOM     13  C   UNL     1     -41.678  33.879  14.642  1.00  0.00     0.047 A 
ATOM     14  C   UNL     1     -40.637  32.953  14.727  1.00  0.00     0.020 A 
ATOM     15  C   UNL     1     -42.560  33.847  13.559  1.00  0.00     0.119 A 
ATOM     16  C   UNL     1     -42.401  32.879  12.560  1.00  0.00     0.093 A 
ATOM     17  C   UNL     1     -41.367  31.938  12.640  1.00  0.00     0.130 A 
BRANCH  15  18
ATOM     18  O   UNL     1     -43.592  34.782  13.486  1.00  0.00    -0.508 OA
ATOM     19  H   UNL     1     -43.604  35.603  14.080  1.00  0.00     0.293 HD
ENDBRANCH  15  18
BRANCH  17  20
ATOM     20  O   UNL     1     -41.276  30.972  11.634  1.00  0.00    -0.507 OA
ATOM     21  H   UNL     1     -41.413  29.985  11.803  1.00  0.00     0.293 HD
ENDBRANCH  17  20
ENDBRANCH   1  12
BRANCH   2  22
ATOM     22  O   UNL     1     -39.858  30.494  16.120  1.00  0.00    -0.502 OA
ATOM     23  H   UNL     1     -40.800  30.862  16.053  1.00  0.00     0.293 HD
ENDBRANCH   2  22
BRANCH   6  24
ATOM     24  O   UNL     1     -35.596  27.751  14.930  1.00  0.00    -0.507 OA
ATOM     25  H   UNL     1     -34.626  27.695  15.215  1.00  0.00     0.293 HD
ENDBRANCH   6  24
BRANCH   8  26
ATOM     26  O   UNL     1     -34.875  29.019  10.331  1.00  0.00    -0.508 OA
ATOM     27  H   UNL     1     -35.196  28.463   9.547  1.00  0.00     0.293 HD
ENDBRANCH   8  26
TORSDOF 6
ENDMDL
MODEL 7
REMARK VINA RESULT:    -4.825      2.999      7.061
REMARK INTER + INTRA:          -6.218
REMARK INTER:                  -5.891
REMARK INTRA:                  -0.327
REMARK UNBOUND:                -0.406
REMARK SMILES O=c1c(O)c(-c2ccc(O)cc2O)oc2cc(O)cc(O)c12
REMARK SMILES IDX 5 1 3 2 2 3 1 4 22 5 20 6 19 7 17 8 16 9 15 10 14 11 6 12
REMARK SMILES IDX 8 13 7 14 9 15 11 16 12 17 10 18 13 20 4 22 21 24 18 26
REMARK H PARENT 10 19 13 21 4 23 21 25 18 27
REMARK Flexibility Score: inf
ROOT
ATOM      1  C   UNL     1     -38.908  30.864  14.519  1.00  0.00     0.184 A 
ATOM      2  C   UNL     1     -40.062  30.853  13.717  1.00  0.00     0.208 A 
ATOM      3  C   UNL     1     -40.739  32.060  13.487  1.00  0.00     0.238 A 
ATOM      4  O   UNL     1     -41.775  32.063  12.767  1.00  0.00    -0.285 OA
ATOM      5  C   UNL     1     -40.255  33.251  14.066  1.00  0.00     0.111 A 
ATOM      6  C   UNL     1     -40.878  34.510  13.885  1.00  0.00     0.134 A 
ATOM      7  C   UNL     1     -40.336  35.649  14.498  1.00  0.00     0.093 A 
ATOM      8  C   UNL     1     -39.186  35.556  15.285  1.00  0.00     0.123 A 
ATOM      9  C   UNL     1     -38.565  34.316  15.467  1.00  0.00     0.094 A 
ATOM     10  C   UNL     1     -39.089  33.169  14.865  1.00  0.00     0.146 A 
ATOM     11  O   UNL     1     -38.479  32.004  15.051  1.00  0.00    -0.451 OA
ENDROOT
BRANCH   1  12
ATOM     12  C   UNL     1     -38.143  29.627  14.783  1.00  0.00     0.063 A 
ATOM     13  C   UNL     1     -36.080  28.359  14.537  1.00  0.00     0.047 A 
ATOM     14  C   UNL     1     -36.845  29.493  14.258  1.00  0.00     0.020 A 
ATOM     15  C   UNL     1     -36.596  27.346  15.349  1.00  0.00     0.119 A 
ATOM     16  C   UNL     1     -37.885  27.468  15.880  1.00  0.00     0.093 A 
ATOM     17  C   UNL     1     -38.667  28.596  15.598  1.00  0.00     0.130 A 
BRANCH  15  18
ATOM     18  O   UNL     1     -35.818  26.222  15.623  1.00  0.00    -0.508 OA
ATOM     19  H   UNL     1     -35.877  25.743  16.514  1.00  0.00     0.293 HD
ENDBRANCH  15  18
BRANCH  17  20
ATOM     20  O   UNL     1     -39.959  28.651  16.124  1.00  0.00    -0.507 OA
ATOM     21  H   UNL     1     -40.154  28.604  17.116  1.00  0.00     0.293 HD
ENDBRANCH  17  20
ENDBRANCH   1  12
BRANCH   2  22
ATOM     22  O   UNL     1     -40.529  29.651  13.179  1.00  0.00    -0.502 OA
ATOM     23  H   UNL     1     -40.010  29.135  12.478  1.00  0.00     0.293 HD
ENDBRANCH   2  22
BRANCH   6  24
ATOM     24  O   UNL     1     -42.028  34.636  13.105  1.00  0.00    -0.507 OA
ATOM     25  H   UNL     1     -42.035  35.179  12.249  1.00  0.00     0.293 HD
ENDBRANCH   6  24
BRANCH   8  26
ATOM     26  O   UNL     1     -38.669  36.704  15.883  1.00  0.00    -0.508 OA
ATOM     27  H   UNL     1     -38.484  37.543  15.345  1.00  0.00     0.293 HD
ENDBRANCH   8  26
TORSDOF 6
ENDMDL
MODEL 8
REMARK VINA RESULT:    -4.824     12.507     14.230
REMARK INTER + INTRA:          -6.217
REMARK INTER:                  -5.820
REMARK INTRA:                  -0.397
REMARK UNBOUND:                -0.406
REMARK SMILES O=c1c(O)c(-c2ccc(O)cc2O)oc2cc(O)cc(O)c12
REMARK SMILES IDX 5 1 3 2 2 3 1 4 22 5 20 6 19 7 17 8 16 9 15 10 14 11 6 12
REMARK SMILES IDX 8 13 7 14 9 15 11 16 12 17 10 18 13 20 4 22 21 24 18 26
REMARK H PARENT 10 19 13 21 4 23 21 25 18 27
REMARK Flexibility Score: inf
ROOT
ATOM      1  C   UNL     1     -48.382  32.240   2.238  1.00  0.00     0.184 A 
ATOM      2  C   UNL     1     -48.056  32.214   0.870  1.00  0.00     0.208 A 
ATOM      3  C   UNL     1     -47.941  30.973   0.225  1.00  0.00     0.238 A 
ATOM      4  O   UNL     1     -47.652  30.938  -1.003  1.00  0.00    -0.285 OA
ATOM      5  C   UNL     1     -48.148  29.786   0.956  1.00  0.00     0.111 A 
ATOM      6  C   UNL     1     -48.050  28.495   0.382  1.00  0.00     0.134 A 
ATOM      7  C   UNL     1     -48.267  27.361   1.179  1.00  0.00     0.093 A 
ATOM      8  C   UNL     1     -48.579  27.491   2.534  1.00  0.00     0.123 A 
ATOM      9  C   UNL     1     -48.678  28.763   3.107  1.00  0.00     0.094 A 
ATOM     10  C   UNL     1     -48.466  29.906   2.331  1.00  0.00     0.146 A 
ATOM     11  O   UNL     1     -48.568  31.102   2.898  1.00  0.00    -0.451 OA
ENDROOT
BRANCH   1  12
ATOM     12  C   UNL     1     -48.534  33.516   2.968  1.00  0.00     0.063 A 
ATOM     13  C   UNL     1     -49.889  35.467   3.497  1.00  0.00     0.047 A 
ATOM     14  C   UNL     1     -49.696  34.285   2.779  1.00  0.00     0.020 A 
ATOM     15  C   UNL     1     -48.930  35.894   4.418  1.00  0.00     0.119 A 
ATOM     16  C   UNL     1     -47.770  35.137   4.617  1.00  0.00     0.093 A 
ATOM     17  C   UNL     1     -47.559  33.956   3.894  1.00  0.00     0.130 A 
BRANCH  15  18
ATOM     18  O   UNL     1     -49.140  37.074   5.131  1.00  0.00    -0.508 OA
ATOM     19  H   UNL     1     -49.320  37.064   6.128  1.00  0.00     0.293 HD
ENDBRANCH  15  18
BRANCH  17  20
ATOM     20  O   UNL     1     -46.368  33.257   4.106  1.00  0.00    -0.507 OA
ATOM     21  H   UNL     1     -45.594  33.277   3.456  1.00  0.00     0.293 HD
ENDBRANCH  17  20
ENDBRANCH   1  12
BRANCH   2  22
ATOM     22  O   UNL     1     -47.834  33.408   0.181  1.00  0.00    -0.502 OA
ATOM     23  H   UNL     1     -47.908  33.472  -0.828  1.00  0.00     0.293 HD
ENDBRANCH   2  22
BRANCH   6  24
ATOM     24  O   UNL     1     -47.739  28.332  -0.969  1.00  0.00    -0.507 OA
ATOM     25  H   UNL     1     -47.379  27.457  -1.331  1.00  0.00     0.293 HD
ENDBRANCH   6  24
BRANCH   8  26
ATOM     26  O   UNL     1     -48.788  26.347   3.303  1.00  0.00    -0.508 OA
ATOM     27  H   UNL     1     -48.354  25.463   3.065  1.00  0.00     0.293 HD
ENDBRANCH   8  26
TORSDOF 6
ENDMDL
MODEL 9
REMARK VINA RESULT:    -4.708      1.522      3.144
REMARK INTER + INTRA:          -6.077
REMARK INTER:                  -5.687
REMARK INTRA:                  -0.390
REMARK UNBOUND:                -0.406
REMARK SMILES O=c1c(O)c(-c2ccc(O)cc2O)oc2cc(O)cc(O)c12
REMARK SMILES IDX 5 1 3 2 2 3 1 4 22 5 20 6 19 7 17 8 16 9 15 10 14 11 6 12
REMARK SMILES IDX 8 13 7 14 9 15 11 16 12 17 10 18 13 20 4 22 21 24 18 26
REMARK H PARENT 10 19 13 21 4 23 21 25 18 27
REMARK Flexibility Score: inf
ROOT
ATOM      1  C   UNL     1     -42.802  34.910  14.573  1.00  0.00     0.184 A 
ATOM      2  C   UNL     1     -41.509  34.920  15.126  1.00  0.00     0.208 A 
ATOM      3  C   UNL     1     -40.570  33.983  14.670  1.00  0.00     0.238 A 
ATOM      4  O   UNL     1     -39.406  33.984  15.157  1.00  0.00    -0.285 OA
ATOM      5  C   UNL     1     -40.941  33.052  13.678  1.00  0.00     0.111 A 
ATOM      6  C   UNL     1     -40.056  32.073  13.165  1.00  0.00     0.134 A 
ATOM      7  C   UNL     1     -40.502  31.179  12.180  1.00  0.00     0.093 A 
ATOM      8  C   UNL     1     -41.812  31.245  11.699  1.00  0.00     0.123 A 
ATOM      9  C   UNL     1     -42.690  32.210  12.201  1.00  0.00     0.094 A 
ATOM     10  C   UNL     1     -42.266  33.110  13.182  1.00  0.00     0.146 A 
ATOM     11  O   UNL     1     -43.119  34.018  13.641  1.00  0.00    -0.451 OA
ENDROOT
BRANCH   1  12
ATOM     12  C   UNL     1     -43.828  35.884  15.001  1.00  0.00     0.063 A 
ATOM     13  C   UNL     1     -44.668  38.169  14.989  1.00  0.00     0.047 A 
ATOM     14  C   UNL     1     -43.685  37.237  14.645  1.00  0.00     0.020 A 
ATOM     15  C   UNL     1     -45.809  37.762  15.684  1.00  0.00     0.119 A 
ATOM     16  C   UNL     1     -45.963  36.418  16.042  1.00  0.00     0.093 A 
ATOM     17  C   UNL     1     -44.980  35.476  15.713  1.00  0.00     0.130 A 
BRANCH  15  18
ATOM     18  O   UNL     1     -46.782  38.703  16.016  1.00  0.00    -0.508 OA
ATOM     19  H   UNL     1     -47.344  38.609  16.855  1.00  0.00     0.293 HD
ENDBRANCH  15  18
BRANCH  17  20
ATOM     20  O   UNL     1     -45.168  34.154  16.125  1.00  0.00    -0.507 OA
ATOM     21  H   UNL     1     -45.457  33.417  15.497  1.00  0.00     0.293 HD
ENDBRANCH  17  20
ENDBRANCH   1  12
BRANCH   2  22
ATOM     22  O   UNL     1     -41.182  35.840  16.125  1.00  0.00    -0.502 OA
ATOM     23  H   UNL     1     -41.875  36.219  16.760  1.00  0.00     0.293 HD
ENDBRANCH   2  22
BRANCH   6  24
ATOM     24  O   UNL     1     -38.741  31.981  13.625  1.00  0.00    -0.507 OA
ATOM     25  H   UNL     1     -38.527  31.697  14.573  1.00  0.00     0.293 HD
ENDBRANCH   6  24
BRANCH   8  26
ATOM     26  O   UNL     1     -42.229  30.344  10.721  1.00  0.00    -0.508 OA
ATOM     27  H   UNL     1     -43.131  30.434  10.268  1.00  0.00     0.293 HD
ENDBRANCH   8  26
TORSDOF 6
ENDMDL
