MODEL 1
REMARK VINA RESULT:    -3.480      0.000      0.000
REMARK INTER + INTRA:          -3.907
REMARK INTER:                  -3.785
REMARK INTRA:                  -0.122
REMARK UNBOUND:                -0.122
REMARK SMILES Cc1ccc(C(C)C)cc1O
REMARK SMILES IDX 1 1 2 2 10 3 9 4 5 5 4 6 3 7 11 8 6 10 7 11 8 12
REMARK H PARENT 11 9
REMARK Flexibility Score: inf
ROOT
ATOM      1  C   UNL     1     120.514 122.157 108.734  1.00  0.00     0.048 C 
ATOM      2  C   UNL     1     121.672 122.560 107.865  1.00  0.00    -0.009 A 
ATOM      3  C   UNL     1     121.470 123.244 106.646  1.00  0.00     0.118 A 
ATOM      4  C   UNL     1     122.571 123.605 105.859  1.00  0.00     0.050 A 
ATOM      5  C   UNL     1     123.881 123.296 106.266  1.00  0.00    -0.042 A 
ATOM      6  C   UNL     1     124.074 122.616 107.478  1.00  0.00     0.004 A 
ATOM      7  C   UNL     1     122.981 122.252 108.268  1.00  0.00     0.007 A 
ENDROOT
BRANCH   3   8
ATOM      8  O   UNL     1     120.193 123.578 106.189  1.00  0.00    -0.508 OA
ATOM      9  H   UNL     1     119.975 123.714 105.210  1.00  0.00     0.293 HD
ENDBRANCH   3   8
BRANCH   5  10
ATOM     10  C   UNL     1     125.077 123.686 105.416  1.00  0.00     0.013 C 
ATOM     11  C   UNL     1     124.662 124.615 104.269  1.00  0.00     0.012 C 
ATOM     12  C   UNL     1     126.178 124.324 106.271  1.00  0.00     0.012 C 
ENDBRANCH   5  10
TORSDOF 2
ENDMDL
MODEL 2
REMARK VINA RESULT:    -3.479      3.450      3.908
REMARK INTER + INTRA:          -3.907
REMARK INTER:                  -3.785
REMARK INTRA:                  -0.122
REMARK UNBOUND:                -0.122
REMARK SMILES Cc1ccc(C(C)C)cc1O
REMARK SMILES IDX 1 1 2 2 10 3 9 4 5 5 4 6 3 7 11 8 6 10 7 11 8 12
REMARK H PARENT 11 9
REMARK Flexibility Score: inf
ROOT
ATOM      1  C   UNL     1     122.111 128.483 108.696  1.00  0.00     0.048 C 
ATOM      2  C   UNL     1     122.530 127.321 107.839  1.00  0.00    -0.009 A 
ATOM      3  C   UNL     1     123.216 127.520 106.620  1.00  0.00     0.118 A 
ATOM      4  C   UNL     1     123.592 126.417 105.845  1.00  0.00     0.050 A 
ATOM      5  C   UNL     1     123.296 125.107 106.261  1.00  0.00    -0.042 A 
ATOM      6  C   UNL     1     122.614 124.917 107.472  1.00  0.00     0.004 A 
ATOM      7  C   UNL     1     122.235 126.013 108.252  1.00  0.00     0.007 A 
ENDROOT
BRANCH   3   8
ATOM      8  O   UNL     1     123.539 128.797 106.154  1.00  0.00    -0.508 OA
ATOM      9  H   UNL     1     122.983 129.617 106.361  1.00  0.00     0.293 HD
ENDBRANCH   3   8
BRANCH   5  10
ATOM     10  C   UNL     1     123.703 123.908 105.424  1.00  0.00     0.013 C 
ATOM     11  C   UNL     1     124.617 124.326 104.266  1.00  0.00     0.012 C 
ATOM     12  C   UNL     1     124.365 122.828 106.288  1.00  0.00     0.012 C 
ENDBRANCH   5  10
TORSDOF 2
ENDMDL
MODEL 3
REMARK VINA RESULT:    -3.474      3.442      4.000
REMARK INTER + INTRA:          -3.901
REMARK INTER:                  -3.779
REMARK INTRA:                  -0.121
REMARK UNBOUND:                -0.122
REMARK SMILES Cc1ccc(C(C)C)cc1O
REMARK SMILES IDX 1 1 2 2 10 3 9 4 5 5 4 6 3 7 11 8 6 10 7 11 8 12
REMARK H PARENT 11 9
REMARK Flexibility Score: inf
ROOT
ATOM      1  C   UNL     1     127.002 120.455 108.823  1.00  0.00     0.048 C 
ATOM      2  C   UNL     1     126.576 121.610 107.959  1.00  0.00    -0.009 A 
ATOM      3  C   UNL     1     125.808 121.407 106.791  1.00  0.00     0.118 A 
ATOM      4  C   UNL     1     125.428 122.504 106.009  1.00  0.00     0.050 A 
ATOM      5  C   UNL     1     125.800 123.812 106.369  1.00  0.00    -0.042 A 
ATOM      6  C   UNL     1     126.563 124.005 107.531  1.00  0.00     0.004 A 
ATOM      7  C   UNL     1     126.946 122.916 108.316  1.00  0.00     0.007 A 
ENDROOT
BRANCH   3   8
ATOM      8  O   UNL     1     125.408 120.133 106.382  1.00  0.00    -0.508 OA
ATOM      9  H   UNL     1     124.484 119.934 106.019  1.00  0.00     0.293 HD
ENDBRANCH   3   8
BRANCH   5  10
ATOM     10  C   UNL     1     125.390 125.004 105.524  1.00  0.00     0.013 C 
ATOM     11  C   UNL     1     124.426 124.585 104.407  1.00  0.00     0.012 C 
ATOM     12  C   UNL     1     124.781 126.113 106.390  1.00  0.00     0.012 C 
ENDBRANCH   5  10
TORSDOF 2
ENDMDL
MODEL 4
REMARK VINA RESULT:    -3.469      3.573      5.644
REMARK INTER + INTRA:          -3.896
REMARK INTER:                  -3.775
REMARK INTRA:                  -0.121
REMARK UNBOUND:                -0.122
REMARK SMILES Cc1ccc(C(C)C)cc1O
REMARK SMILES IDX 1 1 2 2 10 3 9 4 5 5 4 6 3 7 11 8 6 10 7 11 8 12
REMARK H PARENT 11 9
REMARK Flexibility Score: inf
ROOT
ATOM      1  C   UNL     1     128.566 127.003 108.820  1.00  0.00     0.048 C 
ATOM      2  C   UNL     1     127.402 126.579 107.967  1.00  0.00    -0.009 A 
ATOM      3  C   UNL     1     127.592 125.814 106.795  1.00  0.00     0.118 A 
ATOM      4  C   UNL     1     126.487 125.436 106.023  1.00  0.00     0.050 A 
ATOM      5  C   UNL     1     125.184 125.808 106.397  1.00  0.00    -0.042 A 
ATOM      6  C   UNL     1     125.003 126.569 107.562  1.00  0.00     0.004 A 
ATOM      7  C   UNL     1     126.100 126.950 108.338  1.00  0.00     0.007 A 
ENDROOT
BRANCH   3   8
ATOM      8  O   UNL     1     128.862 125.414 106.373  1.00  0.00    -0.508 OA
ATOM      9  H   UNL     1     129.251 124.502 106.578  1.00  0.00     0.293 HD
ENDBRANCH   3   8
BRANCH   5  10
ATOM     10  C   UNL     1     123.983 125.401 105.563  1.00  0.00     0.013 C 
ATOM     11  C   UNL     1     124.394 124.459 104.425  1.00  0.00     0.012 C 
ATOM     12  C   UNL     1     122.892 124.768 106.436  1.00  0.00     0.012 C 
ENDBRANCH   5  10
TORSDOF 2
ENDMDL
MODEL 5
REMARK VINA RESULT:    -3.148      3.264      4.156
REMARK INTER + INTRA:          -3.547
REMARK INTER:                  -3.419
REMARK INTRA:                  -0.128
REMARK UNBOUND:                -0.122
REMARK SMILES Cc1ccc(C(C)C)cc1O
REMARK SMILES IDX 1 1 2 2 10 3 9 4 5 5 4 6 3 7 11 8 6 10 7 11 8 12
REMARK H PARENT 11 9
REMARK Flexibility Score: inf
ROOT
ATOM      1  C   UNL     1     123.787 128.744 109.096  1.00  0.00     0.048 C 
ATOM      2  C   UNL     1     123.973 127.624 108.111  1.00  0.00    -0.009 A 
ATOM      3  C   UNL     1     122.909 127.183 107.294  1.00  0.00     0.118 A 
ATOM      4  C   UNL     1     123.115 126.136 106.387  1.00  0.00     0.050 A 
ATOM      5  C   UNL     1     124.371 125.514 106.276  1.00  0.00    -0.042 A 
ATOM      6  C   UNL     1     125.423 125.957 107.091  1.00  0.00     0.004 A 
ATOM      7  C   UNL     1     125.226 127.000 107.999  1.00  0.00     0.007 A 
ENDROOT
BRANCH   3   8
ATOM      8  O   UNL     1     121.639 127.761 107.358  1.00  0.00    -0.508 OA
ATOM      9  H   UNL     1     120.952 127.509 108.058  1.00  0.00     0.293 HD
ENDBRANCH   3   8
BRANCH   5  10
ATOM     10  C   UNL     1     124.599 124.379 105.293  1.00  0.00     0.013 C 
ATOM     11  C   UNL     1     126.038 123.856 105.378  1.00  0.00     0.012 C 
ATOM     12  C   UNL     1     123.587 123.248 105.510  1.00  0.00     0.012 C 
ENDBRANCH   5  10
TORSDOF 2
ENDMDL
MODEL 6
REMARK VINA RESULT:    -3.142      1.638      1.865
REMARK INTER + INTRA:          -3.540
REMARK INTER:                  -3.413
REMARK INTRA:                  -0.127
REMARK UNBOUND:                -0.122
REMARK SMILES Cc1ccc(C(C)C)cc1O
REMARK SMILES IDX 1 1 2 2 10 3 9 4 5 5 4 6 3 7 11 8 6 10 7 11 8 12
REMARK H PARENT 11 9
REMARK Flexibility Score: inf
ROOT
ATOM      1  C   UNL     1     120.306 123.733 109.171  1.00  0.00     0.048 C 
ATOM      2  C   UNL     1     121.408 123.923 108.167  1.00  0.00    -0.009 A 
ATOM      3  C   UNL     1     121.851 122.856 107.354  1.00  0.00     0.118 A 
ATOM      4  C   UNL     1     122.880 123.066 106.428  1.00  0.00     0.050 A 
ATOM      5  C   UNL     1     123.483 124.329 106.293  1.00  0.00    -0.042 A 
ATOM      6  C   UNL     1     123.039 125.384 107.105  1.00  0.00     0.004 A 
ATOM      7  C   UNL     1     122.013 125.182 108.031  1.00  0.00     0.007 A 
ENDROOT
BRANCH   3   8
ATOM      8  O   UNL     1     121.290 121.579 107.441  1.00  0.00    -0.508 OA
ATOM      9  H   UNL     1     120.482 121.293 106.904  1.00  0.00     0.293 HD
ENDBRANCH   3   8
BRANCH   5  10
ATOM     10  C   UNL     1     124.599 124.561 105.291  1.00  0.00     0.013 C 
ATOM     11  C   UNL     1     125.089 126.014 105.336  1.00  0.00     0.012 C 
ATOM     12  C   UNL     1     125.757 123.582 105.514  1.00  0.00     0.012 C 
ENDBRANCH   5  10
TORSDOF 2
ENDMDL
MODEL 7
REMARK VINA RESULT:    -3.135      2.832      3.627
REMARK INTER + INTRA:          -3.532
REMARK INTER:                  -3.404
REMARK INTRA:                  -0.127
REMARK UNBOUND:                -0.122
REMARK SMILES Cc1ccc(C(C)C)cc1O
REMARK SMILES IDX 1 1 2 2 10 3 9 4 5 5 4 6 3 7 11 8 6 10 7 11 8 12
REMARK H PARENT 11 9
REMARK Flexibility Score: inf
ROOT
ATOM      1  C   UNL     1     125.277 120.320 109.156  1.00  0.00     0.048 C 
ATOM      2  C   UNL     1     125.075 121.419 108.151  1.00  0.00    -0.009 A 
ATOM      3  C   UNL     1     126.125 121.842 107.306  1.00  0.00     0.118 A 
ATOM      4  C   UNL     1     125.903 122.869 106.381  1.00  0.00     0.050 A 
ATOM      5  C   UNL     1     124.646 123.490 106.278  1.00  0.00    -0.042 A 
ATOM      6  C   UNL     1     123.608 123.065 107.122  1.00  0.00     0.004 A 
ATOM      7  C   UNL     1     123.821 122.041 108.048  1.00  0.00     0.007 A 
ENDROOT
BRANCH   3   8
ATOM      8  O   UNL     1     127.395 121.263 107.360  1.00  0.00    -0.508 OA
ATOM      9  H   UNL     1     127.576 120.370 107.799  1.00  0.00     0.293 HD
ENDBRANCH   3   8
BRANCH   5  10
ATOM     10  C   UNL     1     124.401 124.604 105.276  1.00  0.00     0.013 C 
ATOM     11  C   UNL     1     122.938 125.062 105.306  1.00  0.00     0.012 C 
ATOM     12  C   UNL     1     125.353 125.781 105.514  1.00  0.00     0.012 C 
ENDBRANCH   5  10
TORSDOF 2
ENDMDL
MODEL 8
REMARK VINA RESULT:    -3.076      3.192      5.216
REMARK INTER + INTRA:          -3.468
REMARK INTER:                  -3.352
REMARK INTRA:                  -0.116
REMARK UNBOUND:                -0.122
REMARK SMILES Cc1ccc(C(C)C)cc1O
REMARK SMILES IDX 1 1 2 2 10 3 9 4 5 5 4 6 3 7 11 8 6 10 7 11 8 12
REMARK H PARENT 11 9
REMARK Flexibility Score: inf
ROOT
ATOM      1  C   UNL     1     128.815 125.492 109.340  1.00  0.00     0.048 C 
ATOM      2  C   UNL     1     127.789 125.020 108.348  1.00  0.00    -0.009 A 
ATOM      3  C   UNL     1     127.313 125.871 107.326  1.00  0.00     0.118 A 
ATOM      4  C   UNL     1     126.357 125.401 106.418  1.00  0.00     0.050 A 
ATOM      5  C   UNL     1     125.860 124.088 106.507  1.00  0.00    -0.042 A 
ATOM      6  C   UNL     1     126.337 123.249 107.525  1.00  0.00     0.004 A 
ATOM      7  C   UNL     1     127.291 123.711 108.435  1.00  0.00     0.007 A 
ENDROOT
BRANCH   3   8
ATOM      8  O   UNL     1     127.768 127.184 107.186  1.00  0.00    -0.508 OA
ATOM      9  H   UNL     1     127.208 127.923 106.780  1.00  0.00     0.293 HD
ENDBRANCH   3   8
BRANCH   5  10
ATOM     10  C   UNL     1     124.823 123.574 105.524  1.00  0.00     0.013 C 
ATOM     11  C   UNL     1     123.541 123.146 106.247  1.00  0.00     0.012 C 
ATOM     12  C   UNL     1     124.524 124.616 104.440  1.00  0.00     0.012 C 
ENDBRANCH   5  10
TORSDOF 2
ENDMDL
MODEL 9
REMARK VINA RESULT:    -2.922      7.783      9.375
REMARK INTER + INTRA:          -3.301
REMARK INTER:                  -3.173
REMARK INTRA:                  -0.128
REMARK UNBOUND:                -0.122
REMARK SMILES Cc1ccc(C(C)C)cc1O
REMARK SMILES IDX 1 1 2 2 10 3 9 4 5 5 4 6 3 7 11 8 6 10 7 11 8 12
REMARK H PARENT 11 9
REMARK Flexibility Score: inf
ROOT
ATOM      1  C   UNL     1     114.631 124.727 107.377  1.00  0.00     0.048 C 
ATOM      2  C   UNL     1     115.039 126.116 107.782  1.00  0.00    -0.009 A 
ATOM      3  C   UNL     1     116.370 126.563 107.627  1.00  0.00     0.118 A 
ATOM      4  C   UNL     1     116.717 127.863 108.015  1.00  0.00     0.050 A 
ATOM      5  C   UNL     1     115.758 128.735 108.559  1.00  0.00    -0.042 A 
ATOM      6  C   UNL     1     114.438 128.283 108.710  1.00  0.00     0.004 A 
ATOM      7  C   UNL     1     114.083 126.988 108.326  1.00  0.00     0.007 A 
ENDROOT
BRANCH   3   8
ATOM      8  O   UNL     1     117.367 125.743 107.092  1.00  0.00    -0.508 OA
ATOM      9  H   UNL     1     117.973 125.167 107.663  1.00  0.00     0.293 HD
ENDBRANCH   3   8
BRANCH   5  10
ATOM     10  C   UNL     1     116.130 130.145 108.980  1.00  0.00     0.013 C 
ATOM     11  C   UNL     1     116.776 130.915 107.822  1.00  0.00     0.012 C 
ATOM     12  C   UNL     1     114.913 130.897 109.532  1.00  0.00     0.012 C 
ENDBRANCH   5  10
TORSDOF 2
ENDMDL
