MODEL 1
REMARK VINA RESULT:    -5.238      0.000      0.000
REMARK INTER + INTRA:          -7.133
REMARK INTER:                  -6.770
REMARK INTRA:                  -0.363
REMARK UNBOUND:                -0.363
REMARK SMILES CCO[C@H]1O[C@@H](CO)[C@H](O)[C@@H](O)[C@@H]1O
REMARK SMILES IDX 4 1 13 2 11 3 9 4 6 5 5 6 3 7 2 8 1 9 14 10 12 12 7 14 8 15
REMARK SMILES IDX 10 17
REMARK H PARENT 14 11 12 13 8 16 10 18
REMARK Flexibility Score: inf
ROOT
ATOM      1  C   UNL     1      25.044  -7.617  40.076  1.00  0.00     0.281 C 
ATOM      2  C   UNL     1      24.779  -6.080  40.002  1.00  0.00     0.202 C 
ATOM      3  C   UNL     1      25.527  -5.448  38.811  1.00  0.00     0.179 C 
ATOM      4  C   UNL     1      27.035  -5.799  38.856  1.00  0.00     0.177 C 
ATOM      5  C   UNL     1      27.262  -7.203  39.475  1.00  0.00     0.178 C 
ATOM      6  O   UNL     1      26.129  -8.020  39.247  1.00  0.00    -0.341 OA
ENDROOT
BRANCH   1   7
ATOM      7  O   UNL     1      23.873  -8.288  39.648  1.00  0.00    -0.350 OA
BRANCH   7   8
ATOM      8  C   UNL     1      22.742  -7.456  39.803  1.00  0.00     0.160 C 
ATOM      9  C   UNL     1      21.510  -8.323  40.009  1.00  0.00     0.035 C 
ENDBRANCH   7   8
ENDBRANCH   1   7
BRANCH   2  10
ATOM     10  O   UNL     1      25.202  -5.455  41.189  1.00  0.00    -0.385 OA
ATOM     11  H   UNL     1      25.402  -4.511  40.960  1.00  0.00     0.211 HD
ENDBRANCH   2  10
BRANCH   3  12
ATOM     12  O   UNL     1      24.979  -5.920  37.606  1.00  0.00    -0.387 OA
ATOM     13  H   UNL     1      24.044  -5.590  37.565  1.00  0.00     0.211 HD
ENDBRANCH   3  12
BRANCH   5  14
ATOM     14  C   UNL     1      28.500  -7.878  38.872  1.00  0.00     0.191 C 
BRANCH  14  15
ATOM     15  O   UNL     1      29.234  -6.960  38.107  1.00  0.00    -0.394 OA
ATOM     16  H   UNL     1      29.842  -6.486  38.733  1.00  0.00     0.210 HD
ENDBRANCH  14  15
ENDBRANCH   5  14
BRANCH   4  17
ATOM     17  O   UNL     1      27.732  -4.847  39.618  1.00  0.00    -0.387 OA
ATOM     18  H   UNL     1      28.503  -4.544  39.068  1.00  0.00     0.211 HD
ENDBRANCH   4  17
TORSDOF 7
ENDMDL
MODEL 2
REMARK VINA RESULT:    -4.812      7.424      9.358
REMARK INTER + INTRA:          -6.582
REMARK INTER:                  -6.249
REMARK INTRA:                  -0.333
REMARK UNBOUND:                -0.363
REMARK SMILES CCO[C@H]1O[C@@H](CO)[C@H](O)[C@@H](O)[C@@H]1O
REMARK SMILES IDX 4 1 13 2 11 3 9 4 6 5 5 6 3 7 2 8 1 9 14 10 12 12 7 14 8 15
REMARK SMILES IDX 10 17
REMARK H PARENT 14 11 12 13 8 16 10 18
REMARK Flexibility Score: inf
ROOT
ATOM      1  C   UNL     1      21.401  -5.157  33.825  1.00  0.00     0.281 C 
ATOM      2  C   UNL     1      21.755  -6.560  33.236  1.00  0.00     0.202 C 
ATOM      3  C   UNL     1      21.872  -6.500  31.701  1.00  0.00     0.179 C 
ATOM      4  C   UNL     1      20.596  -5.887  31.073  1.00  0.00     0.177 C 
ATOM      5  C   UNL     1      19.967  -4.825  32.013  1.00  0.00     0.178 C 
ATOM      6  O   UNL     1      20.971  -4.243  32.822  1.00  0.00    -0.341 OA
ENDROOT
BRANCH   1   7
ATOM      7  O   UNL     1      22.560  -4.634  34.448  1.00  0.00    -0.350 OA
BRANCH   7   8
ATOM      8  C   UNL     1      22.204  -3.767  35.504  1.00  0.00     0.160 C 
ATOM      9  C   UNL     1      23.282  -2.705  35.663  1.00  0.00     0.035 C 
ENDBRANCH   7   8
ENDBRANCH   1   7
BRANCH   2  10
ATOM     10  O   UNL     1      20.765  -7.496  33.583  1.00  0.00    -0.385 OA
ATOM     11  H   UNL     1      20.324  -7.773  32.738  1.00  0.00     0.211 HD
ENDBRANCH   2  10
BRANCH   3  12
ATOM     12  O   UNL     1      22.984  -5.719  31.342  1.00  0.00    -0.387 OA
ATOM     13  H   UNL     1      23.647  -5.805  32.077  1.00  0.00     0.211 HD
ENDBRANCH   3  12
BRANCH   5  14
ATOM     14  C   UNL     1      19.264  -3.724  31.208  1.00  0.00     0.191 C 
BRANCH  14  15
ATOM     15  O   UNL     1      18.182  -4.256  30.493  1.00  0.00    -0.394 OA
ATOM     16  H   UNL     1      18.564  -4.852  29.796  1.00  0.00     0.210 HD
ENDBRANCH  14  15
ENDBRANCH   5  14
BRANCH   4  17
ATOM     17  O   UNL     1      19.648  -6.892  30.820  1.00  0.00    -0.387 OA
ATOM     18  H   UNL     1      19.790  -7.602  31.501  1.00  0.00     0.211 HD
ENDBRANCH   4  17
TORSDOF 7
ENDMDL
MODEL 3
REMARK VINA RESULT:    -4.767      8.380     10.486
REMARK INTER + INTRA:          -6.523
REMARK INTER:                  -6.097
REMARK INTRA:                  -0.426
REMARK UNBOUND:                -0.363
REMARK SMILES CCO[C@H]1O[C@@H](CO)[C@H](O)[C@@H](O)[C@@H]1O
REMARK SMILES IDX 4 1 13 2 11 3 9 4 6 5 5 6 3 7 2 8 1 9 14 10 12 12 7 14 8 15
REMARK SMILES IDX 10 17
REMARK H PARENT 14 11 12 13 8 16 10 18
REMARK Flexibility Score: inf
ROOT
ATOM      1  C   UNL     1      20.310  -5.915  32.099  1.00  0.00     0.281 C 
ATOM      2  C   UNL     1      20.076  -4.854  30.977  1.00  0.00     0.202 C 
ATOM      3  C   UNL     1      19.213  -3.686  31.494  1.00  0.00     0.179 C 
ATOM      4  C   UNL     1      17.893  -4.207  32.117  1.00  0.00     0.177 C 
ATOM      5  C   UNL     1      18.100  -5.594  32.780  1.00  0.00     0.178 C 
ATOM      6  O   UNL     1      19.441  -5.727  33.211  1.00  0.00    -0.341 OA
ENDROOT
BRANCH   1   7
ATOM      7  O   UNL     1      21.649  -5.799  32.545  1.00  0.00    -0.350 OA
BRANCH   7   8
ATOM      8  C   UNL     1      21.703  -5.824  33.956  1.00  0.00     0.160 C 
ATOM      9  C   UNL     1      22.358  -4.544  34.453  1.00  0.00     0.035 C 
ENDBRANCH   7   8
ENDBRANCH   1   7
BRANCH   2  10
ATOM     10  O   UNL     1      19.432  -5.444  29.875  1.00  0.00    -0.385 OA
ATOM     11  H   UNL     1      19.968  -6.241  29.624  1.00  0.00     0.211 HD
ENDBRANCH   2  10
BRANCH   3  12
ATOM     12  O   UNL     1      19.927  -2.964  32.465  1.00  0.00    -0.387 OA
ATOM     13  H   UNL     1      19.978  -3.539  33.273  1.00  0.00     0.211 HD
ENDBRANCH   3  12
BRANCH   5  14
ATOM     14  C   UNL     1      17.164  -5.774  33.982  1.00  0.00     0.191 C 
BRANCH  14  15
ATOM     15  O   UNL     1      16.395  -4.618  34.181  1.00  0.00    -0.394 OA
ATOM     16  H   UNL     1      15.444  -4.905  34.193  1.00  0.00     0.210 HD
ENDBRANCH  14  15
ENDBRANCH   5  14
BRANCH   4  17
ATOM     17  O   UNL     1      16.901  -4.318  31.128  1.00  0.00    -0.387 OA
ATOM     18  H   UNL     1      16.325  -5.087  31.380  1.00  0.00     0.211 HD
ENDBRANCH   4  17
TORSDOF 7
ENDMDL
MODEL 4
REMARK VINA RESULT:    -4.760      8.797     10.168
REMARK INTER + INTRA:          -6.515
REMARK INTER:                  -6.123
REMARK INTRA:                  -0.392
REMARK UNBOUND:                -0.363
REMARK SMILES CCO[C@H]1O[C@@H](CO)[C@H](O)[C@@H](O)[C@@H]1O
REMARK SMILES IDX 4 1 13 2 11 3 9 4 6 5 5 6 3 7 2 8 1 9 14 10 12 12 7 14 8 15
REMARK SMILES IDX 10 17
REMARK H PARENT 14 11 12 13 8 16 10 18
REMARK Flexibility Score: inf
ROOT
ATOM      1  C   UNL     1      19.599  -3.613  32.176  1.00  0.00     0.281 C 
ATOM      2  C   UNL     1      18.303  -4.416  31.837  1.00  0.00     0.202 C 
ATOM      3  C   UNL     1      18.516  -5.926  32.062  1.00  0.00     0.179 C 
ATOM      4  C   UNL     1      19.758  -6.431  31.287  1.00  0.00     0.177 C 
ATOM      5  C   UNL     1      20.846  -5.328  31.198  1.00  0.00     0.178 C 
ATOM      6  O   UNL     1      20.739  -4.455  32.307  1.00  0.00    -0.341 OA
ENDROOT
BRANCH   1   7
ATOM      7  O   UNL     1      19.392  -2.937  33.402  1.00  0.00    -0.350 OA
BRANCH   7   8
ATOM      8  C   UNL     1      20.489  -3.139  34.269  1.00  0.00     0.160 C 
ATOM      9  C   UNL     1      21.005  -1.788  34.743  1.00  0.00     0.035 C 
ENDBRANCH   7   8
ENDBRANCH   1   7
BRANCH   2  10
ATOM     10  O   UNL     1      17.934  -4.202  30.498  1.00  0.00    -0.385 OA
ATOM     11  H   UNL     1      18.702  -3.754  30.056  1.00  0.00     0.211 HD
ENDBRANCH   2  10
BRANCH   3  12
ATOM     12  O   UNL     1      18.693  -6.179  33.433  1.00  0.00    -0.387 OA
ATOM     13  H   UNL     1      19.549  -5.751  33.698  1.00  0.00     0.211 HD
ENDBRANCH   3  12
BRANCH   5  14
ATOM     14  C   UNL     1      22.251  -5.941  31.172  1.00  0.00     0.191 C 
BRANCH  14  15
ATOM     15  O   UNL     1      22.535  -6.460  29.900  1.00  0.00    -0.394 OA
ATOM     16  H   UNL     1      22.170  -7.383  29.879  1.00  0.00     0.210 HD
ENDBRANCH  14  15
ENDBRANCH   5  14
BRANCH   4  17
ATOM     17  O   UNL     1      19.395  -6.819  29.987  1.00  0.00    -0.387 OA
ATOM     18  H   UNL     1      20.126  -7.397  29.641  1.00  0.00     0.211 HD
ENDBRANCH   4  17
TORSDOF 7
ENDMDL
MODEL 5
REMARK VINA RESULT:    -4.757      2.960      5.716
REMARK INTER + INTRA:          -6.511
REMARK INTER:                  -6.073
REMARK INTRA:                  -0.438
REMARK UNBOUND:                -0.363
REMARK SMILES CCO[C@H]1O[C@@H](CO)[C@H](O)[C@@H](O)[C@@H]1O
REMARK SMILES IDX 4 1 13 2 11 3 9 4 6 5 5 6 3 7 2 8 1 9 14 10 12 12 7 14 8 15
REMARK SMILES IDX 10 17
REMARK H PARENT 14 11 12 13 8 16 10 18
REMARK Flexibility Score: inf
ROOT
ATOM      1  C   UNL     1      23.184  -5.668  38.591  1.00  0.00     0.281 C 
ATOM      2  C   UNL     1      23.850  -7.003  39.052  1.00  0.00     0.202 C 
ATOM      3  C   UNL     1      22.920  -8.203  38.785  1.00  0.00     0.179 C 
ATOM      4  C   UNL     1      21.526  -7.974  39.419  1.00  0.00     0.177 C 
ATOM      5  C   UNL     1      21.150  -6.469  39.410  1.00  0.00     0.178 C 
ATOM      6  O   UNL     1      21.793  -5.818  38.331  1.00  0.00    -0.341 OA
ENDROOT
BRANCH   1   7
ATOM      7  O   UNL     1      23.825  -5.242  37.402  1.00  0.00    -0.350 OA
BRANCH   7   8
ATOM      8  C   UNL     1      22.867  -4.907  36.419  1.00  0.00     0.160 C 
ATOM      9  C   UNL     1      23.082  -3.464  35.985  1.00  0.00     0.035 C 
ENDBRANCH   7   8
ENDBRANCH   1   7
BRANCH   2  10
ATOM     10  O   UNL     1      24.145  -6.951  40.425  1.00  0.00    -0.385 OA
ATOM     11  H   UNL     1      25.135  -6.963  40.506  1.00  0.00     0.211 HD
ENDBRANCH   2  10
BRANCH   3  12
ATOM     12  O   UNL     1      22.772  -8.387  37.400  1.00  0.00    -0.387 OA
ATOM     13  H   UNL     1      22.019  -9.021  37.271  1.00  0.00     0.211 HD
ENDBRANCH   3  12
BRANCH   5  14
ATOM     14  C   UNL     1      19.633  -6.281  39.282  1.00  0.00     0.191 C 
BRANCH  14  15
ATOM     15  O   UNL     1      18.955  -7.231  40.058  1.00  0.00    -0.394 OA
ATOM     16  H   UNL     1      19.560  -7.474  40.808  1.00  0.00     0.210 HD
ENDBRANCH  14  15
ENDBRANCH   5  14
BRANCH   4  17
ATOM     17  O   UNL     1      21.513  -8.439  40.745  1.00  0.00    -0.387 OA
ATOM     18  H   UNL     1      22.455  -8.440  41.061  1.00  0.00     0.211 HD
ENDBRANCH   4  17
TORSDOF 7
ENDMDL
MODEL 6
REMARK VINA RESULT:    -4.738      9.591     11.105
REMARK INTER + INTRA:          -6.486
REMARK INTER:                  -6.072
REMARK INTRA:                  -0.414
REMARK UNBOUND:                -0.363
REMARK SMILES CCO[C@H]1O[C@@H](CO)[C@H](O)[C@@H](O)[C@@H]1O
REMARK SMILES IDX 4 1 13 2 11 3 9 4 6 5 5 6 3 7 2 8 1 9 14 10 12 12 7 14 8 15
REMARK SMILES IDX 10 17
REMARK H PARENT 14 11 12 13 8 16 10 18
REMARK Flexibility Score: inf
ROOT
ATOM      1  C   UNL     1      18.881  -5.957  31.565  1.00  0.00     0.281 C 
ATOM      2  C   UNL     1      18.856  -4.484  31.048  1.00  0.00     0.202 C 
ATOM      3  C   UNL     1      18.874  -3.487  32.224  1.00  0.00     0.179 C 
ATOM      4  C   UNL     1      17.733  -3.794  33.226  1.00  0.00     0.177 C 
ATOM      5  C   UNL     1      17.436  -5.316  33.283  1.00  0.00     0.178 C 
ATOM      6  O   UNL     1      18.603  -6.047  32.958  1.00  0.00    -0.341 OA
ENDROOT
BRANCH   1   7
ATOM      7  O   UNL     1      20.171  -6.488  31.325  1.00  0.00    -0.350 OA
BRANCH   7   8
ATOM      8  C   UNL     1      20.622  -6.125  30.036  1.00  0.00     0.160 C 
ATOM      9  C   UNL     1      22.143  -6.166  30.011  1.00  0.00     0.035 C 
ENDBRANCH   7   8
ENDBRANCH   1   7
BRANCH   2  10
ATOM     10  O   UNL     1      17.704  -4.258  30.275  1.00  0.00    -0.385 OA
ATOM     11  H   UNL     1      16.931  -4.282  30.898  1.00  0.00     0.211 HD
ENDBRANCH   2  10
BRANCH   3  12
ATOM     12  O   UNL     1      20.108  -3.566  32.891  1.00  0.00    -0.387 OA
ATOM     13  H   UNL     1      20.496  -4.454  32.677  1.00  0.00     0.211 HD
ENDBRANCH   3  12
BRANCH   5  14
ATOM     14  C   UNL     1      16.953  -5.730  34.678  1.00  0.00     0.191 C 
BRANCH  14  15
ATOM     15  O   UNL     1      15.828  -4.979  35.050  1.00  0.00    -0.394 OA
ATOM     16  H   UNL     1      16.115  -4.382  35.790  1.00  0.00     0.210 HD
ENDBRANCH  14  15
ENDBRANCH   5  14
BRANCH   4  17
ATOM     17  O   UNL     1      16.562  -3.115  32.851  1.00  0.00    -0.387 OA
ATOM     18  H   UNL     1      16.705  -2.153  33.058  1.00  0.00     0.211 HD
ENDBRANCH   4  17
TORSDOF 7
ENDMDL
MODEL 7
REMARK VINA RESULT:    -4.670      8.548     10.416
REMARK INTER + INTRA:          -6.398
REMARK INTER:                  -5.964
REMARK INTRA:                  -0.433
REMARK UNBOUND:                -0.363
REMARK SMILES CCO[C@H]1O[C@@H](CO)[C@H](O)[C@@H](O)[C@@H]1O
REMARK SMILES IDX 4 1 13 2 11 3 9 4 6 5 5 6 3 7 2 8 1 9 14 10 12 12 7 14 8 15
REMARK SMILES IDX 10 17
REMARK H PARENT 14 11 12 13 8 16 10 18
REMARK Flexibility Score: inf
ROOT
ATOM      1  C   UNL     1      19.818  -2.859  33.197  1.00  0.00     0.281 C 
ATOM      2  C   UNL     1      18.299  -2.940  33.550  1.00  0.00     0.202 C 
ATOM      3  C   UNL     1      17.735  -4.342  33.247  1.00  0.00     0.179 C 
ATOM      4  C   UNL     1      18.038  -4.755  31.785  1.00  0.00     0.177 C 
ATOM      5  C   UNL     1      19.385  -4.154  31.303  1.00  0.00     0.178 C 
ATOM      6  O   UNL     1      20.248  -3.962  32.407  1.00  0.00    -0.341 OA
ENDROOT
BRANCH   1   7
ATOM      7  O   UNL     1      20.553  -2.853  34.407  1.00  0.00    -0.350 OA
BRANCH   7   8
ATOM      8  C   UNL     1      21.517  -3.886  34.404  1.00  0.00     0.160 C 
ATOM      9  C   UNL     1      22.698  -3.467  35.267  1.00  0.00     0.035 C 
ENDBRANCH   7   8
ENDBRANCH   1   7
BRANCH   2  10
ATOM     10  O   UNL     1      17.576  -1.988  32.810  1.00  0.00    -0.385 OA
ATOM     11  H   UNL     1      17.941  -2.004  31.887  1.00  0.00     0.211 HD
ENDBRANCH   2  10
BRANCH   3  12
ATOM     12  O   UNL     1      18.311  -5.281  34.120  1.00  0.00    -0.387 OA
ATOM     13  H   UNL     1      19.258  -5.012  34.250  1.00  0.00     0.211 HD
ENDBRANCH   3  12
BRANCH   5  14
ATOM     14  C   UNL     1      20.065  -5.076  30.284  1.00  0.00     0.191 C 
BRANCH  14  15
ATOM     15  O   UNL     1      19.222  -6.146  29.952  1.00  0.00    -0.394 OA
ATOM     16  H   UNL     1      19.394  -6.864  30.617  1.00  0.00     0.210 HD
ENDBRANCH  14  15
ENDBRANCH   5  14
BRANCH   4  17
ATOM     17  O   UNL     1      17.011  -4.312  30.934  1.00  0.00    -0.387 OA
ATOM     18  H   UNL     1      16.923  -4.987  30.210  1.00  0.00     0.211 HD
ENDBRANCH   4  17
TORSDOF 7
ENDMDL
MODEL 8
REMARK VINA RESULT:    -4.667      9.164     10.671
REMARK INTER + INTRA:          -6.394
REMARK INTER:                  -6.072
REMARK INTRA:                  -0.322
REMARK UNBOUND:                -0.363
REMARK SMILES CCO[C@H]1O[C@@H](CO)[C@H](O)[C@@H](O)[C@@H]1O
REMARK SMILES IDX 4 1 13 2 11 3 9 4 6 5 5 6 3 7 2 8 1 9 14 10 12 12 7 14 8 15
REMARK SMILES IDX 10 17
REMARK H PARENT 14 11 12 13 8 16 10 18
REMARK Flexibility Score: inf
ROOT
ATOM      1  C   UNL     1      18.492  -6.635  32.095  1.00  0.00     0.281 C 
ATOM      2  C   UNL     1      19.719  -6.251  31.208  1.00  0.00     0.202 C 
ATOM      3  C   UNL     1      20.387  -4.959  31.720  1.00  0.00     0.179 C 
ATOM      4  C   UNL     1      19.351  -3.815  31.848  1.00  0.00     0.177 C 
ATOM      5  C   UNL     1      17.952  -4.368  32.227  1.00  0.00     0.178 C 
ATOM      6  O   UNL     1      18.092  -5.574  32.954  1.00  0.00    -0.341 OA
ENDROOT
BRANCH   1   7
ATOM      7  O   UNL     1      18.854  -7.750  32.890  1.00  0.00    -0.350 OA
BRANCH   7   8
ATOM      8  C   UNL     1      17.883  -8.770  32.781  1.00  0.00     0.160 C 
ATOM      9  C   UNL     1      16.864  -8.608  33.899  1.00  0.00     0.035 C 
ENDBRANCH   7   8
ENDBRANCH   1   7
BRANCH   2  10
ATOM     10  O   UNL     1      19.314  -6.057  29.875  1.00  0.00    -0.385 OA
ATOM     11  H   UNL     1      18.747  -6.835  29.632  1.00  0.00     0.211 HD
ENDBRANCH   2  10
BRANCH   3  12
ATOM     12  O   UNL     1      20.970  -5.196  32.977  1.00  0.00    -0.387 OA
ATOM     13  H   UNL     1      21.940  -5.337  32.823  1.00  0.00     0.211 HD
ENDBRANCH   3  12
BRANCH   5  14
ATOM     14  C   UNL     1      17.170  -3.355  33.073  1.00  0.00     0.191 C 
BRANCH  14  15
ATOM     15  O   UNL     1      17.438  -2.048  32.643  1.00  0.00    -0.394 OA
ATOM     16  H   UNL     1      17.724  -2.111  31.694  1.00  0.00     0.210 HD
ENDBRANCH  14  15
ENDBRANCH   5  14
BRANCH   4  17
ATOM     17  O   UNL     1      19.251  -3.114  30.634  1.00  0.00    -0.387 OA
ATOM     18  H   UNL     1      18.761  -3.700  30.000  1.00  0.00     0.211 HD
ENDBRANCH   4  17
TORSDOF 7
ENDMDL
MODEL 9
REMARK VINA RESULT:    -4.643      2.821      4.824
REMARK INTER + INTRA:          -6.363
REMARK INTER:                  -5.986
REMARK INTRA:                  -0.377
REMARK UNBOUND:                -0.363
REMARK SMILES CCO[C@H]1O[C@@H](CO)[C@H](O)[C@@H](O)[C@@H]1O
REMARK SMILES IDX 4 1 13 2 11 3 9 4 6 5 5 6 3 7 2 8 1 9 14 10 12 12 7 14 8 15
REMARK SMILES IDX 10 17
REMARK H PARENT 14 11 12 13 8 16 10 18
REMARK Flexibility Score: inf
ROOT
ATOM      1  C   UNL     1      23.317  -4.739  38.018  1.00  0.00     0.281 C 
ATOM      2  C   UNL     1      22.189  -5.521  37.273  1.00  0.00     0.202 C 
ATOM      3  C   UNL     1      21.632  -6.658  38.152  1.00  0.00     0.179 C 
ATOM      4  C   UNL     1      22.773  -7.577  38.654  1.00  0.00     0.177 C 
ATOM      5  C   UNL     1      24.084  -6.775  38.867  1.00  0.00     0.178 C 
ATOM      6  O   UNL     1      23.779  -5.428  39.175  1.00  0.00    -0.341 OA
ENDROOT
BRANCH   1   7
ATOM      7  O   UNL     1      22.797  -3.483  38.415  1.00  0.00    -0.350 OA
BRANCH   7   8
ATOM      8  C   UNL     1      22.162  -2.846  37.326  1.00  0.00     0.160 C 
ATOM      9  C   UNL     1      22.988  -1.639  36.905  1.00  0.00     0.035 C 
ENDBRANCH   7   8
ENDBRANCH   1   7
BRANCH   2  10
ATOM     10  O   UNL     1      22.684  -6.070  36.077  1.00  0.00    -0.385 OA
ATOM     11  H   UNL     1      21.934  -6.068  35.428  1.00  0.00     0.211 HD
ENDBRANCH   2  10
BRANCH   3  12
ATOM     12  O   UNL     1      20.959  -6.112  39.259  1.00  0.00    -0.387 OA
ATOM     13  H   UNL     1      19.987  -6.209  39.083  1.00  0.00     0.211 HD
ENDBRANCH   3  12
BRANCH   5  14
ATOM     14  C   UNL     1      24.919  -7.376  40.004  1.00  0.00     0.191 C 
BRANCH  14  15
ATOM     15  O   UNL     1      25.537  -8.562  39.583  1.00  0.00    -0.394 OA
ATOM     16  H   UNL     1      26.095  -8.879  40.340  1.00  0.00     0.210 HD
ENDBRANCH  14  15
ENDBRANCH   5  14
BRANCH   4  17
ATOM     17  O   UNL     1      23.013  -8.604  37.725  1.00  0.00    -0.387 OA
ATOM     18  H   UNL     1      23.102  -8.173  36.834  1.00  0.00     0.211 HD
ENDBRANCH   4  17
TORSDOF 7
ENDMDL
