MODEL 1
REMARK VINA RESULT:    -8.622      0.000      0.000
REMARK INTER + INTRA:         -15.663
REMARK INTER:                 -13.662
REMARK INTRA:                  -2.000
REMARK UNBOUND:                -2.000
REMARK SMILES C[C@@H]1O[C@H](O[C@H]2CC[C@]3(C)[C@H](CC[C@@]4(C)[C@@H]3C=C[C@@]35OC[C@]6(CCC(C)(C)C[C@@H]63)[C@H](O)C[C@]45C)[C@]2(C)CO)[C@@H](O)[C@H](O[C@H]2O[C@@H](CO)[C@H](O)[C@@H](O)[C@H]2O)[C@H]1O
REMARK SMILES IDX 1 1 2 2 54 3 41 4 39 5 4 6 3 7 55 8 42 10 43 11 52 12 44 13
REMARK SMILES IDX 50 14 45 15 48 16 53 17 51 19 46 21 47 22 49 24 5 26 6 27
REMARK SMILES IDX 7 28 35 29 8 30 11 31 36 32 9 33 12 34 10 35 16 36 13 37
REMARK SMILES IDX 14 38 17 39 15 40 33 41 18 42 19 43 32 44 34 45 29 46 20 47
REMARK SMILES IDX 30 48 22 49 28 50 21 51 23 52 25 53 24 54 26 55 27 56 37 57
REMARK SMILES IDX 38 58 31 60 40 62
REMARK H PARENT 55 9 53 18 51 20 47 23 49 25 38 59 31 61 40 63
REMARK Flexibility Score: inf
ROOT
ATOM      1  C   UNL     1      -5.622 -23.321  48.176  1.00  0.00     0.041 C 
ATOM      2  C   UNL     1      -5.804 -21.824  47.867  1.00  0.00     0.150 C 
ATOM      3  C   UNL     1      -4.935 -20.928  48.826  1.00  0.00     0.175 C 
ATOM      4  C   UNL     1      -3.422 -20.960  48.508  1.00  0.00     0.186 C 
ATOM      5  C   UNL     1      -3.197 -21.363  47.017  1.00  0.00     0.202 C 
ATOM      6  C   UNL     1      -4.436 -20.978  46.070  1.00  0.00     0.282 C 
ATOM      7  O   UNL     1      -5.666 -21.597  46.470  1.00  0.00    -0.344 OA
ENDROOT
BRANCH   3   8
ATOM      8  O   UNL     1      -5.422 -19.610  48.859  1.00  0.00    -0.388 OA
ATOM      9  H   UNL     1      -6.423 -19.707  48.976  1.00  0.00     0.211 HD
ENDBRANCH   3   8
BRANCH   4  10
ATOM     10  O   UNL     1      -2.679 -21.845  49.373  1.00  0.00    -0.341 OA
BRANCH  10  11
ATOM     11  C   UNL     1      -1.923 -22.849  48.652  1.00  0.00     0.282 C 
ATOM     12  C   UNL     1      -1.820 -24.289  49.286  1.00  0.00     0.202 C 
ATOM     13  O   UNL     1      -0.606 -22.362  48.396  1.00  0.00    -0.341 OA
ATOM     14  C   UNL     1      -0.864 -24.425  50.496  1.00  0.00     0.179 C 
ATOM     15  C   UNL     1       0.408 -22.639  49.360  1.00  0.00     0.178 C 
ATOM     16  C   UNL     1      -0.090 -23.096  50.727  1.00  0.00     0.177 C 
BRANCH  12  17
ATOM     17  O   UNL     1      -3.075 -24.893  49.576  1.00  0.00    -0.385 OA
ATOM     18  H   UNL     1      -3.761 -24.133  49.648  1.00  0.00     0.211 HD
ENDBRANCH  12  17
BRANCH  14  19
ATOM     19  O   UNL     1      -1.534 -24.860  51.662  1.00  0.00    -0.387 OA
ATOM     20  H   UNL     1      -2.024 -25.669  51.403  1.00  0.00     0.211 HD
ENDBRANCH  14  19
BRANCH  15  21
ATOM     21  C   UNL     1       1.325 -21.381  49.534  1.00  0.00     0.191 C 
BRANCH  21  22
ATOM     22  O   UNL     1       2.620 -21.716  49.973  1.00  0.00    -0.394 OA
ATOM     23  H   UNL     1       2.503 -22.385  50.718  1.00  0.00     0.210 HD
ENDBRANCH  21  22
ENDBRANCH  15  21
BRANCH  16  24
ATOM     24  O   UNL     1       1.027 -23.348  51.581  1.00  0.00    -0.387 OA
ATOM     25  H   UNL     1       1.515 -24.115  51.202  1.00  0.00     0.211 HD
ENDBRANCH  16  24
ENDBRANCH  10  11
ENDBRANCH   4  10
BRANCH   6  26
ATOM     26  O   UNL     1      -4.089 -21.371  44.720  1.00  0.00    -0.346 OA
BRANCH  26  27
ATOM     27  C   UNL     1      -4.775 -22.402  43.955  1.00  0.00     0.130 C 
ATOM     28  C   UNL     1      -4.894 -21.821  42.524  1.00  0.00     0.033 C 
ATOM     29  C   UNL     1      -3.890 -23.736  43.792  1.00  0.00     0.020 C 
ATOM     30  C   UNL     1      -3.489 -21.239  42.056  1.00  0.00     0.010 C 
ATOM     31  C   UNL     1      -2.445 -23.167  43.373  1.00  0.00     0.006 C 
ATOM     32  C   UNL     1      -3.951 -24.472  45.147  1.00  0.00     0.017 C 
ATOM     33  C   UNL     1      -2.341 -22.385  41.973  1.00  0.00    -0.022 C 
ATOM     34  C   UNL     1      -1.173 -23.915  43.858  1.00  0.00     0.005 C 
ATOM     35  C   UNL     1      -2.728 -23.277  40.743  1.00  0.00     0.012 C 
ATOM     36  C   UNL     1      -0.839 -21.867  41.611  1.00  0.00     0.024 C 
ATOM     37  C   UNL     1       0.036 -22.941  43.801  1.00  0.00     0.008 C 
ATOM     38  C   UNL     1       0.421 -22.518  42.363  1.00  0.00    -0.017 C 
ATOM     39  C   UNL     1      -0.720 -20.363  41.333  1.00  0.00    -0.024 C 
ATOM     40  C   UNL     1       0.762 -23.872  41.641  1.00  0.00     0.013 C 
ATOM     41  C   UNL     1       1.688 -21.469  42.379  1.00  0.00     0.009 C 
ATOM     42  C   UNL     1       0.431 -19.836  40.913  1.00  0.00     0.005 C 
ATOM     43  C   UNL     1       1.711 -20.660  40.989  1.00  0.00     0.096 C 
ATOM     44  C   UNL     1       3.044 -22.196  42.602  1.00  0.00     0.043 C 
ATOM     45  C   UNL     1       1.525 -20.443  43.575  1.00  0.00     0.015 C 
ATOM     46  C   UNL     1       2.970 -19.815  40.673  1.00  0.00     0.037 C 
ATOM     47  O   UNL     1       1.749 -21.627  39.944  1.00  0.00    -0.369 OA
ATOM     48  C   UNL     1       4.288 -21.495  41.973  1.00  0.00     0.124 C 
ATOM     49  C   UNL     1       3.973 -20.912  40.539  1.00  0.00     0.026 C 
ATOM     50  C   UNL     1       3.494 -18.526  41.365  1.00  0.00     0.014 C 
ATOM     51  C   UNL     1       3.141 -21.902  39.687  1.00  0.00     0.171 C 
ATOM     52  C   UNL     1       5.248 -20.418  39.822  1.00  0.00     0.013 C 
ATOM     53  C   UNL     1       4.840 -18.019  40.749  1.00  0.00    -0.035 C 
ATOM     54  C   UNL     1       5.833 -19.194  40.556  1.00  0.00     0.007 C 
ATOM     55  C   UNL     1       5.440 -17.001  41.700  1.00  0.00     0.011 C 
ATOM     56  C   UNL     1       4.583 -17.321  39.385  1.00  0.00     0.011 C 
BRANCH  29  57
ATOM     57  C   UNL     1      -4.393 -24.879  42.746  1.00  0.00     0.165 C 
BRANCH  57  58
ATOM     58  O   UNL     1      -3.782 -26.113  42.997  1.00  0.00    -0.396 OA
ATOM     59  H   UNL     1      -4.373 -26.561  43.664  1.00  0.00     0.210 HD
ENDBRANCH  57  58
ENDBRANCH  29  57
BRANCH  48  60
ATOM     60  O   UNL     1       5.363 -22.436  41.923  1.00  0.00    -0.392 OA
ATOM     61  H   UNL     1       5.386 -22.727  40.961  1.00  0.00     0.210 HD
ENDBRANCH  48  60
ENDBRANCH  26  27
ENDBRANCH   6  26
BRANCH   5  62
ATOM     62  O   UNL     1      -2.041 -20.735  46.513  1.00  0.00    -0.385 OA
ATOM     63  H   UNL     1      -1.602 -20.285  47.276  1.00  0.00     0.211 HD
ENDBRANCH   5  62
TORSDOF 14
ENDMDL
MODEL 2
REMARK VINA RESULT:    -8.407      1.537      2.019
REMARK INTER + INTRA:         -15.322
REMARK INTER:                 -14.067
REMARK INTRA:                  -1.255
REMARK UNBOUND:                -2.000
REMARK SMILES C[C@@H]1O[C@H](O[C@H]2CC[C@]3(C)[C@H](CC[C@@]4(C)[C@@H]3C=C[C@@]35OC[C@]6(CCC(C)(C)C[C@@H]63)[C@H](O)C[C@]45C)[C@]2(C)CO)[C@@H](O)[C@H](O[C@H]2O[C@@H](CO)[C@H](O)[C@@H](O)[C@H]2O)[C@H]1O
REMARK SMILES IDX 1 1 2 2 54 3 41 4 39 5 4 6 3 7 55 8 42 10 43 11 52 12 44 13
REMARK SMILES IDX 50 14 45 15 48 16 53 17 51 19 46 21 47 22 49 24 5 26 6 27
REMARK SMILES IDX 7 28 35 29 8 30 11 31 36 32 9 33 12 34 10 35 16 36 13 37
REMARK SMILES IDX 14 38 17 39 15 40 33 41 18 42 19 43 32 44 34 45 29 46 20 47
REMARK SMILES IDX 30 48 22 49 28 50 21 51 23 52 25 53 24 54 26 55 27 56 37 57
REMARK SMILES IDX 38 58 31 60 40 62
REMARK H PARENT 55 9 53 18 51 20 47 23 49 25 38 59 31 61 40 63
REMARK Flexibility Score: inf
ROOT
ATOM      1  C   UNL     1      -5.602 -23.295  48.481  1.00  0.00     0.041 C 
ATOM      2  C   UNL     1      -5.843 -21.814  48.137  1.00  0.00     0.150 C 
ATOM      3  C   UNL     1      -4.855 -20.873  48.921  1.00  0.00     0.175 C 
ATOM      4  C   UNL     1      -3.404 -20.911  48.388  1.00  0.00     0.186 C 
ATOM      5  C   UNL     1      -3.393 -21.379  46.899  1.00  0.00     0.202 C 
ATOM      6  C   UNL     1      -4.759 -21.042  46.125  1.00  0.00     0.282 C 
ATOM      7  O   UNL     1      -5.912 -21.649  46.727  1.00  0.00    -0.344 OA
ENDROOT
BRANCH   3   8
ATOM      8  O   UNL     1      -5.346 -19.557  48.967  1.00  0.00    -0.388 OA
ATOM      9  H   UNL     1      -5.783 -19.475  49.878  1.00  0.00     0.211 HD
ENDBRANCH   3   8
BRANCH   4  10
ATOM     10  O   UNL     1      -2.534 -21.753  49.174  1.00  0.00    -0.341 OA
BRANCH  10  11
ATOM     11  C   UNL     1      -1.363 -22.202  48.447  1.00  0.00     0.282 C 
ATOM     12  C   UNL     1      -1.197 -23.750  48.202  1.00  0.00     0.202 C 
ATOM     13  O   UNL     1      -0.186 -21.708  49.087  1.00  0.00    -0.341 OA
ATOM     14  C   UNL     1      -0.766 -24.585  49.432  1.00  0.00     0.179 C 
ATOM     15  C   UNL     1       0.421 -22.522  50.089  1.00  0.00     0.178 C 
ATOM     16  C   UNL     1      -0.445 -23.652  50.634  1.00  0.00     0.177 C 
BRANCH  12  17
ATOM     17  O   UNL     1      -2.305 -24.362  47.553  1.00  0.00    -0.385 OA
ATOM     18  H   UNL     1      -2.184 -24.204  46.546  1.00  0.00     0.211 HD
ENDBRANCH  12  17
BRANCH  14  19
ATOM     19  O   UNL     1      -1.715 -25.577  49.767  1.00  0.00    -0.387 OA
ATOM     20  H   UNL     1      -2.591 -25.142  49.701  1.00  0.00     0.211 HD
ENDBRANCH  14  19
BRANCH  15  21
ATOM     21  C   UNL     1       0.908 -21.620  51.274  1.00  0.00     0.191 C 
BRANCH  21  22
ATOM     22  O   UNL     1       2.256 -21.854  51.609  1.00  0.00    -0.394 OA
ATOM     23  H   UNL     1       2.765 -21.032  51.328  1.00  0.00     0.210 HD
ENDBRANCH  21  22
ENDBRANCH  15  21
BRANCH  16  24
ATOM     24  O   UNL     1       0.292 -24.387  51.613  1.00  0.00    -0.387 OA
ATOM     25  H   UNL     1       0.831 -25.055  51.130  1.00  0.00     0.211 HD
ENDBRANCH  16  24
ENDBRANCH  10  11
ENDBRANCH   4  10
BRANCH   6  26
ATOM     26  O   UNL     1      -4.608 -21.492  44.758  1.00  0.00    -0.346 OA
BRANCH  26  27
ATOM     27  C   UNL     1      -5.515 -21.157  43.670  1.00  0.00     0.130 C 
ATOM     28  C   UNL     1      -5.177 -19.689  43.311  1.00  0.00     0.033 C 
ATOM     29  C   UNL     1      -5.205 -21.996  42.332  1.00  0.00     0.020 C 
ATOM     30  C   UNL     1      -3.603 -19.515  43.160  1.00  0.00     0.010 C 
ATOM     31  C   UNL     1      -3.607 -21.881  42.190  1.00  0.00     0.006 C 
ATOM     32  C   UNL     1      -5.756 -23.418  42.569  1.00  0.00     0.017 C 
ATOM     33  C   UNL     1      -2.994 -20.415  41.953  1.00  0.00    -0.022 C 
ATOM     34  C   UNL     1      -2.818 -23.081  41.596  1.00  0.00     0.005 C 
ATOM     35  C   UNL     1      -3.504 -19.744  40.631  1.00  0.00     0.012 C 
ATOM     36  C   UNL     1      -1.372 -20.392  41.792  1.00  0.00     0.024 C 
ATOM     37  C   UNL     1      -1.332 -22.971  42.036  1.00  0.00     0.008 C 
ATOM     38  C   UNL     1      -0.597 -21.751  41.432  1.00  0.00    -0.017 C 
ATOM     39  C   UNL     1      -0.636 -19.466  42.768  1.00  0.00    -0.024 C 
ATOM     40  C   UNL     1      -0.704 -21.966  39.878  1.00  0.00     0.013 C 
ATOM     41  C   UNL     1       0.960 -21.683  41.959  1.00  0.00     0.009 C 
ATOM     42  C   UNL     1       0.679 -19.270  42.662  1.00  0.00     0.005 C 
ATOM     43  C   UNL     1       1.509 -20.183  41.767  1.00  0.00     0.096 C 
ATOM     44  C   UNL     1       1.874 -22.692  41.207  1.00  0.00     0.043 C 
ATOM     45  C   UNL     1       1.028 -22.069  43.493  1.00  0.00     0.015 C 
ATOM     46  C   UNL     1       3.030 -19.950  41.944  1.00  0.00     0.037 C 
ATOM     47  O   UNL     1       1.328 -19.844  40.396  1.00  0.00    -0.369 OA
ATOM     48  C   UNL     1       3.373 -22.275  41.093  1.00  0.00     0.124 C 
ATOM     49  C   UNL     1       3.535 -20.735  40.779  1.00  0.00     0.026 C 
ATOM     50  C   UNL     1       3.902 -20.044  43.227  1.00  0.00     0.014 C 
ATOM     51  C   UNL     1       2.523 -20.259  39.707  1.00  0.00     0.171 C 
ATOM     52  C   UNL     1       4.995 -20.362  40.444  1.00  0.00     0.013 C 
ATOM     53  C   UNL     1       5.416 -19.769  42.944  1.00  0.00    -0.035 C 
ATOM     54  C   UNL     1       5.889 -20.543  41.687  1.00  0.00     0.007 C 
ATOM     55  C   UNL     1       6.212 -20.229  44.151  1.00  0.00     0.011 C 
ATOM     56  C   UNL     1       5.663 -18.248  42.748  1.00  0.00     0.011 C 
BRANCH  29  57
ATOM     57  C   UNL     1      -5.947 -21.555  40.950  1.00  0.00     0.165 C 
BRANCH  57  58
ATOM     58  O   UNL     1      -5.900 -22.574  39.991  1.00  0.00    -0.396 OA
ATOM     59  H   UNL     1      -6.669 -22.388  39.383  1.00  0.00     0.210 HD
ENDBRANCH  57  58
ENDBRANCH  29  57
BRANCH  48  60
ATOM     60  O   UNL     1       3.991 -23.075  40.081  1.00  0.00    -0.392 OA
ATOM     61  H   UNL     1       3.232 -23.612  39.699  1.00  0.00     0.210 HD
ENDBRANCH  48  60
ENDBRANCH  26  27
ENDBRANCH   6  26
BRANCH   5  62
ATOM     62  O   UNL     1      -2.329 -20.768  46.206  1.00  0.00    -0.385 OA
ATOM     63  H   UNL     1      -2.243 -21.234  45.339  1.00  0.00     0.211 HD
ENDBRANCH   5  62
TORSDOF 14
ENDMDL
MODEL 3
REMARK VINA RESULT:    -8.285      2.774      4.659
REMARK INTER + INTRA:         -15.129
REMARK INTER:                 -12.819
REMARK INTRA:                  -2.310
REMARK UNBOUND:                -2.000
REMARK SMILES C[C@@H]1O[C@H](O[C@H]2CC[C@]3(C)[C@H](CC[C@@]4(C)[C@@H]3C=C[C@@]35OC[C@]6(CCC(C)(C)C[C@@H]63)[C@H](O)C[C@]45C)[C@]2(C)CO)[C@@H](O)[C@H](O[C@H]2O[C@@H](CO)[C@H](O)[C@@H](O)[C@H]2O)[C@H]1O
REMARK SMILES IDX 1 1 2 2 54 3 41 4 39 5 4 6 3 7 55 8 42 10 43 11 52 12 44 13
REMARK SMILES IDX 50 14 45 15 48 16 53 17 51 19 46 21 47 22 49 24 5 26 6 27
REMARK SMILES IDX 7 28 35 29 8 30 11 31 36 32 9 33 12 34 10 35 16 36 13 37
REMARK SMILES IDX 14 38 17 39 15 40 33 41 18 42 19 43 32 44 34 45 29 46 20 47
REMARK SMILES IDX 30 48 22 49 28 50 21 51 23 52 25 53 24 54 26 55 27 56 37 57
REMARK SMILES IDX 38 58 31 60 40 62
REMARK H PARENT 55 9 53 18 51 20 47 23 49 25 38 59 31 61 40 63
REMARK Flexibility Score: inf
ROOT
ATOM      1  C   UNL     1      -5.611 -21.038  42.934  1.00  0.00     0.041 C 
ATOM      2  C   UNL     1      -5.123 -19.809  43.721  1.00  0.00     0.150 C 
ATOM      3  C   UNL     1      -5.020 -20.115  45.261  1.00  0.00     0.175 C 
ATOM      4  C   UNL     1      -3.821 -21.015  45.639  1.00  0.00     0.186 C 
ATOM      5  C   UNL     1      -2.708 -20.909  44.549  1.00  0.00     0.202 C 
ATOM      6  C   UNL     1      -2.730 -19.508  43.765  1.00  0.00     0.282 C 
ATOM      7  O   UNL     1      -3.972 -19.257  43.093  1.00  0.00    -0.344 OA
ENDROOT
BRANCH   3   8
ATOM      8  O   UNL     1      -5.020 -18.926  46.010  1.00  0.00    -0.388 OA
ATOM      9  H   UNL     1      -4.042 -18.725  46.179  1.00  0.00     0.211 HD
ENDBRANCH   3   8
BRANCH   4  10
ATOM     10  O   UNL     1      -4.189 -22.398  45.832  1.00  0.00    -0.341 OA
BRANCH  10  11
ATOM     11  C   UNL     1      -3.327 -23.095  46.766  1.00  0.00     0.282 C 
ATOM     12  C   UNL     1      -3.891 -24.394  47.459  1.00  0.00     0.202 C 
ATOM     13  O   UNL     1      -2.886 -22.187  47.776  1.00  0.00    -0.341 OA
ATOM     14  C   UNL     1      -4.934 -24.162  48.579  1.00  0.00     0.179 C 
ATOM     15  C   UNL     1      -3.673 -22.073  48.960  1.00  0.00     0.178 C 
ATOM     16  C   UNL     1      -5.085 -22.642  48.871  1.00  0.00     0.177 C 
BRANCH  12  17
ATOM     17  O   UNL     1      -4.351 -25.388  46.552  1.00  0.00    -0.385 OA
ATOM     18  H   UNL     1      -4.630 -24.901  45.692  1.00  0.00     0.211 HD
ENDBRANCH  12  17
BRANCH  14  19
ATOM     19  O   UNL     1      -6.174 -24.774  48.292  1.00  0.00    -0.387 OA
ATOM     20  H   UNL     1      -6.162 -24.966  47.330  1.00  0.00     0.211 HD
ENDBRANCH  14  19
BRANCH  15  21
ATOM     21  C   UNL     1      -3.743 -20.571  49.400  1.00  0.00     0.191 C 
BRANCH  21  22
ATOM     22  O   UNL     1      -4.842 -19.895  48.833  1.00  0.00    -0.394 OA
ATOM     23  H   UNL     1      -4.495 -19.435  48.007  1.00  0.00     0.210 HD
ENDBRANCH  21  22
ENDBRANCH  15  21
BRANCH  16  24
ATOM     24  O   UNL     1      -5.747 -22.470  50.125  1.00  0.00    -0.387 OA
ATOM     25  H   UNL     1      -5.224 -22.963  50.800  1.00  0.00     0.211 HD
ENDBRANCH  16  24
ENDBRANCH  10  11
ENDBRANCH   4  10
BRANCH   6  26
ATOM     26  O   UNL     1      -1.637 -19.524  42.815  1.00  0.00    -0.346 OA
BRANCH  26  27
ATOM     27  C   UNL     1      -1.791 -19.694  41.378  1.00  0.00     0.130 C 
ATOM     28  C   UNL     1      -0.748 -18.735  40.752  1.00  0.00     0.033 C 
ATOM     29  C   UNL     1      -1.357 -21.162  40.884  1.00  0.00     0.020 C 
ATOM     30  C   UNL     1       0.662 -18.927  41.462  1.00  0.00     0.010 C 
ATOM     31  C   UNL     1       0.044 -21.403  41.636  1.00  0.00     0.006 C 
ATOM     32  C   UNL     1      -2.502 -22.117  41.283  1.00  0.00     0.017 C 
ATOM     33  C   UNL     1       1.260 -20.423  41.256  1.00  0.00    -0.022 C 
ATOM     34  C   UNL     1       0.415 -22.840  42.095  1.00  0.00     0.005 C 
ATOM     35  C   UNL     1       1.665 -20.507  39.744  1.00  0.00     0.012 C 
ATOM     36  C   UNL     1       2.649 -20.752  42.043  1.00  0.00     0.024 C 
ATOM     37  C   UNL     1       1.488 -22.749  43.215  1.00  0.00     0.008 C 
ATOM     38  C   UNL     1       2.845 -22.191  42.726  1.00  0.00    -0.017 C 
ATOM     39  C   UNL     1       3.245 -19.577  42.827  1.00  0.00    -0.024 C 
ATOM     40  C   UNL     1       3.294 -23.197  41.604  1.00  0.00     0.013 C 
ATOM     41  C   UNL     1       3.923 -22.099  43.965  1.00  0.00     0.009 C 
ATOM     42  C   UNL     1       4.437 -19.684  43.417  1.00  0.00     0.005 C 
ATOM     43  C   UNL     1       5.083 -21.056  43.569  1.00  0.00     0.096 C 
ATOM     44  C   UNL     1       4.539 -23.485  44.307  1.00  0.00     0.043 C 
ATOM     45  C   UNL     1       3.195 -21.593  45.277  1.00  0.00     0.015 C 
ATOM     46  C   UNL     1       6.343 -21.012  44.468  1.00  0.00     0.037 C 
ATOM     47  O   UNL     1       5.633 -21.494  42.331  1.00  0.00    -0.369 OA
ATOM     48  C   UNL     1       5.977 -23.445  44.910  1.00  0.00     0.124 C 
ATOM     49  C   UNL     1       6.889 -22.374  44.191  1.00  0.00     0.026 C 
ATOM     50  C   UNL     1       6.492 -20.531  45.939  1.00  0.00     0.014 C 
ATOM     51  C   UNL     1       6.704 -22.403  42.654  1.00  0.00     0.171 C 
ATOM     52  C   UNL     1       8.366 -22.483  44.627  1.00  0.00     0.013 C 
ATOM     53  C   UNL     1       7.950 -20.702  46.480  1.00  0.00    -0.035 C 
ATOM     54  C   UNL     1       8.512 -22.100  46.114  1.00  0.00     0.007 C 
ATOM     55  C   UNL     1       7.912 -20.552  47.990  1.00  0.00     0.011 C 
ATOM     56  C   UNL     1       8.875 -19.597  45.903  1.00  0.00     0.011 C 
BRANCH  29  57
ATOM     57  C   UNL     1      -1.213 -21.433  39.283  1.00  0.00     0.165 C 
BRANCH  57  58
ATOM     58  O   UNL     1      -1.255 -22.800  38.984  1.00  0.00    -0.396 OA
ATOM     59  H   UNL     1      -0.298 -23.081  38.939  1.00  0.00     0.210 HD
ENDBRANCH  57  58
ENDBRANCH  29  57
BRANCH  48  60
ATOM     60  O   UNL     1       6.546 -24.754  44.815  1.00  0.00    -0.392 OA
ATOM     61  H   UNL     1       7.537 -24.589  44.832  1.00  0.00     0.210 HD
ENDBRANCH  48  60
ENDBRANCH  26  27
ENDBRANCH   6  26
BRANCH   5  62
ATOM     62  O   UNL     1      -1.438 -21.069  45.136  1.00  0.00    -0.385 OA
ATOM     63  H   UNL     1      -1.239 -20.234  45.627  1.00  0.00     0.211 HD
ENDBRANCH   5  62
TORSDOF 14
ENDMDL
MODEL 4
REMARK VINA RESULT:    -8.272      2.467      4.064
REMARK INTER + INTRA:         -15.108
REMARK INTER:                 -13.172
REMARK INTRA:                  -1.935
REMARK UNBOUND:                -2.000
REMARK SMILES C[C@@H]1O[C@H](O[C@H]2CC[C@]3(C)[C@H](CC[C@@]4(C)[C@@H]3C=C[C@@]35OC[C@]6(CCC(C)(C)C[C@@H]63)[C@H](O)C[C@]45C)[C@]2(C)CO)[C@@H](O)[C@H](O[C@H]2O[C@@H](CO)[C@H](O)[C@@H](O)[C@H]2O)[C@H]1O
REMARK SMILES IDX 1 1 2 2 54 3 41 4 39 5 4 6 3 7 55 8 42 10 43 11 52 12 44 13
REMARK SMILES IDX 50 14 45 15 48 16 53 17 51 19 46 21 47 22 49 24 5 26 6 27
REMARK SMILES IDX 7 28 35 29 8 30 11 31 36 32 9 33 12 34 10 35 16 36 13 37
REMARK SMILES IDX 14 38 17 39 15 40 33 41 18 42 19 43 32 44 34 45 29 46 20 47
REMARK SMILES IDX 30 48 22 49 28 50 21 51 23 52 25 53 24 54 26 55 27 56 37 57
REMARK SMILES IDX 38 58 31 60 40 62
REMARK H PARENT 55 9 53 18 51 20 47 23 49 25 38 59 31 61 40 63
REMARK Flexibility Score: inf
ROOT
ATOM      1  C   UNL     1      -6.114 -21.525  43.566  1.00  0.00     0.041 C 
ATOM      2  C   UNL     1      -5.697 -20.196  44.219  1.00  0.00     0.150 C 
ATOM      3  C   UNL     1      -5.461 -20.363  45.766  1.00  0.00     0.175 C 
ATOM      4  C   UNL     1      -4.158 -21.116  46.121  1.00  0.00     0.186 C 
ATOM      5  C   UNL     1      -3.136 -20.997  44.946  1.00  0.00     0.202 C 
ATOM      6  C   UNL     1      -3.347 -19.673  44.062  1.00  0.00     0.282 C 
ATOM      7  O   UNL     1      -4.651 -19.594  43.468  1.00  0.00    -0.344 OA
ENDROOT
BRANCH   3   8
ATOM      8  O   UNL     1      -5.528 -19.122  46.422  1.00  0.00    -0.388 OA
ATOM      9  H   UNL     1      -5.118 -18.463  45.771  1.00  0.00     0.211 HD
ENDBRANCH   3   8
BRANCH   4  10
ATOM     10  O   UNL     1      -4.375 -22.506  46.444  1.00  0.00    -0.341 OA
BRANCH  10  11
ATOM     11  C   UNL     1      -4.540 -22.744  47.864  1.00  0.00     0.282 C 
ATOM     12  C   UNL     1      -3.823 -21.759  48.864  1.00  0.00     0.202 C 
ATOM     13  O   UNL     1      -4.147 -24.081  48.172  1.00  0.00    -0.341 OA
ATOM     14  C   UNL     1      -2.292 -21.936  49.003  1.00  0.00     0.179 C 
ATOM     15  C   UNL     1      -2.787 -24.310  48.538  1.00  0.00     0.178 C 
ATOM     16  C   UNL     1      -1.816 -23.182  48.204  1.00  0.00     0.177 C 
BRANCH  12  17
ATOM     17  O   UNL     1      -4.147 -20.387  48.668  1.00  0.00    -0.385 OA
ATOM     18  H   UNL     1      -4.868 -20.150  49.359  1.00  0.00     0.211 HD
ENDBRANCH  12  17
BRANCH  14  19
ATOM     19  O   UNL     1      -1.582 -20.769  48.640  1.00  0.00    -0.387 OA
ATOM     20  H   UNL     1      -1.883 -20.069  49.258  1.00  0.00     0.211 HD
ENDBRANCH  14  19
BRANCH  15  21
ATOM     21  C   UNL     1      -2.284 -25.641  47.883  1.00  0.00     0.191 C 
BRANCH  21  22
ATOM     22  O   UNL     1      -1.326 -25.416  46.874  1.00  0.00    -0.394 OA
ATOM     23  H   UNL     1      -1.620 -25.958  46.078  1.00  0.00     0.210 HD
ENDBRANCH  21  22
ENDBRANCH  15  21
BRANCH  16  24
ATOM     24  O   UNL     1      -0.503 -23.541  48.635  1.00  0.00    -0.387 OA
ATOM     25  H   UNL     1       0.075 -23.544  47.837  1.00  0.00     0.211 HD
ENDBRANCH  16  24
ENDBRANCH  10  11
ENDBRANCH   4  10
BRANCH   6  26
ATOM     26  O   UNL     1      -2.325 -19.666  43.037  1.00  0.00    -0.346 OA
BRANCH  26  27
ATOM     27  C   UNL     1      -2.581 -19.785  41.609  1.00  0.00     0.130 C 
ATOM     28  C   UNL     1      -1.630 -18.755  40.950  1.00  0.00     0.033 C 
ATOM     29  C   UNL     1      -2.126 -21.211  41.021  1.00  0.00     0.020 C 
ATOM     30  C   UNL     1      -0.163 -18.913  41.543  1.00  0.00     0.010 C 
ATOM     31  C   UNL     1      -0.663 -21.419  41.655  1.00  0.00     0.006 C 
ATOM     32  C   UNL     1      -3.197 -22.230  41.462  1.00  0.00     0.017 C 
ATOM     33  C   UNL     1       0.479 -20.371  41.227  1.00  0.00    -0.022 C 
ATOM     34  C   UNL     1      -0.199 -22.856  42.021  1.00  0.00     0.005 C 
ATOM     35  C   UNL     1       0.770 -20.377  39.687  1.00  0.00     0.012 C 
ATOM     36  C   UNL     1       1.937 -20.670  41.893  1.00  0.00     0.024 C 
ATOM     37  C   UNL     1       0.952 -22.763  43.060  1.00  0.00     0.008 C 
ATOM     38  C   UNL     1       2.244 -22.125  42.495  1.00  0.00    -0.017 C 
ATOM     39  C   UNL     1       2.542 -19.502  42.681  1.00  0.00    -0.024 C 
ATOM     40  C   UNL     1       2.646 -23.064  41.300  1.00  0.00     0.013 C 
ATOM     41  C   UNL     1       3.409 -22.035  43.653  1.00  0.00     0.009 C 
ATOM     42  C   UNL     1       3.779 -19.580  43.174  1.00  0.00     0.005 C 
ATOM     43  C   UNL     1       4.491 -20.927  43.217  1.00  0.00     0.096 C 
ATOM     44  C   UNL     1       4.106 -23.406  43.887  1.00  0.00     0.043 C 
ATOM     45  C   UNL     1       2.764 -21.616  45.037  1.00  0.00     0.015 C 
ATOM     46  C   UNL     1       5.814 -20.864  44.020  1.00  0.00     0.037 C 
ATOM     47  O   UNL     1       4.962 -21.289  41.923  1.00  0.00    -0.369 OA
ATOM     48  C   UNL     1       5.583 -23.326  44.382  1.00  0.00     0.124 C 
ATOM     49  C   UNL     1       6.392 -22.187  43.644  1.00  0.00     0.026 C 
ATOM     50  C   UNL     1       6.055 -20.436  45.495  1.00  0.00     0.014 C 
ATOM     51  C   UNL     1       6.091 -22.162  42.125  1.00  0.00     0.171 C 
ATOM     52  C   UNL     1       7.901 -22.248  43.962  1.00  0.00     0.013 C 
ATOM     53  C   UNL     1       7.556 -20.564  45.918  1.00  0.00    -0.035 C 
ATOM     54  C   UNL     1       8.146 -21.919  45.449  1.00  0.00     0.007 C 
ATOM     55  C   UNL     1       7.628 -20.477  47.431  1.00  0.00     0.011 C 
ATOM     56  C   UNL     1       8.388 -19.396  45.322  1.00  0.00     0.011 C 
BRANCH  29  57
ATOM     57  C   UNL     1      -2.095 -21.409  39.403  1.00  0.00     0.165 C 
BRANCH  57  58
ATOM     58  O   UNL     1      -2.082 -22.764  39.050  1.00  0.00    -0.396 OA
ATOM     59  H   UNL     1      -3.038 -22.996  38.888  1.00  0.00     0.210 HD
ENDBRANCH  57  58
ENDBRANCH  29  57
BRANCH  48  60
ATOM     60  O   UNL     1       6.197 -24.603  44.186  1.00  0.00    -0.392 OA
ATOM     61  H   UNL     1       7.149 -24.461  44.474  1.00  0.00     0.210 HD
ENDBRANCH  48  60
ENDBRANCH  26  27
ENDBRANCH   6  26
BRANCH   5  62
ATOM     62  O   UNL     1      -1.819 -20.990  45.447  1.00  0.00    -0.385 OA
ATOM     63  H   UNL     1      -1.607 -20.055  45.689  1.00  0.00     0.211 HD
ENDBRANCH   5  62
TORSDOF 14
ENDMDL
MODEL 5
REMARK VINA RESULT:    -7.987      1.878      3.216
REMARK INTER + INTRA:         -14.656
REMARK INTER:                 -13.494
REMARK INTRA:                  -1.162
REMARK UNBOUND:                -2.000
REMARK SMILES C[C@@H]1O[C@H](O[C@H]2CC[C@]3(C)[C@H](CC[C@@]4(C)[C@@H]3C=C[C@@]35OC[C@]6(CCC(C)(C)C[C@@H]63)[C@H](O)C[C@]45C)[C@]2(C)CO)[C@@H](O)[C@H](O[C@H]2O[C@@H](CO)[C@H](O)[C@@H](O)[C@H]2O)[C@H]1O
REMARK SMILES IDX 1 1 2 2 54 3 41 4 39 5 4 6 3 7 55 8 42 10 43 11 52 12 44 13
REMARK SMILES IDX 50 14 45 15 48 16 53 17 51 19 46 21 47 22 49 24 5 26 6 27
REMARK SMILES IDX 7 28 35 29 8 30 11 31 36 32 9 33 12 34 10 35 16 36 13 37
REMARK SMILES IDX 14 38 17 39 15 40 33 41 18 42 19 43 32 44 34 45 29 46 20 47
REMARK SMILES IDX 30 48 22 49 28 50 21 51 23 52 25 53 24 54 26 55 27 56 37 57
REMARK SMILES IDX 38 58 31 60 40 62
REMARK H PARENT 55 9 53 18 51 20 47 23 49 25 38 59 31 61 40 63
REMARK Flexibility Score: inf
ROOT
ATOM      1  C   UNL     1      -1.292 -23.189  46.787  1.00  0.00     0.041 C 
ATOM      2  C   UNL     1      -2.331 -24.129  46.150  1.00  0.00     0.150 C 
ATOM      3  C   UNL     1      -3.697 -24.090  46.929  1.00  0.00     0.175 C 
ATOM      4  C   UNL     1      -4.510 -22.795  46.697  1.00  0.00     0.186 C 
ATOM      5  C   UNL     1      -4.096 -22.139  45.342  1.00  0.00     0.202 C 
ATOM      6  C   UNL     1      -3.534 -23.201  44.277  1.00  0.00     0.282 C 
ATOM      7  O   UNL     1      -2.381 -23.914  44.745  1.00  0.00    -0.344 OA
ENDROOT
BRANCH   3   8
ATOM      8  O   UNL     1      -4.467 -25.232  46.650  1.00  0.00    -0.388 OA
ATOM      9  H   UNL     1      -5.185 -25.241  47.363  1.00  0.00     0.211 HD
ENDBRANCH   3   8
BRANCH   4  10
ATOM     10  O   UNL     1      -4.371 -21.838  47.769  1.00  0.00    -0.341 OA
BRANCH  10  11
ATOM     11  C   UNL     1      -5.010 -22.260  48.999  1.00  0.00     0.282 C 
ATOM     12  C   UNL     1      -5.244 -21.174  50.117  1.00  0.00     0.202 C 
ATOM     13  O   UNL     1      -4.285 -23.353  49.563  1.00  0.00    -0.341 OA
ATOM     14  C   UNL     1      -3.985 -20.739  50.908  1.00  0.00     0.179 C 
ATOM     15  C   UNL     1      -3.242 -23.056  50.489  1.00  0.00     0.178 C 
ATOM     16  C   UNL     1      -2.762 -21.609  50.500  1.00  0.00     0.177 C 
BRANCH  12  17
ATOM     17  O   UNL     1      -5.973 -20.033  49.682  1.00  0.00    -0.385 OA
ATOM     18  H   UNL     1      -5.816 -19.947  48.672  1.00  0.00     0.211 HD
ENDBRANCH  12  17
BRANCH  14  19
ATOM     19  O   UNL     1      -3.722 -19.357  50.779  1.00  0.00    -0.387 OA
ATOM     20  H   UNL     1      -4.452 -18.995  50.233  1.00  0.00     0.211 HD
ENDBRANCH  14  19
BRANCH  15  21
ATOM     21  C   UNL     1      -2.024 -24.006  50.230  1.00  0.00     0.191 C 
BRANCH  21  22
ATOM     22  O   UNL     1      -1.504 -24.551  51.421  1.00  0.00    -0.394 OA
ATOM     23  H   UNL     1      -1.843 -23.970  52.170  1.00  0.00     0.210 HD
ENDBRANCH  21  22
ENDBRANCH  15  21
BRANCH  16  24
ATOM     24  O   UNL     1      -1.733 -21.456  51.478  1.00  0.00    -0.387 OA
ATOM     25  H   UNL     1      -0.907 -21.831  51.092  1.00  0.00     0.211 HD
ENDBRANCH  16  24
ENDBRANCH  10  11
ENDBRANCH   4  10
BRANCH   6  26
ATOM     26  O   UNL     1      -3.221 -22.476  43.063  1.00  0.00    -0.346 OA
BRANCH  26  27
ATOM     27  C   UNL     1      -3.930 -22.629  41.801  1.00  0.00     0.130 C 
ATOM     28  C   UNL     1      -3.947 -21.208  41.183  1.00  0.00     0.033 C 
ATOM     29  C   UNL     1      -3.117 -23.532  40.747  1.00  0.00     0.020 C 
ATOM     30  C   UNL     1      -2.491 -20.571  41.244  1.00  0.00     0.010 C 
ATOM     31  C   UNL     1      -1.623 -22.942  40.832  1.00  0.00     0.006 C 
ATOM     32  C   UNL     1      -3.284 -24.997  41.203  1.00  0.00     0.017 C 
ATOM     33  C   UNL     1      -1.409 -21.416  40.375  1.00  0.00    -0.022 C 
ATOM     34  C   UNL     1      -0.421 -23.908  40.648  1.00  0.00     0.005 C 
ATOM     35  C   UNL     1      -1.790 -21.167  38.875  1.00  0.00     0.012 C 
ATOM     36  C   UNL     1       0.136 -20.905  40.467  1.00  0.00     0.024 C 
ATOM     37  C   UNL     1       0.844 -23.262  41.278  1.00  0.00     0.008 C 
ATOM     38  C   UNL     1       1.319 -21.988  40.541  1.00  0.00    -0.017 C 
ATOM     39  C   UNL     1       0.355 -19.648  41.317  1.00  0.00    -0.024 C 
ATOM     40  C   UNL     1       1.614 -22.476  39.076  1.00  0.00     0.013 C 
ATOM     41  C   UNL     1       2.643 -21.344  41.276  1.00  0.00     0.009 C 
ATOM     42  C   UNL     1       1.553 -19.064  41.376  1.00  0.00     0.005 C 
ATOM     43  C   UNL     1       2.778 -19.800  40.844  1.00  0.00     0.096 C 
ATOM     44  C   UNL     1       3.943 -22.119  40.917  1.00  0.00     0.043 C 
ATOM     45  C   UNL     1       2.485 -21.433  42.849  1.00  0.00     0.015 C 
ATOM     46  C   UNL     1       4.097 -19.070  41.199  1.00  0.00     0.037 C 
ATOM     47  O   UNL     1       2.808 -19.764  39.421  1.00  0.00    -0.369 OA
ATOM     48  C   UNL     1       5.253 -21.272  40.947  1.00  0.00     0.124 C 
ATOM     49  C   UNL     1       5.040 -19.834  40.330  1.00  0.00     0.026 C 
ATOM     50  C   UNL     1       4.663 -18.671  42.591  1.00  0.00     0.014 C 
ATOM     51  C   UNL     1       4.191 -19.885  39.036  1.00  0.00     0.171 C 
ATOM     52  C   UNL     1       6.373 -19.076  40.152  1.00  0.00     0.013 C 
ATOM     53  C   UNL     1       6.063 -17.980  42.493  1.00  0.00    -0.035 C 
ATOM     54  C   UNL     1       6.994 -18.758  41.528  1.00  0.00     0.007 C 
ATOM     55  C   UNL     1       6.677 -17.961  43.881  1.00  0.00     0.011 C 
ATOM     56  C   UNL     1       5.910 -16.513  42.006  1.00  0.00     0.011 C 
BRANCH  29  57
ATOM     57  C   UNL     1      -3.637 -23.582  39.203  1.00  0.00     0.165 C 
BRANCH  57  58
ATOM     58  O   UNL     1      -4.879 -24.220  39.097  1.00  0.00    -0.396 OA
ATOM     59  H   UNL     1      -4.937 -24.802  39.905  1.00  0.00     0.210 HD
ENDBRANCH  57  58
ENDBRANCH  29  57
BRANCH  48  60
ATOM     60  O   UNL     1       6.273 -21.989  40.246  1.00  0.00    -0.392 OA
ATOM     61  H   UNL     1       6.559 -21.355  39.521  1.00  0.00     0.210 HD
ENDBRANCH  48  60
ENDBRANCH  26  27
ENDBRANCH   6  26
BRANCH   5  62
ATOM     62  O   UNL     1      -5.198 -21.475  44.768  1.00  0.00    -0.385 OA
ATOM     63  H   UNL     1      -4.835 -20.791  44.153  1.00  0.00     0.211 HD
ENDBRANCH   5  62
TORSDOF 14
ENDMDL
MODEL 6
REMARK VINA RESULT:    -7.755      2.711      7.839
REMARK INTER + INTRA:         -14.290
REMARK INTER:                 -12.446
REMARK INTRA:                  -1.844
REMARK UNBOUND:                -2.000
REMARK SMILES C[C@@H]1O[C@H](O[C@H]2CC[C@]3(C)[C@H](CC[C@@]4(C)[C@@H]3C=C[C@@]35OC[C@]6(CCC(C)(C)C[C@@H]63)[C@H](O)C[C@]45C)[C@]2(C)CO)[C@@H](O)[C@H](O[C@H]2O[C@@H](CO)[C@H](O)[C@@H](O)[C@H]2O)[C@H]1O
REMARK SMILES IDX 1 1 2 2 54 3 41 4 39 5 4 6 3 7 55 8 42 10 43 11 52 12 44 13
REMARK SMILES IDX 50 14 45 15 48 16 53 17 51 19 46 21 47 22 49 24 5 26 6 27
REMARK SMILES IDX 7 28 35 29 8 30 11 31 36 32 9 33 12 34 10 35 16 36 13 37
REMARK SMILES IDX 14 38 17 39 15 40 33 41 18 42 19 43 32 44 34 45 29 46 20 47
REMARK SMILES IDX 30 48 22 49 28 50 21 51 23 52 25 53 24 54 26 55 27 56 37 57
REMARK SMILES IDX 38 58 31 60 40 62
REMARK H PARENT 55 9 53 18 51 20 47 23 49 25 38 59 31 61 40 63
REMARK Flexibility Score: inf
ROOT
ATOM      1  C   UNL     1       0.908 -21.360  48.839  1.00  0.00     0.041 C 
ATOM      2  C   UNL     1       0.607 -22.563  47.928  1.00  0.00     0.150 C 
ATOM      3  C   UNL     1      -0.900 -23.002  48.032  1.00  0.00     0.175 C 
ATOM      4  C   UNL     1      -1.880 -22.036  47.326  1.00  0.00     0.186 C 
ATOM      5  C   UNL     1      -1.132 -21.230  46.217  1.00  0.00     0.202 C 
ATOM      6  C   UNL     1       0.141 -22.011  45.627  1.00  0.00     0.282 C 
ATOM      7  O   UNL     1       1.123 -22.325  46.624  1.00  0.00    -0.344 OA
ENDROOT
BRANCH   3   8
ATOM      8  O   UNL     1      -1.072 -24.321  47.581  1.00  0.00    -0.388 OA
ATOM      9  H   UNL     1      -2.019 -24.352  47.223  1.00  0.00     0.211 HD
ENDBRANCH   3   8
BRANCH   4  10
ATOM     10  O   UNL     1      -2.535 -21.126  48.236  1.00  0.00    -0.341 OA
BRANCH  10  11
ATOM     11  C   UNL     1      -3.905 -20.833  47.866  1.00  0.00     0.282 C 
ATOM     12  C   UNL     1      -4.894 -20.378  49.006  1.00  0.00     0.202 C 
ATOM     13  O   UNL     1      -4.467 -21.956  47.188  1.00  0.00    -0.341 OA
ATOM     14  C   UNL     1      -5.381 -21.496  49.960  1.00  0.00     0.179 C 
ATOM     15  C   UNL     1      -5.143 -22.939  47.970  1.00  0.00     0.178 C 
ATOM     16  C   UNL     1      -4.877 -22.884  49.471  1.00  0.00     0.177 C 
BRANCH  12  17
ATOM     17  O   UNL     1      -4.451 -19.250  49.751  1.00  0.00    -0.385 OA
ATOM     18  H   UNL     1      -5.151 -19.083  50.482  1.00  0.00     0.211 HD
ENDBRANCH  12  17
BRANCH  14  19
ATOM     19  O   UNL     1      -5.026 -21.245  51.305  1.00  0.00    -0.387 OA
ATOM     20  H   UNL     1      -5.315 -20.327  51.492  1.00  0.00     0.211 HD
ENDBRANCH  14  19
BRANCH  15  21
ATOM     21  C   UNL     1      -4.796 -24.368  47.432  1.00  0.00     0.191 C 
BRANCH  21  22
ATOM     22  O   UNL     1      -3.753 -24.977  48.157  1.00  0.00    -0.394 OA
ATOM     23  H   UNL     1      -3.471 -25.784  47.624  1.00  0.00     0.210 HD
ENDBRANCH  21  22
ENDBRANCH  15  21
BRANCH  16  24
ATOM     24  O   UNL     1      -5.625 -23.910  50.125  1.00  0.00    -0.387 OA
ATOM     25  H   UNL     1      -5.565 -24.717  49.562  1.00  0.00     0.211 HD
ENDBRANCH  16  24
ENDBRANCH  10  11
ENDBRANCH   4  10
BRANCH   6  26
ATOM     26  O   UNL     1       0.720 -21.179  44.593  1.00  0.00    -0.346 OA
BRANCH  26  27
ATOM     27  C   UNL     1       1.467 -21.680  43.448  1.00  0.00     0.130 C 
ATOM     28  C   UNL     1       0.750 -22.995  43.053  1.00  0.00     0.033 C 
ATOM     29  C   UNL     1       1.328 -20.726  42.160  1.00  0.00     0.020 C 
ATOM     30  C   UNL     1      -0.821 -22.756  42.977  1.00  0.00     0.010 C 
ATOM     31  C   UNL     1      -0.250 -20.424  42.096  1.00  0.00     0.006 C 
ATOM     32  C   UNL     1       2.233 -19.503  42.420  1.00  0.00     0.017 C 
ATOM     33  C   UNL     1      -1.227 -21.673  41.837  1.00  0.00    -0.022 C 
ATOM     34  C   UNL     1      -0.730 -19.036  41.589  1.00  0.00     0.005 C 
ATOM     35  C   UNL     1      -0.960 -22.386  40.467  1.00  0.00     0.012 C 
ATOM     36  C   UNL     1      -2.806 -21.276  41.760  1.00  0.00     0.024 C 
ATOM     37  C   UNL     1      -2.176 -18.787  42.100  1.00  0.00     0.008 C 
ATOM     38  C   UNL     1      -3.222 -19.749  41.490  1.00  0.00    -0.017 C 
ATOM     39  C   UNL     1      -3.714 -22.032  42.738  1.00  0.00    -0.024 C 
ATOM     40  C   UNL     1      -3.127 -19.493  39.942  1.00  0.00     0.013 C 
ATOM     41  C   UNL     1      -4.722 -19.446  42.094  1.00  0.00     0.009 C 
ATOM     42  C   UNL     1      -5.039 -21.882  42.693  1.00  0.00     0.005 C 
ATOM     43  C   UNL     1      -5.644 -20.746  41.875  1.00  0.00     0.096 C 
ATOM     44  C   UNL     1      -5.378 -18.203  41.428  1.00  0.00     0.043 C 
ATOM     45  C   UNL     1      -4.627 -19.130  43.643  1.00  0.00     0.015 C 
ATOM     46  C   UNL     1      -7.165 -20.595  42.122  1.00  0.00     0.037 C 
ATOM     47  O   UNL     1      -5.611 -21.053  40.486  1.00  0.00    -0.369 OA
ATOM     48  C   UNL     1      -6.936 -18.219  41.376  1.00  0.00     0.124 C 
ATOM     49  C   UNL     1      -7.499 -19.651  41.014  1.00  0.00     0.026 C 
ATOM     50  C   UNL     1      -7.932 -20.345  43.451  1.00  0.00     0.014 C 
ATOM     51  C   UNL     1      -6.687 -20.315  39.875  1.00  0.00     0.171 C 
ATOM     52  C   UNL     1      -9.018 -19.625  40.742  1.00  0.00     0.013 C 
ATOM     53  C   UNL     1      -9.475 -20.213  43.237  1.00  0.00    -0.035 C 
ATOM     54  C   UNL     1      -9.786 -19.283  42.035  1.00  0.00     0.007 C 
ATOM     55  C   UNL     1     -10.078 -19.625  44.500  1.00  0.00     0.011 C 
ATOM     56  C   UNL     1     -10.111 -21.610  42.998  1.00  0.00     0.011 C 
BRANCH  29  57
ATOM     57  C   UNL     1       1.876 -21.272  40.726  1.00  0.00     0.165 C 
BRANCH  57  58
ATOM     58  O   UNL     1       2.091 -20.225  39.822  1.00  0.00    -0.396 OA
ATOM     59  H   UNL     1       2.374 -20.671  38.976  1.00  0.00     0.210 HD
ENDBRANCH  57  58
ENDBRANCH  29  57
BRANCH  48  60
ATOM     60  O   UNL     1      -7.370 -17.241  40.427  1.00  0.00    -0.392 OA
ATOM     61  H   UNL     1      -7.306 -17.714  39.544  1.00  0.00     0.210 HD
ENDBRANCH  48  60
ENDBRANCH  26  27
ENDBRANCH   6  26
BRANCH   5  62
ATOM     62  O   UNL     1      -2.008 -20.942  45.153  1.00  0.00    -0.385 OA
ATOM     63  H   UNL     1      -1.780 -21.560  44.415  1.00  0.00     0.211 HD
ENDBRANCH   5  62
TORSDOF 14
ENDMDL
MODEL 7
REMARK VINA RESULT:    -7.731      2.780      4.603
REMARK INTER + INTRA:         -14.250
REMARK INTER:                 -12.815
REMARK INTRA:                  -1.435
REMARK UNBOUND:                -2.000
REMARK SMILES C[C@@H]1O[C@H](O[C@H]2CC[C@]3(C)[C@H](CC[C@@]4(C)[C@@H]3C=C[C@@]35OC[C@]6(CCC(C)(C)C[C@@H]63)[C@H](O)C[C@]45C)[C@]2(C)CO)[C@@H](O)[C@H](O[C@H]2O[C@@H](CO)[C@H](O)[C@@H](O)[C@H]2O)[C@H]1O
REMARK SMILES IDX 1 1 2 2 54 3 41 4 39 5 4 6 3 7 55 8 42 10 43 11 52 12 44 13
REMARK SMILES IDX 50 14 45 15 48 16 53 17 51 19 46 21 47 22 49 24 5 26 6 27
REMARK SMILES IDX 7 28 35 29 8 30 11 31 36 32 9 33 12 34 10 35 16 36 13 37
REMARK SMILES IDX 14 38 17 39 15 40 33 41 18 42 19 43 32 44 34 45 29 46 20 47
REMARK SMILES IDX 30 48 22 49 28 50 21 51 23 52 25 53 24 54 26 55 27 56 37 57
REMARK SMILES IDX 38 58 31 60 40 62
REMARK H PARENT 55 9 53 18 51 20 47 23 49 25 38 59 31 61 40 63
REMARK Flexibility Score: inf
ROOT
ATOM      1  C   UNL     1      -0.768 -23.050  46.740  1.00  0.00     0.041 C 
ATOM      2  C   UNL     1      -1.775 -23.407  45.632  1.00  0.00     0.150 C 
ATOM      3  C   UNL     1      -3.259 -23.273  46.138  1.00  0.00     0.175 C 
ATOM      4  C   UNL     1      -3.733 -21.809  46.299  1.00  0.00     0.186 C 
ATOM      5  C   UNL     1      -2.882 -20.869  45.388  1.00  0.00     0.202 C 
ATOM      6  C   UNL     1      -2.285 -21.617  44.098  1.00  0.00     0.282 C 
ATOM      7  O   UNL     1      -1.437 -22.725  44.431  1.00  0.00    -0.344 OA
ENDROOT
BRANCH   3   8
ATOM      8  O   UNL     1      -4.137 -24.006  45.321  1.00  0.00    -0.388 OA
ATOM      9  H   UNL     1      -3.639 -24.862  45.109  1.00  0.00     0.211 HD
ENDBRANCH   3   8
BRANCH   4  10
ATOM     10  O   UNL     1      -3.684 -21.344  47.665  1.00  0.00    -0.341 OA
BRANCH  10  11
ATOM     11  C   UNL     1      -4.224 -22.298  48.614  1.00  0.00     0.282 C 
ATOM     12  C   UNL     1      -5.228 -21.762  49.705  1.00  0.00     0.202 C 
ATOM     13  O   UNL     1      -3.153 -22.979  49.267  1.00  0.00    -0.341 OA
ATOM     14  C   UNL     1      -4.596 -20.953  50.863  1.00  0.00     0.179 C 
ATOM     15  C   UNL     1      -2.649 -22.423  50.480  1.00  0.00     0.178 C 
ATOM     16  C   UNL     1      -3.044 -20.977  50.756  1.00  0.00     0.177 C 
BRANCH  12  17
ATOM     17  O   UNL     1      -6.354 -21.072  49.176  1.00  0.00    -0.385 OA
ATOM     18  H   UNL     1      -6.033 -20.576  48.338  1.00  0.00     0.211 HD
ENDBRANCH  12  17
BRANCH  14  19
ATOM     19  O   UNL     1      -5.104 -19.636  50.937  1.00  0.00    -0.387 OA
ATOM     20  H   UNL     1      -5.300 -19.478  51.885  1.00  0.00     0.211 HD
ENDBRANCH  14  19
BRANCH  15  21
ATOM     21  C   UNL     1      -1.088 -22.551  50.507  1.00  0.00     0.191 C 
BRANCH  21  22
ATOM     22  O   UNL     1      -0.451 -21.498  49.821  1.00  0.00    -0.394 OA
ATOM     23  H   UNL     1      -0.747 -20.646  50.271  1.00  0.00     0.210 HD
ENDBRANCH  21  22
ENDBRANCH  15  21
BRANCH  16  24
ATOM     24  O   UNL     1      -2.483 -20.559  52.002  1.00  0.00    -0.387 OA
ATOM     25  H   UNL     1      -2.555 -19.577  52.038  1.00  0.00     0.211 HD
ENDBRANCH  16  24
ENDBRANCH  10  11
ENDBRANCH   4  10
BRANCH   6  26
ATOM     26  O   UNL     1      -1.553 -20.636  43.326  1.00  0.00    -0.346 OA
BRANCH  26  27
ATOM     27  C   UNL     1      -1.780 -20.354  41.916  1.00  0.00     0.130 C 
ATOM     28  C   UNL     1      -0.925 -19.097  41.621  1.00  0.00     0.033 C 
ATOM     29  C   UNL     1      -1.183 -21.499  40.957  1.00  0.00     0.020 C 
ATOM     30  C   UNL     1       0.544 -19.291  42.201  1.00  0.00     0.010 C 
ATOM     31  C   UNL     1       0.286 -21.753  41.561  1.00  0.00     0.006 C 
ATOM     32  C   UNL     1      -2.156 -22.694  41.042  1.00  0.00     0.017 C 
ATOM     33  C   UNL     1       1.326 -20.530  41.501  1.00  0.00    -0.022 C 
ATOM     34  C   UNL     1       0.881 -23.188  41.513  1.00  0.00     0.005 C 
ATOM     35  C   UNL     1       1.635 -20.059  40.038  1.00  0.00     0.012 C 
ATOM     36  C   UNL     1       2.798 -20.879  42.109  1.00  0.00     0.024 C 
ATOM     37  C   UNL     1       2.006 -23.301  42.579  1.00  0.00     0.008 C 
ATOM     38  C   UNL     1       3.237 -22.415  42.275  1.00  0.00    -0.017 C 
ATOM     39  C   UNL     1       3.279 -19.944  43.225  1.00  0.00    -0.024 C 
ATOM     40  C   UNL     1       3.742 -22.923  40.875  1.00  0.00     0.013 C 
ATOM     41  C   UNL     1       4.375 -22.564  43.454  1.00  0.00     0.009 C 
ATOM     42  C   UNL     1       4.512 -20.053  43.722  1.00  0.00     0.005 C 
ATOM     43  C   UNL     1       5.350 -21.286  43.401  1.00  0.00     0.096 C 
ATOM     44  C   UNL     1       5.197 -23.876  43.307  1.00  0.00     0.043 C 
ATOM     45  C   UNL     1       3.675 -22.626  44.874  1.00  0.00     0.015 C 
ATOM     46  C   UNL     1       6.651 -21.343  44.240  1.00  0.00     0.037 C 
ATOM     47  O   UNL     1       5.869 -21.210  42.077  1.00  0.00    -0.369 OA
ATOM     48  C   UNL     1       6.653 -23.814  43.862  1.00  0.00     0.124 C 
ATOM     49  C   UNL     1       7.358 -22.442  43.519  1.00  0.00     0.026 C 
ATOM     50  C   UNL     1       6.832 -21.346  45.783  1.00  0.00     0.014 C 
ATOM     51  C   UNL     1       7.074 -22.000  42.062  1.00  0.00     0.171 C 
ATOM     52  C   UNL     1       8.862 -22.460  43.865  1.00  0.00     0.013 C 
ATOM     53  C   UNL     1       8.333 -21.458  46.210  1.00  0.00    -0.035 C 
ATOM     54  C   UNL     1       9.056 -22.559  45.392  1.00  0.00     0.007 C 
ATOM     55  C   UNL     1       8.379 -21.812  47.685  1.00  0.00     0.011 C 
ATOM     56  C   UNL     1       9.056 -20.098  46.011  1.00  0.00     0.011 C 
BRANCH  29  57
ATOM     57  C   UNL     1      -1.114 -21.213  39.355  1.00  0.00     0.165 C 
BRANCH  57  58
ATOM     58  O   UNL     1      -2.306 -20.656  38.877  1.00  0.00    -0.396 OA
ATOM     59  H   UNL     1      -2.292 -20.825  37.894  1.00  0.00     0.210 HD
ENDBRANCH  57  58
ENDBRANCH  29  57
BRANCH  48  60
ATOM     60  O   UNL     1       7.390 -24.919  43.329  1.00  0.00    -0.392 OA
ATOM     61  H   UNL     1       6.706 -25.651  43.253  1.00  0.00     0.210 HD
ENDBRANCH  48  60
ENDBRANCH  26  27
ENDBRANCH   6  26
BRANCH   5  62
ATOM     62  O   UNL     1      -3.664 -19.783  44.948  1.00  0.00    -0.385 OA
ATOM     63  H   UNL     1      -4.222 -19.500  45.714  1.00  0.00     0.211 HD
ENDBRANCH   5  62
TORSDOF 14
ENDMDL
MODEL 8
REMARK VINA RESULT:    -7.644      1.938      3.673
REMARK INTER + INTRA:         -14.113
REMARK INTER:                 -12.062
REMARK INTRA:                  -2.051
REMARK UNBOUND:                -2.000
REMARK SMILES C[C@@H]1O[C@H](O[C@H]2CC[C@]3(C)[C@H](CC[C@@]4(C)[C@@H]3C=C[C@@]35OC[C@]6(CCC(C)(C)C[C@@H]63)[C@H](O)C[C@]45C)[C@]2(C)CO)[C@@H](O)[C@H](O[C@H]2O[C@@H](CO)[C@H](O)[C@@H](O)[C@H]2O)[C@H]1O
REMARK SMILES IDX 1 1 2 2 54 3 41 4 39 5 4 6 3 7 55 8 42 10 43 11 52 12 44 13
REMARK SMILES IDX 50 14 45 15 48 16 53 17 51 19 46 21 47 22 49 24 5 26 6 27
REMARK SMILES IDX 7 28 35 29 8 30 11 31 36 32 9 33 12 34 10 35 16 36 13 37
REMARK SMILES IDX 14 38 17 39 15 40 33 41 18 42 19 43 32 44 34 45 29 46 20 47
REMARK SMILES IDX 30 48 22 49 28 50 21 51 23 52 25 53 24 54 26 55 27 56 37 57
REMARK SMILES IDX 38 58 31 60 40 62
REMARK H PARENT 55 9 53 18 51 20 47 23 49 25 38 59 31 61 40 63
REMARK Flexibility Score: inf
ROOT
ATOM      1  C   UNL     1      -4.688 -23.125  44.528  1.00  0.00     0.041 C 
ATOM      2  C   UNL     1      -4.708 -21.586  44.526  1.00  0.00     0.150 C 
ATOM      3  C   UNL     1      -4.280 -21.003  45.923  1.00  0.00     0.175 C 
ATOM      4  C   UNL     1      -2.767 -21.128  46.214  1.00  0.00     0.186 C 
ATOM      5  C   UNL     1      -1.972 -21.239  44.875  1.00  0.00     0.202 C 
ATOM      6  C   UNL     1      -2.723 -20.540  43.640  1.00  0.00     0.282 C 
ATOM      7  O   UNL     1      -4.021 -21.094  43.382  1.00  0.00    -0.344 OA
ENDROOT
BRANCH   3   8
ATOM      8  O   UNL     1      -4.719 -19.676  46.069  1.00  0.00    -0.388 OA
ATOM      9  H   UNL     1      -4.921 -19.576  47.056  1.00  0.00     0.211 HD
ENDBRANCH   3   8
BRANCH   4  10
ATOM     10  O   UNL     1      -2.444 -22.245  47.070  1.00  0.00    -0.341 OA
BRANCH  10  11
ATOM     11  C   UNL     1      -1.993 -21.845  48.388  1.00  0.00     0.282 C 
ATOM     12  C   UNL     1      -1.442 -22.966  49.349  1.00  0.00     0.202 C 
ATOM     13  O   UNL     1      -3.039 -21.138  49.056  1.00  0.00    -0.341 OA
ATOM     14  C   UNL     1      -2.507 -23.893  49.984  1.00  0.00     0.179 C 
ATOM     15  C   UNL     1      -3.946 -21.891  49.859  1.00  0.00     0.178 C 
ATOM     16  C   UNL     1      -3.937 -23.398  49.628  1.00  0.00     0.177 C 
BRANCH  12  17
ATOM     17  O   UNL     1      -0.379 -23.737  48.801  1.00  0.00    -0.385 OA
ATOM     18  H   UNL     1       0.245 -23.978  49.579  1.00  0.00     0.211 HD
ENDBRANCH  12  17
BRANCH  14  19
ATOM     19  O   UNL     1      -2.312 -25.249  49.639  1.00  0.00    -0.387 OA
ATOM     20  H   UNL     1      -1.994 -25.247  48.711  1.00  0.00     0.211 HD
ENDBRANCH  14  19
BRANCH  15  21
ATOM     21  C   UNL     1      -5.400 -21.342  49.662  1.00  0.00     0.191 C 
BRANCH  21  22
ATOM     22  O   UNL     1      -6.120 -22.065  48.691  1.00  0.00    -0.394 OA
ATOM     23  H   UNL     1      -5.796 -21.736  47.795  1.00  0.00     0.210 HD
ENDBRANCH  21  22
ENDBRANCH  15  21
BRANCH  16  24
ATOM     24  O   UNL     1      -4.879 -24.019  50.504  1.00  0.00    -0.387 OA
ATOM     25  H   UNL     1      -4.394 -24.718  51.003  1.00  0.00     0.211 HD
ENDBRANCH  16  24
ENDBRANCH  10  11
ENDBRANCH   4  10
BRANCH   6  26
ATOM     26  O   UNL     1      -1.874 -20.682  42.477  1.00  0.00    -0.346 OA
BRANCH  26  27
ATOM     27  C   UNL     1      -2.225 -21.435  41.281  1.00  0.00     0.130 C 
ATOM     28  C   UNL     1      -1.794 -20.528  40.102  1.00  0.00     0.033 C 
ATOM     29  C   UNL     1      -1.348 -22.774  41.120  1.00  0.00     0.020 C 
ATOM     30  C   UNL     1      -0.314 -19.994  40.339  1.00  0.00     0.010 C 
ATOM     31  C   UNL     1       0.151 -22.268  41.413  1.00  0.00     0.006 C 
ATOM     32  C   UNL     1      -1.917 -23.795  42.127  1.00  0.00     0.017 C 
ATOM     33  C   UNL     1       0.777 -21.196  40.392  1.00  0.00    -0.022 C 
ATOM     34  C   UNL     1       1.144 -23.230  42.122  1.00  0.00     0.005 C 
ATOM     35  C   UNL     1       0.878 -21.734  38.924  1.00  0.00     0.012 C 
ATOM     36  C   UNL     1       2.306 -20.757  40.746  1.00  0.00     0.024 C 
ATOM     37  C   UNL     1       2.289 -22.392  42.755  1.00  0.00     0.008 C 
ATOM     38  C   UNL     1       3.188 -21.686  41.713  1.00  0.00    -0.017 C 
ATOM     39  C   UNL     1       2.526 -19.250  40.919  1.00  0.00    -0.024 C 
ATOM     40  C   UNL     1       3.771 -22.862  40.848  1.00  0.00     0.013 C 
ATOM     41  C   UNL     1       4.360 -20.799  42.453  1.00  0.00     0.009 C 
ATOM     42  C   UNL     1       3.753 -18.755  41.094  1.00  0.00     0.005 C 
ATOM     43  C   UNL     1       4.907 -19.696  41.418  1.00  0.00     0.096 C 
ATOM     44  C   UNL     1       5.530 -21.688  42.962  1.00  0.00     0.043 C 
ATOM     45  C   UNL     1       3.762 -20.069  43.724  1.00  0.00     0.015 C 
ATOM     46  C   UNL     1       6.195 -18.928  41.806  1.00  0.00     0.037 C 
ATOM     47  O   UNL     1       5.333 -20.391  40.251  1.00  0.00    -0.369 OA
ATOM     48  C   UNL     1       6.921 -20.985  43.027  1.00  0.00     0.124 C 
ATOM     49  C   UNL     1       7.172 -20.056  41.774  1.00  0.00     0.026 C 
ATOM     50  C   UNL     1       6.425 -17.893  42.943  1.00  0.00     0.014 C 
ATOM     51  C   UNL     1       6.717 -20.734  40.458  1.00  0.00     0.171 C 
ATOM     52  C   UNL     1       8.624 -19.537  41.719  1.00  0.00     0.013 C 
ATOM     53  C   UNL     1       7.905 -17.391  43.007  1.00  0.00    -0.035 C 
ATOM     54  C   UNL     1       8.893 -18.581  42.899  1.00  0.00     0.007 C 
ATOM     55  C   UNL     1       8.106 -16.686  44.336  1.00  0.00     0.011 C 
ATOM     56  C   UNL     1       8.182 -16.374  41.868  1.00  0.00     0.011 C 
BRANCH  29  57
ATOM     57  C   UNL     1      -1.424 -23.587  39.710  1.00  0.00     0.165 C 
BRANCH  57  58
ATOM     58  O   UNL     1      -0.997 -24.913  39.855  1.00  0.00    -0.396 OA
ATOM     59  H   UNL     1      -0.219 -25.000  39.238  1.00  0.00     0.210 HD
ENDBRANCH  57  58
ENDBRANCH  29  57
BRANCH  48  60
ATOM     60  O   UNL     1       7.933 -21.990  43.135  1.00  0.00    -0.392 OA
ATOM     61  H   UNL     1       7.867 -22.300  44.088  1.00  0.00     0.210 HD
ENDBRANCH  48  60
ENDBRANCH  26  27
ENDBRANCH   6  26
BRANCH   5  62
ATOM     62  O   UNL     1      -0.702 -20.646  45.014  1.00  0.00    -0.385 OA
ATOM     63  H   UNL     1      -0.548 -20.517  45.982  1.00  0.00     0.211 HD
ENDBRANCH   5  62
TORSDOF 14
ENDMDL
MODEL 9
REMARK VINA RESULT:    -7.547      3.257      5.549
REMARK INTER + INTRA:         -13.959
REMARK INTER:                 -12.462
REMARK INTRA:                  -1.497
REMARK UNBOUND:                -2.000
REMARK SMILES C[C@@H]1O[C@H](O[C@H]2CC[C@]3(C)[C@H](CC[C@@]4(C)[C@@H]3C=C[C@@]35OC[C@]6(CCC(C)(C)C[C@@H]63)[C@H](O)C[C@]45C)[C@]2(C)CO)[C@@H](O)[C@H](O[C@H]2O[C@@H](CO)[C@H](O)[C@@H](O)[C@H]2O)[C@H]1O
REMARK SMILES IDX 1 1 2 2 54 3 41 4 39 5 4 6 3 7 55 8 42 10 43 11 52 12 44 13
REMARK SMILES IDX 50 14 45 15 48 16 53 17 51 19 46 21 47 22 49 24 5 26 6 27
REMARK SMILES IDX 7 28 35 29 8 30 11 31 36 32 9 33 12 34 10 35 16 36 13 37
REMARK SMILES IDX 14 38 17 39 15 40 33 41 18 42 19 43 32 44 34 45 29 46 20 47
REMARK SMILES IDX 30 48 22 49 28 50 21 51 23 52 25 53 24 54 26 55 27 56 37 57
REMARK SMILES IDX 38 58 31 60 40 62
REMARK H PARENT 55 9 53 18 51 20 47 23 49 25 38 59 31 61 40 63
REMARK Flexibility Score: inf
ROOT
ATOM      1  C   UNL     1      -2.680 -23.679  43.706  1.00  0.00     0.041 C 
ATOM      2  C   UNL     1      -3.263 -22.456  42.978  1.00  0.00     0.150 C 
ATOM      3  C   UNL     1      -3.893 -21.429  43.991  1.00  0.00     0.175 C 
ATOM      4  C   UNL     1      -2.846 -20.631  44.802  1.00  0.00     0.186 C 
ATOM      5  C   UNL     1      -1.489 -20.592  44.031  1.00  0.00     0.202 C 
ATOM      6  C   UNL     1      -1.667 -20.729  42.441  1.00  0.00     0.282 C 
ATOM      7  O   UNL     1      -2.315 -21.947  42.048  1.00  0.00    -0.344 OA
ENDROOT
BRANCH   3   8
ATOM      8  O   UNL     1      -4.796 -20.572  43.340  1.00  0.00    -0.388 OA
ATOM      9  H   UNL     1      -4.247 -19.757  43.092  1.00  0.00     0.211 HD
ENDBRANCH   3   8
BRANCH   4  10
ATOM     10  O   UNL     1      -2.640 -21.153  46.132  1.00  0.00    -0.341 OA
BRANCH  10  11
ATOM     11  C   UNL     1      -3.777 -21.895  46.638  1.00  0.00     0.282 C 
ATOM     12  C   UNL     1      -4.605 -21.259  47.820  1.00  0.00     0.202 C 
ATOM     13  O   UNL     1      -3.359 -23.205  47.021  1.00  0.00    -0.341 OA
ATOM     14  C   UNL     1      -3.937 -21.312  49.215  1.00  0.00     0.179 C 
ATOM     15  C   UNL     1      -2.936 -23.404  48.369  1.00  0.00     0.178 C 
ATOM     16  C   UNL     1      -2.620 -22.137  49.154  1.00  0.00     0.177 C 
BRANCH  12  17
ATOM     17  O   UNL     1      -5.093 -19.949  47.554  1.00  0.00    -0.385 OA
ATOM     18  H   UNL     1      -5.231 -19.493  48.463  1.00  0.00     0.211 HD
ENDBRANCH  12  17
BRANCH  14  19
ATOM     19  O   UNL     1      -3.733 -20.024  49.761  1.00  0.00    -0.387 OA
ATOM     20  H   UNL     1      -3.028 -19.612  49.219  1.00  0.00     0.211 HD
ENDBRANCH  14  19
BRANCH  15  21
ATOM     21  C   UNL     1      -1.692 -24.356  48.393  1.00  0.00     0.191 C 
BRANCH  21  22
ATOM     22  O   UNL     1      -1.817 -25.380  49.352  1.00  0.00    -0.394 OA
ATOM     23  H   UNL     1      -1.638 -24.954  50.247  1.00  0.00     0.210 HD
ENDBRANCH  21  22
ENDBRANCH  15  21
BRANCH  16  24
ATOM     24  O   UNL     1      -2.224 -22.485  50.482  1.00  0.00    -0.387 OA
ATOM     25  H   UNL     1      -1.763 -21.702  50.862  1.00  0.00     0.211 HD
ENDBRANCH  16  24
ENDBRANCH  10  11
ENDBRANCH   4  10
BRANCH   6  26
ATOM     26  O   UNL     1      -0.350 -20.644  41.846  1.00  0.00    -0.346 OA
BRANCH  26  27
ATOM     27  C   UNL     1      -0.029 -21.039  40.482  1.00  0.00     0.130 C 
ATOM     28  C   UNL     1       1.005 -19.991  40.000  1.00  0.00     0.033 C 
ATOM     29  C   UNL     1       0.743 -22.449  40.417  1.00  0.00     0.020 C 
ATOM     30  C   UNL     1       2.142 -19.806  41.098  1.00  0.00     0.010 C 
ATOM     31  C   UNL     1       1.865 -22.306  41.560  1.00  0.00     0.006 C 
ATOM     32  C   UNL     1      -0.320 -23.543  40.656  1.00  0.00     0.017 C 
ATOM     33  C   UNL     1       2.984 -21.171  41.353  1.00  0.00    -0.022 C 
ATOM     34  C   UNL     1       2.280 -23.566  42.368  1.00  0.00     0.005 C 
ATOM     35  C   UNL     1       3.841 -21.384  40.058  1.00  0.00     0.012 C 
ATOM     36  C   UNL     1       4.097 -21.112  42.543  1.00  0.00     0.024 C 
ATOM     37  C   UNL     1       2.934 -23.115  43.703  1.00  0.00     0.008 C 
ATOM     38  C   UNL     1       4.280 -22.377  43.514  1.00  0.00    -0.017 C 
ATOM     39  C   UNL     1       4.248 -19.746  43.224  1.00  0.00    -0.024 C 
ATOM     40  C   UNL     1       5.192 -23.422  42.773  1.00  0.00     0.013 C 
ATOM     41  C   UNL     1       4.901 -21.906  44.963  1.00  0.00     0.009 C 
ATOM     42  C   UNL     1       5.204 -19.538  44.130  1.00  0.00     0.005 C 
ATOM     43  C   UNL     1       5.963 -20.724  44.714  1.00  0.00     0.096 C 
ATOM     44  C   UNL     1       5.576 -23.086  45.719  1.00  0.00     0.043 C 
ATOM     45  C   UNL     1       3.740 -21.374  45.900  1.00  0.00     0.015 C 
ATOM     46  C   UNL     1       6.867 -20.312  45.902  1.00  0.00     0.037 C 
ATOM     47  O   UNL     1       6.923 -21.213  43.783  1.00  0.00    -0.369 OA
ATOM     48  C   UNL     1       6.737 -22.684  46.679  1.00  0.00     0.124 C 
ATOM     49  C   UNL     1       7.661 -21.566  46.051  1.00  0.00     0.026 C 
ATOM     50  C   UNL     1       6.487 -19.612  47.237  1.00  0.00     0.014 C 
ATOM     51  C   UNL     1       7.963 -21.843  44.558  1.00  0.00     0.171 C 
ATOM     52  C   UNL     1       8.933 -21.326  46.893  1.00  0.00     0.013 C 
ATOM     53  C   UNL     1       7.717 -19.419  48.184  1.00  0.00    -0.035 C 
ATOM     54  C   UNL     1       8.560 -20.719  48.260  1.00  0.00     0.007 C 
ATOM     55  C   UNL     1       7.197 -19.072  49.567  1.00  0.00     0.011 C 
ATOM     56  C   UNL     1       8.605 -18.246  47.688  1.00  0.00     0.011 C 
BRANCH  29  57
ATOM     57  C   UNL     1       1.408 -22.905  39.001  1.00  0.00     0.165 C 
BRANCH  57  58
ATOM     58  O   UNL     1       1.612 -24.289  38.949  1.00  0.00    -0.396 OA
ATOM     59  H   UNL     1       2.153 -24.437  38.124  1.00  0.00     0.210 HD
ENDBRANCH  57  58
ENDBRANCH  29  57
BRANCH  48  60
ATOM     60  O   UNL     1       7.491 -23.858  46.995  1.00  0.00    -0.392 OA
ATOM     61  H   UNL     1       7.404 -24.431  46.175  1.00  0.00     0.210 HD
ENDBRANCH  48  60
ENDBRANCH  26  27
ENDBRANCH   6  26
BRANCH   5  62
ATOM     62  O   UNL     1      -0.813 -19.386  44.299  1.00  0.00    -0.385 OA
ATOM     63  H   UNL     1      -0.701 -19.329  45.280  1.00  0.00     0.211 HD
ENDBRANCH   5  62
TORSDOF 14
ENDMDL
