MODEL 1
REMARK VINA RESULT:     3.557      0.000      0.000
REMARK INTER + INTRA:           5.385
REMARK INTER:                   4.804
REMARK INTRA:                   0.581
REMARK UNBOUND:                 0.581
REMARK SMILES C=CC(C)=CCC=C(C)CCC=C(C)C
REMARK SMILES IDX 8 1 7 2 9 3 10 4 11 5 12 6 14 7 13 8 15 9 6 10 5 11 3 12
REMARK SMILES IDX 4 13 2 14 1 15
REMARK H PARENT
REMARK Flexibility Score: inf
ROOT
ATOM      1  C   UNL     1      11.339   7.697  -7.065  1.00  0.00    -0.077 C 
ATOM      2  C   UNL     1       9.987   7.738  -7.031  1.00  0.00    -0.024 C 
ATOM      3  C   UNL     1      12.126   6.741  -6.201  1.00  0.00     0.039 C 
ENDROOT
BRANCH   1   4
ATOM      4  C   UNL     1      12.078   8.669  -7.958  1.00  0.00     0.034 C 
BRANCH   4   5
ATOM      5  C   UNL     1      11.817   8.358  -9.438  1.00  0.00     0.032 C 
BRANCH   5   6
ATOM      6  C   UNL     1      13.069   7.848 -10.107  1.00  0.00    -0.028 C 
ATOM      7  C   UNL     1      13.513  10.017 -11.276  1.00  0.00     0.039 C 
ATOM      8  C   UNL     1      13.858   8.592 -10.913  1.00  0.00    -0.080 C 
ATOM      9  C   UNL     1      15.104   7.960 -11.482  1.00  0.00     0.039 C 
ENDBRANCH   5   6
ENDBRANCH   4   5
ENDBRANCH   1   4
BRANCH   2  10
ATOM     10  C   UNL     1       9.129   6.832  -6.183  1.00  0.00     0.055 C 
BRANCH  10  11
ATOM     11  C   UNL     1       7.796   7.461  -5.875  1.00  0.00    -0.020 C 
ATOM     12  C   UNL     1       7.388   8.678  -6.297  1.00  0.00    -0.055 C 
ATOM     13  C   UNL     1       8.257   9.578  -7.149  1.00  0.00     0.044 C 
BRANCH  12  14
ATOM     14  C   UNL     1       6.021   9.122  -5.912  1.00  0.00    -0.005 C 
ATOM     15  C   UNL     1       5.634  10.399  -5.891  1.00  0.00     0.009 C 
ENDBRANCH  12  14
ENDBRANCH  10  11
ENDBRANCH   2  10
TORSDOF 6
ENDMDL
MODEL 2
REMARK VINA RESULT:     5.354      9.974     12.860
REMARK INTER + INTRA:           7.812
REMARK INTER:                   8.778
REMARK INTRA:                  -0.966
REMARK UNBOUND:                 0.581
REMARK SMILES C=CC(C)=CCC=C(C)CCC=C(C)C
REMARK SMILES IDX 8 1 7 2 9 3 10 4 11 5 12 6 14 7 13 8 15 9 6 10 5 11 3 12
REMARK SMILES IDX 4 13 2 14 1 15
REMARK H PARENT
REMARK Flexibility Score: inf
ROOT
ATOM      1  C   UNL     1       1.248   5.183  -9.582  1.00  0.00    -0.077 C 
ATOM      2  C   UNL     1       0.655   6.063 -10.422  1.00  0.00    -0.024 C 
ATOM      3  C   UNL     1       1.504   3.751  -9.984  1.00  0.00     0.039 C 
ENDROOT
BRANCH   1   4
ATOM      4  C   UNL     1       1.620   5.640  -8.188  1.00  0.00     0.034 C 
BRANCH   4   5
ATOM      5  C   UNL     1       0.381   5.709  -7.286  1.00  0.00     0.032 C 
BRANCH   5   6
ATOM      6  C   UNL     1      -0.015   7.142  -7.030  1.00  0.00    -0.028 C 
ATOM      7  C   UNL     1      -2.219   6.902  -8.193  1.00  0.00     0.039 C 
ATOM      8  C   UNL     1      -1.194   7.684  -7.406  1.00  0.00    -0.080 C 
ATOM      9  C   UNL     1      -1.471   9.122  -7.047  1.00  0.00     0.039 C 
ENDBRANCH   5   6
ENDBRANCH   4   5
ENDBRANCH   1   4
BRANCH   2  10
ATOM     10  C   UNL     1       0.229   5.738 -11.832  1.00  0.00     0.055 C 
BRANCH  10  11
ATOM     11  C   UNL     1      -1.268   5.624 -11.946  1.00  0.00    -0.020 C 
ATOM     12  C   UNL     1      -1.941   5.212 -13.043  1.00  0.00    -0.055 C 
ATOM     13  C   UNL     1      -1.242   4.814 -14.325  1.00  0.00     0.044 C 
BRANCH  12  14
ATOM     14  C   UNL     1      -3.424   5.138 -12.958  1.00  0.00    -0.005 C 
ATOM     15  C   UNL     1      -4.112   3.994 -12.969  1.00  0.00     0.009 C 
ENDBRANCH  12  14
ENDBRANCH  10  11
ENDBRANCH   2  10
TORSDOF 6
ENDMDL
MODEL 3
REMARK VINA RESULT:     6.241      9.785     12.803
REMARK INTER + INTRA:           9.011
REMARK INTER:                   9.389
REMARK INTRA:                  -0.379
REMARK UNBOUND:                 0.581
REMARK SMILES C=CC(C)=CCC=C(C)CCC=C(C)C
REMARK SMILES IDX 8 1 7 2 9 3 10 4 11 5 12 6 14 7 13 8 15 9 6 10 5 11 3 12
REMARK SMILES IDX 4 13 2 14 1 15
REMARK H PARENT
REMARK Flexibility Score: inf
ROOT
ATOM      1  C   UNL     1       0.914   5.309  -9.771  1.00  0.00    -0.077 C 
ATOM      2  C   UNL     1      -0.042   6.034 -10.397  1.00  0.00    -0.024 C 
ATOM      3  C   UNL     1       1.135   3.849 -10.083  1.00  0.00     0.039 C 
ENDROOT
BRANCH   1   4
ATOM      4  C   UNL     1       1.750   5.973  -8.698  1.00  0.00     0.034 C 
BRANCH   4   5
ATOM      5  C   UNL     1       1.016   5.965  -7.351  1.00  0.00     0.032 C 
BRANCH   5   6
ATOM      6  C   UNL     1       0.423   7.321  -7.057  1.00  0.00    -0.028 C 
ATOM      7  C   UNL     1      -1.823   6.709  -7.978  1.00  0.00     0.039 C 
ATOM      8  C   UNL     1      -0.861   7.660  -7.307  1.00  0.00    -0.080 C 
ATOM      9  C   UNL     1      -1.327   9.042  -6.924  1.00  0.00     0.039 C 
ENDBRANCH   5   6
ENDBRANCH   4   5
ENDBRANCH   1   4
BRANCH   2  10
ATOM     10  C   UNL     1      -0.946   5.496 -11.479  1.00  0.00     0.055 C 
BRANCH  10  11
ATOM     11  C   UNL     1      -0.342   5.677 -12.846  1.00  0.00    -0.020 C 
ATOM     12  C   UNL     1      -0.866   5.214 -14.001  1.00  0.00    -0.055 C 
ATOM     13  C   UNL     1      -2.158   4.427 -14.052  1.00  0.00     0.044 C 
BRANCH  12  14
ATOM     14  C   UNL     1      -0.137   5.516 -15.263  1.00  0.00    -0.005 C 
ATOM     15  C   UNL     1      -0.589   5.193 -16.476  1.00  0.00     0.009 C 
ENDBRANCH  12  14
ENDBRANCH  10  11
ENDBRANCH   2  10
TORSDOF 6
ENDMDL
MODEL 4
REMARK VINA RESULT:     6.400      0.979      7.156
REMARK INTER + INTRA:           9.226
REMARK INTER:                   9.868
REMARK INTRA:                  -0.642
REMARK UNBOUND:                 0.581
REMARK SMILES C=CC(C)=CCC=C(C)CCC=C(C)C
REMARK SMILES IDX 8 1 7 2 9 3 10 4 11 5 12 6 14 7 13 8 15 9 6 10 5 11 3 12
REMARK SMILES IDX 4 13 2 14 1 15
REMARK H PARENT
REMARK Flexibility Score: inf
ROOT
ATOM      1  C   UNL     1      11.798   8.461  -7.209  1.00  0.00    -0.077 C 
ATOM      2  C   UNL     1      11.790   7.780  -8.378  1.00  0.00    -0.024 C 
ATOM      3  C   UNL     1      12.082   9.942  -7.155  1.00  0.00     0.039 C 
ENDROOT
BRANCH   1   4
ATOM      4  C   UNL     1      11.562   7.704  -5.921  1.00  0.00     0.034 C 
BRANCH   4   5
ATOM      5  C   UNL     1      10.165   7.071  -5.906  1.00  0.00     0.032 C 
BRANCH   5   6
ATOM      6  C   UNL     1       9.106   8.108  -6.188  1.00  0.00    -0.028 C 
ATOM      7  C   UNL     1       7.220   6.491  -5.875  1.00  0.00     0.039 C 
ATOM      8  C   UNL     1       7.777   7.868  -6.148  1.00  0.00    -0.080 C 
ATOM      9  C   UNL     1       6.831   9.013  -6.414  1.00  0.00     0.039 C 
ENDBRANCH   5   6
ENDBRANCH   4   5
ENDBRANCH   1   4
BRANCH   2  10
ATOM     10  C   UNL     1      12.015   8.409  -9.731  1.00  0.00     0.055 C 
BRANCH  10  11
ATOM     11  C   UNL     1      13.296   7.926 -10.360  1.00  0.00    -0.020 C 
ATOM     12  C   UNL     1      14.100   8.659 -11.159  1.00  0.00    -0.055 C 
ATOM     13  C   UNL     1      13.792  10.093 -11.531  1.00  0.00     0.044 C 
BRANCH  12  14
ATOM     14  C   UNL     1      15.342   8.017 -11.667  1.00  0.00    -0.005 C 
ATOM     15  C   UNL     1      15.408   6.748 -12.076  1.00  0.00     0.009 C 
ENDBRANCH  12  14
ENDBRANCH  10  11
ENDBRANCH   2  10
TORSDOF 6
ENDMDL
