MODEL 1
REMARK VINA RESULT:    -4.196      0.000      0.000
REMARK INTER + INTRA:          -6.696
REMARK INTER:                  -6.404
REMARK INTRA:                  -0.291
REMARK UNBOUND:                -0.291
REMARK SMILES CCCCCCCCCCC(=O)[O-]
REMARK SMILES IDX 7 1 8 2 9 3 10 4 11 5 12 6 13 7 6 8 5 9 4 10 3 11 2 12 1 13
REMARK H PARENT
REMARK Flexibility Score: inf
ROOT
ATOM      1  C   UNL     1       0.594   9.821   8.621  1.00  0.00     0.000 C 
ENDROOT
BRANCH   1   2
ATOM      2  C   UNL     1       1.775   8.997   9.147  1.00  0.00     0.000 C 
BRANCH   2   3
ATOM      3  C   UNL     1       2.744   8.635   8.011  1.00  0.00     0.006 C 
BRANCH   3   4
ATOM      4  C   UNL     1       4.210   8.708   8.454  1.00  0.00     0.053 C 
BRANCH   4   5
ATOM      5  C   UNL     1       5.132   8.134   7.423  1.00  0.00     0.041 C 
ATOM      6  O   UNL     1       4.680   7.391   6.512  1.00  0.00    -0.550 OA
ATOM      7  O   UNL     1       6.496   8.392   7.487  1.00  0.00    -0.550 OA
ENDBRANCH   4   5
ENDBRANCH   3   4
ENDBRANCH   2   3
ENDBRANCH   1   2
BRANCH   1   8
ATOM      8  C   UNL     1      -0.704   9.005   8.649  1.00  0.00     0.000 C 
BRANCH   8   9
ATOM      9  C   UNL     1      -1.634   9.407   7.498  1.00  0.00    -0.000 C 
BRANCH   9  10
ATOM     10  C   UNL     1      -2.478   8.217   7.031  1.00  0.00    -0.000 C 
BRANCH  10  11
ATOM     11  C   UNL     1      -2.614   8.207   5.500  1.00  0.00    -0.000 C 
BRANCH  11  12
ATOM     12  C   UNL     1      -2.064   6.921   4.867  1.00  0.00    -0.003 C 
ATOM     13  C   UNL     1      -2.934   5.698   5.159  1.00  0.00     0.004 C 
ENDBRANCH  11  12
ENDBRANCH  10  11
ENDBRANCH   9  10
ENDBRANCH   8   9
ENDBRANCH   1   8
TORSDOF 9
ENDMDL
MODEL 2
REMARK VINA RESULT:    -4.044     13.188     15.564
REMARK INTER + INTRA:          -6.463
REMARK INTER:                  -5.926
REMARK INTRA:                  -0.537
REMARK UNBOUND:                -0.291
REMARK SMILES CCCCCCCCCCC(=O)[O-]
REMARK SMILES IDX 7 1 8 2 9 3 10 4 11 5 12 6 13 7 6 8 5 9 4 10 3 11 2 12 1 13
REMARK H PARENT
REMARK Flexibility Score: inf
ROOT
ATOM      1  C   UNL     1       5.705  -6.048   8.228  1.00  0.00     0.000 C 
ENDROOT
BRANCH   1   2
ATOM      2  C   UNL     1       4.333  -6.717   8.078  1.00  0.00     0.000 C 
BRANCH   2   3
ATOM      3  C   UNL     1       3.236  -5.882   8.756  1.00  0.00     0.006 C 
BRANCH   3   4
ATOM      4  C   UNL     1       2.512  -4.961   7.766  1.00  0.00     0.053 C 
BRANCH   4   5
ATOM      5  C   UNL     1       1.127  -5.445   7.466  1.00  0.00     0.041 C 
ATOM      6  O   UNL     1       0.822  -6.652   7.656  1.00  0.00    -0.550 OA
ATOM      7  O   UNL     1       0.181  -4.571   6.944  1.00  0.00    -0.550 OA
ENDBRANCH   4   5
ENDBRANCH   3   4
ENDBRANCH   2   3
ENDBRANCH   1   2
BRANCH   1   8
ATOM      8  C   UNL     1       6.054  -5.832   9.705  1.00  0.00     0.000 C 
BRANCH   8   9
ATOM      9  C   UNL     1       7.517  -5.405   9.870  1.00  0.00    -0.000 C 
BRANCH   9  10
ATOM     10  C   UNL     1       8.129  -5.005   8.523  1.00  0.00    -0.000 C 
BRANCH  10  11
ATOM     11  C   UNL     1       8.627  -3.552   8.555  1.00  0.00    -0.000 C 
BRANCH  11  12
ATOM     12  C   UNL     1       8.774  -3.009   9.984  1.00  0.00    -0.003 C 
ATOM     13  C   UNL     1       8.716  -1.482  10.045  1.00  0.00     0.004 C 
ENDBRANCH  11  12
ENDBRANCH  10  11
ENDBRANCH   9  10
ENDBRANCH   8   9
ENDBRANCH   1   8
TORSDOF 9
ENDMDL
MODEL 3
REMARK VINA RESULT:    -3.949      3.439      6.314
REMARK INTER + INTRA:          -6.318
REMARK INTER:                  -5.887
REMARK INTRA:                  -0.430
REMARK UNBOUND:                -0.291
REMARK SMILES CCCCCCCCCCC(=O)[O-]
REMARK SMILES IDX 7 1 8 2 9 3 10 4 11 5 12 6 13 7 6 8 5 9 4 10 3 11 2 12 1 13
REMARK H PARENT
REMARK Flexibility Score: inf
ROOT
ATOM      1  C   UNL     1      -0.641   9.438   8.187  1.00  0.00     0.000 C 
ENDROOT
BRANCH   1   2
ATOM      2  C   UNL     1      -1.980  10.109   7.856  1.00  0.00     0.000 C 
BRANCH   2   3
ATOM      3  C   UNL     1      -2.647   9.439   6.646  1.00  0.00     0.006 C 
BRANCH   3   4
ATOM      4  C   UNL     1      -2.150   8.004   6.429  1.00  0.00     0.053 C 
BRANCH   4   5
ATOM      5  C   UNL     1      -2.511   7.490   5.069  1.00  0.00     0.041 C 
ATOM      6  O   UNL     1      -3.022   8.261   4.215  1.00  0.00    -0.550 OA
ATOM      7  O   UNL     1      -2.314   6.150   4.756  1.00  0.00    -0.550 OA
ENDBRANCH   4   5
ENDBRANCH   3   4
ENDBRANCH   2   3
ENDBRANCH   1   2
BRANCH   1   8
ATOM      8  C   UNL     1      -0.056   9.989   9.492  1.00  0.00     0.000 C 
BRANCH   8   9
ATOM      9  C   UNL     1       1.405   9.556   9.668  1.00  0.00    -0.000 C 
BRANCH   9  10
ATOM     10  C   UNL     1       2.068   9.290   8.313  1.00  0.00    -0.000 C 
BRANCH  10  11
ATOM     11  C   UNL     1       3.241   8.309   8.457  1.00  0.00    -0.000 C 
BRANCH  11  12
ATOM     12  C   UNL     1       3.887   7.956   7.109  1.00  0.00    -0.003 C 
ATOM     13  C   UNL     1       5.414   7.991   7.159  1.00  0.00     0.004 C 
ENDBRANCH  11  12
ENDBRANCH  10  11
ENDBRANCH   9  10
ENDBRANCH   8   9
ENDBRANCH   1   8
TORSDOF 9
ENDMDL
MODEL 4
REMARK VINA RESULT:    -3.872     13.681     15.761
REMARK INTER + INTRA:          -6.201
REMARK INTER:                  -5.732
REMARK INTRA:                  -0.469
REMARK UNBOUND:                -0.291
REMARK SMILES CCCCCCCCCCC(=O)[O-]
REMARK SMILES IDX 7 1 8 2 9 3 10 4 11 5 12 6 13 7 6 8 5 9 4 10 3 11 2 12 1 13
REMARK H PARENT
REMARK Flexibility Score: inf
ROOT
ATOM      1  C   UNL     1       3.844  -6.797   8.026  1.00  0.00     0.000 C 
ENDROOT
BRANCH   1   2
ATOM      2  C   UNL     1       3.608  -5.891   9.240  1.00  0.00     0.000 C 
BRANCH   2   3
ATOM      3  C   UNL     1       2.372  -5.002   9.033  1.00  0.00     0.006 C 
BRANCH   3   4
ATOM      4  C   UNL     1       1.991  -4.874   7.552  1.00  0.00     0.053 C 
BRANCH   4   5
ATOM      5  C   UNL     1       0.618  -5.409   7.282  1.00  0.00     0.041 C 
ATOM      6  O   UNL     1       0.380  -6.638   7.414  1.00  0.00    -0.550 OA
ATOM      7  O   UNL     1      -0.390  -4.555   6.852  1.00  0.00    -0.550 OA
ENDBRANCH   4   5
ENDBRANCH   3   4
ENDBRANCH   2   3
ENDBRANCH   1   2
BRANCH   1   8
ATOM      8  C   UNL     1       5.325  -7.170   7.896  1.00  0.00     0.000 C 
BRANCH   8   9
ATOM      9  C   UNL     1       6.135  -6.016   7.294  1.00  0.00    -0.000 C 
BRANCH   9  10
ATOM     10  C   UNL     1       7.130  -5.450   8.313  1.00  0.00    -0.000 C 
BRANCH  10  11
ATOM     11  C   UNL     1       8.377  -4.891   7.612  1.00  0.00    -0.000 C 
BRANCH  11  12
ATOM     12  C   UNL     1       9.483  -4.494   8.601  1.00  0.00    -0.003 C 
ATOM     13  C   UNL     1       8.940  -3.774   9.836  1.00  0.00     0.004 C 
ENDBRANCH  11  12
ENDBRANCH  10  11
ENDBRANCH   9  10
ENDBRANCH   8   9
ENDBRANCH   1   8
TORSDOF 9
ENDMDL
MODEL 5
REMARK VINA RESULT:    -3.867      3.792      6.477
REMARK INTER + INTRA:          -6.194
REMARK INTER:                  -5.743
REMARK INTRA:                  -0.451
REMARK UNBOUND:                -0.291
REMARK SMILES CCCCCCCCCCC(=O)[O-]
REMARK SMILES IDX 7 1 8 2 9 3 10 4 11 5 12 6 13 7 6 8 5 9 4 10 3 11 2 12 1 13
REMARK H PARENT
REMARK Flexibility Score: inf
ROOT
ATOM      1  C   UNL     1      -1.809   8.673   7.171  1.00  0.00     0.000 C 
ENDROOT
BRANCH   1   2
ATOM      2  C   UNL     1      -2.960   8.991   6.210  1.00  0.00     0.000 C 
BRANCH   2   3
ATOM      3  C   UNL     1      -2.785   8.250   4.876  1.00  0.00     0.006 C 
BRANCH   3   4
ATOM      4  C   UNL     1      -2.090   6.894   5.052  1.00  0.00     0.053 C 
BRANCH   4   5
ATOM      5  C   UNL     1      -3.066   5.806   5.381  1.00  0.00     0.041 C 
ATOM      6  O   UNL     1      -3.570   5.108   4.461  1.00  0.00    -0.550 OA
ATOM      7  O   UNL     1      -3.446   5.585   6.699  1.00  0.00    -0.550 OA
ENDBRANCH   4   5
ENDBRANCH   3   4
ENDBRANCH   2   3
ENDBRANCH   1   2
BRANCH   1   8
ATOM      8  C   UNL     1      -1.315   9.940   7.880  1.00  0.00     0.000 C 
BRANCH   8   9
ATOM      9  C   UNL     1      -0.803   9.620   9.289  1.00  0.00    -0.000 C 
BRANCH   9  10
ATOM     10  C   UNL     1       0.632   9.083   9.245  1.00  0.00    -0.000 C 
BRANCH  10  11
ATOM     11  C   UNL     1       1.525   9.971   8.366  1.00  0.00    -0.000 C 
BRANCH  11  12
ATOM     12  C   UNL     1       3.012   9.601   8.470  1.00  0.00    -0.003 C 
ATOM     13  C   UNL     1       3.313   8.207   7.918  1.00  0.00     0.004 C 
ENDBRANCH  11  12
ENDBRANCH  10  11
ENDBRANCH   9  10
ENDBRANCH   8   9
ENDBRANCH   1   8
TORSDOF 9
ENDMDL
MODEL 6
REMARK VINA RESULT:    -3.820     13.314     14.498
REMARK INTER + INTRA:          -6.121
REMARK INTER:                  -5.654
REMARK INTRA:                  -0.466
REMARK UNBOUND:                -0.291
REMARK SMILES CCCCCCCCCCC(=O)[O-]
REMARK SMILES IDX 7 1 8 2 9 3 10 4 11 5 12 6 13 7 6 8 5 9 4 10 3 11 2 12 1 13
REMARK H PARENT
REMARK Flexibility Score: inf
ROOT
ATOM      1  C   UNL     1       5.537  -6.356   8.284  1.00  0.00     0.000 C 
ENDROOT
BRANCH   1   2
ATOM      2  C   UNL     1       5.954  -6.415   9.758  1.00  0.00     0.000 C 
BRANCH   2   3
ATOM      3  C   UNL     1       6.851  -5.223  10.125  1.00  0.00     0.006 C 
BRANCH   3   4
ATOM      4  C   UNL     1       8.252  -5.340   9.512  1.00  0.00     0.053 C 
BRANCH   4   5
ATOM      5  C   UNL     1       8.519  -4.251   8.519  1.00  0.00     0.041 C 
ATOM      6  O   UNL     1       8.610  -3.054   8.901  1.00  0.00    -0.550 OA
ATOM      7  O   UNL     1       8.634  -4.552   7.168  1.00  0.00    -0.550 OA
ENDBRANCH   4   5
ENDBRANCH   3   4
ENDBRANCH   2   3
ENDBRANCH   1   2
BRANCH   1   8
ATOM      8  C   UNL     1       4.299  -7.223   8.026  1.00  0.00     0.000 C 
BRANCH   8   9
ATOM      9  C   UNL     1       3.095  -6.718   8.830  1.00  0.00    -0.000 C 
BRANCH   9  10
ATOM     10  C   UNL     1       2.935  -5.201   8.690  1.00  0.00    -0.000 C 
BRANCH  10  11
ATOM     11  C   UNL     1       1.849  -4.855   7.659  1.00  0.00    -0.000 C 
BRANCH  11  12
ATOM     12  C   UNL     1       0.788  -5.957   7.526  1.00  0.00    -0.003 C 
ATOM     13  C   UNL     1      -0.577  -5.415   7.103  1.00  0.00     0.004 C 
ENDBRANCH  11  12
ENDBRANCH  10  11
ENDBRANCH   9  10
ENDBRANCH   8   9
ENDBRANCH   1   8
TORSDOF 9
ENDMDL
MODEL 7
REMARK VINA RESULT:    -3.751     13.870     16.030
REMARK INTER + INTRA:          -6.017
REMARK INTER:                  -5.217
REMARK INTRA:                  -0.799
REMARK UNBOUND:                -0.291
REMARK SMILES CCCCCCCCCCC(=O)[O-]
REMARK SMILES IDX 7 1 8 2 9 3 10 4 11 5 12 6 13 7 6 8 5 9 4 10 3 11 2 12 1 13
REMARK H PARENT
REMARK Flexibility Score: inf
ROOT
ATOM      1  C   UNL     1       5.349  -6.770   7.874  1.00  0.00     0.000 C 
ENDROOT
BRANCH   1   2
ATOM      2  C   UNL     1       4.329  -7.903   8.040  1.00  0.00     0.000 C 
BRANCH   2   3
ATOM      3  C   UNL     1       3.079  -7.414   8.788  1.00  0.00     0.006 C 
BRANCH   3   4
ATOM      4  C   UNL     1       2.029  -6.822   7.839  1.00  0.00     0.053 C 
BRANCH   4   5
ATOM      5  C   UNL     1       1.864  -5.347   8.041  1.00  0.00     0.041 C 
ATOM      6  O   UNL     1       2.361  -4.786   9.053  1.00  0.00    -0.550 OA
ATOM      7  O   UNL     1       1.133  -4.597   7.128  1.00  0.00    -0.550 OA
ENDBRANCH   4   5
ENDBRANCH   3   4
ENDBRANCH   2   3
ENDBRANCH   1   2
BRANCH   1   8
ATOM      8  C   UNL     1       5.496  -5.967   9.172  1.00  0.00     0.000 C 
BRANCH   8   9
ATOM      9  C   UNL     1       6.494  -6.636  10.125  1.00  0.00    -0.000 C 
BRANCH   9  10
ATOM     10  C   UNL     1       7.882  -5.998  10.007  1.00  0.00    -0.000 C 
BRANCH  10  11
ATOM     11  C   UNL     1       7.785  -4.465  10.012  1.00  0.00    -0.000 C 
BRANCH  11  12
ATOM     12  C   UNL     1       8.673  -3.813   8.942  1.00  0.00    -0.003 C 
ATOM     13  C   UNL     1       8.658  -4.575   7.618  1.00  0.00     0.004 C 
ENDBRANCH  11  12
ENDBRANCH  10  11
ENDBRANCH   9  10
ENDBRANCH   8   9
ENDBRANCH   1   8
TORSDOF 9
ENDMDL
MODEL 8
REMARK VINA RESULT:    -3.743     16.858     18.255
REMARK INTER + INTRA:          -6.004
REMARK INTER:                  -5.176
REMARK INTRA:                  -0.828
REMARK UNBOUND:                -0.291
REMARK SMILES CCCCCCCCCCC(=O)[O-]
REMARK SMILES IDX 7 1 8 2 9 3 10 4 11 5 12 6 13 7 6 8 5 9 4 10 3 11 2 12 1 13
REMARK H PARENT
REMARK Flexibility Score: inf
ROOT
ATOM      1  C   UNL     1      -5.066   3.068  -7.236  1.00  0.00     0.000 C 
ENDROOT
BRANCH   1   2
ATOM      2  C   UNL     1      -3.980   2.138  -7.790  1.00  0.00     0.000 C 
BRANCH   2   3
ATOM      3  C   UNL     1      -3.150   2.844  -8.872  1.00  0.00     0.006 C 
BRANCH   3   4
ATOM      4  C   UNL     1      -3.766   4.185  -9.293  1.00  0.00     0.053 C 
BRANCH   4   5
ATOM      5  C   UNL     1      -2.764   5.297  -9.247  1.00  0.00     0.041 C 
ATOM      6  O   UNL     1      -1.645   5.166  -9.812  1.00  0.00    -0.550 OA
ATOM      7  O   UNL     1      -3.051   6.465  -8.552  1.00  0.00    -0.550 OA
ENDBRANCH   4   5
ENDBRANCH   3   4
ENDBRANCH   2   3
ENDBRANCH   1   2
BRANCH   1   8
ATOM      8  C   UNL     1      -6.466   2.557  -7.596  1.00  0.00     0.000 C 
BRANCH   8   9
ATOM      9  C   UNL     1      -6.389   1.376  -8.571  1.00  0.00    -0.000 C 
BRANCH   9  10
ATOM     10  C   UNL     1      -6.791   1.804  -9.987  1.00  0.00    -0.000 C 
BRANCH  10  11
ATOM     11  C   UNL     1      -7.739   3.012  -9.948  1.00  0.00    -0.000 C 
BRANCH  11  12
ATOM     12  C   UNL     1      -9.217   2.608 -10.047  1.00  0.00    -0.003 C 
ATOM     13  C   UNL     1     -10.057   3.150  -8.891  1.00  0.00     0.004 C 
ENDBRANCH  11  12
ENDBRANCH  10  11
ENDBRANCH   9  10
ENDBRANCH   8   9
ENDBRANCH   1   8
TORSDOF 9
ENDMDL
MODEL 9
REMARK VINA RESULT:    -3.662      4.808      6.254
REMARK INTER + INTRA:          -5.881
REMARK INTER:                  -5.360
REMARK INTRA:                  -0.520
REMARK UNBOUND:                -0.291
REMARK SMILES CCCCCCCCCCC(=O)[O-]
REMARK SMILES IDX 7 1 8 2 9 3 10 4 11 5 12 6 13 7 6 8 5 9 4 10 3 11 2 12 1 13
REMARK H PARENT
REMARK Flexibility Score: inf
ROOT
ATOM      1  C   UNL     1      -1.928   9.692   7.924  1.00  0.00     0.000 C 
ENDROOT
BRANCH   1   2
ATOM      2  C   UNL     1      -2.625   9.177   6.659  1.00  0.00     0.000 C 
BRANCH   2   3
ATOM      3  C   UNL     1      -1.879   7.970   6.071  1.00  0.00     0.006 C 
BRANCH   3   4
ATOM      4  C   UNL     1      -2.717   7.221   5.028  1.00  0.00     0.053 C 
BRANCH   4   5
ATOM      5  C   UNL     1      -2.895   5.778   5.387  1.00  0.00     0.041 C 
ATOM      6  O   UNL     1      -3.511   5.458   6.438  1.00  0.00    -0.550 OA
ATOM      7  O   UNL     1      -2.351   4.786   4.581  1.00  0.00    -0.550 OA
ENDBRANCH   4   5
ENDBRANCH   3   4
ENDBRANCH   2   3
ENDBRANCH   1   2
BRANCH   1   8
ATOM      8  C   UNL     1      -2.948  10.030   9.017  1.00  0.00     0.000 C 
BRANCH   8   9
ATOM      9  C   UNL     1      -3.441   8.763   9.724  1.00  0.00    -0.000 C 
BRANCH   9  10
ATOM     10  C   UNL     1      -4.917   8.494   9.409  1.00  0.00    -0.000 C 
BRANCH  10  11
ATOM     11  C   UNL     1      -5.241   6.997   9.528  1.00  0.00    -0.000 C 
BRANCH  11  12
ATOM     12  C   UNL     1      -6.741   6.731   9.722  1.00  0.00    -0.003 C 
ATOM     13  C   UNL     1      -7.580   8.008   9.661  1.00  0.00     0.004 C 
ENDBRANCH  11  12
ENDBRANCH  10  11
ENDBRANCH   9  10
ENDBRANCH   8   9
ENDBRANCH   1   8
TORSDOF 9
ENDMDL
