MODEL 1
REMARK VINA RESULT:    -4.399      0.000      0.000
REMARK INTER + INTRA:          -6.673
REMARK INTER:                  -6.714
REMARK INTRA:                   0.040
REMARK UNBOUND:                 0.040
REMARK SMILES CC1=CCC[C@H](C)C(=O)C[C@H](C(C)C)C(=O)C1
REMARK SMILES IDX 8 1 9 2 6 3 7 4 5 5 4 6 3 7 2 8 1 9 10 11 11 12 15 13 16 14
REMARK SMILES IDX 17 15 12 17 13 18 14 19
REMARK H PARENT
REMARK Flexibility Score: 70.00
ROOT
ATOM      1  C   UNL     1      14.368 -32.406  22.066  1.00  0.00     0.136 C 
ATOM      2  O   UNL     1      14.214 -32.438  23.279  1.00  0.00    -0.299 OA
ENDROOT
BRANCH   1   3
ATOM      3  C   UNL     1      13.998 -31.149  21.297  1.00  0.00     0.053 C 
ATOM      4  C   UNL     1      12.477 -31.065  21.101  1.00  0.00     0.016 C 
BRANCH   3   5
ATOM      5  C   UNL     1      14.530 -29.898  22.030  1.00  0.00     0.015 C 
BRANCH   5   6
ATOM      6  C   UNL     1      16.049 -29.716  21.839  1.00  0.00     0.028 C 
BRANCH   6   7
ATOM      7  C   UNL     1      16.802 -30.178  23.061  1.00  0.00    -0.028 C 
ATOM      8  C   UNL     1      17.710 -31.181  23.072  1.00  0.00    -0.070 CG0
ATOM      9  C   UNL     1      18.313 -31.576  24.396  1.00  0.00     0.039 C 
ATOM     10  G   UNL     1      18.157 -31.903  21.810  1.00  0.00     0.000 G0
ENDBRANCH   6   7
ENDBRANCH   5   6
ENDBRANCH   3   5
ENDBRANCH   1   3
BRANCH   1  11
ATOM     11  C   UNL     1      14.923 -33.621  21.356  1.00  0.00     0.087 C 
BRANCH  11  12
ATOM     12  C   UNL     1      16.301 -33.409  20.651  1.00  0.00     0.066 C 
BRANCH  12  13
ATOM     13  C   UNL     1      17.470 -33.251  21.618  1.00  0.00     0.140 C 
ATOM     14  O   UNL     1      17.918 -34.228  22.203  1.00  0.00    -0.299 OA
BRANCH  13  15
ATOM     15  C   UNL     1      18.148 -31.914  21.798  1.00  0.00     0.106 CG0
ATOM     16  G   UNL     1      17.707 -31.206  23.070  1.00  0.00     0.000 G0
ENDBRANCH  13  15
ENDBRANCH  12  13
BRANCH  12  17
ATOM     17  C   UNL     1      16.624 -34.431  19.512  1.00  0.00    -0.006 C 
ATOM     18  C   UNL     1      16.483 -35.884  19.995  1.00  0.00     0.008 C 
ATOM     19  C   UNL     1      17.999 -34.233  18.852  1.00  0.00     0.008 C 
ENDBRANCH  12  17
ENDBRANCH  11  12
ENDBRANCH   1  11
TORSDOF 1
ENDMDL
MODEL 2
REMARK VINA RESULT:    -4.159      1.584      2.112
REMARK INTER + INTRA:          -6.307
REMARK INTER:                  -5.952
REMARK INTRA:                  -0.355
REMARK UNBOUND:                 0.040
REMARK SMILES CC1=CCC[C@H](C)C(=O)C[C@H](C(C)C)C(=O)C1
REMARK SMILES IDX 8 1 9 2 6 3 7 4 5 5 4 6 3 7 2 8 1 9 10 11 11 12 15 13 16 14
REMARK SMILES IDX 17 15 12 17 13 18 14 19
REMARK H PARENT
REMARK Flexibility Score: 70.00
ROOT
ATOM      1  C   UNL     1      15.026 -33.383  21.442  1.00  0.00     0.136 C 
ATOM      2  O   UNL     1      14.525 -33.351  20.326  1.00  0.00    -0.299 OA
ENDROOT
BRANCH   1   3
ATOM      3  C   UNL     1      14.613 -32.351  22.477  1.00  0.00     0.053 C 
ATOM      4  C   UNL     1      14.598 -32.972  23.881  1.00  0.00     0.016 C 
BRANCH   3   5
ATOM      5  C   UNL     1      15.559 -31.131  22.422  1.00  0.00     0.015 C 
BRANCH   5   6
ATOM      6  C   UNL     1      16.481 -31.056  23.655  1.00  0.00     0.028 C 
BRANCH   6   7
ATOM      7  C   UNL     1      17.921 -30.895  23.239  1.00  0.00    -0.028 C 
ATOM      8  C   UNL     1      18.828 -31.899  23.198  1.00  0.00    -0.070 CG0
ATOM      9  C   UNL     1      20.251 -31.554  22.840  1.00  0.00     0.039 C 
ATOM     10  G   UNL     1      18.465 -33.350  23.476  1.00  0.00     0.000 G0
ENDBRANCH   6   7
ENDBRANCH   5   6
ENDBRANCH   3   5
ENDBRANCH   1   3
BRANCH   1  11
ATOM     11  C   UNL     1      16.047 -34.450  21.767  1.00  0.00     0.087 C 
BRANCH  11  12
ATOM     12  C   UNL     1      17.477 -34.203  21.189  1.00  0.00     0.066 C 
BRANCH  12  13
ATOM     13  C   UNL     1      18.581 -34.228  22.241  1.00  0.00     0.140 C 
ATOM     14  O   UNL     1      19.589 -34.895  22.056  1.00  0.00    -0.299 OA
BRANCH  13  15
ATOM     15  C   UNL     1      18.490 -33.365  23.477  1.00  0.00     0.106 CG0
ATOM     16  G   UNL     1      18.840 -31.912  23.197  1.00  0.00     0.000 G0
ENDBRANCH  13  15
ENDBRANCH  12  13
BRANCH  12  17
ATOM     17  C   UNL     1      17.844 -35.072  19.941  1.00  0.00    -0.006 C 
ATOM     18  C   UNL     1      17.628 -34.299  18.628  1.00  0.00     0.008 C 
ATOM     19  C   UNL     1      17.117 -36.425  19.873  1.00  0.00     0.008 C 
ENDBRANCH  12  17
ENDBRANCH  11  12
ENDBRANCH   1  11
TORSDOF 1
ENDMDL
MODEL 3
REMARK VINA RESULT:    -4.150      1.803      4.030
REMARK INTER + INTRA:          -6.294
REMARK INTER:                  -5.996
REMARK INTRA:                  -0.297
REMARK UNBOUND:                 0.040
REMARK SMILES CC1=CCC[C@H](C)C(=O)C[C@H](C(C)C)C(=O)C1
REMARK SMILES IDX 8 1 9 2 6 3 7 4 5 5 4 6 3 7 2 8 1 9 10 11 11 12 15 13 16 14
REMARK SMILES IDX 17 15 12 17 13 18 14 19
REMARK H PARENT
REMARK Flexibility Score: 70.00
ROOT
ATOM      1  C   UNL     1      15.273 -33.308  20.622  1.00  0.00     0.136 C 
ATOM      2  O   UNL     1      14.300 -33.568  19.928  1.00  0.00    -0.299 OA
ENDROOT
BRANCH   1   3
ATOM      3  C   UNL     1      16.343 -34.365  20.836  1.00  0.00     0.053 C 
ATOM      4  C   UNL     1      15.943 -35.683  20.156  1.00  0.00     0.016 C 
BRANCH   3   5
ATOM      5  C   UNL     1      17.704 -33.862  20.309  1.00  0.00     0.015 C 
BRANCH   5   6
ATOM      6  C   UNL     1      18.768 -33.794  21.422  1.00  0.00     0.028 C 
BRANCH   6   7
ATOM      7  C   UNL     1      19.439 -32.443  21.441  1.00  0.00    -0.028 C 
ATOM      8  C   UNL     1      19.157 -31.456  22.323  1.00  0.00    -0.070 CG0
ATOM      9  C   UNL     1      19.859 -30.132  22.152  1.00  0.00     0.039 C 
ATOM     10  G   UNL     1      18.185 -31.635  23.479  1.00  0.00     0.000 G0
ENDBRANCH   6   7
ENDBRANCH   5   6
ENDBRANCH   3   5
ENDBRANCH   1   3
BRANCH   1  11
ATOM     11  C   UNL     1      15.390 -31.939  21.254  1.00  0.00     0.087 C 
BRANCH  11  12
ATOM     12  C   UNL     1      15.668 -31.936  22.790  1.00  0.00     0.066 C 
BRANCH  12  13
ATOM     13  C   UNL     1      16.827 -31.035  23.205  1.00  0.00     0.140 C 
ATOM     14  O   UNL     1      16.640 -29.841  23.390  1.00  0.00    -0.299 OA
BRANCH  13  15
ATOM     15  C   UNL     1      18.194 -31.615  23.483  1.00  0.00     0.106 CG0
ATOM     16  G   UNL     1      19.139 -31.465  22.301  1.00  0.00     0.000 G0
ENDBRANCH  13  15
ENDBRANCH  12  13
BRANCH  12  17
ATOM     17  C   UNL     1      14.408 -31.711  23.689  1.00  0.00    -0.006 C 
ATOM     18  C   UNL     1      13.881 -33.034  24.270  1.00  0.00     0.008 C 
ATOM     19  C   UNL     1      13.261 -30.954  22.998  1.00  0.00     0.008 C 
ENDBRANCH  12  17
ENDBRANCH  11  12
ENDBRANCH   1  11
TORSDOF 1
ENDMDL
MODEL 4
REMARK VINA RESULT:    -4.132      1.955      4.707
REMARK INTER + INTRA:          -6.266
REMARK INTER:                  -6.363
REMARK INTRA:                   0.097
REMARK UNBOUND:                 0.040
REMARK SMILES CC1=CCC[C@H](C)C(=O)C[C@H](C(C)C)C(=O)C1
REMARK SMILES IDX 8 1 9 2 6 3 7 4 5 5 4 6 3 7 2 8 1 9 10 11 11 12 15 13 16 14
REMARK SMILES IDX 17 15 12 17 13 18 14 19
REMARK H PARENT
REMARK Flexibility Score: 70.00
ROOT
ATOM      1  C   UNL     1      16.757 -29.797  22.101  1.00  0.00     0.136 C 
ATOM      2  O   UNL     1      16.448 -28.783  21.490  1.00  0.00    -0.299 OA
ENDROOT
BRANCH   1   3
ATOM      3  C   UNL     1      17.974 -30.593  21.663  1.00  0.00     0.053 C 
ATOM      4  C   UNL     1      18.950 -29.700  20.883  1.00  0.00     0.016 C 
BRANCH   3   5
ATOM      5  C   UNL     1      18.666 -31.229  22.888  1.00  0.00     0.015 C 
BRANCH   5   6
ATOM      6  C   UNL     1      18.901 -32.741  22.702  1.00  0.00     0.028 C 
BRANCH   6   7
ATOM      7  C   UNL     1      17.837 -33.344  21.819  1.00  0.00    -0.028 C 
ATOM      8  C   UNL     1      16.590 -33.673  22.231  1.00  0.00    -0.070 CG0
ATOM      9  C   UNL     1      15.673 -34.347  21.242  1.00  0.00     0.039 C 
ATOM     10  G   UNL     1      16.078 -33.372  23.630  1.00  0.00     0.000 G0
ENDBRANCH   6   7
ENDBRANCH   5   6
ENDBRANCH   3   5
ENDBRANCH   1   3
BRANCH   1  11
ATOM     11  C   UNL     1      15.918 -30.237  23.281  1.00  0.00     0.087 C 
BRANCH  11  12
ATOM     12  C   UNL     1      14.743 -31.206  22.937  1.00  0.00     0.066 C 
BRANCH  12  13
ATOM     13  C   UNL     1      14.818 -32.547  23.660  1.00  0.00     0.140 C 
ATOM     14  O   UNL     1      13.822 -33.008  24.201  1.00  0.00    -0.299 OA
BRANCH  13  15
ATOM     15  C   UNL     1      16.088 -33.364  23.642  1.00  0.00     0.106 CG0
ATOM     16  G   UNL     1      16.568 -33.660  22.229  1.00  0.00     0.000 G0
ENDBRANCH  13  15
ENDBRANCH  12  13
BRANCH  12  17
ATOM     17  C   UNL     1      13.316 -30.573  23.035  1.00  0.00    -0.006 C 
ATOM     18  C   UNL     1      12.547 -30.698  21.707  1.00  0.00     0.008 C 
ATOM     19  C   UNL     1      13.300 -29.110  23.508  1.00  0.00     0.008 C 
ENDBRANCH  12  17
ENDBRANCH  11  12
ENDBRANCH   1  11
TORSDOF 1
ENDMDL
MODEL 5
REMARK VINA RESULT:    -4.112      2.262      4.965
REMARK INTER + INTRA:          -6.235
REMARK INTER:                  -6.039
REMARK INTRA:                  -0.196
REMARK UNBOUND:                 0.040
REMARK SMILES CC1=CCC[C@H](C)C(=O)C[C@H](C(C)C)C(=O)C1
REMARK SMILES IDX 8 1 9 2 6 3 7 4 5 5 4 6 3 7 2 8 1 9 10 11 11 12 15 13 16 14
REMARK SMILES IDX 17 15 12 17 13 18 14 19
REMARK H PARENT
REMARK Flexibility Score: 70.00
ROOT
ATOM      1  C   UNL     1      16.968 -32.763  24.161  1.00  0.00     0.136 C 
ATOM      2  O   UNL     1      17.342 -31.612  24.338  1.00  0.00    -0.299 OA
ENDROOT
BRANCH   1   3
ATOM      3  C   UNL     1      17.920 -33.911  24.449  1.00  0.00     0.053 C 
ATOM      4  C   UNL     1      17.140 -35.213  24.680  1.00  0.00     0.016 C 
BRANCH   3   5
ATOM      5  C   UNL     1      18.930 -34.070  23.292  1.00  0.00     0.015 C 
BRANCH   5   6
ATOM      6  C   UNL     1      18.563 -35.240  22.358  1.00  0.00     0.028 C 
BRANCH   6   7
ATOM      7  C   UNL     1      18.355 -34.754  20.945  1.00  0.00    -0.028 C 
ATOM      8  C   UNL     1      17.147 -34.548  20.372  1.00  0.00    -0.070 CG0
ATOM      9  C   UNL     1      17.112 -34.141  18.920  1.00  0.00     0.039 C 
ATOM     10  G   UNL     1      15.838 -34.688  21.133  1.00  0.00     0.000 G0
ENDBRANCH   6   7
ENDBRANCH   5   6
ENDBRANCH   3   5
ENDBRANCH   1   3
BRANCH   1  11
ATOM     11  C   UNL     1      15.565 -33.019  23.658  1.00  0.00     0.087 C 
BRANCH  11  12
ATOM     12  C   UNL     1      15.224 -32.376  22.277  1.00  0.00     0.066 C 
BRANCH  12  13
ATOM     13  C   UNL     1      15.024 -33.391  21.156  1.00  0.00     0.140 C 
ATOM     14  O   UNL     1      14.276 -33.135  20.223  1.00  0.00    -0.299 OA
BRANCH  13  15
ATOM     15  C   UNL     1      15.811 -34.680  21.133  1.00  0.00     0.106 CG0
ATOM     16  G   UNL     1      17.130 -34.542  20.389  1.00  0.00     0.000 G0
ENDBRANCH  13  15
ENDBRANCH  12  13
BRANCH  12  17
ATOM     17  C   UNL     1      14.077 -31.313  22.308  1.00  0.00    -0.006 C 
ATOM     18  C   UNL     1      14.496 -30.004  21.617  1.00  0.00     0.008 C 
ATOM     19  C   UNL     1      13.532 -31.007  23.713  1.00  0.00     0.008 C 
ENDBRANCH  12  17
ENDBRANCH  11  12
ENDBRANCH   1  11
TORSDOF 1
ENDMDL
MODEL 6
REMARK VINA RESULT:    -4.071      1.941      4.925
REMARK INTER + INTRA:          -6.172
REMARK INTER:                  -5.962
REMARK INTRA:                  -0.210
REMARK UNBOUND:                 0.040
REMARK SMILES CC1=CCC[C@H](C)C(=O)C[C@H](C(C)C)C(=O)C1
REMARK SMILES IDX 8 1 9 2 6 3 7 4 5 5 4 6 3 7 2 8 1 9 10 11 11 12 15 13 16 14
REMARK SMILES IDX 17 15 12 17 13 18 14 19
REMARK H PARENT
REMARK Flexibility Score: 70.00
ROOT
ATOM      1  C   UNL     1      17.989 -31.057  22.956  1.00  0.00     0.136 C 
ATOM      2  O   UNL     1      18.693 -30.647  23.868  1.00  0.00    -0.299 OA
ENDROOT
BRANCH   1   3
ATOM      3  C   UNL     1      18.566 -31.161  21.554  1.00  0.00     0.053 C 
ATOM      4  C   UNL     1      19.304 -29.868  21.177  1.00  0.00     0.016 C 
BRANCH   3   5
ATOM      5  C   UNL     1      19.505 -32.383  21.452  1.00  0.00     0.015 C 
BRANCH   5   6
ATOM      6  C   UNL     1      18.848 -33.667  21.996  1.00  0.00     0.028 C 
BRANCH   6   7
ATOM      7  C   UNL     1      18.092 -34.385  20.907  1.00  0.00    -0.028 C 
ATOM      8  C   UNL     1      16.752 -34.570  20.892  1.00  0.00    -0.070 CG0
ATOM      9  C   UNL     1      16.161 -35.385  19.769  1.00  0.00     0.039 C 
ATOM     10  G   UNL     1      15.826 -33.975  21.942  1.00  0.00     0.000 G0
ENDBRANCH   6   7
ENDBRANCH   5   6
ENDBRANCH   3   5
ENDBRANCH   1   3
BRANCH   1  11
ATOM     11  C   UNL     1      16.557 -31.450  23.242  1.00  0.00     0.087 C 
BRANCH  11  12
ATOM     12  C   UNL     1      15.584 -31.359  22.024  1.00  0.00     0.066 C 
BRANCH  12  13
ATOM     13  C   UNL     1      15.124 -32.716  21.500  1.00  0.00     0.140 C 
ATOM     14  O   UNL     1      14.246 -32.779  20.651  1.00  0.00    -0.299 OA
BRANCH  13  15
ATOM     15  C   UNL     1      15.802 -33.988  21.950  1.00  0.00     0.106 CG0
ATOM     16  G   UNL     1      16.747 -34.545  20.896  1.00  0.00     0.000 G0
ENDBRANCH  13  15
ENDBRANCH  12  13
BRANCH  12  17
ATOM     17  C   UNL     1      14.386 -30.371  22.207  1.00  0.00    -0.006 C 
ATOM     18  C   UNL     1      14.720 -28.968  21.670  1.00  0.00     0.008 C 
ATOM     19  C   UNL     1      13.865 -30.264  23.650  1.00  0.00     0.008 C 
ENDBRANCH  12  17
ENDBRANCH  11  12
ENDBRANCH   1  11
TORSDOF 1
ENDMDL
MODEL 7
REMARK VINA RESULT:    -4.063      1.489      2.222
REMARK INTER + INTRA:          -6.160
REMARK INTER:                  -6.662
REMARK INTRA:                   0.502
REMARK UNBOUND:                 0.040
REMARK SMILES CC1=CCC[C@H](C)C(=O)C[C@H](C(C)C)C(=O)C1
REMARK SMILES IDX 8 1 9 2 6 3 7 4 5 5 4 6 3 7 2 8 1 9 10 11 11 12 15 13 16 14
REMARK SMILES IDX 17 15 12 17 13 18 14 19
REMARK H PARENT
REMARK Flexibility Score: 70.00
ROOT
ATOM      1  C   UNL     1      13.724 -32.143  20.977  1.00  0.00     0.136 C 
ATOM      2  O   UNL     1      13.451 -32.455  19.826  1.00  0.00    -0.299 OA
ENDROOT
BRANCH   1   3
ATOM      3  C   UNL     1      13.075 -30.916  21.593  1.00  0.00     0.053 C 
ATOM      4  C   UNL     1      11.586 -30.851  21.224  1.00  0.00     0.016 C 
BRANCH   3   5
ATOM      5  C   UNL     1      13.264 -30.924  23.126  1.00  0.00     0.015 C 
BRANCH   5   6
ATOM      6  C   UNL     1      14.146 -29.755  23.608  1.00  0.00     0.028 C 
BRANCH   6   7
ATOM      7  C   UNL     1      15.138 -29.357  22.544  1.00  0.00    -0.028 C 
ATOM      8  C   UNL     1      16.424 -29.776  22.495  1.00  0.00    -0.070 CG0
ATOM      9  C   UNL     1      17.310 -29.217  21.411  1.00  0.00     0.039 C 
ATOM     10  G   UNL     1      16.997 -30.795  23.468  1.00  0.00     0.000 G0
ENDBRANCH   6   7
ENDBRANCH   5   6
ENDBRANCH   3   5
ENDBRANCH   1   3
BRANCH   1  11
ATOM     11  C   UNL     1      14.705 -32.986  21.762  1.00  0.00     0.087 C 
BRANCH  11  12
ATOM     12  C   UNL     1      16.197 -32.533  21.669  1.00  0.00     0.066 C 
BRANCH  12  13
ATOM     13  C   UNL     1      16.832 -32.221  23.020  1.00  0.00     0.140 C 
ATOM     14  O   UNL     1      17.281 -33.126  23.709  1.00  0.00    -0.299 OA
BRANCH  13  15
ATOM     15  C   UNL     1      16.999 -30.794  23.483  1.00  0.00     0.106 CG0
ATOM     16  G   UNL     1      16.435 -29.791  22.489  1.00  0.00     0.000 G0
ENDBRANCH  13  15
ENDBRANCH  12  13
BRANCH  12  17
ATOM     17  C   UNL     1      17.112 -33.452  20.795  1.00  0.00    -0.006 C 
ATOM     18  C   UNL     1      18.443 -32.763  20.448  1.00  0.00     0.008 C 
ATOM     19  C   UNL     1      16.447 -33.974  19.510  1.00  0.00     0.008 C 
ENDBRANCH  12  17
ENDBRANCH  11  12
ENDBRANCH   1  11
TORSDOF 1
ENDMDL
MODEL 8
REMARK VINA RESULT:    -4.028      2.005      4.425
REMARK INTER + INTRA:          -6.107
REMARK INTER:                  -5.757
REMARK INTRA:                  -0.350
REMARK UNBOUND:                 0.040
REMARK SMILES CC1=CCC[C@H](C)C(=O)C[C@H](C(C)C)C(=O)C1
REMARK SMILES IDX 8 1 9 2 6 3 7 4 5 5 4 6 3 7 2 8 1 9 10 11 11 12 15 13 16 14
REMARK SMILES IDX 17 15 12 17 13 18 14 19
REMARK H PARENT
REMARK Flexibility Score: 70.00
ROOT
ATOM      1  C   UNL     1      17.889 -32.424  20.600  1.00  0.00     0.136 C 
ATOM      2  O   UNL     1      19.062 -32.188  20.345  1.00  0.00    -0.299 OA
ENDROOT
BRANCH   1   3
ATOM      3  C   UNL     1      17.341 -33.822  20.367  1.00  0.00     0.053 C 
ATOM      4  C   UNL     1      17.171 -34.091  18.865  1.00  0.00     0.016 C 
BRANCH   3   5
ATOM      5  C   UNL     1      18.266 -34.874  21.016  1.00  0.00     0.015 C 
BRANCH   5   6
ATOM      6  C   UNL     1      17.915 -35.122  22.496  1.00  0.00     0.028 C 
BRANCH   6   7
ATOM      7  C   UNL     1      18.931 -34.477  23.404  1.00  0.00    -0.028 C 
ATOM      8  C   UNL     1      18.664 -33.466  24.263  1.00  0.00    -0.070 CG0
ATOM      9  C   UNL     1      19.813 -32.875  25.041  1.00  0.00     0.039 C 
ATOM     10  G   UNL     1      17.261 -32.924  24.488  1.00  0.00     0.000 G0
ENDBRANCH   6   7
ENDBRANCH   5   6
ENDBRANCH   3   5
ENDBRANCH   1   3
BRANCH   1  11
ATOM     11  C   UNL     1      17.009 -31.319  21.140  1.00  0.00     0.087 C 
BRANCH  11  12
ATOM     12  C   UNL     1      16.181 -31.688  22.411  1.00  0.00     0.066 C 
BRANCH  12  13
ATOM     13  C   UNL     1      16.986 -31.645  23.706  1.00  0.00     0.140 C 
ATOM     14  O   UNL     1      17.360 -30.572  24.159  1.00  0.00    -0.299 OA
BRANCH  13  15
ATOM     15  C   UNL     1      17.252 -32.907  24.492  1.00  0.00     0.106 CG0
ATOM     16  G   UNL     1      18.655 -33.448  24.262  1.00  0.00     0.000 G0
ENDBRANCH  13  15
ENDBRANCH  12  13
BRANCH  12  17
ATOM     17  C   UNL     1      14.815 -30.937  22.551  1.00  0.00    -0.006 C 
ATOM     18  C   UNL     1      13.922 -31.579  23.626  1.00  0.00     0.008 C 
ATOM     19  C   UNL     1      14.029 -30.798  21.236  1.00  0.00     0.008 C 
ENDBRANCH  12  17
ENDBRANCH  11  12
ENDBRANCH   1  11
TORSDOF 1
ENDMDL
MODEL 9
REMARK VINA RESULT:    -4.001      1.738      4.088
REMARK INTER + INTRA:          -6.065
REMARK INTER:                  -6.079
REMARK INTRA:                   0.014
REMARK UNBOUND:                 0.040
REMARK SMILES CC1=CCC[C@H](C)C(=O)C[C@H](C(C)C)C(=O)C1
REMARK SMILES IDX 8 1 9 2 6 3 7 4 5 5 4 6 3 7 2 8 1 9 10 11 11 12 15 13 16 14
REMARK SMILES IDX 17 15 12 17 13 18 14 19
REMARK H PARENT
REMARK Flexibility Score: 70.00
ROOT
ATOM      1  C   UNL     1      17.316 -34.682  21.650  1.00  0.00     0.136 C 
ATOM      2  O   UNL     1      17.629 -35.829  21.934  1.00  0.00    -0.299 OA
ENDROOT
BRANCH   1   3
ATOM      3  C   UNL     1      16.375 -34.429  20.484  1.00  0.00     0.053 C 
ATOM      4  C   UNL     1      16.416 -35.603  19.495  1.00  0.00     0.016 C 
BRANCH   3   5
ATOM      5  C   UNL     1      14.939 -34.190  20.999  1.00  0.00     0.015 C 
BRANCH   5   6
ATOM      6  C   UNL     1      14.344 -32.872  20.467  1.00  0.00     0.028 C 
BRANCH   6   7
ATOM      7  C   UNL     1      13.846 -32.012  21.601  1.00  0.00    -0.028 C 
ATOM      8  C   UNL     1      14.536 -30.985  22.150  1.00  0.00    -0.070 CG0
ATOM      9  C   UNL     1      13.931 -30.278  23.336  1.00  0.00     0.039 C 
ATOM     10  G   UNL     1      15.875 -30.509  21.608  1.00  0.00     0.000 G0
ENDBRANCH   6   7
ENDBRANCH   5   6
ENDBRANCH   3   5
ENDBRANCH   1   3
BRANCH   1  11
ATOM     11  C   UNL     1      17.875 -33.536  22.464  1.00  0.00     0.087 C 
BRANCH  11  12
ATOM     12  C   UNL     1      17.936 -32.161  21.727  1.00  0.00     0.066 C 
BRANCH  12  13
ATOM     13  C   UNL     1      17.056 -31.085  22.354  1.00  0.00     0.140 C 
ATOM     14  O   UNL     1      17.339 -30.623  23.450  1.00  0.00    -0.299 OA
BRANCH  13  15
ATOM     15  C   UNL     1      15.881 -30.511  21.597  1.00  0.00     0.106 CG0
ATOM     16  G   UNL     1      14.546 -30.976  22.158  1.00  0.00     0.000 G0
ENDBRANCH  13  15
ENDBRANCH  12  13
BRANCH  12  17
ATOM     17  C   UNL     1      19.379 -31.632  21.433  1.00  0.00    -0.006 C 
ATOM     18  C   UNL     1      20.325 -31.875  22.622  1.00  0.00     0.008 C 
ATOM     19  C   UNL     1      19.441 -30.154  21.013  1.00  0.00     0.008 C 
ENDBRANCH  12  17
ENDBRANCH  11  12
ENDBRANCH   1  11
TORSDOF 1
ENDMDL
