MODEL 1
REMARK VINA RESULT:    84.236      0.000      0.000
REMARK INTER + INTRA:         203.432
REMARK INTER:                 199.961
REMARK INTRA:                   3.470
REMARK UNBOUND:                 3.470
REMARK SMILES O=C(OC[C@H]1O[C@@H](OC(=O)c2cc(O)c(O)c(O)c2)[C@@H](OC(=O)c2cc(O)c(O)c(O)c2)[C@@H](OC(=O)c2cc(O)c(O)c(O)c2)[C@@H]1OC(=O)c1cc(O)c(O)c(O)c1)c1cc(O)c(O)c(O)c1
REMARK SMILES IDX 5 1 46 2 33 3 20 4 7 5 6 6 4 7 3 8 2 9 1 10 59 11 60 12
REMARK SMILES IDX 61 13 67 14 63 15 65 16 62 17 64 19 66 21 47 23 48 24 49 25
REMARK SMILES IDX 50 26 58 27 51 28 56 29 52 30 54 31 57 32 53 34 55 36 34 38
REMARK SMILES IDX 35 39 36 40 37 41 45 42 38 43 43 44 39 45 41 46 44 47 40 49
REMARK SMILES IDX 42 51 8 53 9 54 10 55 11 56 19 57 12 58 17 59 13 60 15 61
REMARK SMILES IDX 18 62 14 64 16 66 21 68 22 69 23 70 24 71 32 72 25 73 30 74
REMARK SMILES IDX 26 75 28 76 31 77 27 79 29 81
REMARK H PARENT 62 18 64 20 66 22 57 33 53 35 55 37 44 48 40 50 42 52 18 63
REMARK H PARENT 14 65 16 67 31 78 27 80 29 82
REMARK Flexibility Score: inf
ROOT
ATOM      1  C   UNL     1      10.460  52.543  20.457  1.00  0.00     0.205 C 
ATOM      2  C   UNL     1      10.126  51.071  20.052  1.00  0.00     0.254 C 
ATOM      3  C   UNL     1       8.878  51.041  19.147  1.00  0.00     0.267 C 
ATOM      4  C   UNL     1       7.741  51.812  19.841  1.00  0.00     0.290 C 
ATOM      5  C   UNL     1       8.222  53.224  20.281  1.00  0.00     0.357 C 
ATOM      6  O   UNL     1       9.560  53.468  19.871  1.00  0.00    -0.329 OA
ENDROOT
BRANCH   1   7
ATOM      7  C   UNL     1      11.882  52.944  20.024  1.00  0.00     0.269 C 
BRANCH   7   8
ATOM      8  O   UNL     1      12.528  53.680  21.066  1.00  0.00    -0.459 OA
BRANCH   8   9
ATOM      9  C   UNL     1      12.798  53.157  22.345  1.00  0.00     0.338 C 
ATOM     10  O   UNL     1      11.912  52.474  22.926  1.00  0.00    -0.246 OA
BRANCH   9  11
ATOM     11  C   UNL     1      14.091  53.374  23.018  1.00  0.00     0.067 A 
ATOM     12  C   UNL     1      14.553  54.678  23.253  1.00  0.00     0.066 A 
ATOM     13  C   UNL     1      15.816  54.891  23.811  1.00  0.00     0.162 A 
ATOM     14  C   UNL     1      14.895  52.281  23.360  1.00  0.00     0.066 A 
ATOM     15  C   UNL     1      16.632  53.794  24.144  1.00  0.00     0.200 A 
ATOM     16  C   UNL     1      16.171  52.485  23.910  1.00  0.00     0.162 A 
BRANCH  13  17
ATOM     17  O   UNL     1      16.248  56.200  24.021  1.00  0.00    -0.504 OA
ATOM     18  H   UNL     1      16.865  56.675  23.370  1.00  0.00     0.293 HD
ENDBRANCH  13  17
BRANCH  15  19
ATOM     19  O   UNL     1      17.892  54.016  24.704  1.00  0.00    -0.502 OA
ATOM     20  H   UNL     1      18.611  53.305  24.715  1.00  0.00     0.293 HD
ENDBRANCH  15  19
BRANCH  16  21
ATOM     21  O   UNL     1      16.978  51.392  24.216  1.00  0.00    -0.504 OA
ATOM     22  H   UNL     1      17.035  51.025  25.159  1.00  0.00     0.293 HD
ENDBRANCH  16  21
ENDBRANCH   9  11
ENDBRANCH   8   9
ENDBRANCH   7   8
ENDBRANCH   1   7
BRANCH   2  23
ATOM     23  O   UNL     1       9.864  50.301  21.227  1.00  0.00    -0.452 OA
BRANCH  23  24
ATOM     24  C   UNL     1      10.576  49.139  21.548  1.00  0.00     0.338 C 
ATOM     25  O   UNL     1      10.233  48.030  21.050  1.00  0.00    -0.246 OA
BRANCH  24  26
ATOM     26  C   UNL     1      11.704  49.205  22.502  1.00  0.00     0.067 A 
ATOM     27  C   UNL     1      11.479  49.478  23.861  1.00  0.00     0.066 A 
ATOM     28  C   UNL     1      13.024  49.047  22.045  1.00  0.00     0.066 A 
ATOM     29  C   UNL     1      12.550  49.592  24.754  1.00  0.00     0.162 A 
ATOM     30  C   UNL     1      14.103  49.170  22.929  1.00  0.00     0.162 A 
ATOM     31  C   UNL     1      13.869  49.440  24.289  1.00  0.00     0.200 A 
BRANCH  29  32
ATOM     32  O   UNL     1      12.285  49.861  26.095  1.00  0.00    -0.504 OA
ATOM     33  H   UNL     1      13.017  49.884  26.795  1.00  0.00     0.293 HD
ENDBRANCH  29  32
BRANCH  30  34
ATOM     34  O   UNL     1      15.408  49.033  22.460  1.00  0.00    -0.504 OA
ATOM     35  H   UNL     1      16.087  49.779  22.553  1.00  0.00     0.293 HD
ENDBRANCH  30  34
BRANCH  31  36
ATOM     36  O   UNL     1      14.933  49.569  25.184  1.00  0.00    -0.502 OA
ATOM     37  H   UNL     1      14.791  49.636  26.184  1.00  0.00     0.293 HD
ENDBRANCH  31  36
ENDBRANCH  24  26
ENDBRANCH  23  24
ENDBRANCH   2  23
BRANCH   3  38
ATOM     38  O   UNL     1       9.160  51.681  17.903  1.00  0.00    -0.450 OA
BRANCH  38  39
ATOM     39  C   UNL     1      10.417  51.725  17.295  1.00  0.00     0.338 C 
ATOM     40  O   UNL     1      11.314  50.898  17.613  1.00  0.00    -0.246 OA
BRANCH  39  41
ATOM     41  C   UNL     1      10.672  52.755  16.269  1.00  0.00     0.067 A 
ATOM     42  C   UNL     1      11.323  53.947  16.635  1.00  0.00     0.066 A 
ATOM     43  C   UNL     1      10.282  52.568  14.932  1.00  0.00     0.066 A 
ATOM     44  C   UNL     1      11.591  54.932  15.679  1.00  0.00     0.162 A 
ATOM     45  C   UNL     1      10.535  53.561  13.975  1.00  0.00     0.162 A 
ATOM     46  C   UNL     1      11.208  54.738  14.348  1.00  0.00     0.200 A 
BRANCH  44  47
ATOM     47  O   UNL     1      12.246  56.109  16.044  1.00  0.00    -0.504 OA
ATOM     48  H   UNL     1      11.830  57.018  15.878  1.00  0.00     0.293 HD
ENDBRANCH  44  47
BRANCH  45  49
ATOM     49  O   UNL     1      10.104  53.397  12.658  1.00  0.00    -0.504 OA
ATOM     50  H   UNL     1       9.606  54.124  12.157  1.00  0.00     0.293 HD
ENDBRANCH  45  49
BRANCH  46  51
ATOM     51  O   UNL     1      11.492  55.731  13.407  1.00  0.00    -0.502 OA
ATOM     52  H   UNL     1      12.437  56.047  13.237  1.00  0.00     0.293 HD
ENDBRANCH  46  51
ENDBRANCH  39  41
ENDBRANCH  38  39
ENDBRANCH   3  38
BRANCH   5  53
ATOM     53  O   UNL     1       7.396  54.233  19.698  1.00  0.00    -0.428 OA
BRANCH  53  54
ATOM     54  C   UNL     1       6.826  55.253  20.469  1.00  0.00     0.340 C 
ATOM     55  O   UNL     1       5.749  55.043  21.094  1.00  0.00    -0.246 OA
BRANCH  54  56
ATOM     56  C   UNL     1       7.524  56.549  20.607  1.00  0.00     0.067 A 
ATOM     57  C   UNL     1       6.834  57.756  20.424  1.00  0.00     0.066 A 
ATOM     58  C   UNL     1       8.872  56.584  20.994  1.00  0.00     0.066 A 
ATOM     59  C   UNL     1       7.474  58.982  20.643  1.00  0.00     0.162 A 
ATOM     60  C   UNL     1       9.527  57.804  21.208  1.00  0.00     0.162 A 
ATOM     61  C   UNL     1       8.822  59.017  21.028  1.00  0.00     0.200 A 
BRANCH  59  62
ATOM     62  O   UNL     1       6.766  60.174  20.492  1.00  0.00    -0.504 OA
ATOM     63  H   UNL     1       6.467  60.500  19.581  1.00  0.00     0.293 HD
ENDBRANCH  59  62
BRANCH  60  64
ATOM     64  O   UNL     1      10.865  57.758  21.608  1.00  0.00    -0.504 OA
ATOM     65  H   UNL     1      11.250  58.299  22.368  1.00  0.00     0.293 HD
ENDBRANCH  60  64
BRANCH  61  66
ATOM     66  O   UNL     1       9.415  60.266  21.225  1.00  0.00    -0.502 OA
ATOM     67  H   UNL     1      10.043  60.699  20.561  1.00  0.00     0.293 HD
ENDBRANCH  61  66
ENDBRANCH  54  56
ENDBRANCH  53  54
ENDBRANCH   5  53
BRANCH   4  68
ATOM     68  O   UNL     1       6.622  51.894  18.956  1.00  0.00    -0.448 OA
BRANCH  68  69
ATOM     69  C   UNL     1       6.182  53.102  18.401  1.00  0.00     0.339 C 
ATOM     70  O   UNL     1       7.023  53.946  17.982  1.00  0.00    -0.246 OA
BRANCH  69  71
ATOM     71  C   UNL     1       4.737  53.397  18.328  1.00  0.00     0.067 A 
ATOM     72  C   UNL     1       4.206  54.067  17.216  1.00  0.00     0.066 A 
ATOM     73  C   UNL     1       3.872  52.973  19.347  1.00  0.00     0.066 A 
ATOM     74  C   UNL     1       2.828  54.302  17.108  1.00  0.00     0.162 A 
ATOM     75  C   UNL     1       2.495  53.208  19.257  1.00  0.00     0.162 A 
ATOM     76  C   UNL     1       1.962  53.866  18.140  1.00  0.00     0.200 A 
BRANCH  74  77
ATOM     77  O   UNL     1       2.369  54.961  15.965  1.00  0.00    -0.504 OA
ATOM     78  H   UNL     1       2.468  54.600  15.027  1.00  0.00     0.293 HD
ENDBRANCH  74  77
BRANCH  75  79
ATOM     79  O   UNL     1       1.646  52.784  20.278  1.00  0.00    -0.504 OA
ATOM     80  H   UNL     1       1.596  51.813  20.559  1.00  0.00     0.293 HD
ENDBRANCH  75  79
BRANCH  76  81
ATOM     81  O   UNL     1       0.580  54.061  18.093  1.00  0.00    -0.502 OA
ATOM     82  H   UNL     1      -0.091  53.324  17.927  1.00  0.00     0.293 HD
ENDBRANCH  76  81
ENDBRANCH  69  71
ENDBRANCH  68  69
ENDBRANCH   4  68
TORSDOF 31
ENDMDL
MODEL 2
REMARK VINA RESULT:    84.395      0.429      1.820
REMARK INTER + INTRA:         203.809
REMARK INTER:                 201.124
REMARK INTRA:                   2.684
REMARK UNBOUND:                 3.470
REMARK SMILES O=C(OC[C@H]1O[C@@H](OC(=O)c2cc(O)c(O)c(O)c2)[C@@H](OC(=O)c2cc(O)c(O)c(O)c2)[C@@H](OC(=O)c2cc(O)c(O)c(O)c2)[C@@H]1OC(=O)c1cc(O)c(O)c(O)c1)c1cc(O)c(O)c(O)c1
REMARK SMILES IDX 5 1 46 2 33 3 20 4 7 5 6 6 4 7 3 8 2 9 1 10 59 11 60 12
REMARK SMILES IDX 61 13 67 14 63 15 65 16 62 17 64 19 66 21 47 23 48 24 49 25
REMARK SMILES IDX 50 26 58 27 51 28 56 29 52 30 54 31 57 32 53 34 55 36 34 38
REMARK SMILES IDX 35 39 36 40 37 41 45 42 38 43 43 44 39 45 41 46 44 47 40 49
REMARK SMILES IDX 42 51 8 53 9 54 10 55 11 56 19 57 12 58 17 59 13 60 15 61
REMARK SMILES IDX 18 62 14 64 16 66 21 68 22 69 23 70 24 71 32 72 25 73 30 74
REMARK SMILES IDX 26 75 28 76 31 77 27 79 29 81
REMARK H PARENT 62 18 64 20 66 22 57 33 53 35 55 37 44 48 40 50 42 52 18 63
REMARK H PARENT 14 65 16 67 31 78 27 80 29 82
REMARK Flexibility Score: inf
ROOT
ATOM      1  C   UNL     1      10.403  52.719  20.581  1.00  0.00     0.205 C 
ATOM      2  C   UNL     1      10.148  51.246  20.122  1.00  0.00     0.254 C 
ATOM      3  C   UNL     1       8.951  51.193  19.151  1.00  0.00     0.267 C 
ATOM      4  C   UNL     1       7.750  51.900  19.804  1.00  0.00     0.290 C 
ATOM      5  C   UNL     1       8.151  53.318  20.304  1.00  0.00     0.357 C 
ATOM      6  O   UNL     1       9.498  53.624  19.971  1.00  0.00    -0.329 OA
ENDROOT
BRANCH   1   7
ATOM      7  C   UNL     1      11.828  53.185  20.233  1.00  0.00     0.269 C 
BRANCH   7   8
ATOM      8  O   UNL     1      12.730  52.855  21.292  1.00  0.00    -0.459 OA
BRANCH   8   9
ATOM      9  C   UNL     1      13.026  53.715  22.367  1.00  0.00     0.338 C 
ATOM     10  O   UNL     1      12.187  54.597  22.694  1.00  0.00    -0.246 OA
BRANCH   9  11
ATOM     11  C   UNL     1      14.284  53.605  23.128  1.00  0.00     0.067 A 
ATOM     12  C   UNL     1      14.999  52.399  23.136  1.00  0.00     0.066 A 
ATOM     13  C   UNL     1      16.144  52.260  23.925  1.00  0.00     0.162 A 
ATOM     14  C   UNL     1      14.729  54.681  23.905  1.00  0.00     0.066 A 
ATOM     15  C   UNL     1      16.587  53.337  24.717  1.00  0.00     0.200 A 
ATOM     16  C   UNL     1      15.870  54.548  24.710  1.00  0.00     0.162 A 
BRANCH  13  17
ATOM     17  O   UNL     1      16.826  51.045  23.917  1.00  0.00    -0.504 OA
ATOM     18  H   UNL     1      17.780  50.964  23.578  1.00  0.00     0.293 HD
ENDBRANCH  13  17
BRANCH  15  19
ATOM     19  O   UNL     1      17.733  53.192  25.500  1.00  0.00    -0.502 OA
ATOM     20  H   UNL     1      17.934  52.343  26.013  1.00  0.00     0.293 HD
ENDBRANCH  15  19
BRANCH  16  21
ATOM     21  O   UNL     1      16.288  55.613  25.505  1.00  0.00    -0.504 OA
ATOM     22  H   UNL     1      16.965  55.485  26.249  1.00  0.00     0.293 HD
ENDBRANCH  16  21
ENDBRANCH   9  11
ENDBRANCH   8   9
ENDBRANCH   7   8
ENDBRANCH   1   7
BRANCH   2  23
ATOM     23  O   UNL     1       9.857  50.435  21.262  1.00  0.00    -0.452 OA
BRANCH  23  24
ATOM     24  C   UNL     1      10.549  49.253  21.550  1.00  0.00     0.338 C 
ATOM     25  O   UNL     1      10.186  48.164  21.024  1.00  0.00    -0.246 OA
BRANCH  24  26
ATOM     26  C   UNL     1      11.681  49.274  22.501  1.00  0.00     0.067 A 
ATOM     27  C   UNL     1      11.469  49.551  23.862  1.00  0.00     0.066 A 
ATOM     28  C   UNL     1      12.993  49.068  22.042  1.00  0.00     0.066 A 
ATOM     29  C   UNL     1      12.545  49.623  24.753  1.00  0.00     0.162 A 
ATOM     30  C   UNL     1      14.077  49.148  22.924  1.00  0.00     0.162 A 
ATOM     31  C   UNL     1      13.856  49.422  24.285  1.00  0.00     0.200 A 
BRANCH  29  32
ATOM     32  O   UNL     1      12.293  49.898  26.095  1.00  0.00    -0.504 OA
ATOM     33  H   UNL     1      11.767  49.265  26.686  1.00  0.00     0.293 HD
ENDBRANCH  29  32
BRANCH  30  34
ATOM     34  O   UNL     1      15.376  48.963  22.452  1.00  0.00    -0.504 OA
ATOM     35  H   UNL     1      16.180  49.042  23.063  1.00  0.00     0.293 HD
ENDBRANCH  30  34
BRANCH  31  36
ATOM     36  O   UNL     1      14.927  49.509  25.178  1.00  0.00    -0.502 OA
ATOM     37  H   UNL     1      15.533  48.721  25.370  1.00  0.00     0.293 HD
ENDBRANCH  31  36
ENDBRANCH  24  26
ENDBRANCH  23  24
ENDBRANCH   2  23
BRANCH   3  38
ATOM     38  O   UNL     1       9.271  51.877  17.941  1.00  0.00    -0.450 OA
BRANCH  38  39
ATOM     39  C   UNL     1      10.524  51.862  17.324  1.00  0.00     0.338 C 
ATOM     40  O   UNL     1      11.392  51.007  17.650  1.00  0.00    -0.246 OA
BRANCH  39  41
ATOM     41  C   UNL     1      10.811  52.864  16.278  1.00  0.00     0.067 A 
ATOM     42  C   UNL     1      11.487  54.048  16.624  1.00  0.00     0.066 A 
ATOM     43  C   UNL     1      10.426  52.658  14.942  1.00  0.00     0.066 A 
ATOM     44  C   UNL     1      11.785  55.007  15.649  1.00  0.00     0.162 A 
ATOM     45  C   UNL     1      10.709  53.624  13.967  1.00  0.00     0.162 A 
ATOM     46  C   UNL     1      11.407  54.793  14.320  1.00  0.00     0.200 A 
BRANCH  44  47
ATOM     47  O   UNL     1      12.464  56.175  15.995  1.00  0.00    -0.504 OA
ATOM     48  H   UNL     1      13.411  56.148  16.359  1.00  0.00     0.293 HD
ENDBRANCH  44  47
BRANCH  45  49
ATOM     49  O   UNL     1      10.283  53.443  12.650  1.00  0.00    -0.504 OA
ATOM     50  H   UNL     1      10.760  53.869  11.864  1.00  0.00     0.293 HD
ENDBRANCH  45  49
BRANCH  46  51
ATOM     51  O   UNL     1      11.721  55.759  13.361  1.00  0.00    -0.502 OA
ATOM     52  H   UNL     1      11.179  55.862  12.514  1.00  0.00     0.293 HD
ENDBRANCH  46  51
ENDBRANCH  39  41
ENDBRANCH  38  39
ENDBRANCH   3  38
BRANCH   5  53
ATOM     53  O   UNL     1       7.317  54.310  19.704  1.00  0.00    -0.428 OA
BRANCH  53  54
ATOM     54  C   UNL     1       6.703  55.312  20.464  1.00  0.00     0.340 C 
ATOM     55  O   UNL     1       5.570  55.106  20.981  1.00  0.00    -0.246 OA
BRANCH  54  56
ATOM     56  C   UNL     1       7.415  56.583  20.718  1.00  0.00     0.067 A 
ATOM     57  C   UNL     1       8.768  56.585  21.083  1.00  0.00     0.066 A 
ATOM     58  C   UNL     1       6.757  57.808  20.524  1.00  0.00     0.066 A 
ATOM     59  C   UNL     1       9.463  57.791  21.235  1.00  0.00     0.162 A 
ATOM     60  C   UNL     1       7.437  59.021  20.682  1.00  0.00     0.162 A 
ATOM     61  C   UNL     1       8.806  59.015  21.044  1.00  0.00     0.200 A 
BRANCH  59  62
ATOM     62  O   UNL     1      10.818  57.778  21.564  1.00  0.00    -0.504 OA
ATOM     63  H   UNL     1      11.131  57.888  22.521  1.00  0.00     0.293 HD
ENDBRANCH  59  62
BRANCH  60  64
ATOM     64  O   UNL     1       6.721  60.199  20.456  1.00  0.00    -0.504 OA
ATOM     65  H   UNL     1       7.122  61.046  20.083  1.00  0.00     0.293 HD
ENDBRANCH  60  64
BRANCH  61  66
ATOM     66  O   UNL     1       9.541  60.188  21.216  1.00  0.00    -0.502 OA
ATOM     67  H   UNL     1       9.786  60.814  20.460  1.00  0.00     0.293 HD
ENDBRANCH  61  66
ENDBRANCH  54  56
ENDBRANCH  53  54
ENDBRANCH   5  53
BRANCH   4  68
ATOM     68  O   UNL     1       6.676  51.964  18.864  1.00  0.00    -0.448 OA
BRANCH  68  69
ATOM     69  C   UNL     1       6.156  53.174  18.387  1.00  0.00     0.339 C 
ATOM     70  O   UNL     1       6.938  54.097  18.025  1.00  0.00    -0.246 OA
BRANCH  69  71
ATOM     71  C   UNL     1       4.694  53.378  18.334  1.00  0.00     0.067 A 
ATOM     72  C   UNL     1       3.874  52.898  19.366  1.00  0.00     0.066 A 
ATOM     73  C   UNL     1       4.113  54.090  17.275  1.00  0.00     0.066 A 
ATOM     74  C   UNL     1       2.492  53.135  19.356  1.00  0.00     0.162 A 
ATOM     75  C   UNL     1       2.734  54.327  17.248  1.00  0.00     0.162 A 
ATOM     76  C   UNL     1       1.915  53.859  18.285  1.00  0.00     0.200 A 
BRANCH  74  77
ATOM     77  O   UNL     1       1.740  52.641  20.425  1.00  0.00    -0.504 OA
ATOM     78  H   UNL     1       0.991  51.971  20.326  1.00  0.00     0.293 HD
ENDBRANCH  74  77
BRANCH  75  79
ATOM     79  O   UNL     1       2.168  55.034  16.188  1.00  0.00    -0.504 OA
ATOM     80  H   UNL     1       1.173  55.222  16.145  1.00  0.00     0.293 HD
ENDBRANCH  75  79
BRANCH  76  81
ATOM     81  O   UNL     1       0.548  54.137  18.216  1.00  0.00    -0.502 OA
ATOM     82  H   UNL     1       0.093  54.546  17.412  1.00  0.00     0.293 HD
ENDBRANCH  76  81
ENDBRANCH  69  71
ENDBRANCH  68  69
ENDBRANCH   4  68
TORSDOF 31
ENDMDL
MODEL 3
REMARK VINA RESULT:    85.094      1.053      2.073
REMARK INTER + INTRA:         205.468
REMARK INTER:                 209.346
REMARK INTRA:                  -3.877
REMARK UNBOUND:                 3.470
REMARK SMILES O=C(OC[C@H]1O[C@@H](OC(=O)c2cc(O)c(O)c(O)c2)[C@@H](OC(=O)c2cc(O)c(O)c(O)c2)[C@@H](OC(=O)c2cc(O)c(O)c(O)c2)[C@@H]1OC(=O)c1cc(O)c(O)c(O)c1)c1cc(O)c(O)c(O)c1
REMARK SMILES IDX 5 1 46 2 33 3 20 4 7 5 6 6 4 7 3 8 2 9 1 10 59 11 60 12
REMARK SMILES IDX 61 13 67 14 63 15 65 16 62 17 64 19 66 21 47 23 48 24 49 25
REMARK SMILES IDX 50 26 58 27 51 28 56 29 52 30 54 31 57 32 53 34 55 36 34 38
REMARK SMILES IDX 35 39 36 40 37 41 45 42 38 43 43 44 39 45 41 46 44 47 40 49
REMARK SMILES IDX 42 51 8 53 9 54 10 55 11 56 19 57 12 58 17 59 13 60 15 61
REMARK SMILES IDX 18 62 14 64 16 66 21 68 22 69 23 70 24 71 32 72 25 73 30 74
REMARK SMILES IDX 26 75 28 76 31 77 27 79 29 81
REMARK H PARENT 62 18 64 20 66 22 57 33 53 35 55 37 44 48 40 50 42 52 18 63
REMARK H PARENT 14 65 16 67 31 78 27 80 29 82
REMARK Flexibility Score: inf
ROOT
ATOM      1  C   UNL     1      10.085  52.917  20.236  1.00  0.00     0.205 C 
ATOM      2  C   UNL     1       9.771  51.633  19.401  1.00  0.00     0.254 C 
ATOM      3  C   UNL     1       8.613  51.908  18.422  1.00  0.00     0.267 C 
ATOM      4  C   UNL     1       7.426  52.494  19.207  1.00  0.00     0.290 C 
ATOM      5  C   UNL     1       7.881  53.705  20.070  1.00  0.00     0.357 C 
ATOM      6  O   UNL     1       9.254  54.004  19.862  1.00  0.00    -0.329 OA
ENDROOT
BRANCH   1   7
ATOM      7  C   UNL     1      11.546  53.369  20.058  1.00  0.00     0.269 C 
BRANCH   7   8
ATOM      8  O   UNL     1      12.362  52.830  21.100  1.00  0.00    -0.459 OA
BRANCH   8   9
ATOM      9  C   UNL     1      12.808  53.572  22.210  1.00  0.00     0.338 C 
ATOM     10  O   UNL     1      12.068  54.478  22.678  1.00  0.00    -0.246 OA
BRANCH   9  11
ATOM     11  C   UNL     1      14.111  53.310  22.849  1.00  0.00     0.067 A 
ATOM     12  C   UNL     1      14.342  52.091  23.504  1.00  0.00     0.066 A 
ATOM     13  C   UNL     1      15.541  51.871  24.187  1.00  0.00     0.162 A 
ATOM     14  C   UNL     1      15.095  54.305  22.868  1.00  0.00     0.066 A 
ATOM     15  C   UNL     1      16.527  52.875  24.218  1.00  0.00     0.200 A 
ATOM     16  C   UNL     1      16.297  54.098  23.561  1.00  0.00     0.162 A 
BRANCH  13  17
ATOM     17  O   UNL     1      15.734  50.652  24.835  1.00  0.00    -0.504 OA
ATOM     18  H   UNL     1      16.320  50.567  25.659  1.00  0.00     0.293 HD
ENDBRANCH  13  17
BRANCH  15  19
ATOM     19  O   UNL     1      17.723  52.646  24.900  1.00  0.00    -0.502 OA
ATOM     20  H   UNL     1      18.422  53.367  25.023  1.00  0.00     0.293 HD
ENDBRANCH  15  19
BRANCH  16  21
ATOM     21  O   UNL     1      17.258  55.106  23.603  1.00  0.00    -0.504 OA
ATOM     22  H   UNL     1      17.261  55.862  22.927  1.00  0.00     0.293 HD
ENDBRANCH  16  21
ENDBRANCH   9  11
ENDBRANCH   8   9
ENDBRANCH   7   8
ENDBRANCH   1   7
BRANCH   2  23
ATOM     23  O   UNL     1       9.392  50.573  20.282  1.00  0.00    -0.452 OA
BRANCH  23  24
ATOM     24  C   UNL     1      10.209  49.465  20.532  1.00  0.00     0.338 C 
ATOM     25  O   UNL     1      10.158  48.458  19.772  1.00  0.00    -0.246 OA
BRANCH  24  26
ATOM     26  C   UNL     1      11.103  49.458  21.710  1.00  0.00     0.067 A 
ATOM     27  C   UNL     1      12.468  49.152  21.574  1.00  0.00     0.066 A 
ATOM     28  C   UNL     1      10.583  49.706  22.992  1.00  0.00     0.066 A 
ATOM     29  C   UNL     1      13.302  49.094  22.694  1.00  0.00     0.162 A 
ATOM     30  C   UNL     1      11.409  49.640  24.120  1.00  0.00     0.162 A 
ATOM     31  C   UNL     1      12.774  49.337  23.975  1.00  0.00     0.200 A 
BRANCH  29  32
ATOM     32  O   UNL     1      14.650  48.791  22.517  1.00  0.00    -0.504 OA
ATOM     33  H   UNL     1      15.319  48.842  23.276  1.00  0.00     0.293 HD
ENDBRANCH  29  32
BRANCH  30  34
ATOM     34  O   UNL     1      10.876  49.867  25.389  1.00  0.00    -0.504 OA
ATOM     35  H   UNL     1      10.131  49.293  25.762  1.00  0.00     0.293 HD
ENDBRANCH  30  34
BRANCH  31  36
ATOM     36  O   UNL     1      13.611  49.264  25.091  1.00  0.00    -0.502 OA
ATOM     37  H   UNL     1      14.358  49.929  25.248  1.00  0.00     0.293 HD
ENDBRANCH  31  36
ENDBRANCH  24  26
ENDBRANCH  23  24
ENDBRANCH   2  23
BRANCH   3  38
ATOM     38  O   UNL     1       9.016  52.861  17.441  1.00  0.00    -0.450 OA
BRANCH  38  39
ATOM     39  C   UNL     1       9.470  52.543  16.158  1.00  0.00     0.338 C 
ATOM     40  O   UNL     1       9.039  51.520  15.559  1.00  0.00    -0.246 OA
BRANCH  39  41
ATOM     41  C   UNL     1      10.460  53.430  15.516  1.00  0.00     0.067 A 
ATOM     42  C   UNL     1      10.880  53.159  14.202  1.00  0.00     0.066 A 
ATOM     43  C   UNL     1      10.990  54.543  16.191  1.00  0.00     0.066 A 
ATOM     44  C   UNL     1      11.805  53.993  13.565  1.00  0.00     0.162 A 
ATOM     45  C   UNL     1      11.930  55.371  15.560  1.00  0.00     0.162 A 
ATOM     46  C   UNL     1      12.323  55.104  14.237  1.00  0.00     0.200 A 
BRANCH  44  47
ATOM     47  O   UNL     1      12.210  53.726  12.257  1.00  0.00    -0.504 OA
ATOM     48  H   UNL     1      13.092  53.265  12.061  1.00  0.00     0.293 HD
ENDBRANCH  44  47
BRANCH  45  49
ATOM     49  O   UNL     1      12.494  56.448  16.247  1.00  0.00    -0.504 OA
ATOM     50  H   UNL     1      13.281  56.970  15.881  1.00  0.00     0.293 HD
ENDBRANCH  45  49
BRANCH  46  51
ATOM     51  O   UNL     1      13.240  55.928  13.580  1.00  0.00    -0.502 OA
ATOM     52  H   UNL     1      13.399  56.883  13.872  1.00  0.00     0.293 HD
ENDBRANCH  46  51
ENDBRANCH  39  41
ENDBRANCH  38  39
ENDBRANCH   3  38
BRANCH   5  53
ATOM     53  O   UNL     1       7.126  54.869  19.730  1.00  0.00    -0.428 OA
BRANCH  53  54
ATOM     54  C   UNL     1       6.800  55.839  20.685  1.00  0.00     0.340 C 
ATOM     55  O   UNL     1       5.880  55.617  21.521  1.00  0.00    -0.246 OA
BRANCH  54  56
ATOM     56  C   UNL     1       7.582  57.092  20.758  1.00  0.00     0.067 A 
ATOM     57  C   UNL     1       7.026  58.307  20.335  1.00  0.00     0.066 A 
ATOM     58  C   UNL     1       8.867  57.087  21.321  1.00  0.00     0.066 A 
ATOM     59  C   UNL     1       7.734  59.506  20.488  1.00  0.00     0.162 A 
ATOM     60  C   UNL     1       9.590  58.277  21.472  1.00  0.00     0.162 A 
ATOM     61  C   UNL     1       9.019  59.501  21.049  1.00  0.00     0.200 A 
BRANCH  59  62
ATOM     62  O   UNL     1       7.155  60.712  20.096  1.00  0.00    -0.504 OA
ATOM     63  H   UNL     1       6.950  60.908  19.124  1.00  0.00     0.293 HD
ENDBRANCH  59  62
BRANCH  60  64
ATOM     64  O   UNL     1      10.856  58.195  22.056  1.00  0.00    -0.504 OA
ATOM     65  H   UNL     1      11.102  57.551  22.793  1.00  0.00     0.293 HD
ENDBRANCH  60  64
BRANCH  61  66
ATOM     66  O   UNL     1       9.686  60.721  21.171  1.00  0.00    -0.502 OA
ATOM     67  H   UNL     1       9.431  61.554  20.657  1.00  0.00     0.293 HD
ENDBRANCH  61  66
ENDBRANCH  54  56
ENDBRANCH  53  54
ENDBRANCH   5  53
BRANCH   4  68
ATOM     68  O   UNL     1       6.394  52.866  18.290  1.00  0.00    -0.448 OA
BRANCH  68  69
ATOM     69  C   UNL     1       5.169  52.194  18.215  1.00  0.00     0.339 C 
ATOM     70  O   UNL     1       5.145  50.944  18.039  1.00  0.00    -0.246 OA
BRANCH  69  71
ATOM     71  C   UNL     1       3.905  52.952  18.317  1.00  0.00     0.067 A 
ATOM     72  C   UNL     1       3.623  53.984  17.410  1.00  0.00     0.066 A 
ATOM     73  C   UNL     1       2.953  52.620  19.292  1.00  0.00     0.066 A 
ATOM     74  C   UNL     1       2.403  54.672  17.460  1.00  0.00     0.162 A 
ATOM     75  C   UNL     1       1.734  53.305  19.359  1.00  0.00     0.162 A 
ATOM     76  C   UNL     1       1.446  54.328  18.445  1.00  0.00     0.200 A 
BRANCH  74  77
ATOM     77  O   UNL     1       2.185  55.678  16.515  1.00  0.00    -0.504 OA
ATOM     78  H   UNL     1       2.192  55.525  15.517  1.00  0.00     0.293 HD
ENDBRANCH  74  77
BRANCH  75  79
ATOM     79  O   UNL     1       0.797  52.968  20.335  1.00  0.00    -0.504 OA
ATOM     80  H   UNL     1       0.660  53.539  21.160  1.00  0.00     0.293 HD
ENDBRANCH  75  79
BRANCH  76  81
ATOM     81  O   UNL     1       0.209  54.968  18.546  1.00  0.00    -0.502 OA
ATOM     82  H   UNL     1      -0.572  54.610  19.079  1.00  0.00     0.293 HD
ENDBRANCH  76  81
ENDBRANCH  69  71
ENDBRANCH  68  69
ENDBRANCH   4  68
TORSDOF 31
ENDMDL
MODEL 4
REMARK VINA RESULT:    85.194      1.039      1.539
REMARK INTER + INTRA:         205.706
REMARK INTER:                 210.093
REMARK INTRA:                  -4.387
REMARK UNBOUND:                 3.470
REMARK SMILES O=C(OC[C@H]1O[C@@H](OC(=O)c2cc(O)c(O)c(O)c2)[C@@H](OC(=O)c2cc(O)c(O)c(O)c2)[C@@H](OC(=O)c2cc(O)c(O)c(O)c2)[C@@H]1OC(=O)c1cc(O)c(O)c(O)c1)c1cc(O)c(O)c(O)c1
REMARK SMILES IDX 5 1 46 2 33 3 20 4 7 5 6 6 4 7 3 8 2 9 1 10 59 11 60 12
REMARK SMILES IDX 61 13 67 14 63 15 65 16 62 17 64 19 66 21 47 23 48 24 49 25
REMARK SMILES IDX 50 26 58 27 51 28 56 29 52 30 54 31 57 32 53 34 55 36 34 38
REMARK SMILES IDX 35 39 36 40 37 41 45 42 38 43 43 44 39 45 41 46 44 47 40 49
REMARK SMILES IDX 42 51 8 53 9 54 10 55 11 56 19 57 12 58 17 59 13 60 15 61
REMARK SMILES IDX 18 62 14 64 16 66 21 68 22 69 23 70 24 71 32 72 25 73 30 74
REMARK SMILES IDX 26 75 28 76 31 77 27 79 29 81
REMARK H PARENT 62 18 64 20 66 22 57 33 53 35 55 37 44 48 40 50 42 52 18 63
REMARK H PARENT 14 65 16 67 31 78 27 80 29 82
REMARK Flexibility Score: inf
ROOT
ATOM      1  C   UNL     1      10.160  52.975  20.107  1.00  0.00     0.205 C 
ATOM      2  C   UNL     1       9.782  51.670  19.334  1.00  0.00     0.254 C 
ATOM      3  C   UNL     1       8.585  51.934  18.400  1.00  0.00     0.267 C 
ATOM      4  C   UNL     1       7.448  52.573  19.218  1.00  0.00     0.290 C 
ATOM      5  C   UNL     1       7.967  53.803  20.015  1.00  0.00     0.357 C 
ATOM      6  O   UNL     1       9.334  54.066  19.733  1.00  0.00    -0.329 OA
ENDROOT
BRANCH   1   7
ATOM      7  C   UNL     1      11.619  53.390  19.845  1.00  0.00     0.269 C 
BRANCH   7   8
ATOM      8  O   UNL     1      12.462  52.936  20.907  1.00  0.00    -0.459 OA
BRANCH   8   9
ATOM      9  C   UNL     1      12.687  53.659  22.093  1.00  0.00     0.338 C 
ATOM     10  O   UNL     1      11.821  54.490  22.478  1.00  0.00    -0.246 OA
BRANCH   9  11
ATOM     11  C   UNL     1      13.902  53.464  22.906  1.00  0.00     0.067 A 
ATOM     12  C   UNL     1      14.630  54.573  23.363  1.00  0.00     0.066 A 
ATOM     13  C   UNL     1      15.829  54.394  24.058  1.00  0.00     0.162 A 
ATOM     14  C   UNL     1      14.374  52.172  23.161  1.00  0.00     0.066 A 
ATOM     15  C   UNL     1      16.312  53.095  24.305  1.00  0.00     0.200 A 
ATOM     16  C   UNL     1      15.583  51.982  23.847  1.00  0.00     0.162 A 
BRANCH  13  17
ATOM     17  O   UNL     1      16.532  55.518  24.489  1.00  0.00    -0.504 OA
ATOM     18  H   UNL     1      16.702  56.313  23.881  1.00  0.00     0.293 HD
ENDBRANCH  13  17
BRANCH  15  19
ATOM     19  O   UNL     1      17.509  52.926  25.002  1.00  0.00    -0.502 OA
ATOM     20  H   UNL     1      18.314  53.518  24.846  1.00  0.00     0.293 HD
ENDBRANCH  15  19
BRANCH  16  21
ATOM     21  O   UNL     1      16.062  50.692  24.068  1.00  0.00    -0.504 OA
ATOM     22  H   UNL     1      17.018  50.526  24.361  1.00  0.00     0.293 HD
ENDBRANCH  16  21
ENDBRANCH   9  11
ENDBRANCH   8   9
ENDBRANCH   7   8
ENDBRANCH   1   7
BRANCH   2  23
ATOM     23  O   UNL     1       9.424  50.649  20.269  1.00  0.00    -0.452 OA
BRANCH  23  24
ATOM     24  C   UNL     1      10.201  49.503  20.476  1.00  0.00     0.338 C 
ATOM     25  O   UNL     1      10.109  48.527  19.680  1.00  0.00    -0.246 OA
BRANCH  24  26
ATOM     26  C   UNL     1      11.098  49.421  21.649  1.00  0.00     0.067 A 
ATOM     27  C   UNL     1      10.640  49.778  22.928  1.00  0.00     0.066 A 
ATOM     28  C   UNL     1      12.438  49.032  21.486  1.00  0.00     0.066 A 
ATOM     29  C   UNL     1      11.502  49.751  24.029  1.00  0.00     0.162 A 
ATOM     30  C   UNL     1      13.311  49.012  22.580  1.00  0.00     0.162 A 
ATOM     31  C   UNL     1      12.845  49.368  23.858  1.00  0.00     0.200 A 
BRANCH  29  32
ATOM     32  O   UNL     1      11.010  50.110  25.281  1.00  0.00    -0.504 OA
ATOM     33  H   UNL     1      10.277  50.801  25.395  1.00  0.00     0.293 HD
ENDBRANCH  29  32
BRANCH  30  34
ATOM     34  O   UNL     1      14.645  48.646  22.402  1.00  0.00    -0.504 OA
ATOM     35  H   UNL     1      15.304  48.648  23.171  1.00  0.00     0.293 HD
ENDBRANCH  30  34
BRANCH  31  36
ATOM     36  O   UNL     1      13.703  49.356  24.959  1.00  0.00    -0.502 OA
ATOM     37  H   UNL     1      14.146  48.506  25.288  1.00  0.00     0.293 HD
ENDBRANCH  31  36
ENDBRANCH  24  26
ENDBRANCH  23  24
ENDBRANCH   2  23
BRANCH   3  38
ATOM     38  O   UNL     1       8.960  52.844  17.368  1.00  0.00    -0.450 OA
BRANCH  38  39
ATOM     39  C   UNL     1       9.480  52.472  16.126  1.00  0.00     0.338 C 
ATOM     40  O   UNL     1       9.123  51.394  15.576  1.00  0.00    -0.246 OA
BRANCH  39  41
ATOM     41  C   UNL     1      10.453  53.366  15.467  1.00  0.00     0.067 A 
ATOM     42  C   UNL     1      10.931  54.493  16.158  1.00  0.00     0.066 A 
ATOM     43  C   UNL     1      10.914  53.112  14.164  1.00  0.00     0.066 A 
ATOM     44  C   UNL     1      11.865  55.348  15.563  1.00  0.00     0.162 A 
ATOM     45  C   UNL     1      11.837  53.976  13.559  1.00  0.00     0.162 A 
ATOM     46  C   UNL     1      12.327  55.087  14.269  1.00  0.00     0.200 A 
BRANCH  44  47
ATOM     47  O   UNL     1      12.345  56.459  16.256  1.00  0.00    -0.504 OA
ATOM     48  H   UNL     1      12.878  56.358  17.113  1.00  0.00     0.293 HD
ENDBRANCH  44  47
BRANCH  45  49
ATOM     49  O   UNL     1      12.257  53.752  12.247  1.00  0.00    -0.504 OA
ATOM     50  H   UNL     1      11.617  53.462  11.517  1.00  0.00     0.293 HD
ENDBRANCH  45  49
BRANCH  46  51
ATOM     51  O   UNL     1      13.265  55.949  13.695  1.00  0.00    -0.502 OA
ATOM     52  H   UNL     1      13.527  55.875  12.722  1.00  0.00     0.293 HD
ENDBRANCH  46  51
ENDBRANCH  39  41
ENDBRANCH  38  39
ENDBRANCH   3  38
BRANCH   5  53
ATOM     53  O   UNL     1       7.219  54.970  19.669  1.00  0.00    -0.428 OA
BRANCH  53  54
ATOM     54  C   UNL     1       6.794  55.886  20.639  1.00  0.00     0.340 C 
ATOM     55  O   UNL     1       5.815  55.605  21.385  1.00  0.00    -0.246 OA
BRANCH  54  56
ATOM     56  C   UNL     1       7.538  57.149  20.834  1.00  0.00     0.067 A 
ATOM     57  C   UNL     1       8.813  57.145  21.416  1.00  0.00     0.066 A 
ATOM     58  C   UNL     1       7.001  58.359  20.369  1.00  0.00     0.066 A 
ATOM     59  C   UNL     1       9.552  58.330  21.518  1.00  0.00     0.162 A 
ATOM     60  C   UNL     1       7.726  59.553  20.472  1.00  0.00     0.162 A 
ATOM     61  C   UNL     1       9.015  59.540  21.055  1.00  0.00     0.200 A 
BRANCH  59  62
ATOM     62  O   UNL     1      10.834  58.307  22.067  1.00  0.00    -0.504 OA
ATOM     63  H   UNL     1      11.444  57.507  21.952  1.00  0.00     0.293 HD
ENDBRANCH  59  62
BRANCH  60  64
ATOM     64  O   UNL     1       7.133  60.715  19.972  1.00  0.00    -0.504 OA
ATOM     65  H   UNL     1       6.371  60.726  19.311  1.00  0.00     0.293 HD
ENDBRANCH  60  64
BRANCH  61  66
ATOM     66  O   UNL     1       9.790  60.694  21.188  1.00  0.00    -0.502 OA
ATOM     67  H   UNL     1       9.528  61.593  20.803  1.00  0.00     0.293 HD
ENDBRANCH  61  66
ENDBRANCH  54  56
ENDBRANCH  53  54
ENDBRANCH   5  53
BRANCH   4  68
ATOM     68  O   UNL     1       6.382  52.934  18.337  1.00  0.00    -0.448 OA
BRANCH  68  69
ATOM     69  C   UNL     1       5.174  52.227  18.279  1.00  0.00     0.339 C 
ATOM     70  O   UNL     1       5.185  50.974  18.126  1.00  0.00    -0.246 OA
BRANCH  69  71
ATOM     71  C   UNL     1       3.891  52.952  18.370  1.00  0.00     0.067 A 
ATOM     72  C   UNL     1       3.599  53.992  17.476  1.00  0.00     0.066 A 
ATOM     73  C   UNL     1       2.931  52.582  19.324  1.00  0.00     0.066 A 
ATOM     74  C   UNL     1       2.361  54.649  17.515  1.00  0.00     0.162 A 
ATOM     75  C   UNL     1       1.694  53.234  19.380  1.00  0.00     0.162 A 
ATOM     76  C   UNL     1       1.397  54.265  18.478  1.00  0.00     0.200 A 
BRANCH  74  77
ATOM     77  O   UNL     1       2.135  55.665  16.583  1.00  0.00    -0.504 OA
ATOM     78  H   UNL     1       1.944  56.625  16.829  1.00  0.00     0.293 HD
ENDBRANCH  74  77
BRANCH  75  79
ATOM     79  O   UNL     1       0.750  52.859  20.334  1.00  0.00    -0.504 OA
ATOM     80  H   UNL     1       0.552  53.436  21.143  1.00  0.00     0.293 HD
ENDBRANCH  75  79
BRANCH  76  81
ATOM     81  O   UNL     1       0.142  54.873  18.568  1.00  0.00    -0.502 OA
ATOM     82  H   UNL     1      -0.467  54.796  19.370  1.00  0.00     0.293 HD
ENDBRANCH  76  81
ENDBRANCH  69  71
ENDBRANCH  68  69
ENDBRANCH   4  68
TORSDOF 31
ENDMDL
MODEL 5
REMARK VINA RESULT:    86.277      1.296      2.428
REMARK INTER + INTRA:         208.276
REMARK INTER:                 211.045
REMARK INTRA:                  -2.769
REMARK UNBOUND:                 3.470
REMARK SMILES O=C(OC[C@H]1O[C@@H](OC(=O)c2cc(O)c(O)c(O)c2)[C@@H](OC(=O)c2cc(O)c(O)c(O)c2)[C@@H](OC(=O)c2cc(O)c(O)c(O)c2)[C@@H]1OC(=O)c1cc(O)c(O)c(O)c1)c1cc(O)c(O)c(O)c1
REMARK SMILES IDX 5 1 46 2 33 3 20 4 7 5 6 6 4 7 3 8 2 9 1 10 59 11 60 12
REMARK SMILES IDX 61 13 67 14 63 15 65 16 62 17 64 19 66 21 47 23 48 24 49 25
REMARK SMILES IDX 50 26 58 27 51 28 56 29 52 30 54 31 57 32 53 34 55 36 34 38
REMARK SMILES IDX 35 39 36 40 37 41 45 42 38 43 43 44 39 45 41 46 44 47 40 49
REMARK SMILES IDX 42 51 8 53 9 54 10 55 11 56 19 57 12 58 17 59 13 60 15 61
REMARK SMILES IDX 18 62 14 64 16 66 21 68 22 69 23 70 24 71 32 72 25 73 30 74
REMARK SMILES IDX 26 75 28 76 31 77 27 79 29 81
REMARK H PARENT 62 18 64 20 66 22 57 33 53 35 55 37 44 48 40 50 42 52 18 63
REMARK H PARENT 14 65 16 67 31 78 27 80 29 82
REMARK Flexibility Score: inf
ROOT
ATOM      1  C   UNL     1       9.839  53.146  20.583  1.00  0.00     0.205 C 
ATOM      2  C   UNL     1       9.524  52.195  19.382  1.00  0.00     0.254 C 
ATOM      3  C   UNL     1       8.309  52.723  18.594  1.00  0.00     0.267 C 
ATOM      4  C   UNL     1       7.146  52.962  19.574  1.00  0.00     0.290 C 
ATOM      5  C   UNL     1       7.606  53.841  20.771  1.00  0.00     0.357 C 
ATOM      6  O   UNL     1       8.957  54.255  20.622  1.00  0.00    -0.329 OA
ENDROOT
BRANCH   1   7
ATOM      7  C   UNL     1      11.274  53.699  20.509  1.00  0.00     0.269 C 
BRANCH   7   8
ATOM      8  O   UNL     1      12.093  53.090  21.510  1.00  0.00    -0.459 OA
BRANCH   8   9
ATOM      9  C   UNL     1      12.807  53.811  22.485  1.00  0.00     0.338 C 
ATOM     10  O   UNL     1      12.338  54.904  22.904  1.00  0.00    -0.246 OA
BRANCH   9  11
ATOM     11  C   UNL     1      14.081  53.319  23.040  1.00  0.00     0.067 A 
ATOM     12  C   UNL     1      14.162  52.028  23.581  1.00  0.00     0.066 A 
ATOM     13  C   UNL     1      15.342  51.587  24.188  1.00  0.00     0.162 A 
ATOM     14  C   UNL     1      15.194  54.166  23.095  1.00  0.00     0.066 A 
ATOM     15  C   UNL     1      16.459  52.441  24.255  1.00  0.00     0.200 A 
ATOM     16  C   UNL     1      16.380  53.737  23.713  1.00  0.00     0.162 A 
BRANCH  13  17
ATOM     17  O   UNL     1      15.384  50.302  24.724  1.00  0.00    -0.504 OA
ATOM     18  H   UNL     1      14.556  49.842  25.088  1.00  0.00     0.293 HD
ENDBRANCH  13  17
BRANCH  15  19
ATOM     19  O   UNL     1      17.634  51.993  24.860  1.00  0.00    -0.502 OA
ATOM     20  H   UNL     1      17.812  51.013  25.036  1.00  0.00     0.293 HD
ENDBRANCH  15  19
BRANCH  16  21
ATOM     21  O   UNL     1      17.472  54.598  23.792  1.00  0.00    -0.504 OA
ATOM     22  H   UNL     1      17.357  55.604  23.755  1.00  0.00     0.293 HD
ENDBRANCH  16  21
ENDBRANCH   9  11
ENDBRANCH   8   9
ENDBRANCH   7   8
ENDBRANCH   1   7
BRANCH   2  23
ATOM     23  O   UNL     1       9.224  50.888  19.876  1.00  0.00    -0.452 OA
BRANCH  23  24
ATOM     24  C   UNL     1      10.185  49.875  19.975  1.00  0.00     0.338 C 
ATOM     25  O   UNL     1      10.429  49.136  18.981  1.00  0.00    -0.246 OA
BRANCH  24  26
ATOM     26  C   UNL     1      10.885  49.645  21.258  1.00  0.00     0.067 A 
ATOM     27  C   UNL     1      10.268  49.964  22.479  1.00  0.00     0.066 A 
ATOM     28  C   UNL     1      12.201  49.152  21.265  1.00  0.00     0.066 A 
ATOM     29  C   UNL     1      10.949  49.796  23.689  1.00  0.00     0.162 A 
ATOM     30  C   UNL     1      12.894  48.990  22.471  1.00  0.00     0.162 A 
ATOM     31  C   UNL     1      12.268  49.308  23.689  1.00  0.00     0.200 A 
BRANCH  29  32
ATOM     32  O   UNL     1      10.301  50.121  24.879  1.00  0.00    -0.504 OA
ATOM     33  H   UNL     1      10.659  50.826  25.513  1.00  0.00     0.293 HD
ENDBRANCH  29  32
BRANCH  30  34
ATOM     34  O   UNL     1      14.207  48.521  22.463  1.00  0.00    -0.504 OA
ATOM     35  H   UNL     1      14.883  48.823  23.153  1.00  0.00     0.293 HD
ENDBRANCH  30  34
BRANCH  31  36
ATOM     36  O   UNL     1      12.947  49.156  24.900  1.00  0.00    -0.502 OA
ATOM     37  H   UNL     1      12.892  49.847  25.638  1.00  0.00     0.293 HD
ENDBRANCH  31  36
ENDBRANCH  24  26
ENDBRANCH  23  24
ENDBRANCH   2  23
BRANCH   3  38
ATOM     38  O   UNL     1       8.631  53.964  17.970  1.00  0.00    -0.450 OA
BRANCH  38  39
ATOM     39  C   UNL     1       8.343  54.287  16.641  1.00  0.00     0.338 C 
ATOM     40  O   UNL     1       7.190  54.677  16.310  1.00  0.00    -0.246 OA
BRANCH  39  41
ATOM     41  C   UNL     1       9.417  54.169  15.634  1.00  0.00     0.067 A 
ATOM     42  C   UNL     1       9.281  53.239  14.588  1.00  0.00     0.066 A 
ATOM     43  C   UNL     1      10.570  54.970  15.698  1.00  0.00     0.066 A 
ATOM     44  C   UNL     1      10.276  53.118  13.612  1.00  0.00     0.162 A 
ATOM     45  C   UNL     1      11.576  54.839  14.730  1.00  0.00     0.162 A 
ATOM     46  C   UNL     1      11.418  53.922  13.675  1.00  0.00     0.200 A 
BRANCH  44  47
ATOM     47  O   UNL     1      10.133  52.202  12.570  1.00  0.00    -0.504 OA
ATOM     48  H   UNL     1      10.938  51.837  12.073  1.00  0.00     0.293 HD
ENDBRANCH  44  47
BRANCH  45  49
ATOM     49  O   UNL     1      12.744  55.598  14.820  1.00  0.00    -0.504 OA
ATOM     50  H   UNL     1      13.322  55.603  15.653  1.00  0.00     0.293 HD
ENDBRANCH  45  49
BRANCH  46  51
ATOM     51  O   UNL     1      12.397  53.791  12.686  1.00  0.00    -0.502 OA
ATOM     52  H   UNL     1      12.945  52.948  12.591  1.00  0.00     0.293 HD
ENDBRANCH  46  51
ENDBRANCH  39  41
ENDBRANCH  38  39
ENDBRANCH   3  38
BRANCH   5  53
ATOM     53  O   UNL     1       6.798  55.014  20.865  1.00  0.00    -0.428 OA
BRANCH  53  54
ATOM     54  C   UNL     1       6.962  56.093  19.988  1.00  0.00     0.340 C 
ATOM     55  O   UNL     1       6.468  56.042  18.827  1.00  0.00    -0.246 OA
BRANCH  54  56
ATOM     56  C   UNL     1       7.651  57.318  20.448  1.00  0.00     0.067 A 
ATOM     57  C   UNL     1       8.866  57.236  21.142  1.00  0.00     0.066 A 
ATOM     58  C   UNL     1       7.129  58.580  20.129  1.00  0.00     0.066 A 
ATOM     59  C   UNL     1       9.563  58.398  21.497  1.00  0.00     0.162 A 
ATOM     60  C   UNL     1       7.810  59.751  20.486  1.00  0.00     0.162 A 
ATOM     61  C   UNL     1       9.040  59.660  21.180  1.00  0.00     0.200 A 
BRANCH  59  62
ATOM     62  O   UNL     1      10.788  58.303  22.156  1.00  0.00    -0.504 OA
ATOM     63  H   UNL     1      10.858  57.916  23.089  1.00  0.00     0.293 HD
ENDBRANCH  59  62
BRANCH  60  64
ATOM     64  O   UNL     1       7.236  60.971  20.120  1.00  0.00    -0.504 OA
ATOM     65  H   UNL     1       7.270  61.807  20.683  1.00  0.00     0.293 HD
ENDBRANCH  60  64
BRANCH  61  66
ATOM     66  O   UNL     1       9.768  60.787  21.565  1.00  0.00    -0.502 OA
ATOM     67  H   UNL     1      10.533  61.172  21.026  1.00  0.00     0.293 HD
ENDBRANCH  61  66
ENDBRANCH  54  56
ENDBRANCH  53  54
ENDBRANCH   5  53
BRANCH   4  68
ATOM     68  O   UNL     1       6.057  53.566  18.872  1.00  0.00    -0.448 OA
BRANCH  68  69
ATOM     69  C   UNL     1       5.008  52.824  18.317  1.00  0.00     0.339 C 
ATOM     70  O   UNL     1       5.246  51.969  17.419  1.00  0.00    -0.246 OA
BRANCH  69  71
ATOM     71  C   UNL     1       3.620  53.061  18.765  1.00  0.00     0.067 A 
ATOM     72  C   UNL     1       2.831  54.037  18.140  1.00  0.00     0.066 A 
ATOM     73  C   UNL     1       3.061  52.284  19.790  1.00  0.00     0.066 A 
ATOM     74  C   UNL     1       1.495  54.231  18.517  1.00  0.00     0.162 A 
ATOM     75  C   UNL     1       1.731  52.473  20.183  1.00  0.00     0.162 A 
ATOM     76  C   UNL     1       0.938  53.440  19.550  1.00  0.00     0.200 A 
BRANCH  74  77
ATOM     77  O   UNL     1       0.764  55.211  17.839  1.00  0.00    -0.504 OA
ATOM     78  H   UNL     1       1.088  55.680  17.005  1.00  0.00     0.293 HD
ENDBRANCH  74  77
BRANCH  75  79
ATOM     79  O   UNL     1       1.188  51.696  21.206  1.00  0.00    -0.504 OA
ATOM     80  H   UNL     1       0.606  50.891  21.010  1.00  0.00     0.293 HD
ENDBRANCH  75  79
BRANCH  76  81
ATOM     81  O   UNL     1      -0.387  53.576  19.970  1.00  0.00    -0.502 OA
ATOM     82  H   UNL     1      -0.678  53.571  20.938  1.00  0.00     0.293 HD
ENDBRANCH  76  81
ENDBRANCH  69  71
ENDBRANCH  68  69
ENDBRANCH   4  68
TORSDOF 31
ENDMDL
MODEL 6
REMARK VINA RESULT:    86.999      1.097     10.089
REMARK INTER + INTRA:         209.989
REMARK INTER:                 212.342
REMARK INTRA:                  -2.353
REMARK UNBOUND:                 3.470
REMARK SMILES O=C(OC[C@H]1O[C@@H](OC(=O)c2cc(O)c(O)c(O)c2)[C@@H](OC(=O)c2cc(O)c(O)c(O)c2)[C@@H](OC(=O)c2cc(O)c(O)c(O)c2)[C@@H]1OC(=O)c1cc(O)c(O)c(O)c1)c1cc(O)c(O)c(O)c1
REMARK SMILES IDX 5 1 46 2 33 3 20 4 7 5 6 6 4 7 3 8 2 9 1 10 59 11 60 12
REMARK SMILES IDX 61 13 67 14 63 15 65 16 62 17 64 19 66 21 47 23 48 24 49 25
REMARK SMILES IDX 50 26 58 27 51 28 56 29 52 30 54 31 57 32 53 34 55 36 34 38
REMARK SMILES IDX 35 39 36 40 37 41 45 42 38 43 43 44 39 45 41 46 44 47 40 49
REMARK SMILES IDX 42 51 8 53 9 54 10 55 11 56 19 57 12 58 17 59 13 60 15 61
REMARK SMILES IDX 18 62 14 64 16 66 21 68 22 69 23 70 24 71 32 72 25 73 30 74
REMARK SMILES IDX 26 75 28 76 31 77 27 79 29 81
REMARK H PARENT 62 18 64 20 66 22 57 33 53 35 55 37 44 48 40 50 42 52 18 63
REMARK H PARENT 14 65 16 67 31 78 27 80 29 82
REMARK Flexibility Score: inf
ROOT
ATOM      1  C   UNL     1       8.470  51.801  19.773  1.00  0.00     0.205 C 
ATOM      2  C   UNL     1       8.857  53.316  19.758  1.00  0.00     0.254 C 
ATOM      3  C   UNL     1      10.365  53.480  20.030  1.00  0.00     0.267 C 
ATOM      4  C   UNL     1      10.724  52.717  21.318  1.00  0.00     0.290 C 
ATOM      5  C   UNL     1      10.205  51.252  21.253  1.00  0.00     0.357 C 
ATOM      6  O   UNL     1       9.597  50.972  20.001  1.00  0.00    -0.329 OA
ENDROOT
BRANCH   1   7
ATOM      7  C   UNL     1       7.834  51.362  18.442  1.00  0.00     0.269 C 
BRANCH   7   8
ATOM      8  O   UNL     1       6.437  51.663  18.436  1.00  0.00    -0.459 OA
BRANCH   8   9
ATOM      9  C   UNL     1       5.905  52.914  18.071  1.00  0.00     0.338 C 
ATOM     10  O   UNL     1       6.682  53.807  17.640  1.00  0.00    -0.246 OA
BRANCH   9  11
ATOM     11  C   UNL     1       4.463  53.205  18.168  1.00  0.00     0.067 A 
ATOM     12  C   UNL     1       3.857  54.078  17.252  1.00  0.00     0.066 A 
ATOM     13  C   UNL     1       2.511  54.428  17.390  1.00  0.00     0.162 A 
ATOM     14  C   UNL     1       3.708  52.670  19.218  1.00  0.00     0.066 A 
ATOM     15  C   UNL     1       1.753  53.900  18.453  1.00  0.00     0.200 A 
ATOM     16  C   UNL     1       2.359  53.023  19.373  1.00  0.00     0.162 A 
BRANCH  13  17
ATOM     17  O   UNL     1       1.944  55.306  16.468  1.00  0.00    -0.504 OA
ATOM     18  H   UNL     1       0.947  55.497  16.449  1.00  0.00     0.293 HD
ENDBRANCH  13  17
BRANCH  15  19
ATOM     19  O   UNL     1       0.409  54.251  18.582  1.00  0.00    -0.502 OA
ATOM     20  H   UNL     1      -0.029  54.943  17.988  1.00  0.00     0.293 HD
ENDBRANCH  15  19
BRANCH  16  21
ATOM     21  O   UNL     1       1.624  52.511  20.440  1.00  0.00    -0.504 OA
ATOM     22  H   UNL     1       1.681  51.533  20.700  1.00  0.00     0.293 HD
ENDBRANCH  16  21
ENDBRANCH   9  11
ENDBRANCH   8   9
ENDBRANCH   7   8
ENDBRANCH   1   7
BRANCH   2  23
ATOM     23  O   UNL     1       8.125  54.005  20.773  1.00  0.00    -0.452 OA
BRANCH  23  24
ATOM     24  C   UNL     1       7.282  55.089  20.499  1.00  0.00     0.338 C 
ATOM     25  O   UNL     1       6.110  54.885  20.074  1.00  0.00    -0.246 OA
BRANCH  24  26
ATOM     26  C   UNL     1       7.779  56.471  20.668  1.00  0.00     0.067 A 
ATOM     27  C   UNL     1       9.120  56.715  21.009  1.00  0.00     0.066 A 
ATOM     28  C   UNL     1       6.898  57.559  20.539  1.00  0.00     0.066 A 
ATOM     29  C   UNL     1       9.577  58.020  21.220  1.00  0.00     0.162 A 
ATOM     30  C   UNL     1       7.344  58.867  20.759  1.00  0.00     0.162 A 
ATOM     31  C   UNL     1       8.689  59.103  21.096  1.00  0.00     0.200 A 
BRANCH  29  32
ATOM     32  O   UNL     1      10.915  58.220  21.554  1.00  0.00    -0.504 OA
ATOM     33  H   UNL     1      11.639  57.559  21.302  1.00  0.00     0.293 HD
ENDBRANCH  29  32
BRANCH  30  34
ATOM     34  O   UNL     1       6.455  59.935  20.649  1.00  0.00    -0.504 OA
ATOM     35  H   UNL     1       6.695  60.776  20.140  1.00  0.00     0.293 HD
ENDBRANCH  30  34
BRANCH  31  36
ATOM     36  O   UNL     1       9.149  60.402  21.322  1.00  0.00    -0.502 OA
ATOM     37  H   UNL     1       8.620  61.218  21.039  1.00  0.00     0.293 HD
ENDBRANCH  31  36
ENDBRANCH  24  26
ENDBRANCH  23  24
ENDBRANCH   2  23
BRANCH   3  38
ATOM     38  O   UNL     1      11.121  52.924  18.955  1.00  0.00    -0.450 OA
BRANCH  38  39
ATOM     39  C   UNL     1      11.703  53.664  17.923  1.00  0.00     0.338 C 
ATOM     40  O   UNL     1      12.658  54.454  18.158  1.00  0.00    -0.246 OA
BRANCH  39  41
ATOM     41  C   UNL     1      11.182  53.500  16.552  1.00  0.00     0.067 A 
ATOM     42  C   UNL     1      11.569  54.411  15.553  1.00  0.00     0.066 A 
ATOM     43  C   UNL     1      10.311  52.448  16.222  1.00  0.00     0.066 A 
ATOM     44  C   UNL     1      11.102  54.269  14.242  1.00  0.00     0.162 A 
ATOM     45  C   UNL     1       9.829  52.313  14.912  1.00  0.00     0.162 A 
ATOM     46  C   UNL     1      10.241  53.216  13.917  1.00  0.00     0.200 A 
BRANCH  44  47
ATOM     47  O   UNL     1      11.496  55.169  13.253  1.00  0.00    -0.504 OA
ATOM     48  H   UNL     1      10.832  55.546  12.586  1.00  0.00     0.293 HD
ENDBRANCH  44  47
BRANCH  45  49
ATOM     49  O   UNL     1       8.924  51.298  14.596  1.00  0.00    -0.504 OA
ATOM     50  H   UNL     1       9.104  50.325  14.816  1.00  0.00     0.293 HD
ENDBRANCH  45  49
BRANCH  46  51
ATOM     51  O   UNL     1       9.793  53.087  12.600  1.00  0.00    -0.502 OA
ATOM     52  H   UNL     1       8.881  52.708  12.385  1.00  0.00     0.293 HD
ENDBRANCH  46  51
ENDBRANCH  39  41
ENDBRANCH  38  39
ENDBRANCH   3  38
BRANCH   5  53
ATOM     53  O   UNL     1      11.286  50.335  21.428  1.00  0.00    -0.428 OA
BRANCH  53  54
ATOM     54  C   UNL     1      11.469  49.634  22.626  1.00  0.00     0.340 C 
ATOM     55  O   UNL     1      10.505  48.996  23.136  1.00  0.00    -0.246 OA
BRANCH  54  56
ATOM     56  C   UNL     1      12.807  49.582  23.251  1.00  0.00     0.067 A 
ATOM     57  C   UNL     1      13.924  49.159  22.517  1.00  0.00     0.066 A 
ATOM     58  C   UNL     1      12.984  50.028  24.570  1.00  0.00     0.066 A 
ATOM     59  C   UNL     1      15.204  49.197  23.084  1.00  0.00     0.162 A 
ATOM     60  C   UNL     1      14.257  50.062  25.152  1.00  0.00     0.162 A 
ATOM     61  C   UNL     1      15.381  49.640  24.402  1.00  0.00     0.200 A 
BRANCH  59  62
ATOM     62  O   UNL     1      16.311  48.807  22.331  1.00  0.00    -0.504 OA
ATOM     63  H   UNL     1      16.563  47.832  22.228  1.00  0.00     0.293 HD
ENDBRANCH  59  62
BRANCH  60  64
ATOM     64  O   UNL     1      14.357  50.534  26.464  1.00  0.00    -0.504 OA
ATOM     65  H   UNL     1      14.951  51.297  26.750  1.00  0.00     0.293 HD
ENDBRANCH  60  64
BRANCH  61  66
ATOM     66  O   UNL     1      16.676  49.650  24.923  1.00  0.00    -0.502 OA
ATOM     67  H   UNL     1      17.484  49.300  24.424  1.00  0.00     0.293 HD
ENDBRANCH  61  66
ENDBRANCH  54  56
ENDBRANCH  53  54
ENDBRANCH   5  53
BRANCH   4  68
ATOM     68  O   UNL     1      12.139  52.761  21.511  1.00  0.00    -0.448 OA
BRANCH  68  69
ATOM     69  C   UNL     1      12.727  52.985  22.762  1.00  0.00     0.339 C 
ATOM     70  O   UNL     1      12.047  52.835  23.814  1.00  0.00    -0.246 OA
BRANCH  69  71
ATOM     71  C   UNL     1      14.137  53.420  22.846  1.00  0.00     0.067 A 
ATOM     72  C   UNL     1      14.583  54.521  22.100  1.00  0.00     0.066 A 
ATOM     73  C   UNL     1      15.033  52.768  23.705  1.00  0.00     0.066 A 
ATOM     74  C   UNL     1      15.903  54.979  22.215  1.00  0.00     0.162 A 
ATOM     75  C   UNL     1      16.356  53.210  23.824  1.00  0.00     0.162 A 
ATOM     76  C   UNL     1      16.800  54.317  23.088  1.00  0.00     0.200 A 
BRANCH  74  77
ATOM     77  O   UNL     1      16.273  56.091  21.453  1.00  0.00    -0.504 OA
ATOM     78  H   UNL     1      16.240  56.120  20.444  1.00  0.00     0.293 HD
ENDBRANCH  74  77
BRANCH  75  79
ATOM     79  O   UNL     1      17.238  52.551  24.679  1.00  0.00    -0.504 OA
ATOM     80  H   UNL     1      17.797  53.054  25.356  1.00  0.00     0.293 HD
ENDBRANCH  75  79
BRANCH  76  81
ATOM     81  O   UNL     1      18.125  54.726  23.255  1.00  0.00    -0.502 OA
ATOM     82  H   UNL     1      18.485  55.146  24.100  1.00  0.00     0.293 HD
ENDBRANCH  76  81
ENDBRANCH  69  71
ENDBRANCH  68  69
ENDBRANCH   4  68
TORSDOF 31
ENDMDL
