MODEL 1
REMARK VINA RESULT:     6.861      0.000      0.000
REMARK INTER + INTRA:           9.737
REMARK INTER:                  10.069
REMARK INTRA:                  -0.332
REMARK UNBOUND:                -0.332
REMARK SMILES O=C([O-])CCCCCCCC(=O)[O-]
REMARK SMILES IDX 7 1 6 2 5 3 4 4 2 5 1 6 3 7 8 8 9 9 10 10 11 11 12 12 13 13
REMARK H PARENT
REMARK Flexibility Score: inf
ROOT
ATOM      1  C   UNL     1     -10.508  -1.291 -18.325  1.00  0.00     0.000 C 
ENDROOT
BRANCH   1   2
ATOM      2  C   UNL     1     -11.940  -1.104 -17.802  1.00  0.00     0.000 C 
BRANCH   2   3
ATOM      3  C   UNL     1     -12.099   0.258 -17.110  1.00  0.00     0.006 C 
BRANCH   3   4
ATOM      4  C   UNL     1     -12.986   1.218 -17.912  1.00  0.00     0.053 C 
BRANCH   4   5
ATOM      5  C   UNL     1     -12.529   2.638 -17.780  1.00  0.00     0.041 C 
ATOM      6  O   UNL     1     -11.646   2.944 -16.936  1.00  0.00    -0.550 OA
ATOM      7  O   UNL     1     -13.103   3.628 -18.566  1.00  0.00    -0.550 OA
ENDBRANCH   4   5
ENDBRANCH   3   4
ENDBRANCH   2   3
ENDBRANCH   1   2
BRANCH   1   8
ATOM      8  C   UNL     1      -9.437  -0.830 -17.320  1.00  0.00     0.000 C 
BRANCH   8   9
ATOM      9  C   UNL     1      -7.991  -1.239 -17.672  1.00  0.00     0.006 C 
BRANCH   9  10
ATOM     10  C   UNL     1      -6.913  -0.607 -16.778  1.00  0.00     0.053 C 
BRANCH  10  11
ATOM     11  C   UNL     1      -7.104  -0.958 -15.335  1.00  0.00     0.041 C 
ATOM     12  O   UNL     1      -6.877  -2.130 -14.933  1.00  0.00    -0.550 OA
ATOM     13  O   UNL     1      -7.565  -0.001 -14.440  1.00  0.00    -0.550 OA
ENDBRANCH  10  11
ENDBRANCH   9  10
ENDBRANCH   8   9
ENDBRANCH   1   8
TORSDOF 8
ENDMDL
MODEL 2
REMARK VINA RESULT:     9.696      0.517      5.857
REMARK INTER + INTRA:          13.899
REMARK INTER:                  14.214
REMARK INTRA:                  -0.315
REMARK UNBOUND:                -0.332
REMARK SMILES O=C([O-])CCCCCCCC(=O)[O-]
REMARK SMILES IDX 7 1 6 2 5 3 4 4 2 5 1 6 3 7 8 8 9 9 10 10 11 11 12 12 13 13
REMARK H PARENT
REMARK Flexibility Score: inf
ROOT
ATOM      1  C   UNL     1     -10.425  -1.540 -18.201  1.00  0.00     0.000 C 
ENDROOT
BRANCH   1   2
ATOM      2  C   UNL     1      -9.405  -0.961 -17.209  1.00  0.00     0.000 C 
BRANCH   2   3
ATOM      3  C   UNL     1      -7.971  -1.329 -17.618  1.00  0.00     0.006 C 
BRANCH   3   4
ATOM      4  C   UNL     1      -6.920  -0.642 -16.737  1.00  0.00     0.053 C 
BRANCH   4   5
ATOM      5  C   UNL     1      -7.118  -0.960 -15.287  1.00  0.00     0.041 C 
ATOM      6  O   UNL     1      -6.875  -2.117 -14.852  1.00  0.00    -0.550 OA
ATOM      7  O   UNL     1      -7.603   0.012 -14.422  1.00  0.00    -0.550 OA
ENDBRANCH   4   5
ENDBRANCH   3   4
ENDBRANCH   2   3
ENDBRANCH   1   2
BRANCH   1   8
ATOM      8  C   UNL     1     -11.876  -1.153 -17.863  1.00  0.00     0.000 C 
BRANCH   8   9
ATOM      9  C   UNL     1     -12.276   0.286 -18.251  1.00  0.00     0.006 C 
BRANCH   9  10
ATOM     10  C   UNL     1     -12.414   1.252 -17.064  1.00  0.00     0.053 C 
BRANCH  10  11
ATOM     11  C   UNL     1     -12.298   2.683 -17.490  1.00  0.00     0.041 C 
ATOM     12  O   UNL     1     -12.860   3.078 -18.546  1.00  0.00    -0.550 OA
ATOM     13  O   UNL     1     -11.540   3.574 -16.740  1.00  0.00    -0.550 OA
ENDBRANCH  10  11
ENDBRANCH   9  10
ENDBRANCH   8   9
ENDBRANCH   1   8
TORSDOF 8
ENDMDL
