MODEL 1
REMARK VINA RESULT:    -5.684      0.000      0.000
REMARK INTER + INTRA:          -6.056
REMARK INTER:                  -6.016
REMARK INTRA:                  -0.040
REMARK UNBOUND:                -0.040
REMARK SMILES COc1ccc2ccc(=O)oc2c1
REMARK SMILES IDX 3 1 13 2 12 3 6 4 5 5 4 6 7 7 8 8 9 9 10 10 11 11 2 12 1 13
REMARK H PARENT
REMARK Flexibility Score: inf
ROOT
ATOM      1  C   UNL     1      21.846   1.121 -22.197  1.00  0.00     0.122 A 
ATOM      2  C   UNL     1      21.754   1.561 -20.870  1.00  0.00     0.094 A 
ATOM      3  C   UNL     1      21.108   0.781 -19.906  1.00  0.00     0.142 A 
ATOM      4  C   UNL     1      20.545  -0.460 -20.271  1.00  0.00     0.018 A 
ATOM      5  C   UNL     1      20.634  -0.905 -21.596  1.00  0.00     0.016 A 
ATOM      6  C   UNL     1      21.281  -0.119 -22.555  1.00  0.00     0.047 A 
ATOM      7  C   UNL     1      19.906  -1.219 -19.285  1.00  0.00     0.019 A 
ATOM      8  C   UNL     1      19.844  -0.731 -17.980  1.00  0.00     0.094 A 
ATOM      9  C   UNL     1      20.425   0.509 -17.691  1.00  0.00     0.336 A 
ATOM     10  O   UNL     1      20.379   0.966 -16.519  1.00  0.00    -0.246 OA
ATOM     11  O   UNL     1      21.026   1.210 -18.649  1.00  0.00    -0.423 OA
ENDROOT
BRANCH   1  12
ATOM     12  O   UNL     1      22.504   1.943 -23.125  1.00  0.00    -0.497 OA
ATOM     13  C   UNL     1      22.491   3.366 -23.090  1.00  0.00     0.278 C 
ENDBRANCH   1  12
TORSDOF 1
ENDMDL
MODEL 2
REMARK VINA RESULT:    -5.524      1.018      4.676
REMARK INTER + INTRA:          -5.888
REMARK INTER:                  -5.855
REMARK INTRA:                  -0.033
REMARK UNBOUND:                -0.040
REMARK SMILES COc1ccc2ccc(=O)oc2c1
REMARK SMILES IDX 3 1 13 2 12 3 6 4 5 5 4 6 7 7 8 8 9 9 10 10 11 11 2 12 1 13
REMARK H PARENT
REMARK Flexibility Score: inf
ROOT
ATOM      1  C   UNL     1      20.637   0.495 -17.738  1.00  0.00     0.122 A 
ATOM      2  C   UNL     1      21.320   1.196 -18.740  1.00  0.00     0.094 A 
ATOM      3  C   UNL     1      21.312   0.734 -20.061  1.00  0.00     0.142 A 
ATOM      4  C   UNL     1      20.610  -0.446 -20.387  1.00  0.00     0.018 A 
ATOM      5  C   UNL     1      19.925  -1.149 -19.388  1.00  0.00     0.016 A 
ATOM      6  C   UNL     1      19.938  -0.683 -18.070  1.00  0.00     0.047 A 
ATOM      7  C   UNL     1      20.620  -0.882 -21.715  1.00  0.00     0.019 A 
ATOM      8  C   UNL     1      21.317  -0.145 -22.672  1.00  0.00     0.094 A 
ATOM      9  C   UNL     1      21.991   1.015 -22.276  1.00  0.00     0.336 A 
ATOM     10  O   UNL     1      22.626   1.693 -23.125  1.00  0.00    -0.246 OA
ATOM     11  O   UNL     1      21.965   1.407 -21.005  1.00  0.00    -0.423 OA
ENDROOT
BRANCH   1  12
ATOM     12  O   UNL     1      20.677   1.001 -16.430  1.00  0.00    -0.497 OA
ATOM     13  C   UNL     1      19.545   1.100 -15.571  1.00  0.00     0.278 C 
ENDBRANCH   1  12
TORSDOF 1
ENDMDL
MODEL 3
REMARK VINA RESULT:    -5.273      1.352      1.818
REMARK INTER + INTRA:          -5.622
REMARK INTER:                  -5.587
REMARK INTRA:                  -0.035
REMARK UNBOUND:                -0.040
REMARK SMILES COc1ccc2ccc(=O)oc2c1
REMARK SMILES IDX 3 1 13 2 12 3 6 4 5 5 4 6 7 7 8 8 9 9 10 10 11 11 2 12 1 13
REMARK H PARENT
REMARK Flexibility Score: inf
ROOT
ATOM      1  C   UNL     1      21.251   0.515 -20.861  1.00  0.00     0.122 A 
ATOM      2  C   UNL     1      21.410   1.025 -19.566  1.00  0.00     0.094 A 
ATOM      3  C   UNL     1      20.561   0.616 -18.532  1.00  0.00     0.142 A 
ATOM      4  C   UNL     1      19.537  -0.318 -18.793  1.00  0.00     0.018 A 
ATOM      5  C   UNL     1      19.373  -0.831 -20.086  1.00  0.00     0.016 A 
ATOM      6  C   UNL     1      20.224  -0.417 -21.116  1.00  0.00     0.047 A 
ATOM      7  C   UNL     1      18.705  -0.707 -17.739  1.00  0.00     0.019 A 
ATOM      8  C   UNL     1      18.909  -0.167 -16.470  1.00  0.00     0.094 A 
ATOM      9  C   UNL     1      19.946   0.755 -16.285  1.00  0.00     0.336 A 
ATOM     10  O   UNL     1      20.146   1.254 -15.147  1.00  0.00    -0.246 OA
ATOM     11  O   UNL     1      20.723   1.108 -17.306  1.00  0.00    -0.423 OA
ENDROOT
BRANCH   1  12
ATOM     12  O   UNL     1      22.128   0.957 -21.862  1.00  0.00    -0.497 OA
ATOM     13  C   UNL     1      22.295   0.319 -23.125  1.00  0.00     0.278 C 
ENDBRANCH   1  12
TORSDOF 1
ENDMDL
MODEL 4
REMARK VINA RESULT:    -5.068      1.803      2.911
REMARK INTER + INTRA:          -5.405
REMARK INTER:                  -5.362
REMARK INTRA:                  -0.042
REMARK UNBOUND:                -0.040
REMARK SMILES COc1ccc2ccc(=O)oc2c1
REMARK SMILES IDX 3 1 13 2 12 3 6 4 5 5 4 6 7 7 8 8 9 9 10 10 11 11 2 12 1 13
REMARK H PARENT
REMARK Flexibility Score: inf
ROOT
ATOM      1  C   UNL     1      20.294  -0.479 -20.355  1.00  0.00     0.122 A 
ATOM      2  C   UNL     1      21.236   0.173 -19.550  1.00  0.00     0.094 A 
ATOM      3  C   UNL     1      20.938   0.487 -18.219  1.00  0.00     0.142 A 
ATOM      4  C   UNL     1      19.678   0.144 -17.684  1.00  0.00     0.018 A 
ATOM      5  C   UNL     1      18.733  -0.507 -18.485  1.00  0.00     0.016 A 
ATOM      6  C   UNL     1      19.037  -0.817 -19.814  1.00  0.00     0.047 A 
ATOM      7  C   UNL     1      19.409   0.471 -16.351  1.00  0.00     0.019 A 
ATOM      8  C   UNL     1      20.385   1.120 -15.595  1.00  0.00     0.094 A 
ATOM      9  C   UNL     1      21.612   1.429 -16.193  1.00  0.00     0.336 A 
ATOM     10  O   UNL     1      22.505   2.014 -15.527  1.00  0.00    -0.246 OA
ATOM     11  O   UNL     1      21.841   1.107 -17.463  1.00  0.00    -0.423 OA
ENDROOT
BRANCH   1  12
ATOM     12  O   UNL     1      20.643  -0.770 -21.682  1.00  0.00    -0.497 OA
ATOM     13  C   UNL     1      21.703  -0.137 -22.392  1.00  0.00     0.278 C 
ENDBRANCH   1  12
TORSDOF 1
ENDMDL
MODEL 5
REMARK VINA RESULT:    -5.023      2.361      5.029
REMARK INTER + INTRA:          -5.357
REMARK INTER:                  -5.318
REMARK INTRA:                  -0.039
REMARK UNBOUND:                -0.040
REMARK SMILES COc1ccc2ccc(=O)oc2c1
REMARK SMILES IDX 3 1 13 2 12 3 6 4 5 5 4 6 7 7 8 8 9 9 10 10 11 11 2 12 1 13
REMARK H PARENT
REMARK Flexibility Score: inf
ROOT
ATOM      1  C   UNL     1      21.350   1.354 -15.861  1.00  0.00     0.122 A 
ATOM      2  C   UNL     1      21.764   1.082 -17.171  1.00  0.00     0.094 A 
ATOM      3  C   UNL     1      20.897   0.461 -18.076  1.00  0.00     0.142 A 
ATOM      4  C   UNL     1      19.593   0.107 -17.668  1.00  0.00     0.018 A 
ATOM      5  C   UNL     1      19.174   0.378 -16.360  1.00  0.00     0.016 A 
ATOM      6  C   UNL     1      20.047   0.998 -15.460  1.00  0.00     0.047 A 
ATOM      7  C   UNL     1      18.749  -0.511 -18.595  1.00  0.00     0.019 A 
ATOM      8  C   UNL     1      19.215  -0.759 -19.886  1.00  0.00     0.094 A 
ATOM      9  C   UNL     1      20.520  -0.381 -20.220  1.00  0.00     0.336 A 
ATOM     10  O   UNL     1      20.958  -0.596 -21.380  1.00  0.00    -0.246 OA
ATOM     11  O   UNL     1      21.302   0.206 -19.318  1.00  0.00    -0.423 OA
ENDROOT
BRANCH   1  12
ATOM     12  O   UNL     1      22.259   1.978 -14.993  1.00  0.00    -0.497 OA
ATOM     13  C   UNL     1      23.647   1.666 -14.923  1.00  0.00     0.278 C 
ENDBRANCH   1  12
TORSDOF 1
ENDMDL
MODEL 6
REMARK VINA RESULT:    -4.938      1.845      5.411
REMARK INTER + INTRA:          -5.267
REMARK INTER:                  -5.231
REMARK INTRA:                  -0.036
REMARK UNBOUND:                -0.040
REMARK SMILES COc1ccc2ccc(=O)oc2c1
REMARK SMILES IDX 3 1 13 2 12 3 6 4 5 5 4 6 7 7 8 8 9 9 10 10 11 11 2 12 1 13
REMARK H PARENT
REMARK Flexibility Score: inf
ROOT
ATOM      1  C   UNL     1      19.245  -0.933 -17.538  1.00  0.00     0.122 A 
ATOM      2  C   UNL     1      19.431  -1.283 -18.882  1.00  0.00     0.094 A 
ATOM      3  C   UNL     1      20.249  -0.509 -19.711  1.00  0.00     0.142 A 
ATOM      4  C   UNL     1      20.894   0.633 -19.191  1.00  0.00     0.018 A 
ATOM      5  C   UNL     1      20.711   0.987 -17.848  1.00  0.00     0.016 A 
ATOM      6  C   UNL     1      19.891   0.209 -17.025  1.00  0.00     0.047 A 
ATOM      7  C   UNL     1      21.707   1.387 -20.043  1.00  0.00     0.019 A 
ATOM      8  C   UNL     1      21.855   0.992 -21.373  1.00  0.00     0.094 A 
ATOM      9  C   UNL     1      21.185  -0.152 -21.819  1.00  0.00     0.336 A 
ATOM     10  O   UNL     1      21.307  -0.524 -23.015  1.00  0.00    -0.246 OA
ATOM     11  O   UNL     1      20.418  -0.851 -20.986  1.00  0.00    -0.423 OA
ENDROOT
BRANCH   1  12
ATOM     12  O   UNL     1      18.414  -1.743 -16.750  1.00  0.00    -0.497 OA
ATOM     13  C   UNL     1      17.979  -1.411 -15.435  1.00  0.00     0.278 C 
ENDBRANCH   1  12
TORSDOF 1
ENDMDL
MODEL 7
REMARK VINA RESULT:    -4.937     16.848     19.084
REMARK INTER + INTRA:          -5.267
REMARK INTER:                  -5.226
REMARK INTRA:                  -0.040
REMARK UNBOUND:                -0.040
REMARK SMILES COc1ccc2ccc(=O)oc2c1
REMARK SMILES IDX 3 1 13 2 12 3 6 4 5 5 4 6 7 7 8 8 9 9 10 10 11 11 2 12 1 13
REMARK H PARENT
REMARK Flexibility Score: inf
ROOT
ATOM      1  C   UNL     1       7.957  -6.711  -6.907  1.00  0.00     0.122 A 
ATOM      2  C   UNL     1       7.837  -5.627  -7.787  1.00  0.00     0.094 A 
ATOM      3  C   UNL     1       7.947  -5.818  -9.168  1.00  0.00     0.142 A 
ATOM      4  C   UNL     1       8.181  -7.112  -9.681  1.00  0.00     0.018 A 
ATOM      5  C   UNL     1       8.303  -8.198  -8.805  1.00  0.00     0.016 A 
ATOM      6  C   UNL     1       8.192  -8.000  -7.425  1.00  0.00     0.047 A 
ATOM      7  C   UNL     1       8.286  -7.271 -11.066  1.00  0.00     0.019 A 
ATOM      8  C   UNL     1       8.158  -6.157 -11.895  1.00  0.00     0.094 A 
ATOM      9  C   UNL     1       7.927  -4.905 -11.316  1.00  0.00     0.336 A 
ATOM     10  O   UNL     1       7.809  -3.887 -12.047  1.00  0.00    -0.246 OA
ATOM     11  O   UNL     1       7.831  -4.781  -9.994  1.00  0.00    -0.423 OA
ENDROOT
BRANCH   1  12
ATOM     12  O   UNL     1       7.839  -6.465  -5.531  1.00  0.00    -0.497 OA
ATOM     13  C   UNL     1       8.316  -5.291  -4.880  1.00  0.00     0.278 C 
ENDBRANCH   1  12
TORSDOF 1
ENDMDL
MODEL 8
REMARK VINA RESULT:    -4.916      1.998      3.165
REMARK INTER + INTRA:          -5.244
REMARK INTER:                  -5.208
REMARK INTRA:                  -0.036
REMARK UNBOUND:                -0.040
REMARK SMILES COc1ccc2ccc(=O)oc2c1
REMARK SMILES IDX 3 1 13 2 12 3 6 4 5 5 4 6 7 7 8 8 9 9 10 10 11 11 2 12 1 13
REMARK H PARENT
REMARK Flexibility Score: inf
ROOT
ATOM      1  C   UNL     1      20.625  -0.209 -20.481  1.00  0.00     0.122 A 
ATOM      2  C   UNL     1      19.608  -0.745 -19.680  1.00  0.00     0.094 A 
ATOM      3  C   UNL     1      19.483  -0.363 -18.340  1.00  0.00     0.142 A 
ATOM      4  C   UNL     1      20.387   0.571 -17.790  1.00  0.00     0.018 A 
ATOM      5  C   UNL     1      21.405   1.110 -18.587  1.00  0.00     0.016 A 
ATOM      6  C   UNL     1      21.524   0.723 -19.925  1.00  0.00     0.047 A 
ATOM      7  C   UNL     1      20.236   0.935 -16.448  1.00  0.00     0.019 A 
ATOM      8  C   UNL     1      19.206   0.369 -15.697  1.00  0.00     0.094 A 
ATOM      9  C   UNL     1      18.348  -0.551 -16.309  1.00  0.00     0.336 A 
ATOM     10  O   UNL     1      17.412  -1.073 -15.648  1.00  0.00    -0.246 OA
ATOM     11  O   UNL     1      18.514  -0.879 -17.588  1.00  0.00    -0.423 OA
ENDROOT
BRANCH   1  12
ATOM     12  O   UNL     1      20.706  -0.626 -21.817  1.00  0.00    -0.497 OA
ATOM     13  C   UNL     1      21.730  -0.227 -22.723  1.00  0.00     0.278 C 
ENDBRANCH   1  12
TORSDOF 1
ENDMDL
MODEL 9
REMARK VINA RESULT:    -4.840     16.614     18.825
REMARK INTER + INTRA:          -5.164
REMARK INTER:                  -5.124
REMARK INTRA:                  -0.039
REMARK UNBOUND:                -0.040
REMARK SMILES COc1ccc2ccc(=O)oc2c1
REMARK SMILES IDX 3 1 13 2 12 3 6 4 5 5 4 6 7 7 8 8 9 9 10 10 11 11 2 12 1 13
REMARK H PARENT
REMARK Flexibility Score: inf
ROOT
ATOM      1  C   UNL     1       8.166  -5.924 -10.743  1.00  0.00     0.122 A 
ATOM      2  C   UNL     1       8.151  -5.302  -9.488  1.00  0.00     0.094 A 
ATOM      3  C   UNL     1       8.061  -6.065  -8.319  1.00  0.00     0.142 A 
ATOM      4  C   UNL     1       7.986  -7.472  -8.403  1.00  0.00     0.018 A 
ATOM      5  C   UNL     1       8.000  -8.097  -9.656  1.00  0.00     0.016 A 
ATOM      6  C   UNL     1       8.090  -7.329 -10.821  1.00  0.00     0.047 A 
ATOM      7  C   UNL     1       7.898  -8.207  -7.217  1.00  0.00     0.019 A 
ATOM      8  C   UNL     1       7.886  -7.536  -5.995  1.00  0.00     0.094 A 
ATOM      9  C   UNL     1       7.964  -6.139  -5.988  1.00  0.00     0.336 A 
ATOM     10  O   UNL     1       7.955  -5.515  -4.895  1.00  0.00    -0.246 OA
ATOM     11  O   UNL     1       8.047  -5.464  -7.131  1.00  0.00    -0.423 OA
ENDROOT
BRANCH   1  12
ATOM     12  O   UNL     1       8.257  -5.113 -11.884  1.00  0.00    -0.497 OA
ATOM     13  C   UNL     1       7.584  -3.867 -12.042  1.00  0.00     0.278 C 
ENDBRANCH   1  12
TORSDOF 1
ENDMDL
