MODEL 1
REMARK VINA RESULT:    -7.248      0.000      0.000
REMARK INTER + INTRA:          -8.771
REMARK INTER:                  -8.519
REMARK INTRA:                  -0.252
REMARK UNBOUND:                -0.252
REMARK SMILES O=c1c(O)c(-c2ccc(O)cc2)oc2cc(O)cc(O)c12
REMARK SMILES IDX 5 1 3 2 2 3 1 4 21 5 19 6 18 7 16 8 15 9 14 10 13 11 6 12
REMARK SMILES IDX 7 13 8 14 9 15 12 16 11 17 10 18 4 20 20 22 17 24
REMARK H PARENT 10 19 4 21 20 23 17 25
REMARK Flexibility Score: inf
ROOT
ATOM      1  C   UNL     1     -15.863  35.847  -1.703  1.00  0.00     0.180 A 
ATOM      2  C   UNL     1     -17.003  36.594  -2.044  1.00  0.00     0.208 A 
ATOM      3  C   UNL     1     -17.794  37.136  -1.017  1.00  0.00     0.238 A 
ATOM      4  O   UNL     1     -18.843  37.758  -1.328  1.00  0.00    -0.285 OA
ATOM      5  C   UNL     1     -17.426  36.938   0.334  1.00  0.00     0.111 A 
ATOM      6  C   UNL     1     -18.132  37.474   1.454  1.00  0.00     0.134 A 
ATOM      7  C   UNL     1     -17.753  37.105   2.751  1.00  0.00     0.093 A 
ATOM      8  C   UNL     1     -16.655  36.270   2.970  1.00  0.00     0.123 A 
ATOM      9  C   UNL     1     -15.923  35.789   1.886  1.00  0.00     0.094 A 
ATOM     10  C   UNL     1     -16.299  36.111   0.580  1.00  0.00     0.146 A 
ATOM     11  O   UNL     1     -15.581  35.623  -0.425  1.00  0.00    -0.452 OA
ENDROOT
BRANCH   1  12
ATOM     12  C   UNL     1     -14.965  35.266  -2.728  1.00  0.00     0.021 A 
ATOM     13  C   UNL     1     -14.051  36.064  -3.439  1.00  0.00     0.016 A 
ATOM     14  C   UNL     1     -13.197  35.489  -4.385  1.00  0.00     0.047 A 
ATOM     15  C   UNL     1     -13.236  34.109  -4.623  1.00  0.00     0.115 A 
ATOM     16  C   UNL     1     -14.984  33.880  -2.958  1.00  0.00     0.016 A 
ATOM     17  C   UNL     1     -14.129  33.308  -3.905  1.00  0.00     0.047 A 
BRANCH  15  18
ATOM     18  O   UNL     1     -12.391  33.525  -5.564  1.00  0.00    -0.508 OA
ATOM     19  H   UNL     1     -12.643  32.667  -6.040  1.00  0.00     0.293 HD
ENDBRANCH  15  18
ENDBRANCH   1  12
BRANCH   2  20
ATOM     20  O   UNL     1     -17.360  36.760  -3.385  1.00  0.00    -0.502 OA
ATOM     21  H   UNL     1     -17.907  36.075  -3.892  1.00  0.00     0.293 HD
ENDBRANCH   2  20
BRANCH   6  22
ATOM     22  O   UNL     1     -19.184  38.387   1.347  1.00  0.00    -0.507 OA
ATOM     23  H   UNL     1     -20.151  38.136   1.206  1.00  0.00     0.293 HD
ENDBRANCH   6  22
BRANCH   8  24
ATOM     24  O   UNL     1     -16.275  35.921   4.264  1.00  0.00    -0.508 OA
ATOM     25  H   UNL     1     -15.806  35.043   4.460  1.00  0.00     0.293 HD
ENDBRANCH   8  24
TORSDOF 5
ENDMDL
MODEL 2
REMARK VINA RESULT:    -7.079      7.229      9.662
REMARK INTER + INTRA:          -8.572
REMARK INTER:                  -8.288
REMARK INTRA:                  -0.285
REMARK UNBOUND:                -0.252
REMARK SMILES O=c1c(O)c(-c2ccc(O)cc2)oc2cc(O)cc(O)c12
REMARK SMILES IDX 5 1 3 2 2 3 1 4 21 5 19 6 18 7 16 8 15 9 14 10 13 11 6 12
REMARK SMILES IDX 7 13 8 14 9 15 12 16 11 17 10 18 4 20 20 22 17 24
REMARK H PARENT 10 19 4 21 20 23 17 25
REMARK Flexibility Score: inf
ROOT
ATOM      1  C   UNL     1     -11.752  38.789  -6.927  1.00  0.00     0.180 A 
ATOM      2  C   UNL     1     -11.103  38.762  -8.173  1.00  0.00     0.208 A 
ATOM      3  C   UNL     1     -11.804  39.182  -9.315  1.00  0.00     0.238 A 
ATOM      4  O   UNL     1     -11.235  39.105 -10.436  1.00  0.00    -0.285 OA
ATOM      5  C   UNL     1     -13.138  39.638  -9.195  1.00  0.00     0.111 A 
ATOM      6  C   UNL     1     -13.930  40.124 -10.279  1.00  0.00     0.134 A 
ATOM      7  C   UNL     1     -15.281  40.426 -10.067  1.00  0.00     0.093 A 
ATOM      8  C   UNL     1     -15.851  40.321  -8.796  1.00  0.00     0.123 A 
ATOM      9  C   UNL     1     -15.071  39.905  -7.720  1.00  0.00     0.094 A 
ATOM     10  C   UNL     1     -13.731  39.562  -7.907  1.00  0.00     0.146 A 
ATOM     11  O   UNL     1     -13.026  39.159  -6.856  1.00  0.00    -0.452 OA
ENDROOT
BRANCH   1  12
ATOM     12  C   UNL     1     -11.072  38.386  -5.674  1.00  0.00     0.021 A 
ATOM     13  C   UNL     1     -11.151  37.068  -5.189  1.00  0.00     0.016 A 
ATOM     14  C   UNL     1     -10.480  36.705  -4.017  1.00  0.00     0.047 A 
ATOM     15  C   UNL     1      -9.713  37.649  -3.323  1.00  0.00     0.115 A 
ATOM     16  C   UNL     1     -10.285  39.322  -4.983  1.00  0.00     0.016 A 
ATOM     17  C   UNL     1      -9.616  38.956  -3.811  1.00  0.00     0.047 A 
BRANCH  15  18
ATOM     18  O   UNL     1      -9.042  37.300  -2.153  1.00  0.00    -0.508 OA
ATOM     19  H   UNL     1      -8.036  37.394  -2.073  1.00  0.00     0.293 HD
ENDBRANCH  15  18
ENDBRANCH   1  12
BRANCH   2  20
ATOM     20  O   UNL     1      -9.792  38.288  -8.273  1.00  0.00    -0.502 OA
ATOM     21  H   UNL     1      -9.469  37.741  -9.061  1.00  0.00     0.293 HD
ENDBRANCH   2  20
BRANCH   6  22
ATOM     22  O   UNL     1     -13.434  40.352 -11.565  1.00  0.00    -0.507 OA
ATOM     23  H   UNL     1     -12.497  40.663 -11.774  1.00  0.00     0.293 HD
ENDBRANCH   6  22
BRANCH   8  24
ATOM     24  O   UNL     1     -17.191  40.640  -8.591  1.00  0.00    -0.508 OA
ATOM     25  H   UNL     1     -17.926  39.954  -8.725  1.00  0.00     0.293 HD
ENDBRANCH   8  24
TORSDOF 5
ENDMDL
MODEL 3
REMARK VINA RESULT:    -6.992      6.605      9.163
REMARK INTER + INTRA:          -8.470
REMARK INTER:                  -8.262
REMARK INTRA:                  -0.208
REMARK UNBOUND:                -0.252
REMARK SMILES O=c1c(O)c(-c2ccc(O)cc2)oc2cc(O)cc(O)c12
REMARK SMILES IDX 5 1 3 2 2 3 1 4 21 5 19 6 18 7 16 8 15 9 14 10 13 11 6 12
REMARK SMILES IDX 7 13 8 14 9 15 12 16 11 17 10 18 4 20 20 22 17 24
REMARK H PARENT 10 19 4 21 20 23 17 25
REMARK Flexibility Score: inf
ROOT
ATOM      1  C   UNL     1     -12.495  39.063  -6.105  1.00  0.00     0.180 A 
ATOM      2  C   UNL     1     -13.851  38.697  -6.046  1.00  0.00     0.208 A 
ATOM      3  C   UNL     1     -14.718  39.131  -7.062  1.00  0.00     0.238 A 
ATOM      4  O   UNL     1     -15.941  38.845  -6.975  1.00  0.00    -0.285 OA
ATOM      5  C   UNL     1     -14.217  39.911  -8.130  1.00  0.00     0.111 A 
ATOM      6  C   UNL     1     -14.997  40.372  -9.234  1.00  0.00     0.134 A 
ATOM      7  C   UNL     1     -14.427  41.246 -10.167  1.00  0.00     0.093 A 
ATOM      8  C   UNL     1     -13.086  41.626 -10.071  1.00  0.00     0.123 A 
ATOM      9  C   UNL     1     -12.299  41.134  -9.032  1.00  0.00     0.094 A 
ATOM     10  C   UNL     1     -12.850  40.289  -8.066  1.00  0.00     0.146 A 
ATOM     11  O   UNL     1     -12.069  39.851  -7.086  1.00  0.00    -0.452 OA
ENDROOT
BRANCH   1  12
ATOM     12  C   UNL     1     -11.514  38.624  -5.086  1.00  0.00     0.021 A 
ATOM     13  C   UNL     1     -11.023  39.511  -4.111  1.00  0.00     0.016 A 
ATOM     14  C   UNL     1     -10.116  39.068  -3.144  1.00  0.00     0.047 A 
ATOM     15  C   UNL     1      -9.699  37.731  -3.131  1.00  0.00     0.115 A 
ATOM     16  C   UNL     1     -11.106  37.280  -5.053  1.00  0.00     0.016 A 
ATOM     17  C   UNL     1     -10.199  36.839  -4.085  1.00  0.00     0.047 A 
BRANCH  15  18
ATOM     18  O   UNL     1      -8.794  37.277  -2.173  1.00  0.00    -0.508 OA
ATOM     19  H   UNL     1      -9.025  37.277  -1.186  1.00  0.00     0.293 HD
ENDBRANCH  15  18
ENDBRANCH   1  12
BRANCH   2  20
ATOM     20  O   UNL     1     -14.329  37.943  -4.971  1.00  0.00    -0.502 OA
ATOM     21  H   UNL     1     -13.732  37.337  -4.423  1.00  0.00     0.293 HD
ENDBRANCH   2  20
BRANCH   6  22
ATOM     22  O   UNL     1     -16.318  39.980  -9.472  1.00  0.00    -0.507 OA
ATOM     23  H   UNL     1     -16.590  39.164  -9.999  1.00  0.00     0.293 HD
ENDBRANCH   6  22
BRANCH   8  24
ATOM     24  O   UNL     1     -12.521  42.483 -11.012  1.00  0.00    -0.508 OA
ATOM     25  H   UNL     1     -11.911  43.245 -10.737  1.00  0.00     0.293 HD
ENDBRANCH   8  24
TORSDOF 5
ENDMDL
MODEL 4
REMARK VINA RESULT:    -6.913      4.532      6.396
REMARK INTER + INTRA:          -8.377
REMARK INTER:                  -8.078
REMARK INTRA:                  -0.299
REMARK UNBOUND:                -0.252
REMARK SMILES O=c1c(O)c(-c2ccc(O)cc2)oc2cc(O)cc(O)c12
REMARK SMILES IDX 5 1 3 2 2 3 1 4 21 5 19 6 18 7 16 8 15 9 14 10 13 11 6 12
REMARK SMILES IDX 7 13 8 14 9 15 12 16 11 17 10 18 4 20 20 22 17 24
REMARK H PARENT 10 19 4 21 20 23 17 25
REMARK Flexibility Score: inf
ROOT
ATOM      1  C   UNL     1     -15.088  38.855  -5.752  1.00  0.00     0.180 A 
ATOM      2  C   UNL     1     -14.359  37.659  -5.633  1.00  0.00     0.208 A 
ATOM      3  C   UNL     1     -14.703  36.751  -4.620  1.00  0.00     0.238 A 
ATOM      4  O   UNL     1     -14.012  35.707  -4.485  1.00  0.00    -0.285 OA
ATOM      5  C   UNL     1     -15.779  37.041  -3.749  1.00  0.00     0.111 A 
ATOM      6  C   UNL     1     -16.240  36.174  -2.712  1.00  0.00     0.134 A 
ATOM      7  C   UNL     1     -17.229  36.620  -1.826  1.00  0.00     0.093 A 
ATOM      8  C   UNL     1     -17.819  37.877  -1.980  1.00  0.00     0.123 A 
ATOM      9  C   UNL     1     -17.419  38.707  -3.025  1.00  0.00     0.094 A 
ATOM     10  C   UNL     1     -16.409  38.304  -3.902  1.00  0.00     0.146 A 
ATOM     11  O   UNL     1     -16.050  39.129  -4.878  1.00  0.00    -0.452 OA
ENDROOT
BRANCH   1  12
ATOM     12  C   UNL     1     -14.802  39.852  -6.810  1.00  0.00     0.021 A 
ATOM     13  C   UNL     1     -15.407  39.768  -8.078  1.00  0.00     0.016 A 
ATOM     14  C   UNL     1     -15.140  40.733  -9.053  1.00  0.00     0.047 A 
ATOM     15  C   UNL     1     -14.278  41.801  -8.771  1.00  0.00     0.115 A 
ATOM     16  C   UNL     1     -13.955  40.936  -6.529  1.00  0.00     0.016 A 
ATOM     17  C   UNL     1     -13.690  41.900  -7.506  1.00  0.00     0.047 A 
BRANCH  15  18
ATOM     18  O   UNL     1     -14.004  42.768  -9.735  1.00  0.00    -0.508 OA
ATOM     19  H   UNL     1     -14.416  42.724 -10.660  1.00  0.00     0.293 HD
ENDBRANCH  15  18
ENDBRANCH   1  12
BRANCH   2  20
ATOM     20  O   UNL     1     -13.286  37.402  -6.491  1.00  0.00    -0.502 OA
ATOM     21  H   UNL     1     -13.192  37.849  -7.394  1.00  0.00     0.293 HD
ENDBRANCH   2  20
BRANCH   6  22
ATOM     22  O   UNL     1     -15.782  34.867  -2.528  1.00  0.00    -0.507 OA
ATOM     23  H   UNL     1     -15.440  34.269  -3.265  1.00  0.00     0.293 HD
ENDBRANCH   6  22
BRANCH   8  24
ATOM     24  O   UNL     1     -18.813  38.307  -1.104  1.00  0.00    -0.508 OA
ATOM     25  H   UNL     1     -19.726  38.597  -1.439  1.00  0.00     0.293 HD
ENDBRANCH   8  24
TORSDOF 5
ENDMDL
MODEL 5
REMARK VINA RESULT:    -6.899      1.803      6.692
REMARK INTER + INTRA:          -8.361
REMARK INTER:                  -8.079
REMARK INTRA:                  -0.282
REMARK UNBOUND:                -0.252
REMARK SMILES O=c1c(O)c(-c2ccc(O)cc2)oc2cc(O)cc(O)c12
REMARK SMILES IDX 5 1 3 2 2 3 1 4 21 5 19 6 18 7 16 8 15 9 14 10 13 11 6 12
REMARK SMILES IDX 7 13 8 14 9 15 12 16 11 17 10 18 4 20 20 22 17 24
REMARK H PARENT 10 19 4 21 20 23 17 25
REMARK Flexibility Score: inf
ROOT
ATOM      1  C   UNL     1     -17.195  37.243  -1.413  1.00  0.00     0.180 A 
ATOM      2  C   UNL     1     -17.459  38.218  -2.391  1.00  0.00     0.208 A 
ATOM      3  C   UNL     1     -16.918  38.055  -3.677  1.00  0.00     0.238 A 
ATOM      4  O   UNL     1     -17.112  38.958  -4.532  1.00  0.00    -0.285 OA
ATOM      5  C   UNL     1     -16.136  36.914  -3.973  1.00  0.00     0.111 A 
ATOM      6  C   UNL     1     -15.571  36.628  -5.253  1.00  0.00     0.134 A 
ATOM      7  C   UNL     1     -14.705  35.537  -5.398  1.00  0.00     0.093 A 
ATOM      8  C   UNL     1     -14.435  34.685  -4.325  1.00  0.00     0.123 A 
ATOM      9  C   UNL     1     -15.028  34.921  -3.087  1.00  0.00     0.094 A 
ATOM     10  C   UNL     1     -15.867  36.022  -2.902  1.00  0.00     0.146 A 
ATOM     11  O   UNL     1     -16.403  36.217  -1.703  1.00  0.00    -0.452 OA
ENDROOT
BRANCH   1  12
ATOM     12  C   UNL     1     -17.750  37.330  -0.042  1.00  0.00     0.021 A 
ATOM     13  C   UNL     1     -19.067  36.925   0.242  1.00  0.00     0.016 A 
ATOM     14  C   UNL     1     -19.561  36.994   1.548  1.00  0.00     0.047 A 
ATOM     15  C   UNL     1     -18.743  37.456   2.587  1.00  0.00     0.115 A 
ATOM     16  C   UNL     1     -16.931  37.773   1.009  1.00  0.00     0.016 A 
ATOM     17  C   UNL     1     -17.428  37.841   2.314  1.00  0.00     0.047 A 
BRANCH  15  18
ATOM     18  O   UNL     1     -19.226  37.531   3.892  1.00  0.00    -0.508 OA
ATOM     19  H   UNL     1     -20.219  37.580   4.087  1.00  0.00     0.293 HD
ENDBRANCH  15  18
ENDBRANCH   1  12
BRANCH   2  20
ATOM     20  O   UNL     1     -18.217  39.347  -2.071  1.00  0.00    -0.502 OA
ATOM     21  H   UNL     1     -19.183  39.452  -2.353  1.00  0.00     0.293 HD
ENDBRANCH   2  20
BRANCH   6  22
ATOM     22  O   UNL     1     -15.850  37.362  -6.409  1.00  0.00    -0.507 OA
ATOM     23  H   UNL     1     -15.205  37.996  -6.857  1.00  0.00     0.293 HD
ENDBRANCH   6  22
BRANCH   8  24
ATOM     24  O   UNL     1     -13.585  33.592  -4.482  1.00  0.00    -0.508 OA
ATOM     25  H   UNL     1     -13.418  32.938  -3.726  1.00  0.00     0.293 HD
ENDBRANCH   8  24
TORSDOF 5
ENDMDL
MODEL 6
REMARK VINA RESULT:    -6.854      6.266      9.879
REMARK INTER + INTRA:          -8.308
REMARK INTER:                  -8.036
REMARK INTRA:                  -0.272
REMARK UNBOUND:                -0.252
REMARK SMILES O=c1c(O)c(-c2ccc(O)cc2)oc2cc(O)cc(O)c12
REMARK SMILES IDX 5 1 3 2 2 3 1 4 21 5 19 6 18 7 16 8 15 9 14 10 13 11 6 12
REMARK SMILES IDX 7 13 8 14 9 15 12 16 11 17 10 18 4 20 20 22 17 24
REMARK H PARENT 10 19 4 21 20 23 17 25
REMARK Flexibility Score: inf
ROOT
ATOM      1  C   UNL     1     -11.274  39.075  -5.718  1.00  0.00     0.180 A 
ATOM      2  C   UNL     1     -10.935  38.091  -6.664  1.00  0.00     0.208 A 
ATOM      3  C   UNL     1     -11.223  38.322  -8.019  1.00  0.00     0.238 A 
ATOM      4  O   UNL     1     -10.966  37.415  -8.853  1.00  0.00    -0.285 OA
ATOM      5  C   UNL     1     -11.830  39.537  -8.413  1.00  0.00     0.111 A 
ATOM      6  C   UNL     1     -12.131  39.893  -9.762  1.00  0.00     0.134 A 
ATOM      7  C   UNL     1     -12.852  41.066 -10.024  1.00  0.00     0.093 A 
ATOM      8  C   UNL     1     -13.227  41.926  -8.990  1.00  0.00     0.123 A 
ATOM      9  C   UNL     1     -12.886  41.617  -7.675  1.00  0.00     0.094 A 
ATOM     10  C   UNL     1     -12.199  40.437  -7.379  1.00  0.00     0.146 A 
ATOM     11  O   UNL     1     -11.904  40.176  -6.111  1.00  0.00    -0.452 OA
ENDROOT
BRANCH   1  12
ATOM     12  C   UNL     1     -10.980  38.916  -4.275  1.00  0.00     0.021 A 
ATOM     13  C   UNL     1      -9.692  39.148  -3.760  1.00  0.00     0.016 A 
ATOM     14  C   UNL     1      -9.444  39.016  -2.391  1.00  0.00     0.047 A 
ATOM     15  C   UNL     1     -10.482  38.663  -1.518  1.00  0.00     0.115 A 
ATOM     16  C   UNL     1     -12.019  38.583  -3.391  1.00  0.00     0.016 A 
ATOM     17  C   UNL     1     -11.768  38.450  -2.021  1.00  0.00     0.047 A 
BRANCH  15  18
ATOM     18  O   UNL     1     -10.246  38.526  -0.151  1.00  0.00    -0.508 OA
ATOM     19  H   UNL     1      -9.310  38.393   0.213  1.00  0.00     0.293 HD
ENDBRANCH  15  18
ENDBRANCH   1  12
BRANCH   2  20
ATOM     20  O   UNL     1     -10.354  36.889  -6.250  1.00  0.00    -0.502 OA
ATOM     21  H   UNL     1      -9.364  36.800  -6.061  1.00  0.00     0.293 HD
ENDBRANCH   2  20
BRANCH   6  22
ATOM     22  O   UNL     1     -11.723  39.151 -10.874  1.00  0.00    -0.507 OA
ATOM     23  H   UNL     1     -11.893  39.411 -11.834  1.00  0.00     0.293 HD
ENDBRANCH   6  22
BRANCH   8  24
ATOM     24  O   UNL     1     -13.929  43.098  -9.260  1.00  0.00    -0.508 OA
ATOM     25  H   UNL     1     -14.922  43.086  -9.466  1.00  0.00     0.293 HD
ENDBRANCH   8  24
TORSDOF 5
ENDMDL
MODEL 7
REMARK VINA RESULT:    -6.842      3.106      4.153
REMARK INTER + INTRA:          -8.294
REMARK INTER:                  -8.007
REMARK INTRA:                  -0.287
REMARK UNBOUND:                -0.252
REMARK SMILES O=c1c(O)c(-c2ccc(O)cc2)oc2cc(O)cc(O)c12
REMARK SMILES IDX 5 1 3 2 2 3 1 4 21 5 19 6 18 7 16 8 15 9 14 10 13 11 6 12
REMARK SMILES IDX 7 13 8 14 9 15 12 16 11 17 10 18 4 20 20 22 17 24
REMARK H PARENT 10 19 4 21 20 23 17 25
REMARK Flexibility Score: inf
ROOT
ATOM      1  C   UNL     1     -15.248  37.640  -0.710  1.00  0.00     0.180 A 
ATOM      2  C   UNL     1     -16.199  37.178   0.216  1.00  0.00     0.208 A 
ATOM      3  C   UNL     1     -15.919  37.280   1.588  1.00  0.00     0.238 A 
ATOM      4  O   UNL     1     -16.751  36.815   2.411  1.00  0.00    -0.285 OA
ATOM      5  C   UNL     1     -14.700  37.856   2.017  1.00  0.00     0.111 A 
ATOM      6  C   UNL     1     -14.329  38.046   3.382  1.00  0.00     0.134 A 
ATOM      7  C   UNL     1     -13.043  38.507   3.692  1.00  0.00     0.093 A 
ATOM      8  C   UNL     1     -12.138  38.846   2.683  1.00  0.00     0.123 A 
ATOM      9  C   UNL     1     -12.511  38.721   1.347  1.00  0.00     0.094 A 
ATOM     10  C   UNL     1     -13.774  38.229   1.008  1.00  0.00     0.146 A 
ATOM     11  O   UNL     1     -14.086  38.116  -0.278  1.00  0.00    -0.452 OA
ENDROOT
BRANCH   1  12
ATOM     12  C   UNL     1     -15.482  37.590  -2.172  1.00  0.00     0.021 A 
ATOM     13  C   UNL     1     -15.163  36.446  -2.926  1.00  0.00     0.016 A 
ATOM     14  C   UNL     1     -15.415  36.413  -4.301  1.00  0.00     0.047 A 
ATOM     15  C   UNL     1     -15.999  37.516  -4.937  1.00  0.00     0.115 A 
ATOM     16  C   UNL     1     -16.086  38.684  -2.814  1.00  0.00     0.016 A 
ATOM     17  C   UNL     1     -16.336  38.649  -4.189  1.00  0.00     0.047 A 
BRANCH  15  18
ATOM     18  O   UNL     1     -16.253  37.496  -6.307  1.00  0.00    -0.508 OA
ATOM     19  H   UNL     1     -16.766  36.735  -6.738  1.00  0.00     0.293 HD
ENDBRANCH  15  18
ENDBRANCH   1  12
BRANCH   2  20
ATOM     20  O   UNL     1     -17.388  36.593  -0.230  1.00  0.00    -0.502 OA
ATOM     21  H   UNL     1     -17.920  35.944   0.336  1.00  0.00     0.293 HD
ENDBRANCH   2  20
BRANCH   6  22
ATOM     22  O   UNL     1     -15.189  37.825   4.461  1.00  0.00    -0.507 OA
ATOM     23  H   UNL     1     -15.046  38.183   5.394  1.00  0.00     0.293 HD
ENDBRANCH   6  22
BRANCH   8  24
ATOM     24  O   UNL     1     -10.867  39.318   2.999  1.00  0.00    -0.508 OA
ATOM     25  H   UNL     1     -10.709  39.926   3.796  1.00  0.00     0.293 HD
ENDBRANCH   8  24
TORSDOF 5
ENDMDL
MODEL 8
REMARK VINA RESULT:    -6.738      3.724      5.420
REMARK INTER + INTRA:          -8.171
REMARK INTER:                  -7.885
REMARK INTRA:                  -0.286
REMARK UNBOUND:                -0.252
REMARK SMILES O=c1c(O)c(-c2ccc(O)cc2)oc2cc(O)cc(O)c12
REMARK SMILES IDX 5 1 3 2 2 3 1 4 21 5 19 6 18 7 16 8 15 9 14 10 13 11 6 12
REMARK SMILES IDX 7 13 8 14 9 15 12 16 11 17 10 18 4 20 20 22 17 24
REMARK H PARENT 10 19 4 21 20 23 17 25
REMARK Flexibility Score: inf
ROOT
ATOM      1  C   UNL     1     -17.505  37.168   1.901  1.00  0.00     0.180 A 
ATOM      2  C   UNL     1     -16.536  36.230   2.299  1.00  0.00     0.208 A 
ATOM      3  C   UNL     1     -16.519  35.796   3.634  1.00  0.00     0.238 A 
ATOM      4  O   UNL     1     -15.616  34.997   3.997  1.00  0.00    -0.285 OA
ATOM      5  C   UNL     1     -17.477  36.290   4.549  1.00  0.00     0.111 A 
ATOM      6  C   UNL     1     -17.577  35.889   5.915  1.00  0.00     0.134 A 
ATOM      7  C   UNL     1     -18.481  36.541   6.763  1.00  0.00     0.093 A 
ATOM      8  C   UNL     1     -19.334  37.536   6.278  1.00  0.00     0.123 A 
ATOM      9  C   UNL     1     -19.286  37.893   4.933  1.00  0.00     0.094 A 
ATOM     10  C   UNL     1     -18.369  37.286   4.071  1.00  0.00     0.146 A 
ATOM     11  O   UNL     1     -18.349  37.664   2.798  1.00  0.00    -0.452 OA
ENDROOT
BRANCH   1  12
ATOM     12  C   UNL     1     -17.604  37.656   0.505  1.00  0.00     0.021 A 
ATOM     13  C   UNL     1     -16.841  38.749   0.055  1.00  0.00     0.016 A 
ATOM     14  C   UNL     1     -16.933  39.176  -1.273  1.00  0.00     0.047 A 
ATOM     15  C   UNL     1     -17.778  38.509  -2.170  1.00  0.00     0.115 A 
ATOM     16  C   UNL     1     -18.433  36.981  -0.406  1.00  0.00     0.016 A 
ATOM     17  C   UNL     1     -18.523  37.410  -1.734  1.00  0.00     0.047 A 
BRANCH  15  18
ATOM     18  O   UNL     1     -17.879  38.927  -3.496  1.00  0.00    -0.508 OA
ATOM     19  H   UNL     1     -17.376  39.739  -3.833  1.00  0.00     0.293 HD
ENDBRANCH  15  18
ENDBRANCH   1  12
BRANCH   2  20
ATOM     20  O   UNL     1     -15.586  35.770   1.384  1.00  0.00    -0.502 OA
ATOM     21  H   UNL     1     -15.797  35.628   0.404  1.00  0.00     0.293 HD
ENDBRANCH   2  20
BRANCH   6  22
ATOM     22  O   UNL     1     -16.837  34.845   6.477  1.00  0.00    -0.507 OA
ATOM     23  H   UNL     1     -16.908  33.877   6.202  1.00  0.00     0.293 HD
ENDBRANCH   6  22
BRANCH   8  24
ATOM     24  O   UNL     1     -20.241  38.168   7.124  1.00  0.00    -0.508 OA
ATOM     25  H   UNL     1     -20.959  38.787   6.765  1.00  0.00     0.293 HD
ENDBRANCH   8  24
TORSDOF 5
ENDMDL
MODEL 9
REMARK VINA RESULT:    -6.731      1.836      7.015
REMARK INTER + INTRA:          -8.163
REMARK INTER:                  -7.874
REMARK INTRA:                  -0.289
REMARK UNBOUND:                -0.252
REMARK SMILES O=c1c(O)c(-c2ccc(O)cc2)oc2cc(O)cc(O)c12
REMARK SMILES IDX 5 1 3 2 2 3 1 4 21 5 19 6 18 7 16 8 15 9 14 10 13 11 6 12
REMARK SMILES IDX 7 13 8 14 9 15 12 16 11 17 10 18 4 20 20 22 17 24
REMARK H PARENT 10 19 4 21 20 23 17 25
REMARK Flexibility Score: inf
ROOT
ATOM      1  C   UNL     1     -15.079  36.330  -0.547  1.00  0.00     0.180 A 
ATOM      2  C   UNL     1     -13.816  36.946  -0.521  1.00  0.00     0.208 A 
ATOM      3  C   UNL     1     -12.855  36.568  -1.472  1.00  0.00     0.238 A 
ATOM      4  O   UNL     1     -11.708  37.084  -1.411  1.00  0.00    -0.285 OA
ATOM      5  C   UNL     1     -13.173  35.591  -2.445  1.00  0.00     0.111 A 
ATOM      6  C   UNL     1     -12.290  35.160  -3.481  1.00  0.00     0.134 A 
ATOM      7  C   UNL     1     -12.663  34.094  -4.309  1.00  0.00     0.093 A 
ATOM      8  C   UNL     1     -13.914  33.485  -4.179  1.00  0.00     0.123 A 
ATOM      9  C   UNL     1     -14.807  33.939  -3.210  1.00  0.00     0.094 A 
ATOM     10  C   UNL     1     -14.448  34.976  -2.347  1.00  0.00     0.146 A 
ATOM     11  O   UNL     1     -15.325  35.370  -1.430  1.00  0.00    -0.452 OA
ENDROOT
BRANCH   1  12
ATOM     12  C   UNL     1     -16.153  36.694   0.407  1.00  0.00     0.021 A 
ATOM     13  C   UNL     1     -16.290  36.035   1.642  1.00  0.00     0.016 A 
ATOM     14  C   UNL     1     -17.296  36.412   2.536  1.00  0.00     0.047 A 
ATOM     15  C   UNL     1     -18.169  37.459   2.214  1.00  0.00     0.115 A 
ATOM     16  C   UNL     1     -17.020  37.755   0.100  1.00  0.00     0.016 A 
ATOM     17  C   UNL     1     -18.026  38.130   0.996  1.00  0.00     0.047 A 
BRANCH  15  18
ATOM     18  O   UNL     1     -19.177  37.841   3.096  1.00  0.00    -0.508 OA
ATOM     19  H   UNL     1     -19.003  37.935   4.090  1.00  0.00     0.293 HD
ENDBRANCH  15  18
ENDBRANCH   1  12
BRANCH   2  20
ATOM     20  O   UNL     1     -13.515  37.894   0.461  1.00  0.00    -0.502 OA
ATOM     21  H   UNL     1     -12.606  37.949   0.904  1.00  0.00     0.293 HD
ENDBRANCH   2  20
BRANCH   6  22
ATOM     22  O   UNL     1     -11.057  35.760  -3.754  1.00  0.00    -0.507 OA
ATOM     23  H   UNL     1     -10.410  36.089  -3.053  1.00  0.00     0.293 HD
ENDBRANCH   6  22
BRANCH   8  24
ATOM     24  O   UNL     1     -14.284  32.436  -5.017  1.00  0.00    -0.508 OA
ATOM     25  H   UNL     1     -14.173  32.496  -6.023  1.00  0.00     0.293 HD
ENDBRANCH   8  24
TORSDOF 5
ENDMDL
