MODEL 1
REMARK VINA RESULT:    -3.620      0.000      0.000
REMARK INTER + INTRA:          -4.906
REMARK INTER:                  -4.678
REMARK INTRA:                  -0.228
REMARK UNBOUND:                -0.228
REMARK SMILES CCCCCCC(=O)[O-]
REMARK SMILES IDX 5 1 6 2 7 3 8 4 9 5 4 6 3 7 2 8 1 9
REMARK H PARENT
REMARK Flexibility Score: inf
ROOT
ATOM      1  C   UNL     1      31.242  18.645  24.624  1.00  0.00     0.006 C 
ENDROOT
BRANCH   1   2
ATOM      2  C   UNL     1      32.623  17.998  24.435  1.00  0.00     0.053 C 
BRANCH   2   3
ATOM      3  C   UNL     1      33.344  18.551  23.243  1.00  0.00     0.041 C 
ATOM      4  O   UNL     1      32.747  19.315  22.439  1.00  0.00    -0.550 OA
ATOM      5  O   UNL     1      34.684  18.249  23.039  1.00  0.00    -0.550 OA
ENDBRANCH   2   3
ENDBRANCH   1   2
BRANCH   1   6
ATOM      6  C   UNL     1      31.040  19.319  25.993  1.00  0.00     0.000 C 
BRANCH   6   7
ATOM      7  C   UNL     1      30.482  18.357  27.054  1.00  0.00    -0.000 C 
BRANCH   7   8
ATOM      8  C   UNL     1      31.552  18.011  28.095  1.00  0.00    -0.003 C 
ATOM      9  C   UNL     1      32.247  16.695  27.756  1.00  0.00     0.004 C 
ENDBRANCH   7   8
ENDBRANCH   6   7
ENDBRANCH   1   6
TORSDOF 5
ENDMDL
MODEL 2
REMARK VINA RESULT:    -3.514     10.337     11.300
REMARK INTER + INTRA:          -4.769
REMARK INTER:                  -4.557
REMARK INTRA:                  -0.212
REMARK UNBOUND:                -0.228
REMARK SMILES CCCCCCC(=O)[O-]
REMARK SMILES IDX 5 1 6 2 7 3 8 4 9 5 4 6 3 7 2 8 1 9
REMARK H PARENT
REMARK Flexibility Score: inf
ROOT
ATOM      1  C   UNL     1      29.272   9.962  21.880  1.00  0.00     0.006 C 
ENDROOT
BRANCH   1   2
ATOM      2  C   UNL     1      27.863  10.261  22.418  1.00  0.00     0.053 C 
BRANCH   2   3
ATOM      3  C   UNL     1      27.715   9.863  23.854  1.00  0.00     0.041 C 
ATOM      4  O   UNL     1      28.670   9.308  24.460  1.00  0.00    -0.550 OA
ATOM      5  O   UNL     1      26.534  10.134  24.533  1.00  0.00    -0.550 OA
ENDBRANCH   2   3
ENDBRANCH   1   2
BRANCH   1   6
ATOM      6  C   UNL     1      29.313   8.902  20.764  1.00  0.00     0.000 C 
BRANCH   6   7
ATOM      7  C   UNL     1      30.431   9.156  19.742  1.00  0.00    -0.000 C 
BRANCH   7   8
ATOM      8  C   UNL     1      29.907   9.007  18.309  1.00  0.00    -0.003 C 
ATOM      9  C   UNL     1      28.500   9.582  18.173  1.00  0.00     0.004 C 
ENDBRANCH   7   8
ENDBRANCH   6   7
ENDBRANCH   1   6
TORSDOF 5
ENDMDL
MODEL 3
REMARK VINA RESULT:    -3.313      9.901     10.807
REMARK INTER + INTRA:          -4.510
REMARK INTER:                  -4.335
REMARK INTRA:                  -0.175
REMARK UNBOUND:                -0.228
REMARK SMILES CCCCCCC(=O)[O-]
REMARK SMILES IDX 5 1 6 2 7 3 8 4 9 5 4 6 3 7 2 8 1 9
REMARK H PARENT
REMARK Flexibility Score: inf
ROOT
ATOM      1  C   UNL     1      28.725   9.883  22.292  1.00  0.00     0.006 C 
ENDROOT
BRANCH   1   2
ATOM      2  C   UNL     1      27.319  10.342  21.872  1.00  0.00     0.053 C 
BRANCH   2   3
ATOM      3  C   UNL     1      26.750  11.350  22.823  1.00  0.00     0.041 C 
ATOM      4  O   UNL     1      26.953  12.580  22.639  1.00  0.00    -0.550 OA
ATOM      5  O   UNL     1      25.967  10.934  23.892  1.00  0.00    -0.550 OA
ENDBRANCH   2   3
ENDBRANCH   1   2
BRANCH   1   6
ATOM      6  C   UNL     1      29.681   9.612  21.116  1.00  0.00     0.000 C 
BRANCH   6   7
ATOM      7  C   UNL     1      29.000   8.875  19.952  1.00  0.00    -0.000 C 
BRANCH   7   8
ATOM      8  C   UNL     1      29.728   9.147  18.631  1.00  0.00    -0.003 C 
ATOM      9  C   UNL     1      31.173   9.575  18.875  1.00  0.00     0.004 C 
ENDBRANCH   7   8
ENDBRANCH   6   7
ENDBRANCH   1   6
TORSDOF 5
ENDMDL
MODEL 4
REMARK VINA RESULT:    -3.278      3.255      4.985
REMARK INTER + INTRA:          -4.463
REMARK INTER:                  -4.328
REMARK INTRA:                  -0.135
REMARK UNBOUND:                -0.228
REMARK SMILES CCCCCCC(=O)[O-]
REMARK SMILES IDX 5 1 6 2 7 3 8 4 9 5 4 6 3 7 2 8 1 9
REMARK H PARENT
REMARK Flexibility Score: inf
ROOT
ATOM      1  C   UNL     1      31.462  18.594  25.388  1.00  0.00     0.006 C 
ENDROOT
BRANCH   1   2
ATOM      2  C   UNL     1      31.800  17.453  26.361  1.00  0.00     0.053 C 
BRANCH   2   3
ATOM      3  C   UNL     1      31.247  17.701  27.731  1.00  0.00     0.041 C 
ATOM      4  O   UNL     1      30.535  18.716  27.953  1.00  0.00    -0.550 OA
ATOM      5  O   UNL     1      31.490  16.793  28.754  1.00  0.00    -0.550 OA
ENDBRANCH   2   3
ENDBRANCH   1   2
BRANCH   1   6
ATOM      6  C   UNL     1      31.977  18.377  23.953  1.00  0.00     0.000 C 
BRANCH   6   7
ATOM      7  C   UNL     1      33.138  19.314  23.589  1.00  0.00    -0.000 C 
BRANCH   7   8
ATOM      8  C   UNL     1      32.902  19.974  22.226  1.00  0.00    -0.003 C 
ATOM      9  C   UNL     1      31.741  19.314  21.487  1.00  0.00     0.004 C 
ENDBRANCH   7   8
ENDBRANCH   6   7
ENDBRANCH   1   6
TORSDOF 5
ENDMDL
MODEL 5
REMARK VINA RESULT:    -3.187      9.895     10.771
REMARK INTER + INTRA:          -4.346
REMARK INTER:                  -4.228
REMARK INTRA:                  -0.118
REMARK UNBOUND:                -0.228
REMARK SMILES CCCCCCC(=O)[O-]
REMARK SMILES IDX 5 1 6 2 7 3 8 4 9 5 4 6 3 7 2 8 1 9
REMARK H PARENT
REMARK Flexibility Score: inf
ROOT
ATOM      1  C   UNL     1      28.081  10.519  22.262  1.00  0.00     0.006 C 
ENDROOT
BRANCH   1   2
ATOM      2  C   UNL     1      26.585  10.760  22.523  1.00  0.00     0.053 C 
BRANCH   2   3
ATOM      3  C   UNL     1      26.023  11.822  21.628  1.00  0.00     0.041 C 
ATOM      4  O   UNL     1      25.916  13.007  22.041  1.00  0.00    -0.550 OA
ATOM      5  O   UNL     1      25.648  11.509  20.328  1.00  0.00    -0.550 OA
ENDBRANCH   2   3
ENDBRANCH   1   2
BRANCH   1   6
ATOM      6  C   UNL     1      28.402   9.154  21.626  1.00  0.00     0.000 C 
BRANCH   6   7
ATOM      7  C   UNL     1      29.785   9.117  20.960  1.00  0.00    -0.000 C 
BRANCH   7   8
ATOM      8  C   UNL     1      29.658   9.121  19.433  1.00  0.00    -0.003 C 
ATOM      9  C   UNL     1      31.023   9.264  18.765  1.00  0.00     0.004 C 
ENDBRANCH   7   8
ENDBRANCH   6   7
ENDBRANCH   1   6
TORSDOF 5
ENDMDL
MODEL 6
REMARK VINA RESULT:    -3.102     10.498     11.283
REMARK INTER + INTRA:          -4.237
REMARK INTER:                  -4.046
REMARK INTRA:                  -0.191
REMARK UNBOUND:                -0.228
REMARK SMILES CCCCCCC(=O)[O-]
REMARK SMILES IDX 5 1 6 2 7 3 8 4 9 5 4 6 3 7 2 8 1 9
REMARK H PARENT
REMARK Flexibility Score: inf
ROOT
ATOM      1  C   UNL     1      26.772  10.488  22.367  1.00  0.00     0.006 C 
ENDROOT
BRANCH   1   2
ATOM      2  C   UNL     1      26.094  11.357  21.296  1.00  0.00     0.053 C 
BRANCH   2   3
ATOM      3  C   UNL     1      24.600  11.320  21.405  1.00  0.00     0.041 C 
ATOM      4  O   UNL     1      24.052  10.997  22.493  1.00  0.00    -0.550 OA
ATOM      5  O   UNL     1      23.814  11.674  20.316  1.00  0.00    -0.550 OA
ENDBRANCH   2   3
ENDBRANCH   1   2
BRANCH   1   6
ATOM      6  C   UNL     1      28.290  10.315  22.176  1.00  0.00     0.000 C 
BRANCH   6   7
ATOM      7  C   UNL     1      28.658   8.989  21.494  1.00  0.00    -0.000 C 
BRANCH   7   8
ATOM      8  C   UNL     1      29.658   9.218  20.356  1.00  0.00    -0.003 C 
ATOM      9  C   UNL     1      28.992   9.047  18.993  1.00  0.00     0.004 C 
ENDBRANCH   7   8
ENDBRANCH   6   7
ENDBRANCH   1   6
TORSDOF 5
ENDMDL
MODEL 7
REMARK VINA RESULT:    -3.056      9.850     10.252
REMARK INTER + INTRA:          -4.177
REMARK INTER:                  -3.991
REMARK INTRA:                  -0.185
REMARK UNBOUND:                -0.228
REMARK SMILES CCCCCCC(=O)[O-]
REMARK SMILES IDX 5 1 6 2 7 3 8 4 9 5 4 6 3 7 2 8 1 9
REMARK H PARENT
REMARK Flexibility Score: inf
ROOT
ATOM      1  C   UNL     1      29.027   9.943  21.887  1.00  0.00     0.006 C 
ENDROOT
BRANCH   1   2
ATOM      2  C   UNL     1      29.761   8.875  21.059  1.00  0.00     0.053 C 
BRANCH   2   3
ATOM      3  C   UNL     1      29.924   9.287  19.628  1.00  0.00     0.041 C 
ATOM      4  O   UNL     1      28.948   9.219  18.834  1.00  0.00    -0.550 OA
ATOM      5  O   UNL     1      31.143   9.779  19.180  1.00  0.00    -0.550 OA
ENDBRANCH   2   3
ENDBRANCH   1   2
BRANCH   1   6
ATOM      6  C   UNL     1      28.016   9.375  22.900  1.00  0.00     0.000 C 
BRANCH   6   7
ATOM      7  C   UNL     1      26.987  10.418  23.362  1.00  0.00    -0.000 C 
BRANCH   7   8
ATOM      8  C   UNL     1      26.846  11.543  22.330  1.00  0.00    -0.003 C 
ATOM      9  C   UNL     1      25.591  11.360  21.482  1.00  0.00     0.004 C 
ENDBRANCH   7   8
ENDBRANCH   6   7
ENDBRANCH   1   6
TORSDOF 5
ENDMDL
MODEL 8
REMARK VINA RESULT:    -3.051     10.633     11.213
REMARK INTER + INTRA:          -4.170
REMARK INTER:                  -3.852
REMARK INTRA:                  -0.318
REMARK UNBOUND:                -0.228
REMARK SMILES CCCCCCC(=O)[O-]
REMARK SMILES IDX 5 1 6 2 7 3 8 4 9 5 4 6 3 7 2 8 1 9
REMARK H PARENT
REMARK Flexibility Score: inf
ROOT
ATOM      1  C   UNL     1      25.995  12.023  21.633  1.00  0.00     0.006 C 
ENDROOT
BRANCH   1   2
ATOM      2  C   UNL     1      26.706  10.779  22.192  1.00  0.00     0.053 C 
BRANCH   2   3
ATOM      3  C   UNL     1      26.494  10.627  23.667  1.00  0.00     0.041 C 
ATOM      4  O   UNL     1      25.379  10.910  24.180  1.00  0.00    -0.550 OA
ATOM      5  O   UNL     1      27.518  10.142  24.470  1.00  0.00    -0.550 OA
ENDBRANCH   2   3
ENDBRANCH   1   2
BRANCH   1   6
ATOM      6  C   UNL     1      25.270  11.790  20.295  1.00  0.00     0.000 C 
BRANCH   6   7
ATOM      7  C   UNL     1      23.742  11.890  20.420  1.00  0.00    -0.000 C 
BRANCH   7   8
ATOM      8  C   UNL     1      23.121  10.510  20.662  1.00  0.00    -0.003 C 
ATOM      9  C   UNL     1      22.561  10.397  22.077  1.00  0.00     0.004 C 
ENDBRANCH   7   8
ENDBRANCH   6   7
ENDBRANCH   1   6
TORSDOF 5
ENDMDL
MODEL 9
REMARK VINA RESULT:    -3.049     10.424     11.001
REMARK INTER + INTRA:          -4.168
REMARK INTER:                  -4.007
REMARK INTRA:                  -0.161
REMARK UNBOUND:                -0.228
REMARK SMILES CCCCCCC(=O)[O-]
REMARK SMILES IDX 5 1 6 2 7 3 8 4 9 5 4 6 3 7 2 8 1 9
REMARK H PARENT
REMARK Flexibility Score: inf
ROOT
ATOM      1  C   UNL     1      26.925  11.182  22.164  1.00  0.00     0.006 C 
ENDROOT
BRANCH   1   2
ATOM      2  C   UNL     1      27.634   9.821  22.255  1.00  0.00     0.053 C 
BRANCH   2   3
ATOM      3  C   UNL     1      28.210   9.578  23.617  1.00  0.00     0.041 C 
ATOM      4  O   UNL     1      27.448   9.361  24.597  1.00  0.00    -0.550 OA
ATOM      5  O   UNL     1      29.587   9.558  23.797  1.00  0.00    -0.550 OA
ENDBRANCH   2   3
ENDBRANCH   1   2
BRANCH   1   6
ATOM      6  C   UNL     1      25.405  11.090  21.938  1.00  0.00     0.000 C 
BRANCH   6   7
ATOM      7  C   UNL     1      24.970  11.651  20.576  1.00  0.00    -0.000 C 
BRANCH   7   8
ATOM      8  C   UNL     1      23.459  11.488  20.374  1.00  0.00    -0.003 C 
ATOM      9  C   UNL     1      22.913  10.332  21.206  1.00  0.00     0.004 C 
ENDBRANCH   7   8
ENDBRANCH   6   7
ENDBRANCH   1   6
TORSDOF 5
ENDMDL
