MODEL 1
REMARK VINA RESULT:    -5.223      0.000      0.000
REMARK INTER + INTRA:          -7.529
REMARK INTER:                  -7.055
REMARK INTRA:                  -0.474
REMARK UNBOUND:                -0.474
REMARK SMILES CC(=O)CCC=C(C)CCC=C(C)C
REMARK SMILES IDX 7 1 6 2 8 3 9 4 10 5 11 6 13 7 12 8 14 9 5 10 4 11 2 12 3 13
REMARK SMILES IDX 1 14
REMARK H PARENT
REMARK Flexibility Score: inf
ROOT
ATOM      1  C   UNL     1      -1.564   2.088  16.103  1.00  0.00    -0.077 C 
ATOM      2  C   UNL     1      -0.763   1.907  17.179  1.00  0.00    -0.028 C 
ATOM      3  C   UNL     1      -1.751   1.012  15.058  1.00  0.00     0.039 C 
ENDROOT
BRANCH   1   4
ATOM      4  C   UNL     1      -2.300   3.401  15.949  1.00  0.00     0.034 C 
BRANCH   4   5
ATOM      5  C   UNL     1      -3.784   3.164  15.643  1.00  0.00     0.032 C 
BRANCH   5   6
ATOM      6  C   UNL     1      -4.632   4.324  16.108  1.00  0.00    -0.028 C 
ATOM      7  C   UNL     1      -6.635   2.859  16.386  1.00  0.00     0.039 C 
ATOM      8  C   UNL     1      -5.933   4.193  16.448  1.00  0.00    -0.080 C 
ATOM      9  C   UNL     1      -6.720   5.393  16.905  1.00  0.00     0.039 C 
ENDBRANCH   5   6
ENDBRANCH   4   5
ENDBRANCH   1   4
BRANCH   2  10
ATOM     10  C   UNL     1       0.058   0.668  17.435  1.00  0.00     0.035 C 
BRANCH  10  11
ATOM     11  C   UNL     1      -0.534  -0.143  18.597  1.00  0.00     0.079 C 
BRANCH  11  12
ATOM     12  C   UNL     1      -0.100   0.293  19.981  1.00  0.00     0.130 C 
ATOM     13  O   UNL     1      -0.974   0.583  20.784  1.00  0.00    -0.300 OA
ATOM     14  C   UNL     1       1.332   0.394  20.441  1.00  0.00     0.087 C 
ENDBRANCH  11  12
ENDBRANCH  10  11
ENDBRANCH   2  10
TORSDOF 6
ENDMDL
MODEL 2
REMARK VINA RESULT:    -5.110      6.302      8.111
REMARK INTER + INTRA:          -7.376
REMARK INTER:                  -6.737
REMARK INTRA:                  -0.640
REMARK UNBOUND:                -0.474
REMARK SMILES CC(=O)CCC=C(C)CCC=C(C)C
REMARK SMILES IDX 7 1 6 2 8 3 9 4 10 5 11 6 13 7 12 8 14 9 5 10 4 11 2 12 3 13
REMARK SMILES IDX 1 14
REMARK H PARENT
REMARK Flexibility Score: inf
ROOT
ATOM      1  C   UNL     1      -3.421   0.114   9.718  1.00  0.00    -0.077 C 
ATOM      2  C   UNL     1      -4.009  -1.085   9.501  1.00  0.00    -0.028 C 
ATOM      3  C   UNL     1      -2.200   0.556   8.946  1.00  0.00     0.039 C 
ENDROOT
BRANCH   1   4
ATOM      4  C   UNL     1      -4.014   1.044  10.755  1.00  0.00     0.034 C 
BRANCH   4   5
ATOM      5  C   UNL     1      -4.298   0.296  12.062  1.00  0.00     0.032 C 
BRANCH   5   6
ATOM      6  C   UNL     1      -5.143   1.127  12.998  1.00  0.00    -0.028 C 
ATOM      7  C   UNL     1      -3.214   1.512  14.536  1.00  0.00     0.039 C 
ATOM      8  C   UNL     1      -4.656   1.685  14.128  1.00  0.00    -0.080 C 
ATOM      9  C   UNL     1      -5.556   2.504  15.015  1.00  0.00     0.039 C 
ENDBRANCH   5   6
ENDBRANCH   4   5
ENDBRANCH   1   4
BRANCH   2  10
ATOM     10  C   UNL     1      -3.502  -2.122   8.529  1.00  0.00     0.035 C 
BRANCH  10  11
ATOM     11  C   UNL     1      -3.017  -3.372   9.276  1.00  0.00     0.079 C 
BRANCH  11  12
ATOM     12  C   UNL     1      -4.073  -4.099  10.084  1.00  0.00     0.130 C 
ATOM     13  O   UNL     1      -4.989  -4.628   9.474  1.00  0.00    -0.300 OA
ATOM     14  C   UNL     1      -4.075  -4.216  11.587  1.00  0.00     0.087 C 
ENDBRANCH  11  12
ENDBRANCH  10  11
ENDBRANCH   2  10
TORSDOF 6
ENDMDL
MODEL 3
REMARK VINA RESULT:    -5.088      5.871      8.461
REMARK INTER + INTRA:          -7.346
REMARK INTER:                  -6.628
REMARK INTRA:                  -0.719
REMARK UNBOUND:                -0.474
REMARK SMILES CC(=O)CCC=C(C)CCC=C(C)C
REMARK SMILES IDX 7 1 6 2 8 3 9 4 10 5 11 6 13 7 12 8 14 9 5 10 4 11 2 12 3 13
REMARK SMILES IDX 1 14
REMARK H PARENT
REMARK Flexibility Score: inf
ROOT
ATOM      1  C   UNL     1      -3.650   0.095   9.956  1.00  0.00    -0.077 C 
ATOM      2  C   UNL     1      -4.046  -0.214  11.212  1.00  0.00    -0.028 C 
ATOM      3  C   UNL     1      -2.919   1.380   9.642  1.00  0.00     0.039 C 
ENDROOT
BRANCH   1   4
ATOM      4  C   UNL     1      -3.937  -0.882   8.836  1.00  0.00     0.034 C 
BRANCH   4   5
ATOM      5  C   UNL     1      -3.105  -2.160   8.997  1.00  0.00     0.032 C 
BRANCH   5   6
ATOM      6  C   UNL     1      -3.965  -3.323   9.434  1.00  0.00    -0.028 C 
ATOM      7  C   UNL     1      -2.697  -3.568  11.571  1.00  0.00     0.039 C 
ATOM      8  C   UNL     1      -3.784  -3.970  10.606  1.00  0.00    -0.080 C 
ATOM      9  C   UNL     1      -4.679  -5.122  10.978  1.00  0.00     0.039 C 
ENDBRANCH   5   6
ENDBRANCH   4   5
ENDBRANCH   1   4
BRANCH   2  10
ATOM     10  C   UNL     1      -3.860   0.683  12.412  1.00  0.00     0.035 C 
BRANCH  10  11
ATOM     11  C   UNL     1      -5.217   1.179  12.931  1.00  0.00     0.079 C 
BRANCH  11  12
ATOM     12  C   UNL     1      -5.160   2.072  14.154  1.00  0.00     0.130 C 
ATOM     13  O   UNL     1      -6.169   2.693  14.450  1.00  0.00    -0.300 OA
ATOM     14  C   UNL     1      -3.946   2.250  15.030  1.00  0.00     0.087 C 
ENDBRANCH  11  12
ENDBRANCH  10  11
ENDBRANCH   2  10
TORSDOF 6
ENDMDL
MODEL 4
REMARK VINA RESULT:    -5.060      4.342      6.971
REMARK INTER + INTRA:          -7.309
REMARK INTER:                  -6.435
REMARK INTRA:                  -0.874
REMARK UNBOUND:                -0.474
REMARK SMILES CC(=O)CCC=C(C)CCC=C(C)C
REMARK SMILES IDX 7 1 6 2 8 3 9 4 10 5 11 6 13 7 12 8 14 9 5 10 4 11 2 12 3 13
REMARK SMILES IDX 1 14
REMARK H PARENT
REMARK Flexibility Score: inf
ROOT
ATOM      1  C   UNL     1      -4.563   1.422  13.840  1.00  0.00    -0.077 C 
ATOM      2  C   UNL     1      -5.547   2.206  14.339  1.00  0.00    -0.028 C 
ATOM      3  C   UNL     1      -3.193   1.361  14.474  1.00  0.00     0.039 C 
ENDROOT
BRANCH   1   4
ATOM      4  C   UNL     1      -4.850   0.575  12.619  1.00  0.00     0.034 C 
BRANCH   4   5
ATOM      5  C   UNL     1      -3.779   0.785  11.543  1.00  0.00     0.032 C 
BRANCH   5   6
ATOM      6  C   UNL     1      -4.135   1.936  10.632  1.00  0.00    -0.028 C 
ATOM      7  C   UNL     1      -2.263   3.330  11.521  1.00  0.00     0.039 C 
ATOM      8  C   UNL     1      -3.448   3.100  10.617  1.00  0.00    -0.080 C 
ATOM      9  C   UNL     1      -3.858   4.207   9.682  1.00  0.00     0.039 C 
ENDBRANCH   5   6
ENDBRANCH   4   5
ENDBRANCH   1   4
BRANCH   2  10
ATOM     10  C   UNL     1      -5.388   3.128  15.523  1.00  0.00     0.035 C 
BRANCH  10  11
ATOM     11  C   UNL     1      -6.627   3.066  16.427  1.00  0.00     0.079 C 
BRANCH  11  12
ATOM     12  C   UNL     1      -7.684   4.118  16.157  1.00  0.00     0.130 C 
ATOM     13  O   UNL     1      -7.754   5.062  16.930  1.00  0.00    -0.300 OA
ATOM     14  C   UNL     1      -8.653   4.085  15.004  1.00  0.00     0.087 C 
ENDBRANCH  11  12
ENDBRANCH  10  11
ENDBRANCH   2  10
TORSDOF 6
ENDMDL
MODEL 5
REMARK VINA RESULT:    -5.048      4.498      7.709
REMARK INTER + INTRA:          -7.292
REMARK INTER:                  -6.877
REMARK INTRA:                  -0.415
REMARK UNBOUND:                -0.474
REMARK SMILES CC(=O)CCC=C(C)CCC=C(C)C
REMARK SMILES IDX 7 1 6 2 8 3 9 4 10 5 11 6 13 7 12 8 14 9 5 10 4 11 2 12 3 13
REMARK SMILES IDX 1 14
REMARK H PARENT
REMARK Flexibility Score: inf
ROOT
ATOM      1  C   UNL     1      -4.680   1.638  13.857  1.00  0.00    -0.077 C 
ATOM      2  C   UNL     1      -5.683   2.339  14.435  1.00  0.00    -0.028 C 
ATOM      3  C   UNL     1      -3.357   1.416  14.552  1.00  0.00     0.039 C 
ENDROOT
BRANCH   1   4
ATOM      4  C   UNL     1      -4.897   1.051  12.479  1.00  0.00     0.034 C 
BRANCH   4   5
ATOM      5  C   UNL     1      -3.605   0.426  11.940  1.00  0.00     0.032 C 
BRANCH   5   6
ATOM      6  C   UNL     1      -3.767  -0.018  10.506  1.00  0.00    -0.028 C 
ATOM      7  C   UNL     1      -3.400  -2.412  11.115  1.00  0.00     0.039 C 
ATOM      8  C   UNL     1      -3.674  -1.310  10.122  1.00  0.00    -0.080 C 
ATOM      9  C   UNL     1      -3.848  -1.683   8.673  1.00  0.00     0.039 C 
ENDBRANCH   5   6
ENDBRANCH   4   5
ENDBRANCH   1   4
BRANCH   2  10
ATOM     10  C   UNL     1      -5.589   3.011  15.783  1.00  0.00     0.035 C 
BRANCH  10  11
ATOM     11  C   UNL     1      -6.954   3.003  16.487  1.00  0.00     0.079 C 
BRANCH  11  12
ATOM     12  C   UNL     1      -7.896   4.122  16.093  1.00  0.00     0.130 C 
ATOM     13  O   UNL     1      -7.918   5.119  16.799  1.00  0.00    -0.300 OA
ATOM     14  C   UNL     1      -8.807   4.095  14.893  1.00  0.00     0.087 C 
ENDBRANCH  11  12
ENDBRANCH  10  11
ENDBRANCH   2  10
TORSDOF 6
ENDMDL
MODEL 6
REMARK VINA RESULT:    -5.029      4.116      7.133
REMARK INTER + INTRA:          -7.266
REMARK INTER:                  -6.733
REMARK INTRA:                  -0.533
REMARK UNBOUND:                -0.474
REMARK SMILES CC(=O)CCC=C(C)CCC=C(C)C
REMARK SMILES IDX 7 1 6 2 8 3 9 4 10 5 11 6 13 7 12 8 14 9 5 10 4 11 2 12 3 13
REMARK SMILES IDX 1 14
REMARK H PARENT
REMARK Flexibility Score: inf
ROOT
ATOM      1  C   UNL     1      -3.675   2.174  14.816  1.00  0.00    -0.077 C 
ATOM      2  C   UNL     1      -4.987   2.358  15.094  1.00  0.00    -0.028 C 
ATOM      3  C   UNL     1      -2.586   2.795  15.660  1.00  0.00     0.039 C 
ENDROOT
BRANCH   1   4
ATOM      4  C   UNL     1      -3.291   1.313  13.633  1.00  0.00     0.034 C 
BRANCH   4   5
ATOM      5  C   UNL     1      -4.516   0.990  12.769  1.00  0.00     0.032 C 
BRANCH   5   6
ATOM      6  C   UNL     1      -4.122   0.246  11.515  1.00  0.00    -0.028 C 
ATOM      7  C   UNL     1      -4.110   2.348  10.167  1.00  0.00     0.039 C 
ATOM      8  C   UNL     1      -3.936   0.858  10.325  1.00  0.00    -0.080 C 
ATOM      9  C   UNL     1      -3.543   0.053   9.114  1.00  0.00     0.039 C 
ENDBRANCH   5   6
ENDBRANCH   4   5
ENDBRANCH   1   4
BRANCH   2  10
ATOM     10  C   UNL     1      -5.511   3.222  16.215  1.00  0.00     0.035 C 
BRANCH  10  11
ATOM     11  C   UNL     1      -7.010   2.974  16.433  1.00  0.00     0.079 C 
BRANCH  11  12
ATOM     12  C   UNL     1      -7.923   4.112  16.026  1.00  0.00     0.130 C 
ATOM     13  O   UNL     1      -8.004   5.071  16.778  1.00  0.00    -0.300 OA
ATOM     14  C   UNL     1      -8.740   4.147  14.759  1.00  0.00     0.087 C 
ENDBRANCH  11  12
ENDBRANCH  10  11
ENDBRANCH   2  10
TORSDOF 6
ENDMDL
MODEL 7
REMARK VINA RESULT:    -4.935      4.654      6.294
REMARK INTER + INTRA:          -7.139
REMARK INTER:                  -6.276
REMARK INTRA:                  -0.863
REMARK UNBOUND:                -0.474
REMARK SMILES CC(=O)CCC=C(C)CCC=C(C)C
REMARK SMILES IDX 7 1 6 2 8 3 9 4 10 5 11 6 13 7 12 8 14 9 5 10 4 11 2 12 3 13
REMARK SMILES IDX 1 14
REMARK H PARENT
REMARK Flexibility Score: inf
ROOT
ATOM      1  C   UNL     1      -5.468   2.782  15.432  1.00  0.00    -0.077 C 
ATOM      2  C   UNL     1      -5.790   2.319  14.201  1.00  0.00    -0.028 C 
ATOM      3  C   UNL     1      -4.063   3.215  15.779  1.00  0.00     0.039 C 
ENDROOT
BRANCH   1   4
ATOM      4  C   UNL     1      -6.551   2.877  16.484  1.00  0.00     0.034 C 
BRANCH   4   5
ATOM      5  C   UNL     1      -7.563   3.972  16.131  1.00  0.00     0.032 C 
BRANCH   5   6
ATOM      6  C   UNL     1      -7.210   5.282  16.795  1.00  0.00    -0.028 C 
ATOM      7  C   UNL     1      -6.285   6.209  14.669  1.00  0.00     0.039 C 
ATOM      8  C   UNL     1      -6.626   6.306  16.135  1.00  0.00    -0.080 C 
ATOM      9  C   UNL     1      -6.302   7.586  16.860  1.00  0.00     0.039 C 
ENDBRANCH   5   6
ENDBRANCH   4   5
ENDBRANCH   1   4
BRANCH   2  10
ATOM     10  C   UNL     1      -4.805   2.135  13.073  1.00  0.00     0.035 C 
BRANCH  10  11
ATOM     11  C   UNL     1      -4.731   0.660  12.655  1.00  0.00     0.079 C 
BRANCH  11  12
ATOM     12  C   UNL     1      -4.118   0.398  11.294  1.00  0.00     0.130 C 
ATOM     13  O   UNL     1      -3.769  -0.744  11.040  1.00  0.00    -0.300 OA
ATOM     14  C   UNL     1      -3.908   1.446  10.231  1.00  0.00     0.087 C 
ENDBRANCH  11  12
ENDBRANCH  10  11
ENDBRANCH   2  10
TORSDOF 6
ENDMDL
MODEL 8
REMARK VINA RESULT:    -4.900      2.730      6.804
REMARK INTER + INTRA:          -7.092
REMARK INTER:                  -6.657
REMARK INTRA:                  -0.435
REMARK UNBOUND:                -0.474
REMARK SMILES CC(=O)CCC=C(C)CCC=C(C)C
REMARK SMILES IDX 7 1 6 2 8 3 9 4 10 5 11 6 13 7 12 8 14 9 5 10 4 11 2 12 3 13
REMARK SMILES IDX 1 14
REMARK H PARENT
REMARK Flexibility Score: inf
ROOT
ATOM      1  C   UNL     1      -3.091   2.184  15.132  1.00  0.00    -0.077 C 
ATOM      2  C   UNL     1      -4.347   1.770  14.847  1.00  0.00    -0.028 C 
ATOM      3  C   UNL     1      -2.781   3.624  15.466  1.00  0.00     0.039 C 
ENDROOT
BRANCH   1   4
ATOM      4  C   UNL     1      -1.967   1.170  15.127  1.00  0.00     0.034 C 
BRANCH   4   5
ATOM      5  C   UNL     1      -0.794   1.648  15.989  1.00  0.00     0.032 C 
BRANCH   5   6
ATOM      6  C   UNL     1      -0.856   1.055  17.377  1.00  0.00    -0.028 C 
ATOM      7  C   UNL     1       1.452   0.122  17.174  1.00  0.00     0.039 C 
ATOM      8  C   UNL     1       0.164   0.358  17.924  1.00  0.00    -0.080 C 
ATOM      9  C   UNL     1       0.035  -0.205  19.315  1.00  0.00     0.039 C 
ENDBRANCH   5   6
ENDBRANCH   4   5
ENDBRANCH   1   4
BRANCH   2  10
ATOM     10  C   UNL     1      -5.551   2.678  14.777  1.00  0.00     0.035 C 
BRANCH  10  11
ATOM     11  C   UNL     1      -6.178   2.852  16.168  1.00  0.00     0.079 C 
BRANCH  11  12
ATOM     12  C   UNL     1      -7.288   3.879  16.258  1.00  0.00     0.130 C 
ATOM     13  O   UNL     1      -8.387   3.567  15.824  1.00  0.00    -0.300 OA
ATOM     14  C   UNL     1      -7.135   5.259  16.844  1.00  0.00     0.087 C 
ENDBRANCH  11  12
ENDBRANCH  10  11
ENDBRANCH   2  10
TORSDOF 6
ENDMDL
MODEL 9
REMARK VINA RESULT:    -4.838      6.523      8.917
REMARK INTER + INTRA:          -7.008
REMARK INTER:                  -6.176
REMARK INTRA:                  -0.833
REMARK UNBOUND:                -0.474
REMARK SMILES CC(=O)CCC=C(C)CCC=C(C)C
REMARK SMILES IDX 7 1 6 2 8 3 9 4 10 5 11 6 13 7 12 8 14 9 5 10 4 11 2 12 3 13
REMARK SMILES IDX 1 14
REMARK H PARENT
REMARK Flexibility Score: inf
ROOT
ATOM      1  C   UNL     1      -3.296   2.337  10.492  1.00  0.00    -0.077 C 
ATOM      2  C   UNL     1      -3.909   3.445  10.016  1.00  0.00    -0.028 C 
ATOM      3  C   UNL     1      -1.903   2.385  11.077  1.00  0.00     0.039 C 
ENDROOT
BRANCH   1   4
ATOM      4  C   UNL     1      -4.032   1.015  10.447  1.00  0.00     0.034 C 
BRANCH   4   5
ATOM      5  C   UNL     1      -4.165   0.415  11.851  1.00  0.00     0.032 C 
BRANCH   5   6
ATOM      6  C   UNL     1      -5.103   1.230  12.710  1.00  0.00    -0.028 C 
ATOM      7  C   UNL     1      -3.356   1.550  14.465  1.00  0.00     0.039 C 
ATOM      8  C   UNL     1      -4.741   1.750  13.903  1.00  0.00    -0.080 C 
ATOM      9  C   UNL     1      -5.729   2.555  14.707  1.00  0.00     0.039 C 
ENDBRANCH   5   6
ENDBRANCH   4   5
ENDBRANCH   1   4
BRANCH   2  10
ATOM     10  C   UNL     1      -3.279   4.815   9.963  1.00  0.00     0.035 C 
BRANCH  10  11
ATOM     11  C   UNL     1      -2.916   5.188   8.519  1.00  0.00     0.079 C 
BRANCH  11  12
ATOM     12  C   UNL     1      -3.501   6.492   8.016  1.00  0.00     0.130 C 
ATOM     13  O   UNL     1      -3.248   7.507   8.645  1.00  0.00    -0.300 OA
ATOM     14  C   UNL     1      -4.374   6.626   6.794  1.00  0.00     0.087 C 
ENDBRANCH  11  12
ENDBRANCH  10  11
ENDBRANCH   2  10
TORSDOF 6
ENDMDL
