MODEL 1
REMARK VINA RESULT:    -4.179      0.000      0.000
REMARK INTER + INTRA:          -4.684
REMARK INTER:                  -4.423
REMARK INTRA:                  -0.261
REMARK UNBOUND:                -0.261
REMARK SMILES CC1=CC[C@H]2[C@@H]3[C@@H](C(C)C)CC[C@@]2(C)[C@H]13
REMARK SMILES IDX 1 1 2 2 3 3 4 4 5 5 6 6 15 7 13 8 12 9 11 10 7 11 14 12 8 13
REMARK SMILES IDX 9 14 10 15
REMARK H PARENT
REMARK Flexibility Score: inf
ROOT
ATOM      1  C   UNL     1     141.252 137.765 125.022  1.00  0.00     0.039 C 
ATOM      2  C   UNL     1     140.075 136.860 124.804  1.00  0.00    -0.073 C 
ATOM      3  C   UNL     1     139.865 135.776 125.595  1.00  0.00    -0.027 C 
ATOM      4  C   UNL     1     138.657 134.875 125.312  1.00  0.00     0.031 C 
ATOM      5  C   UNL     1     137.828 135.440 124.110  1.00  0.00     0.003 C 
ATOM      6  C   UNL     1     137.651 136.959 124.339  1.00  0.00     0.004 C 
ATOM      7  C   UNL     1     139.050 137.126 123.698  1.00  0.00     0.024 C 
ATOM      8  C   UNL     1     138.743 135.818 122.924  1.00  0.00    -0.022 C 
ATOM      9  C   UNL     1     137.852 136.102 121.682  1.00  0.00     0.008 C 
ATOM     10  C   UNL     1     136.869 137.276 121.914  1.00  0.00     0.005 C 
ATOM     11  C   UNL     1     136.515 137.512 123.421  1.00  0.00    -0.005 C 
ATOM     12  C   UNL     1     139.915 134.875 122.556  1.00  0.00     0.012 C 
ENDROOT
BRANCH  11  13
ATOM     13  C   UNL     1     136.192 139.015 123.701  1.00  0.00    -0.014 C 
ATOM     14  C   UNL     1     134.885 139.444 123.008  1.00  0.00     0.007 C 
ATOM     15  C   UNL     1     136.074 139.320 125.207  1.00  0.00     0.007 C 
ENDBRANCH  11  13
TORSDOF 1
ENDMDL
MODEL 2
REMARK VINA RESULT:    -3.251     13.502     16.055
REMARK INTER + INTRA:          -3.702
REMARK INTER:                  -3.315
REMARK INTRA:                  -0.387
REMARK UNBOUND:                -0.261
REMARK SMILES CC1=CC[C@H]2[C@@H]3[C@@H](C(C)C)CC[C@@]2(C)[C@H]13
REMARK SMILES IDX 1 1 2 2 3 3 4 4 5 5 6 6 15 7 13 8 12 9 11 10 7 11 14 12 8 13
REMARK SMILES IDX 9 14 10 15
REMARK H PARENT
REMARK Flexibility Score: inf
ROOT
ATOM      1  C   UNL     1     138.228 149.753 124.516  1.00  0.00     0.039 C 
ATOM      2  C   UNL     1     137.065 150.697 124.588  1.00  0.00    -0.073 C 
ATOM      3  C   UNL     1     136.048 150.497 125.466  1.00  0.00    -0.027 C 
ATOM      4  C   UNL     1     134.875 151.485 125.479  1.00  0.00     0.031 C 
ATOM      5  C   UNL     1     135.113 152.625 124.434  1.00  0.00     0.003 C 
ATOM      6  C   UNL     1     136.569 153.117 124.605  1.00  0.00     0.004 C 
ATOM      7  C   UNL     1     136.980 151.937 123.692  1.00  0.00     0.024 C 
ATOM      8  C   UNL     1     135.564 152.054 123.070  1.00  0.00    -0.022 C 
ATOM      9  C   UNL     1     135.511 153.194 122.014  1.00  0.00     0.008 C 
ATOM     10  C   UNL     1     136.453 154.372 122.369  1.00  0.00     0.005 C 
ATOM     11  C   UNL     1     136.756 154.498 123.899  1.00  0.00    -0.005 C 
ATOM     12  C   UNL     1     134.875 150.776 122.534  1.00  0.00     0.012 C 
ENDROOT
BRANCH  11  13
ATOM     13  C   UNL     1     138.170 155.116 124.151  1.00  0.00    -0.014 C 
ATOM     14  C   UNL     1     138.919 154.361 125.265  1.00  0.00     0.007 C 
ATOM     15  C   UNL     1     139.044 155.118 122.882  1.00  0.00     0.007 C 
ENDBRANCH  11  13
TORSDOF 1
ENDMDL
MODEL 3
REMARK VINA RESULT:    -1.613      1.127      4.465
REMARK INTER + INTRA:          -1.969
REMARK INTER:                  -1.747
REMARK INTRA:                  -0.221
REMARK UNBOUND:                -0.261
REMARK SMILES CC1=CC[C@H]2[C@@H]3[C@@H](C(C)C)CC[C@@]2(C)[C@H]13
REMARK SMILES IDX 1 1 2 2 3 3 4 4 5 5 6 6 15 7 13 8 12 9 11 10 7 11 14 12 8 13
REMARK SMILES IDX 9 14 10 15
REMARK H PARENT
REMARK Flexibility Score: inf
ROOT
ATOM      1  C   UNL     1     135.977 139.822 124.741  1.00  0.00     0.039 C 
ATOM      2  C   UNL     1     136.551 138.765 123.847  1.00  0.00    -0.073 C 
ATOM      3  C   UNL     1     136.696 138.973 122.512  1.00  0.00    -0.027 C 
ATOM      4  C   UNL     1     137.269 137.847 121.643  1.00  0.00     0.031 C 
ATOM      5  C   UNL     1     137.635 136.611 122.529  1.00  0.00     0.003 C 
ATOM      6  C   UNL     1     138.404 137.133 123.765  1.00  0.00     0.004 C 
ATOM      7  C   UNL     1     137.018 137.413 124.396  1.00  0.00     0.024 C 
ATOM      8  C   UNL     1     136.489 136.259 123.506  1.00  0.00    -0.022 C 
ATOM      9  C   UNL     1     136.792 134.876 124.148  1.00  0.00     0.008 C 
ATOM     10  C   UNL     1     138.116 134.875 124.952  1.00  0.00     0.005 C 
ATOM     11  C   UNL     1     139.144 135.955 124.475  1.00  0.00    -0.005 C 
ATOM     12  C   UNL     1     135.029 136.320 122.994  1.00  0.00     0.012 C 
ENDROOT
BRANCH  11  13
ATOM     13  C   UNL     1     140.052 136.436 125.652  1.00  0.00    -0.014 C 
ATOM     14  C   UNL     1     140.443 135.263 126.571  1.00  0.00     0.007 C 
ATOM     15  C   UNL     1     141.339 137.125 125.159  1.00  0.00     0.007 C 
ENDBRANCH  11  13
TORSDOF 1
ENDMDL
