MODEL 1
REMARK VINA RESULT:    29.718      0.000      0.000
REMARK INTER + INTRA:          77.232
REMARK INTER:                  78.364
REMARK INTRA:                  -1.131
REMARK UNBOUND:                -1.131
REMARK SMILES CCCCCCCCCCCCCCCCCCCCCCCCCCCCCC(=O)[O-]
REMARK SMILES IDX 16 1 17 2 18 3 19 4 20 5 21 6 22 7 23 8 24 9 25 10 26 11
REMARK SMILES IDX 27 12 28 13 29 14 30 15 31 16 32 17 15 18 14 19 13 20 12 21
REMARK SMILES IDX 11 22 10 23 9 24 8 25 7 26 6 27 5 28 4 29 3 30 2 31 1 32
REMARK H PARENT
REMARK Flexibility Score: inf
ROOT
ATOM      1  C   UNL     1     -14.284  -8.006 -21.628  1.00  0.00     0.000 C 
ENDROOT
BRANCH   1   2
ATOM      2  C   UNL     1     -12.872  -8.120 -22.237  1.00  0.00     0.000 C 
BRANCH   2   3
ATOM      3  C   UNL     1     -11.759  -7.716 -21.254  1.00  0.00     0.000 C 
BRANCH   3   4
ATOM      4  C   UNL     1     -10.465  -7.286 -21.961  1.00  0.00     0.000 C 
BRANCH   4   5
ATOM      5  C   UNL     1      -9.656  -6.259 -21.145  1.00  0.00     0.000 C 
BRANCH   5   6
ATOM      6  C   UNL     1     -10.046  -4.803 -21.478  1.00  0.00     0.000 C 
BRANCH   6   7
ATOM      7  C   UNL     1      -9.092  -3.748 -20.889  1.00  0.00     0.000 C 
BRANCH   7   8
ATOM      8  C   UNL     1      -9.755  -2.373 -20.699  1.00  0.00     0.000 C 
BRANCH   8   9
ATOM      9  C   UNL     1      -8.742  -1.209 -20.785  1.00  0.00     0.000 C 
BRANCH   9  10
ATOM     10  C   UNL     1      -9.398   0.185 -20.855  1.00  0.00     0.000 C 
BRANCH  10  11
ATOM     11  C   UNL     1      -9.497   0.781 -22.268  1.00  0.00     0.000 C 
BRANCH  11  12
ATOM     12  C   UNL     1      -9.326   2.310 -22.283  1.00  0.00     0.000 C 
BRANCH  12  13
ATOM     13  C   UNL     1     -10.211   2.995 -23.336  1.00  0.00     0.006 C 
BRANCH  13  14
ATOM     14  C   UNL     1     -10.532   2.076 -24.526  1.00  0.00     0.053 C 
BRANCH  14  15
ATOM     15  C   UNL     1      -9.724   2.438 -25.736  1.00  0.00     0.041 C 
ATOM     16  O   UNL     1     -10.028   1.958 -26.861  1.00  0.00    -0.550 OA
ATOM     17  O   UNL     1      -8.594   3.242 -25.618  1.00  0.00    -0.550 OA
ENDBRANCH  14  15
ENDBRANCH  13  14
ENDBRANCH  12  13
ENDBRANCH  11  12
ENDBRANCH  10  11
ENDBRANCH   9  10
ENDBRANCH   8   9
ENDBRANCH   7   8
ENDBRANCH   6   7
ENDBRANCH   5   6
ENDBRANCH   4   5
ENDBRANCH   3   4
ENDBRANCH   2   3
ENDBRANCH   1   2
BRANCH   1  18
ATOM     18  C   UNL     1     -15.364  -7.455 -22.578  1.00  0.00     0.000 C 
BRANCH  18  19
ATOM     19  C   UNL     1     -16.291  -6.424 -21.911  1.00  0.00     0.000 C 
BRANCH  19  20
ATOM     20  C   UNL     1     -16.772  -5.339 -22.888  1.00  0.00     0.000 C 
BRANCH  20  21
ATOM     21  C   UNL     1     -16.511  -5.699 -24.361  1.00  0.00     0.000 C 
BRANCH  21  22
ATOM     22  C   UNL     1     -17.740  -6.333 -25.033  1.00  0.00     0.000 C 
BRANCH  22  23
ATOM     23  C   UNL     1     -17.445  -6.820 -26.463  1.00  0.00     0.000 C 
BRANCH  23  24
ATOM     24  C   UNL     1     -18.615  -6.553 -27.425  1.00  0.00    -0.000 C 
BRANCH  24  25
ATOM     25  C   UNL     1     -19.175  -7.846 -28.044  1.00  0.00    -0.000 C 
BRANCH  25  26
ATOM     26  C   UNL     1     -18.328  -8.332 -29.239  1.00  0.00    -0.000 C 
BRANCH  26  27
ATOM     27  C   UNL     1     -18.960  -9.502 -30.014  1.00  0.00    -0.000 C 
BRANCH  27  28
ATOM     28  C   UNL     1     -17.912 -10.475 -30.578  1.00  0.00    -0.000 C 
BRANCH  28  29
ATOM     29  C   UNL     1     -16.495  -9.873 -30.624  1.00  0.00    -0.000 C 
BRANCH  29  30
ATOM     30  C   UNL     1     -15.511 -10.405 -29.561  1.00  0.00    -0.000 C 
BRANCH  30  31
ATOM     31  C   UNL     1     -14.035 -10.040 -29.799  1.00  0.00    -0.003 C 
ATOM     32  C   UNL     1     -13.175 -11.252 -30.159  1.00  0.00     0.004 C 
ENDBRANCH  30  31
ENDBRANCH  29  30
ENDBRANCH  28  29
ENDBRANCH  27  28
ENDBRANCH  26  27
ENDBRANCH  25  26
ENDBRANCH  24  25
ENDBRANCH  23  24
ENDBRANCH  22  23
ENDBRANCH  21  22
ENDBRANCH  20  21
ENDBRANCH  19  20
ENDBRANCH  18  19
ENDBRANCH   1  18
TORSDOF 28
ENDMDL
MODEL 2
REMARK VINA RESULT:    30.389      3.782     12.159
REMARK INTER + INTRA:          79.000
REMARK INTER:                  79.811
REMARK INTRA:                  -0.811
REMARK UNBOUND:                -1.131
REMARK SMILES CCCCCCCCCCCCCCCCCCCCCCCCCCCCCC(=O)[O-]
REMARK SMILES IDX 16 1 17 2 18 3 19 4 20 5 21 6 22 7 23 8 24 9 25 10 26 11
REMARK SMILES IDX 27 12 28 13 29 14 30 15 31 16 32 17 15 18 14 19 13 20 12 21
REMARK SMILES IDX 11 22 10 23 9 24 8 25 7 26 6 27 5 28 4 29 3 30 2 31 1 32
REMARK H PARENT
REMARK Flexibility Score: inf
ROOT
ATOM      1  C   UNL     1     -12.046  -8.349 -22.471  1.00  0.00     0.000 C 
ENDROOT
BRANCH   1   2
ATOM      2  C   UNL     1     -13.345  -8.689 -21.712  1.00  0.00     0.000 C 
BRANCH   2   3
ATOM      3  C   UNL     1     -14.600  -8.084 -22.366  1.00  0.00     0.000 C 
BRANCH   3   4
ATOM      4  C   UNL     1     -14.978  -6.715 -21.783  1.00  0.00     0.000 C 
BRANCH   4   5
ATOM      5  C   UNL     1     -16.501  -6.495 -21.721  1.00  0.00     0.000 C 
BRANCH   5   6
ATOM      6  C   UNL     1     -17.049  -5.800 -22.986  1.00  0.00     0.000 C 
BRANCH   6   7
ATOM      7  C   UNL     1     -16.806  -6.584 -24.288  1.00  0.00     0.000 C 
BRANCH   7   8
ATOM      8  C   UNL     1     -17.421  -5.906 -25.525  1.00  0.00     0.000 C 
BRANCH   8   9
ATOM      9  C   UNL     1     -18.399  -6.831 -26.284  1.00  0.00     0.000 C 
BRANCH   9  10
ATOM     10  C   UNL     1     -18.253  -6.770 -27.818  1.00  0.00     0.000 C 
BRANCH  10  11
ATOM     11  C   UNL     1     -18.768  -8.011 -28.564  1.00  0.00     0.000 C 
BRANCH  11  12
ATOM     12  C   UNL     1     -17.877  -8.401 -29.756  1.00  0.00     0.000 C 
BRANCH  12  13
ATOM     13  C   UNL     1     -18.314  -9.718 -30.416  1.00  0.00     0.006 C 
BRANCH  13  14
ATOM     14  C   UNL     1     -17.133 -10.500 -31.014  1.00  0.00     0.053 C 
BRANCH  14  15
ATOM     15  C   UNL     1     -16.115 -10.847 -29.969  1.00  0.00     0.041 C 
ATOM     16  O   UNL     1     -16.413 -11.653 -29.047  1.00  0.00    -0.550 OA
ATOM     17  O   UNL     1     -14.868 -10.231 -29.965  1.00  0.00    -0.550 OA
ENDBRANCH  14  15
ENDBRANCH  13  14
ENDBRANCH  12  13
ENDBRANCH  11  12
ENDBRANCH  10  11
ENDBRANCH   9  10
ENDBRANCH   8   9
ENDBRANCH   7   8
ENDBRANCH   6   7
ENDBRANCH   5   6
ENDBRANCH   4   5
ENDBRANCH   3   4
ENDBRANCH   2   3
ENDBRANCH   1   2
BRANCH   1  18
ATOM     18  C   UNL     1     -10.872  -7.888 -21.585  1.00  0.00     0.000 C 
BRANCH  18  19
ATOM     19  C   UNL     1     -10.173  -6.625 -22.116  1.00  0.00     0.000 C 
BRANCH  19  20
ATOM     20  C   UNL     1      -9.738  -5.671 -20.990  1.00  0.00     0.000 C 
BRANCH  20  21
ATOM     21  C   UNL     1      -9.338  -4.278 -21.506  1.00  0.00     0.000 C 
BRANCH  21  22
ATOM     22  C   UNL     1      -9.875  -3.149 -20.612  1.00  0.00     0.000 C 
BRANCH  22  23
ATOM     23  C   UNL     1      -8.865  -2.716 -19.535  1.00  0.00     0.000 C 
BRANCH  23  24
ATOM     24  C   UNL     1      -8.014  -1.514 -19.978  1.00  0.00    -0.000 C 
BRANCH  24  25
ATOM     25  C   UNL     1      -8.863  -0.258 -20.240  1.00  0.00    -0.000 C 
BRANCH  25  26
ATOM     26  C   UNL     1      -9.213  -0.094 -21.735  1.00  0.00    -0.000 C 
BRANCH  26  27
ATOM     27  C   UNL     1      -8.899   1.304 -22.296  1.00  0.00    -0.000 C 
BRANCH  27  28
ATOM     28  C   UNL     1      -9.614   1.581 -23.629  1.00  0.00    -0.000 C 
BRANCH  28  29
ATOM     29  C   UNL     1      -8.861   2.587 -24.519  1.00  0.00    -0.000 C 
BRANCH  29  30
ATOM     30  C   UNL     1      -9.686   3.212 -25.663  1.00  0.00    -0.000 C 
BRANCH  30  31
ATOM     31  C   UNL     1     -10.766   2.292 -26.263  1.00  0.00    -0.003 C 
ATOM     32  C   UNL     1     -10.502   1.947 -27.730  1.00  0.00     0.004 C 
ENDBRANCH  30  31
ENDBRANCH  29  30
ENDBRANCH  28  29
ENDBRANCH  27  28
ENDBRANCH  26  27
ENDBRANCH  25  26
ENDBRANCH  24  25
ENDBRANCH  23  24
ENDBRANCH  22  23
ENDBRANCH  21  22
ENDBRANCH  20  21
ENDBRANCH  19  20
ENDBRANCH  18  19
ENDBRANCH   1  18
TORSDOF 28
ENDMDL
MODEL 3
REMARK VINA RESULT:    30.642      4.841     10.376
REMARK INTER + INTRA:          79.668
REMARK INTER:                  78.301
REMARK INTRA:                   1.367
REMARK UNBOUND:                -1.131
REMARK SMILES CCCCCCCCCCCCCCCCCCCCCCCCCCCCCC(=O)[O-]
REMARK SMILES IDX 16 1 17 2 18 3 19 4 20 5 21 6 22 7 23 8 24 9 25 10 26 11
REMARK SMILES IDX 27 12 28 13 29 14 30 15 31 16 32 17 15 18 14 19 13 20 12 21
REMARK SMILES IDX 11 22 10 23 9 24 8 25 7 26 6 27 5 28 4 29 3 30 2 31 1 32
REMARK H PARENT
REMARK Flexibility Score: inf
ROOT
ATOM      1  C   UNL     1      -8.456  -3.020 -20.826  1.00  0.00     0.000 C 
ENDROOT
BRANCH   1   2
ATOM      2  C   UNL     1      -9.366  -4.180 -20.377  1.00  0.00     0.000 C 
BRANCH   2   3
ATOM      3  C   UNL     1     -10.042  -4.905 -21.555  1.00  0.00     0.000 C 
BRANCH   3   4
ATOM      4  C   UNL     1      -9.525  -6.337 -21.752  1.00  0.00     0.000 C 
BRANCH   4   5
ATOM      5  C   UNL     1     -10.341  -7.378 -20.963  1.00  0.00     0.000 C 
BRANCH   5   6
ATOM      6  C   UNL     1     -11.658  -7.758 -21.673  1.00  0.00     0.000 C 
BRANCH   6   7
ATOM      7  C   UNL     1     -12.596  -8.637 -20.827  1.00  0.00     0.000 C 
BRANCH   7   8
ATOM      8  C   UNL     1     -13.971  -8.855 -21.482  1.00  0.00     0.000 C 
BRANCH   8   9
ATOM      9  C   UNL     1     -14.152  -8.027 -22.774  1.00  0.00     0.000 C 
BRANCH   9  10
ATOM     10  C   UNL     1     -15.364  -7.074 -22.740  1.00  0.00     0.000 C 
BRANCH  10  11
ATOM     11  C   UNL     1     -16.589  -7.560 -23.531  1.00  0.00     0.000 C 
BRANCH  11  12
ATOM     12  C   UNL     1     -17.426  -6.403 -24.102  1.00  0.00     0.000 C 
BRANCH  12  13
ATOM     13  C   UNL     1     -16.917  -5.025 -23.650  1.00  0.00     0.006 C 
BRANCH  13  14
ATOM     14  C   UNL     1     -16.477  -5.011 -22.177  1.00  0.00     0.053 C 
BRANCH  14  15
ATOM     15  C   UNL     1     -17.616  -5.340 -21.259  1.00  0.00     0.041 C 
ATOM     16  O   UNL     1     -17.434  -5.346 -20.011  1.00  0.00    -0.550 OA
ATOM     17  O   UNL     1     -18.855  -5.712 -21.772  1.00  0.00    -0.550 OA
ENDBRANCH  14  15
ENDBRANCH  13  14
ENDBRANCH  12  13
ENDBRANCH  11  12
ENDBRANCH  10  11
ENDBRANCH   9  10
ENDBRANCH   8   9
ENDBRANCH   7   8
ENDBRANCH   6   7
ENDBRANCH   5   6
ENDBRANCH   4   5
ENDBRANCH   3   4
ENDBRANCH   2   3
ENDBRANCH   1   2
BRANCH   1  18
ATOM     18  C   UNL     1      -8.492  -1.773 -19.921  1.00  0.00     0.000 C 
BRANCH  18  19
ATOM     19  C   UNL     1      -9.546  -0.740 -20.353  1.00  0.00     0.000 C 
BRANCH  19  20
ATOM     20  C   UNL     1      -8.933   0.455 -21.103  1.00  0.00     0.000 C 
BRANCH  20  21
ATOM     21  C   UNL     1      -9.448   0.584 -22.547  1.00  0.00     0.000 C 
BRANCH  21  22
ATOM     22  C   UNL     1      -8.991   1.892 -23.214  1.00  0.00     0.000 C 
BRANCH  22  23
ATOM     23  C   UNL     1     -10.159   2.860 -23.476  1.00  0.00     0.000 C 
BRANCH  23  24
ATOM     24  C   UNL     1      -9.808   3.933 -24.520  1.00  0.00    -0.000 C 
BRANCH  24  25
ATOM     25  C   UNL     1      -8.861   3.403 -25.612  1.00  0.00    -0.000 C 
BRANCH  25  26
ATOM     26  C   UNL     1      -9.376   2.091 -26.240  1.00  0.00    -0.000 C 
BRANCH  26  27
ATOM     27  C   UNL     1     -10.767   2.216 -26.888  1.00  0.00    -0.000 C 
BRANCH  27  28
ATOM     28  C   UNL     1     -11.119   1.009 -27.773  1.00  0.00    -0.000 C 
BRANCH  28  29
ATOM     29  C   UNL     1     -10.262  -0.234 -27.465  1.00  0.00    -0.000 C 
BRANCH  29  30
ATOM     30  C   UNL     1     -10.875  -1.585 -27.887  1.00  0.00    -0.000 C 
BRANCH  30  31
ATOM     31  C   UNL     1      -9.997  -2.433 -28.826  1.00  0.00    -0.003 C 
ATOM     32  C   UNL     1      -9.073  -3.389 -28.069  1.00  0.00     0.004 C 
ENDBRANCH  30  31
ENDBRANCH  29  30
ENDBRANCH  28  29
ENDBRANCH  27  28
ENDBRANCH  26  27
ENDBRANCH  25  26
ENDBRANCH  24  25
ENDBRANCH  23  24
ENDBRANCH  22  23
ENDBRANCH  21  22
ENDBRANCH  20  21
ENDBRANCH  19  20
ENDBRANCH  18  19
ENDBRANCH   1  18
TORSDOF 28
ENDMDL
MODEL 4
REMARK VINA RESULT:    30.714      3.850      7.039
REMARK INTER + INTRA:          79.859
REMARK INTER:                  80.569
REMARK INTRA:                  -0.710
REMARK UNBOUND:                -1.131
REMARK SMILES CCCCCCCCCCCCCCCCCCCCCCCCCCCCCC(=O)[O-]
REMARK SMILES IDX 16 1 17 2 18 3 19 4 20 5 21 6 22 7 23 8 24 9 25 10 26 11
REMARK SMILES IDX 27 12 28 13 29 14 30 15 31 16 32 17 15 18 14 19 13 20 12 21
REMARK SMILES IDX 11 22 10 23 9 24 8 25 7 26 6 27 5 28 4 29 3 30 2 31 1 32
REMARK H PARENT
REMARK Flexibility Score: inf
ROOT
ATOM      1  C   UNL     1      -9.648  -3.805 -21.520  1.00  0.00     0.000 C 
ENDROOT
BRANCH   1   2
ATOM      2  C   UNL     1      -9.270  -3.117 -20.194  1.00  0.00     0.000 C 
BRANCH   2   3
ATOM      3  C   UNL     1      -8.544  -1.775 -20.397  1.00  0.00     0.000 C 
BRANCH   3   4
ATOM      4  C   UNL     1      -9.495  -0.570 -20.371  1.00  0.00     0.000 C 
BRANCH   4   5
ATOM      5  C   UNL     1      -8.939   0.643 -21.142  1.00  0.00     0.000 C 
BRANCH   5   6
ATOM      6  C   UNL     1      -9.603   0.817 -22.525  1.00  0.00     0.000 C 
BRANCH   6   7
ATOM      7  C   UNL     1      -9.224   2.126 -23.241  1.00  0.00     0.000 C 
BRANCH   7   8
ATOM      8  C   UNL     1      -8.574   1.894 -24.617  1.00  0.00     0.000 C 
BRANCH   8   9
ATOM      9  C   UNL     1      -8.661   3.138 -25.530  1.00  0.00     0.000 C 
BRANCH   9  10
ATOM     10  C   UNL     1     -10.004   3.271 -26.277  1.00  0.00     0.000 C 
BRANCH  10  11
ATOM     11  C   UNL     1     -10.862   1.995 -26.294  1.00  0.00     0.000 C 
BRANCH  11  12
ATOM     12  C   UNL     1     -10.688   1.178 -27.585  1.00  0.00     0.000 C 
BRANCH  12  13
ATOM     13  C   UNL     1     -10.004  -0.176 -27.341  1.00  0.00     0.006 C 
BRANCH  13  14
ATOM     14  C   UNL     1     -10.876  -1.366 -27.776  1.00  0.00     0.053 C 
BRANCH  14  15
ATOM     15  C   UNL     1     -10.091  -2.361 -28.577  1.00  0.00     0.041 C 
ATOM     16  O   UNL     1     -10.166  -2.351 -29.835  1.00  0.00    -0.550 OA
ATOM     17  O   UNL     1      -9.338  -3.344 -27.943  1.00  0.00    -0.550 OA
ENDBRANCH  14  15
ENDBRANCH  13  14
ENDBRANCH  12  13
ENDBRANCH  11  12
ENDBRANCH  10  11
ENDBRANCH   9  10
ENDBRANCH   8   9
ENDBRANCH   7   8
ENDBRANCH   6   7
ENDBRANCH   5   6
ENDBRANCH   4   5
ENDBRANCH   3   4
ENDBRANCH   2   3
ENDBRANCH   1   2
BRANCH   1  18
ATOM     18  C   UNL     1      -9.084  -5.227 -21.703  1.00  0.00     0.000 C 
BRANCH  18  19
ATOM     19  C   UNL     1      -9.973  -6.317 -21.078  1.00  0.00     0.000 C 
BRANCH  19  20
ATOM     20  C   UNL     1      -9.899  -7.651 -21.839  1.00  0.00     0.000 C 
BRANCH  20  21
ATOM     21  C   UNL     1     -11.146  -7.920 -22.699  1.00  0.00     0.000 C 
BRANCH  21  22
ATOM     22  C   UNL     1     -11.582  -9.393 -22.650  1.00  0.00     0.000 C 
BRANCH  22  23
ATOM     23  C   UNL     1     -13.082  -9.555 -22.341  1.00  0.00     0.000 C 
BRANCH  23  24
ATOM     24  C   UNL     1     -13.664  -8.334 -21.610  1.00  0.00    -0.000 C 
BRANCH  24  25
ATOM     25  C   UNL     1     -15.138  -8.080 -21.973  1.00  0.00    -0.000 C 
BRANCH  25  26
ATOM     26  C   UNL     1     -15.282  -7.160 -23.205  1.00  0.00    -0.000 C 
BRANCH  26  27
ATOM     27  C   UNL     1     -16.691  -7.165 -23.822  1.00  0.00    -0.000 C 
BRANCH  27  28
ATOM     28  C   UNL     1     -16.982  -5.900 -24.646  1.00  0.00    -0.000 C 
BRANCH  28  29
ATOM     29  C   UNL     1     -17.064  -4.626 -23.784  1.00  0.00    -0.000 C 
BRANCH  29  30
ATOM     30  C   UNL     1     -17.890  -4.752 -22.487  1.00  0.00    -0.000 C 
BRANCH  30  31
ATOM     31  C   UNL     1     -17.223  -5.576 -21.369  1.00  0.00    -0.003 C 
ATOM     32  C   UNL     1     -17.642  -5.124 -19.969  1.00  0.00     0.004 C 
ENDBRANCH  30  31
ENDBRANCH  29  30
ENDBRANCH  28  29
ENDBRANCH  27  28
ENDBRANCH  26  27
ENDBRANCH  25  26
ENDBRANCH  24  25
ENDBRANCH  23  24
ENDBRANCH  22  23
ENDBRANCH  21  22
ENDBRANCH  20  21
ENDBRANCH  19  20
ENDBRANCH  18  19
ENDBRANCH   1  18
TORSDOF 28
ENDMDL
MODEL 5
REMARK VINA RESULT:    31.101      3.681      6.619
REMARK INTER + INTRA:          80.879
REMARK INTER:                  81.507
REMARK INTRA:                  -0.628
REMARK UNBOUND:                -1.131
REMARK SMILES CCCCCCCCCCCCCCCCCCCCCCCCCCCCCC(=O)[O-]
REMARK SMILES IDX 16 1 17 2 18 3 19 4 20 5 21 6 22 7 23 8 24 9 25 10 26 11
REMARK SMILES IDX 27 12 28 13 29 14 30 15 31 16 32 17 15 18 14 19 13 20 12 21
REMARK SMILES IDX 11 22 10 23 9 24 8 25 7 26 6 27 5 28 4 29 3 30 2 31 1 32
REMARK H PARENT
REMARK Flexibility Score: inf
ROOT
ATOM      1  C   UNL     1      -8.540  -2.994 -20.716  1.00  0.00     0.000 C 
ENDROOT
BRANCH   1   2
ATOM      2  C   UNL     1      -7.195  -3.745 -20.672  1.00  0.00     0.000 C 
BRANCH   2   3
ATOM      3  C   UNL     1      -6.085  -2.953 -19.959  1.00  0.00     0.000 C 
BRANCH   3   4
ATOM      4  C   UNL     1      -6.554  -2.321 -18.640  1.00  0.00     0.000 C 
BRANCH   4   5
ATOM      5  C   UNL     1      -6.120  -0.850 -18.498  1.00  0.00     0.000 C 
BRANCH   5   6
ATOM      6  C   UNL     1      -6.783   0.065 -19.551  1.00  0.00     0.000 C 
BRANCH   6   7
ATOM      7  C   UNL     1      -8.269  -0.246 -19.804  1.00  0.00     0.000 C 
BRANCH   7   8
ATOM      8  C   UNL     1      -8.945   0.767 -20.745  1.00  0.00     0.000 C 
BRANCH   8   9
ATOM      9  C   UNL     1      -9.309   0.152 -22.116  1.00  0.00     0.000 C 
BRANCH   9  10
ATOM     10  C   UNL     1      -9.313   1.169 -23.275  1.00  0.00     0.000 C 
BRANCH  10  11
ATOM     11  C   UNL     1      -9.797   2.578 -22.895  1.00  0.00     0.000 C 
BRANCH  11  12
ATOM     12  C   UNL     1      -9.738   3.565 -24.073  1.00  0.00     0.000 C 
BRANCH  12  13
ATOM     13  C   UNL     1      -9.099   2.951 -25.328  1.00  0.00     0.006 C 
BRANCH  13  14
ATOM     14  C   UNL     1      -9.999   3.070 -26.569  1.00  0.00     0.053 C 
BRANCH  14  15
ATOM     15  C   UNL     1     -10.664   1.766 -26.895  1.00  0.00     0.041 C 
ATOM     16  O   UNL     1      -9.962   0.753 -27.158  1.00  0.00    -0.550 OA
ATOM     17  O   UNL     1     -12.050   1.681 -26.983  1.00  0.00    -0.550 OA
ENDBRANCH  14  15
ENDBRANCH  13  14
ENDBRANCH  12  13
ENDBRANCH  11  12
ENDBRANCH  10  11
ENDBRANCH   9  10
ENDBRANCH   8   9
ENDBRANCH   7   8
ENDBRANCH   6   7
ENDBRANCH   5   6
ENDBRANCH   4   5
ENDBRANCH   3   4
ENDBRANCH   2   3
ENDBRANCH   1   2
BRANCH   1  18
ATOM     18  C   UNL     1      -9.703  -3.770 -21.363  1.00  0.00     0.000 C 
BRANCH  18  19
ATOM     19  C   UNL     1      -9.354  -5.235 -21.676  1.00  0.00     0.000 C 
BRANCH  19  20
ATOM     20  C   UNL     1     -10.332  -6.229 -21.027  1.00  0.00     0.000 C 
BRANCH  20  21
ATOM     21  C   UNL     1     -10.016  -7.694 -21.374  1.00  0.00     0.000 C 
BRANCH  21  22
ATOM     22  C   UNL     1     -10.477  -8.070 -22.791  1.00  0.00     0.000 C 
BRANCH  22  23
ATOM     23  C   UNL     1     -11.955  -8.496 -22.839  1.00  0.00     0.000 C 
BRANCH  23  24
ATOM     24  C   UNL     1     -12.574  -8.622 -21.437  1.00  0.00    -0.000 C 
BRANCH  24  25
ATOM     25  C   UNL     1     -13.949  -7.937 -21.337  1.00  0.00    -0.000 C 
BRANCH  25  26
ATOM     26  C   UNL     1     -14.825  -8.210 -22.579  1.00  0.00    -0.000 C 
BRANCH  26  27
ATOM     27  C   UNL     1     -16.033  -7.266 -22.706  1.00  0.00    -0.000 C 
BRANCH  27  28
ATOM     28  C   UNL     1     -16.004  -6.439 -24.002  1.00  0.00    -0.000 C 
BRANCH  28  29
ATOM     29  C   UNL     1     -17.334  -5.713 -24.283  1.00  0.00    -0.000 C 
BRANCH  29  30
ATOM     30  C   UNL     1     -18.114  -5.247 -23.035  1.00  0.00    -0.000 C 
BRANCH  30  31
ATOM     31  C   UNL     1     -17.242  -4.695 -21.893  1.00  0.00    -0.003 C 
ATOM     32  C   UNL     1     -17.452  -5.440 -20.574  1.00  0.00     0.004 C 
ENDBRANCH  30  31
ENDBRANCH  29  30
ENDBRANCH  28  29
ENDBRANCH  27  28
ENDBRANCH  26  27
ENDBRANCH  25  26
ENDBRANCH  24  25
ENDBRANCH  23  24
ENDBRANCH  22  23
ENDBRANCH  21  22
ENDBRANCH  20  21
ENDBRANCH  19  20
ENDBRANCH  18  19
ENDBRANCH   1  18
TORSDOF 28
ENDMDL
MODEL 6
REMARK VINA RESULT:    31.199      4.766     11.408
REMARK INTER + INTRA:          81.137
REMARK INTER:                  82.542
REMARK INTRA:                  -1.405
REMARK UNBOUND:                -1.131
REMARK SMILES CCCCCCCCCCCCCCCCCCCCCCCCCCCCCC(=O)[O-]
REMARK SMILES IDX 16 1 17 2 18 3 19 4 20 5 21 6 22 7 23 8 24 9 25 10 26 11
REMARK SMILES IDX 27 12 28 13 29 14 30 15 31 16 32 17 15 18 14 19 13 20 12 21
REMARK SMILES IDX 11 22 10 23 9 24 8 25 7 26 6 27 5 28 4 29 3 30 2 31 1 32
REMARK H PARENT
REMARK Flexibility Score: inf
ROOT
ATOM      1  C   UNL     1      -9.070  -3.286 -20.505  1.00  0.00     0.000 C 
ENDROOT
BRANCH   1   2
ATOM      2  C   UNL     1      -9.711  -4.221 -21.550  1.00  0.00     0.000 C 
BRANCH   2   3
ATOM      3  C   UNL     1      -9.741  -5.693 -21.103  1.00  0.00     0.000 C 
BRANCH   3   4
ATOM      4  C   UNL     1      -9.870  -6.673 -22.279  1.00  0.00     0.000 C 
BRANCH   4   5
ATOM      5  C   UNL     1     -10.340  -8.071 -21.838  1.00  0.00     0.000 C 
BRANCH   5   6
ATOM      6  C   UNL     1     -11.724  -8.040 -21.154  1.00  0.00     0.000 C 
BRANCH   6   7
ATOM      7  C   UNL     1     -12.897  -8.360 -22.097  1.00  0.00     0.000 C 
BRANCH   7   8
ATOM      8  C   UNL     1     -14.204  -8.679 -21.349  1.00  0.00     0.000 C 
BRANCH   8   9
ATOM      9  C   UNL     1     -15.411  -7.885 -21.897  1.00  0.00     0.000 C 
BRANCH   9  10
ATOM     10  C   UNL     1     -15.107  -7.100 -23.190  1.00  0.00     0.000 C 
BRANCH  10  11
ATOM     11  C   UNL     1     -16.264  -7.048 -24.200  1.00  0.00     0.000 C 
BRANCH  11  12
ATOM     12  C   UNL     1     -16.572  -5.619 -24.679  1.00  0.00     0.000 C 
BRANCH  12  13
ATOM     13  C   UNL     1     -17.550  -4.882 -23.750  1.00  0.00     0.006 C 
BRANCH  13  14
ATOM     14  C   UNL     1     -16.952  -4.605 -22.361  1.00  0.00     0.053 C 
BRANCH  14  15
ATOM     15  C   UNL     1     -17.627  -5.419 -21.298  1.00  0.00     0.041 C 
ATOM     16  O   UNL     1     -18.377  -6.379 -21.624  1.00  0.00    -0.550 OA
ATOM     17  O   UNL     1     -17.494  -5.080 -19.955  1.00  0.00    -0.550 OA
ENDBRANCH  14  15
ENDBRANCH  13  14
ENDBRANCH  12  13
ENDBRANCH  11  12
ENDBRANCH  10  11
ENDBRANCH   9  10
ENDBRANCH   8   9
ENDBRANCH   7   8
ENDBRANCH   6   7
ENDBRANCH   5   6
ENDBRANCH   4   5
ENDBRANCH   3   4
ENDBRANCH   2   3
ENDBRANCH   1   2
BRANCH   1  18
ATOM     18  C   UNL     1      -7.538  -3.147 -20.605  1.00  0.00     0.000 C 
BRANCH  18  19
ATOM     19  C   UNL     1      -6.855  -2.974 -19.238  1.00  0.00     0.000 C 
BRANCH  19  20
ATOM     20  C   UNL     1      -5.663  -2.004 -19.289  1.00  0.00     0.000 C 
BRANCH  20  21
ATOM     21  C   UNL     1      -5.904  -0.713 -18.489  1.00  0.00     0.000 C 
BRANCH  21  22
ATOM     22  C   UNL     1      -6.585   0.377 -19.333  1.00  0.00     0.000 C 
BRANCH  22  23
ATOM     23  C   UNL     1      -8.061   0.058 -19.632  1.00  0.00     0.000 C 
BRANCH  23  24
ATOM     24  C   UNL     1      -8.634   0.936 -20.756  1.00  0.00    -0.000 C 
BRANCH  24  25
ATOM     25  C   UNL     1      -9.514   0.139 -21.735  1.00  0.00    -0.000 C 
BRANCH  25  26
ATOM     26  C   UNL     1      -9.305   0.584 -23.198  1.00  0.00    -0.000 C 
BRANCH  26  27
ATOM     27  C   UNL     1      -9.132   2.104 -23.366  1.00  0.00    -0.000 C 
BRANCH  27  28
ATOM     28  C   UNL     1      -8.231   2.470 -24.557  1.00  0.00    -0.000 C 
BRANCH  28  29
ATOM     29  C   UNL     1      -9.019   3.019 -25.762  1.00  0.00    -0.000 C 
BRANCH  29  30
ATOM     30  C   UNL     1     -10.553   2.881 -25.672  1.00  0.00    -0.000 C 
BRANCH  30  31
ATOM     31  C   UNL     1     -11.197   2.033 -26.785  1.00  0.00    -0.003 C 
ATOM     32  C   UNL     1     -10.257   0.956 -27.328  1.00  0.00     0.004 C 
ENDBRANCH  30  31
ENDBRANCH  29  30
ENDBRANCH  28  29
ENDBRANCH  27  28
ENDBRANCH  26  27
ENDBRANCH  25  26
ENDBRANCH  24  25
ENDBRANCH  23  24
ENDBRANCH  22  23
ENDBRANCH  21  22
ENDBRANCH  20  21
ENDBRANCH  19  20
ENDBRANCH  18  19
ENDBRANCH   1  18
TORSDOF 28
ENDMDL
MODEL 7
REMARK VINA RESULT:    31.299      4.504      8.675
REMARK INTER + INTRA:          81.399
REMARK INTER:                  82.654
REMARK INTRA:                  -1.255
REMARK UNBOUND:                -1.131
REMARK SMILES CCCCCCCCCCCCCCCCCCCCCCCCCCCCCC(=O)[O-]
REMARK SMILES IDX 16 1 17 2 18 3 19 4 20 5 21 6 22 7 23 8 24 9 25 10 26 11
REMARK SMILES IDX 27 12 28 13 29 14 30 15 31 16 32 17 15 18 14 19 13 20 12 21
REMARK SMILES IDX 11 22 10 23 9 24 8 25 7 26 6 27 5 28 4 29 3 30 2 31 1 32
REMARK H PARENT
REMARK Flexibility Score: inf
ROOT
ATOM      1  C   UNL     1      -6.074  -0.633 -18.879  1.00  0.00     0.000 C 
ENDROOT
BRANCH   1   2
ATOM      2  C   UNL     1      -7.088   0.395 -19.419  1.00  0.00     0.000 C 
BRANCH   2   3
ATOM      3  C   UNL     1      -8.203  -0.246 -20.265  1.00  0.00     0.000 C 
BRANCH   3   4
ATOM      4  C   UNL     1      -9.160   0.788 -20.876  1.00  0.00     0.000 C 
BRANCH   4   5
ATOM      5  C   UNL     1      -9.480   0.500 -22.354  1.00  0.00     0.000 C 
BRANCH   5   6
ATOM      6  C   UNL     1      -9.053   1.656 -23.286  1.00  0.00     0.000 C 
BRANCH   6   7
ATOM      7  C   UNL     1      -9.940   2.909 -23.178  1.00  0.00     0.000 C 
BRANCH   7   8
ATOM      8  C   UNL     1     -10.086   3.661 -24.512  1.00  0.00     0.000 C 
BRANCH   8   9
ATOM      9  C   UNL     1      -9.124   3.134 -25.600  1.00  0.00     0.000 C 
BRANCH   9  10
ATOM     10  C   UNL     1      -9.837   2.595 -26.857  1.00  0.00     0.000 C 
BRANCH  10  11
ATOM     11  C   UNL     1     -10.683   1.332 -26.626  1.00  0.00     0.000 C 
BRANCH  11  12
ATOM     12  C   UNL     1     -10.621   0.351 -27.809  1.00  0.00     0.000 C 
BRANCH  12  13
ATOM     13  C   UNL     1     -10.776  -1.114 -27.372  1.00  0.00     0.006 C 
BRANCH  13  14
ATOM     14  C   UNL     1     -10.845  -2.083 -28.563  1.00  0.00     0.053 C 
BRANCH  14  15
ATOM     15  C   UNL     1      -9.541  -2.794 -28.772  1.00  0.00     0.041 C 
ATOM     16  O   UNL     1      -8.900  -2.625 -29.844  1.00  0.00    -0.550 OA
ATOM     17  O   UNL     1      -9.068  -3.697 -27.826  1.00  0.00    -0.550 OA
ENDBRANCH  14  15
ENDBRANCH  13  14
ENDBRANCH  12  13
ENDBRANCH  11  12
ENDBRANCH  10  11
ENDBRANCH   9  10
ENDBRANCH   8   9
ENDBRANCH   7   8
ENDBRANCH   6   7
ENDBRANCH   5   6
ENDBRANCH   4   5
ENDBRANCH   3   4
ENDBRANCH   2   3
ENDBRANCH   1   2
BRANCH   1  18
ATOM     18  C   UNL     1      -6.625  -2.061 -18.693  1.00  0.00     0.000 C 
BRANCH  18  19
ATOM     19  C   UNL     1      -5.845  -3.120 -19.490  1.00  0.00     0.000 C 
BRANCH  19  20
ATOM     20  C   UNL     1      -6.689  -3.767 -20.601  1.00  0.00     0.000 C 
BRANCH  20  21
ATOM     21  C   UNL     1      -7.964  -2.971 -20.926  1.00  0.00     0.000 C 
BRANCH  21  22
ATOM     22  C   UNL     1      -9.243  -3.751 -20.578  1.00  0.00     0.000 C 
BRANCH  22  23
ATOM     23  C   UNL     1      -9.702  -4.673 -21.721  1.00  0.00     0.000 C 
BRANCH  23  24
ATOM     24  C   UNL     1     -10.481  -5.896 -21.210  1.00  0.00    -0.000 C 
BRANCH  24  25
ATOM     25  C   UNL     1      -9.896  -7.224 -21.723  1.00  0.00    -0.000 C 
BRANCH  25  26
ATOM     26  C   UNL     1     -10.988  -8.168 -22.270  1.00  0.00    -0.000 C 
BRANCH  26  27
ATOM     27  C   UNL     1     -12.294  -8.143 -21.457  1.00  0.00    -0.000 C 
BRANCH  27  28
ATOM     28  C   UNL     1     -13.397  -9.014 -22.081  1.00  0.00    -0.000 C 
BRANCH  28  29
ATOM     29  C   UNL     1     -14.815  -8.477 -21.807  1.00  0.00    -0.000 C 
BRANCH  29  30
ATOM     30  C   UNL     1     -15.273  -7.314 -22.711  1.00  0.00    -0.000 C 
BRANCH  30  31
ATOM     31  C   UNL     1     -16.710  -6.822 -22.460  1.00  0.00    -0.003 C 
ATOM     32  C   UNL     1     -16.788  -5.311 -22.235  1.00  0.00     0.004 C 
ENDBRANCH  30  31
ENDBRANCH  29  30
ENDBRANCH  28  29
ENDBRANCH  27  28
ENDBRANCH  26  27
ENDBRANCH  25  26
ENDBRANCH  24  25
ENDBRANCH  23  24
ENDBRANCH  22  23
ENDBRANCH  21  22
ENDBRANCH  20  21
ENDBRANCH  19  20
ENDBRANCH  18  19
ENDBRANCH   1  18
TORSDOF 28
ENDMDL
MODEL 8
REMARK VINA RESULT:    31.341      3.684      7.709
REMARK INTER + INTRA:          81.510
REMARK INTER:                  83.447
REMARK INTRA:                  -1.937
REMARK UNBOUND:                -1.131
REMARK SMILES CCCCCCCCCCCCCCCCCCCCCCCCCCCCCC(=O)[O-]
REMARK SMILES IDX 16 1 17 2 18 3 19 4 20 5 21 6 22 7 23 8 24 9 25 10 26 11
REMARK SMILES IDX 27 12 28 13 29 14 30 15 31 16 32 17 15 18 14 19 13 20 12 21
REMARK SMILES IDX 11 22 10 23 9 24 8 25 7 26 6 27 5 28 4 29 3 30 2 31 1 32
REMARK H PARENT
REMARK Flexibility Score: inf
ROOT
ATOM      1  C   UNL     1      -8.487  -2.313 -20.043  1.00  0.00     0.000 C 
ENDROOT
BRANCH   1   2
ATOM      2  C   UNL     1      -9.346  -1.054 -20.274  1.00  0.00     0.000 C 
BRANCH   2   3
ATOM      3  C   UNL     1      -8.612   0.037 -21.074  1.00  0.00     0.000 C 
BRANCH   3   4
ATOM      4  C   UNL     1      -9.566   1.058 -21.709  1.00  0.00     0.000 C 
BRANCH   4   5
ATOM      5  C   UNL     1      -9.223   1.358 -23.180  1.00  0.00     0.000 C 
BRANCH   5   6
ATOM      6  C   UNL     1      -9.885   2.657 -23.688  1.00  0.00     0.000 C 
BRANCH   6   7
ATOM      7  C   UNL     1      -8.956   3.547 -24.531  1.00  0.00     0.000 C 
BRANCH   7   8
ATOM      8  C   UNL     1      -9.144   3.351 -26.046  1.00  0.00     0.000 C 
BRANCH   8   9
ATOM      9  C   UNL     1     -10.576   2.901 -26.413  1.00  0.00     0.000 C 
BRANCH   9  10
ATOM     10  C   UNL     1     -10.624   1.705 -27.385  1.00  0.00     0.000 C 
BRANCH  10  11
ATOM     11  C   UNL     1     -10.357   0.336 -26.737  1.00  0.00     0.000 C 
BRANCH  11  12
ATOM     12  C   UNL     1      -9.809  -0.698 -27.736  1.00  0.00     0.000 C 
BRANCH  12  13
ATOM     13  C   UNL     1     -10.887  -1.679 -28.222  1.00  0.00     0.006 C 
BRANCH  13  14
ATOM     14  C   UNL     1     -10.313  -2.800 -29.104  1.00  0.00     0.053 C 
BRANCH  14  15
ATOM     15  C   UNL     1      -9.292  -3.613 -28.367  1.00  0.00     0.041 C 
ATOM     16  O   UNL     1      -9.636  -4.288 -27.359  1.00  0.00    -0.550 OA
ATOM     17  O   UNL     1      -7.951  -3.573 -28.738  1.00  0.00    -0.550 OA
ENDBRANCH  14  15
ENDBRANCH  13  14
ENDBRANCH  12  13
ENDBRANCH  11  12
ENDBRANCH  10  11
ENDBRANCH   9  10
ENDBRANCH   8   9
ENDBRANCH   7   8
ENDBRANCH   6   7
ENDBRANCH   5   6
ENDBRANCH   4   5
ENDBRANCH   3   4
ENDBRANCH   2   3
ENDBRANCH   1   2
BRANCH   1  18
ATOM     18  C   UNL     1      -8.673  -3.432 -21.086  1.00  0.00     0.000 C 
BRANCH  18  19
ATOM     19  C   UNL     1      -9.721  -4.480 -20.671  1.00  0.00     0.000 C 
BRANCH  19  20
ATOM     20  C   UNL     1     -10.129  -5.402 -21.832  1.00  0.00     0.000 C 
BRANCH  20  21
ATOM     21  C   UNL     1      -9.622  -6.844 -21.660  1.00  0.00     0.000 C 
BRANCH  21  22
ATOM     22  C   UNL     1     -10.674  -7.886 -22.072  1.00  0.00     0.000 C 
BRANCH  22  23
ATOM     23  C   UNL     1     -11.979  -7.758 -21.265  1.00  0.00     0.000 C 
BRANCH  23  24
ATOM     24  C   UNL     1     -12.956  -8.912 -21.545  1.00  0.00    -0.000 C 
BRANCH  24  25
ATOM     25  C   UNL     1     -14.238  -8.439 -22.252  1.00  0.00    -0.000 C 
BRANCH  25  26
ATOM     26  C   UNL     1     -14.912  -7.266 -21.509  1.00  0.00    -0.000 C 
BRANCH  26  27
ATOM     27  C   UNL     1     -16.430  -7.170 -21.747  1.00  0.00    -0.000 C 
BRANCH  27  28
ATOM     28  C   UNL     1     -16.970  -5.743 -21.553  1.00  0.00    -0.000 C 
BRANCH  28  29
ATOM     29  C   UNL     1     -18.025  -5.351 -22.606  1.00  0.00    -0.000 C 
BRANCH  29  30
ATOM     30  C   UNL     1     -17.474  -4.671 -23.876  1.00  0.00    -0.000 C 
BRANCH  30  31
ATOM     31  C   UNL     1     -17.360  -5.588 -25.108  1.00  0.00    -0.003 C 
ATOM     32  C   UNL     1     -15.954  -6.163 -25.290  1.00  0.00     0.004 C 
ENDBRANCH  30  31
ENDBRANCH  29  30
ENDBRANCH  28  29
ENDBRANCH  27  28
ENDBRANCH  26  27
ENDBRANCH  25  26
ENDBRANCH  24  25
ENDBRANCH  23  24
ENDBRANCH  22  23
ENDBRANCH  21  22
ENDBRANCH  20  21
ENDBRANCH  19  20
ENDBRANCH  18  19
ENDBRANCH   1  18
TORSDOF 28
ENDMDL
MODEL 9
REMARK VINA RESULT:    31.467      4.195      7.945
REMARK INTER + INTRA:          81.844
REMARK INTER:                  83.266
REMARK INTRA:                  -1.422
REMARK UNBOUND:                -1.131
REMARK SMILES CCCCCCCCCCCCCCCCCCCCCCCCCCCCCC(=O)[O-]
REMARK SMILES IDX 16 1 17 2 18 3 19 4 20 5 21 6 22 7 23 8 24 9 25 10 26 11
REMARK SMILES IDX 27 12 28 13 29 14 30 15 31 16 32 17 15 18 14 19 13 20 12 21
REMARK SMILES IDX 11 22 10 23 9 24 8 25 7 26 6 27 5 28 4 29 3 30 2 31 1 32
REMARK H PARENT
REMARK Flexibility Score: inf
ROOT
ATOM      1  C   UNL     1      -6.851  -2.170 -19.200  1.00  0.00     0.000 C 
ENDROOT
BRANCH   1   2
ATOM      2  C   UNL     1      -6.949  -0.901 -20.069  1.00  0.00     0.000 C 
BRANCH   2   3
ATOM      3  C   UNL     1      -7.903   0.157 -19.486  1.00  0.00     0.000 C 
BRANCH   3   4
ATOM      4  C   UNL     1      -9.245   0.226 -20.227  1.00  0.00     0.000 C 
BRANCH   4   5
ATOM      5  C   UNL     1      -9.089   0.091 -21.753  1.00  0.00     0.000 C 
BRANCH   5   6
ATOM      6  C   UNL     1      -9.277   1.436 -22.487  1.00  0.00     0.000 C 
BRANCH   6   7
ATOM      7  C   UNL     1      -8.965   1.378 -23.993  1.00  0.00     0.000 C 
BRANCH   7   8
ATOM      8  C   UNL     1      -8.266   2.646 -24.514  1.00  0.00     0.000 C 
BRANCH   8   9
ATOM      9  C   UNL     1      -8.842   3.129 -25.864  1.00  0.00     0.000 C 
BRANCH   9  10
ATOM     10  C   UNL     1     -10.382   3.216 -25.891  1.00  0.00     0.000 C 
BRANCH  10  11
ATOM     11  C   UNL     1     -11.092   1.926 -26.332  1.00  0.00     0.000 C 
BRANCH  11  12
ATOM     12  C   UNL     1     -10.354   1.199 -27.468  1.00  0.00     0.000 C 
BRANCH  12  13
ATOM     13  C   UNL     1     -10.639  -0.311 -27.489  1.00  0.00     0.006 C 
BRANCH  13  14
ATOM     14  C   UNL     1      -9.847  -1.048 -28.581  1.00  0.00     0.053 C 
BRANCH  14  15
ATOM     15  C   UNL     1     -10.074  -2.529 -28.522  1.00  0.00     0.041 C 
ATOM     16  O   UNL     1     -11.205  -3.003 -28.815  1.00  0.00    -0.550 OA
ATOM     17  O   UNL     1      -9.070  -3.382 -28.074  1.00  0.00    -0.550 OA
ENDBRANCH  14  15
ENDBRANCH  13  14
ENDBRANCH  12  13
ENDBRANCH  11  12
ENDBRANCH  10  11
ENDBRANCH   9  10
ENDBRANCH   8   9
ENDBRANCH   7   8
ENDBRANCH   6   7
ENDBRANCH   5   6
ENDBRANCH   4   5
ENDBRANCH   3   4
ENDBRANCH   2   3
ENDBRANCH   1   2
BRANCH   1  18
ATOM     18  C   UNL     1      -7.604  -3.398 -19.747  1.00  0.00     0.000 C 
BRANCH  18  19
ATOM     19  C   UNL     1      -8.955  -3.044 -20.391  1.00  0.00     0.000 C 
BRANCH  19  20
ATOM     20  C   UNL     1      -9.306  -3.960 -21.575  1.00  0.00     0.000 C 
BRANCH  20  21
ATOM     21  C   UNL     1     -10.067  -5.227 -21.148  1.00  0.00     0.000 C 
BRANCH  21  22
ATOM     22  C   UNL     1      -9.676  -6.453 -21.989  1.00  0.00     0.000 C 
BRANCH  22  23
ATOM     23  C   UNL     1     -10.348  -7.747 -21.495  1.00  0.00     0.000 C 
BRANCH  23  24
ATOM     24  C   UNL     1     -11.661  -7.474 -20.742  1.00  0.00    -0.000 C 
BRANCH  24  25
ATOM     25  C   UNL     1     -12.697  -8.594 -20.942  1.00  0.00    -0.000 C 
BRANCH  25  26
ATOM     26  C   UNL     1     -13.453  -8.453 -22.281  1.00  0.00    -0.000 C 
BRANCH  26  27
ATOM     27  C   UNL     1     -14.827  -7.773 -22.149  1.00  0.00    -0.000 C 
BRANCH  27  28
ATOM     28  C   UNL     1     -15.341  -7.212 -23.485  1.00  0.00    -0.000 C 
BRANCH  28  29
ATOM     29  C   UNL     1     -16.526  -6.243 -23.316  1.00  0.00    -0.000 C 
BRANCH  29  30
ATOM     30  C   UNL     1     -17.382  -6.454 -22.049  1.00  0.00    -0.000 C 
BRANCH  30  31
ATOM     31  C   UNL     1     -17.785  -5.162 -21.314  1.00  0.00    -0.003 C 
ATOM     32  C   UNL     1     -17.347  -5.154 -19.848  1.00  0.00     0.004 C 
ENDBRANCH  30  31
ENDBRANCH  29  30
ENDBRANCH  28  29
ENDBRANCH  27  28
ENDBRANCH  26  27
ENDBRANCH  25  26
ENDBRANCH  24  25
ENDBRANCH  23  24
ENDBRANCH  22  23
ENDBRANCH  21  22
ENDBRANCH  20  21
ENDBRANCH  19  20
ENDBRANCH  18  19
ENDBRANCH   1  18
TORSDOF 28
ENDMDL
