MODEL 1
REMARK VINA RESULT:    -3.349      0.000      0.000
REMARK INTER + INTRA:         -11.989
REMARK INTER:                  -8.832
REMARK INTRA:                  -3.157
REMARK UNBOUND:                -3.157
REMARK SMILES CCCCCCCCCCCCCCCCCCCCCCCCCCCCCC(=O)[O-]
REMARK SMILES IDX 16 1 17 2 18 3 19 4 20 5 21 6 22 7 23 8 24 9 25 10 26 11
REMARK SMILES IDX 27 12 28 13 29 14 30 15 31 16 32 17 15 18 14 19 13 20 12 21
REMARK SMILES IDX 11 22 10 23 9 24 8 25 7 26 6 27 5 28 4 29 3 30 2 31 1 32
REMARK H PARENT
REMARK Flexibility Score: inf
ROOT
ATOM      1  C   UNL     1       2.554  42.910   9.380  1.00  0.00     0.000 C 
ENDROOT
BRANCH   1   2
ATOM      2  C   UNL     1       3.806  43.770   9.655  1.00  0.00     0.000 C 
BRANCH   2   3
ATOM      3  C   UNL     1       4.108  43.977  11.151  1.00  0.00     0.000 C 
BRANCH   3   4
ATOM      4  C   UNL     1       2.882  43.917  12.082  1.00  0.00     0.000 C 
BRANCH   4   5
ATOM      5  C   UNL     1       1.633  44.668  11.577  1.00  0.00     0.000 C 
BRANCH   5   6
ATOM      6  C   UNL     1       0.291  43.974  11.873  1.00  0.00     0.000 C 
BRANCH   6   7
ATOM      7  C   UNL     1       0.451  42.699  12.713  1.00  0.00     0.000 C 
BRANCH   7   8
ATOM      8  C   UNL     1      -0.879  42.310  13.377  1.00  0.00     0.000 C 
BRANCH   8   9
ATOM      9  C   UNL     1      -0.713  41.873  14.841  1.00  0.00     0.000 C 
BRANCH   9  10
ATOM     10  C   UNL     1      -0.174  40.440  14.983  1.00  0.00     0.000 C 
BRANCH  10  11
ATOM     11  C   UNL     1      -0.552  39.544  13.789  1.00  0.00     0.000 C 
BRANCH  11  12
ATOM     12  C   UNL     1       0.646  38.781  13.185  1.00  0.00     0.000 C 
BRANCH  12  13
ATOM     13  C   UNL     1       1.897  39.670  13.051  1.00  0.00     0.006 C 
BRANCH  13  14
ATOM     14  C   UNL     1       3.173  38.847  12.831  1.00  0.00     0.053 C 
BRANCH  14  15
ATOM     15  C   UNL     1       4.399  39.710  12.846  1.00  0.00     0.041 C 
ATOM     16  O   UNL     1       4.462  40.735  12.116  1.00  0.00    -0.550 OA
ATOM     17  O   UNL     1       5.456  39.399  13.691  1.00  0.00    -0.550 OA
ENDBRANCH  14  15
ENDBRANCH  13  14
ENDBRANCH  12  13
ENDBRANCH  11  12
ENDBRANCH  10  11
ENDBRANCH   9  10
ENDBRANCH   8   9
ENDBRANCH   7   8
ENDBRANCH   6   7
ENDBRANCH   5   6
ENDBRANCH   4   5
ENDBRANCH   3   4
ENDBRANCH   2   3
ENDBRANCH   1   2
BRANCH   1  18
ATOM     18  C   UNL     1       1.885  43.238   8.037  1.00  0.00     0.000 C 
BRANCH  18  19
ATOM     19  C   UNL     1       0.716  44.210   8.235  1.00  0.00     0.000 C 
BRANCH  19  20
ATOM     20  C   UNL     1       0.042  44.549   6.898  1.00  0.00     0.000 C 
BRANCH  20  21
ATOM     21  C   UNL     1      -0.909  45.754   6.995  1.00  0.00     0.000 C 
BRANCH  21  22
ATOM     22  C   UNL     1      -1.107  46.270   8.437  1.00  0.00     0.000 C 
BRANCH  22  23
ATOM     23  C   UNL     1      -0.543  47.686   8.636  1.00  0.00     0.000 C 
BRANCH  23  24
ATOM     24  C   UNL     1       0.470  47.716   9.791  1.00  0.00    -0.000 C 
BRANCH  24  25
ATOM     25  C   UNL     1       1.894  47.328   9.352  1.00  0.00    -0.000 C 
BRANCH  25  26
ATOM     26  C   UNL     1       2.307  47.821   7.954  1.00  0.00    -0.000 C 
BRANCH  26  27
ATOM     27  C   UNL     1       3.830  47.818   7.744  1.00  0.00    -0.000 C 
BRANCH  27  28
ATOM     28  C   UNL     1       4.556  46.789   8.630  1.00  0.00    -0.000 C 
BRANCH  28  29
ATOM     29  C   UNL     1       5.421  47.388   9.755  1.00  0.00    -0.000 C 
BRANCH  29  30
ATOM     30  C   UNL     1       6.750  47.972   9.244  1.00  0.00    -0.000 C 
BRANCH  30  31
ATOM     31  C   UNL     1       6.949  49.436   9.664  1.00  0.00    -0.003 C 
ATOM     32  C   UNL     1       6.310  50.423   8.686  1.00  0.00     0.004 C 
ENDBRANCH  30  31
ENDBRANCH  29  30
ENDBRANCH  28  29
ENDBRANCH  27  28
ENDBRANCH  26  27
ENDBRANCH  25  26
ENDBRANCH  24  25
ENDBRANCH  23  24
ENDBRANCH  22  23
ENDBRANCH  21  22
ENDBRANCH  20  21
ENDBRANCH  19  20
ENDBRANCH  18  19
ENDBRANCH   1  18
TORSDOF 28
ENDMDL
MODEL 2
REMARK VINA RESULT:    -3.259      2.069      8.358
REMARK INTER + INTRA:         -11.750
REMARK INTER:                 -10.051
REMARK INTRA:                  -1.699
REMARK UNBOUND:                -3.157
REMARK SMILES CCCCCCCCCCCCCCCCCCCCCCCCCCCCCC(=O)[O-]
REMARK SMILES IDX 16 1 17 2 18 3 19 4 20 5 21 6 22 7 23 8 24 9 25 10 26 11
REMARK SMILES IDX 27 12 28 13 29 14 30 15 31 16 32 17 15 18 14 19 13 20 12 21
REMARK SMILES IDX 11 22 10 23 9 24 8 25 7 26 6 27 5 28 4 29 3 30 2 31 1 32
REMARK H PARENT
REMARK Flexibility Score: inf
ROOT
ATOM      1  C   UNL     1       4.755  46.609  10.657  1.00  0.00     0.000 C 
ENDROOT
BRANCH   1   2
ATOM      2  C   UNL     1       5.615  46.692   9.378  1.00  0.00     0.000 C 
BRANCH   2   3
ATOM      3  C   UNL     1       6.767  47.710   9.461  1.00  0.00     0.000 C 
BRANCH   3   4
ATOM      4  C   UNL     1       6.361  49.181   9.243  1.00  0.00     0.000 C 
BRANCH   4   5
ATOM      5  C   UNL     1       5.380  49.427   8.077  1.00  0.00     0.000 C 
BRANCH   5   6
ATOM      6  C   UNL     1       4.400  48.273   7.795  1.00  0.00     0.000 C 
BRANCH   6   7
ATOM      7  C   UNL     1       3.017  48.762   7.342  1.00  0.00     0.000 C 
BRANCH   7   8
ATOM      8  C   UNL     1       1.907  48.147   8.210  1.00  0.00     0.000 C 
BRANCH   8   9
ATOM      9  C   UNL     1       0.593  48.942   8.153  1.00  0.00     0.000 C 
BRANCH   9  10
ATOM     10  C   UNL     1      -0.654  48.043   8.179  1.00  0.00     0.000 C 
BRANCH  10  11
ATOM     11  C   UNL     1      -0.639  46.978   7.067  1.00  0.00     0.000 C 
BRANCH  11  12
ATOM     12  C   UNL     1       0.132  45.696   7.448  1.00  0.00     0.000 C 
BRANCH  12  13
ATOM     13  C   UNL     1      -0.386  45.071   8.758  1.00  0.00     0.006 C 
BRANCH  13  14
ATOM     14  C   UNL     1       0.451  45.491   9.972  1.00  0.00     0.053 C 
BRANCH  14  15
ATOM     15  C   UNL     1      -0.219  45.124  11.262  1.00  0.00     0.041 C 
ATOM     16  O   UNL     1      -1.122  45.860  11.739  1.00  0.00    -0.550 OA
ATOM     17  O   UNL     1       0.133  43.950  11.917  1.00  0.00    -0.550 OA
ENDBRANCH  14  15
ENDBRANCH  13  14
ENDBRANCH  12  13
ENDBRANCH  11  12
ENDBRANCH  10  11
ENDBRANCH   9  10
ENDBRANCH   8   9
ENDBRANCH   7   8
ENDBRANCH   6   7
ENDBRANCH   5   6
ENDBRANCH   4   5
ENDBRANCH   3   4
ENDBRANCH   2   3
ENDBRANCH   1   2
BRANCH   1  18
ATOM     18  C   UNL     1       3.976  45.291  10.771  1.00  0.00     0.000 C 
BRANCH  18  19
ATOM     19  C   UNL     1       3.791  44.647   9.392  1.00  0.00     0.000 C 
BRANCH  19  20
ATOM     20  C   UNL     1       3.946  43.122   9.464  1.00  0.00     0.000 C 
BRANCH  20  21
ATOM     21  C   UNL     1       2.655  42.408   9.898  1.00  0.00     0.000 C 
BRANCH  21  22
ATOM     22  C   UNL     1       2.692  41.894  11.353  1.00  0.00     0.000 C 
BRANCH  22  23
ATOM     23  C   UNL     1       4.120  41.844  11.922  1.00  0.00     0.000 C 
BRANCH  23  24
ATOM     24  C   UNL     1       4.574  40.393  12.142  1.00  0.00    -0.000 C 
BRANCH  24  25
ATOM     25  C   UNL     1       3.681  39.628  13.136  1.00  0.00    -0.000 C 
BRANCH  25  26
ATOM     26  C   UNL     1       2.805  38.525  12.515  1.00  0.00    -0.000 C 
BRANCH  26  27
ATOM     27  C   UNL     1       1.331  38.618  12.946  1.00  0.00    -0.000 C 
BRANCH  27  28
ATOM     28  C   UNL     1       1.072  39.747  13.960  1.00  0.00    -0.000 C 
BRANCH  28  29
ATOM     29  C   UNL     1       0.073  40.825  13.499  1.00  0.00    -0.000 C 
BRANCH  29  30
ATOM     30  C   UNL     1      -0.797  41.367  14.647  1.00  0.00    -0.000 C 
BRANCH  30  31
ATOM     31  C   UNL     1      -0.093  41.280  16.009  1.00  0.00    -0.003 C 
ATOM     32  C   UNL     1      -0.976  41.760  17.162  1.00  0.00     0.004 C 
ENDBRANCH  30  31
ENDBRANCH  29  30
ENDBRANCH  28  29
ENDBRANCH  27  28
ENDBRANCH  26  27
ENDBRANCH  25  26
ENDBRANCH  24  25
ENDBRANCH  23  24
ENDBRANCH  22  23
ENDBRANCH  21  22
ENDBRANCH  20  21
ENDBRANCH  19  20
ENDBRANCH  18  19
ENDBRANCH   1  18
TORSDOF 28
ENDMDL
MODEL 3
REMARK VINA RESULT:    -3.224      1.185      2.249
REMARK INTER + INTRA:         -11.657
REMARK INTER:                  -8.308
REMARK INTRA:                  -3.349
REMARK UNBOUND:                -3.157
REMARK SMILES CCCCCCCCCCCCCCCCCCCCCCCCCCCCCC(=O)[O-]
REMARK SMILES IDX 16 1 17 2 18 3 19 4 20 5 21 6 22 7 23 8 24 9 25 10 26 11
REMARK SMILES IDX 27 12 28 13 29 14 30 15 31 16 32 17 15 18 14 19 13 20 12 21
REMARK SMILES IDX 11 22 10 23 9 24 8 25 7 26 6 27 5 28 4 29 3 30 2 31 1 32
REMARK H PARENT
REMARK Flexibility Score: inf
ROOT
ATOM      1  C   UNL     1       4.414  43.005  10.604  1.00  0.00     0.000 C 
ENDROOT
BRANCH   1   2
ATOM      2  C   UNL     1       4.336  44.025  11.760  1.00  0.00     0.000 C 
BRANCH   2   3
ATOM      3  C   UNL     1       2.979  44.044  12.490  1.00  0.00     0.000 C 
BRANCH   3   4
ATOM      4  C   UNL     1       2.085  42.814  12.244  1.00  0.00     0.000 C 
BRANCH   4   5
ATOM      5  C   UNL     1       0.566  43.075  12.330  1.00  0.00     0.000 C 
BRANCH   5   6
ATOM      6  C   UNL     1      -0.244  41.979  13.045  1.00  0.00     0.000 C 
BRANCH   6   7
ATOM      7  C   UNL     1       0.543  41.293  14.171  1.00  0.00     0.000 C 
BRANCH   7   8
ATOM      8  C   UNL     1       0.143  39.814  14.297  1.00  0.00     0.000 C 
BRANCH   8   9
ATOM      9  C   UNL     1      -0.935  39.398  13.283  1.00  0.00     0.000 C 
BRANCH   9  10
ATOM     10  C   UNL     1      -0.682  38.008  12.676  1.00  0.00     0.000 C 
BRANCH  10  11
ATOM     11  C   UNL     1       0.703  37.443  13.043  1.00  0.00     0.000 C 
BRANCH  11  12
ATOM     12  C   UNL     1       1.608  37.182  11.821  1.00  0.00     0.000 C 
BRANCH  12  13
ATOM     13  C   UNL     1       3.042  37.704  12.033  1.00  0.00     0.006 C 
BRANCH  13  14
ATOM     14  C   UNL     1       3.063  39.163  12.507  1.00  0.00     0.053 C 
BRANCH  14  15
ATOM     15  C   UNL     1       4.449  39.608  12.868  1.00  0.00     0.041 C 
ATOM     16  O   UNL     1       4.988  40.565  12.253  1.00  0.00    -0.550 OA
ATOM     17  O   UNL     1       5.128  38.986  13.908  1.00  0.00    -0.550 OA
ENDBRANCH  14  15
ENDBRANCH  13  14
ENDBRANCH  12  13
ENDBRANCH  11  12
ENDBRANCH  10  11
ENDBRANCH   9  10
ENDBRANCH   8   9
ENDBRANCH   7   8
ENDBRANCH   6   7
ENDBRANCH   5   6
ENDBRANCH   4   5
ENDBRANCH   3   4
ENDBRANCH   2   3
ENDBRANCH   1   2
BRANCH   1  18
ATOM     18  C   UNL     1       3.777  43.522   9.306  1.00  0.00     0.000 C 
BRANCH  18  19
ATOM     19  C   UNL     1       2.504  42.734   8.973  1.00  0.00     0.000 C 
BRANCH  19  20
ATOM     20  C   UNL     1       1.436  43.641   8.346  1.00  0.00     0.000 C 
BRANCH  20  21
ATOM     21  C   UNL     1       1.116  44.874   9.208  1.00  0.00     0.000 C 
BRANCH  21  22
ATOM     22  C   UNL     1      -0.253  45.513   8.888  1.00  0.00     0.000 C 
BRANCH  22  23
ATOM     23  C   UNL     1      -0.836  46.281  10.085  1.00  0.00     0.000 C 
BRANCH  23  24
ATOM     24  C   UNL     1      -1.034  47.765   9.742  1.00  0.00    -0.000 C 
BRANCH  24  25
ATOM     25  C   UNL     1      -0.623  48.109   8.299  1.00  0.00    -0.000 C 
BRANCH  25  26
ATOM     26  C   UNL     1       0.704  48.876   8.159  1.00  0.00    -0.000 C 
BRANCH  26  27
ATOM     27  C   UNL     1       1.912  47.948   7.947  1.00  0.00    -0.000 C 
BRANCH  27  28
ATOM     28  C   UNL     1       3.118  48.667   7.315  1.00  0.00    -0.000 C 
BRANCH  28  29
ATOM     29  C   UNL     1       4.490  48.289   7.905  1.00  0.00    -0.000 C 
BRANCH  29  30
ATOM     30  C   UNL     1       4.454  46.981   8.715  1.00  0.00    -0.000 C 
BRANCH  30  31
ATOM     31  C   UNL     1       5.541  46.933   9.800  1.00  0.00    -0.003 C 
ATOM     32  C   UNL     1       6.884  47.477   9.314  1.00  0.00     0.004 C 
ENDBRANCH  30  31
ENDBRANCH  29  30
ENDBRANCH  28  29
ENDBRANCH  27  28
ENDBRANCH  26  27
ENDBRANCH  25  26
ENDBRANCH  24  25
ENDBRANCH  23  24
ENDBRANCH  22  23
ENDBRANCH  21  22
ENDBRANCH  20  21
ENDBRANCH  19  20
ENDBRANCH  18  19
ENDBRANCH   1  18
TORSDOF 28
ENDMDL
MODEL 4
REMARK VINA RESULT:    -3.170      2.361      8.343
REMARK INTER + INTRA:         -11.515
REMARK INTER:                  -7.686
REMARK INTRA:                  -3.828
REMARK UNBOUND:                -3.157
REMARK SMILES CCCCCCCCCCCCCCCCCCCCCCCCCCCCCC(=O)[O-]
REMARK SMILES IDX 16 1 17 2 18 3 19 4 20 5 21 6 22 7 23 8 24 9 25 10 26 11
REMARK SMILES IDX 27 12 28 13 29 14 30 15 31 16 32 17 15 18 14 19 13 20 12 21
REMARK SMILES IDX 11 22 10 23 9 24 8 25 7 26 6 27 5 28 4 29 3 30 2 31 1 32
REMARK H PARENT
REMARK Flexibility Score: inf
ROOT
ATOM      1  C   UNL     1       4.148  44.134  11.229  1.00  0.00     0.000 C 
ENDROOT
BRANCH   1   2
ATOM      2  C   UNL     1       4.064  43.613   9.779  1.00  0.00     0.000 C 
BRANCH   2   3
ATOM      3  C   UNL     1       3.004  42.515   9.567  1.00  0.00     0.000 C 
BRANCH   3   4
ATOM      4  C   UNL     1       2.005  42.779   8.424  1.00  0.00     0.000 C 
BRANCH   4   5
ATOM      5  C   UNL     1       1.148  44.053   8.578  1.00  0.00     0.000 C 
BRANCH   5   6
ATOM      6  C   UNL     1       0.323  44.438   7.337  1.00  0.00     0.000 C 
BRANCH   6   7
ATOM      7  C   UNL     1      -0.588  45.651   7.578  1.00  0.00     0.000 C 
BRANCH   7   8
ATOM      8  C   UNL     1      -0.524  46.099   9.047  1.00  0.00     0.000 C 
BRANCH   8   9
ATOM      9  C   UNL     1       0.351  47.346   9.255  1.00  0.00     0.000 C 
BRANCH   9  10
ATOM     10  C   UNL     1       0.878  47.936   7.937  1.00  0.00     0.000 C 
BRANCH  10  11
ATOM     11  C   UNL     1       2.409  48.097   7.929  1.00  0.00     0.000 C 
BRANCH  11  12
ATOM     12  C   UNL     1       3.133  47.161   8.921  1.00  0.00     0.000 C 
BRANCH  12  13
ATOM     13  C   UNL     1       4.630  47.006   8.591  1.00  0.00     0.006 C 
BRANCH  13  14
ATOM     14  C   UNL     1       5.519  47.185   9.828  1.00  0.00     0.053 C 
BRANCH  14  15
ATOM     15  C   UNL     1       6.758  47.968   9.512  1.00  0.00     0.041 C 
ATOM     16  O   UNL     1       7.858  47.376   9.351  1.00  0.00    -0.550 OA
ATOM     17  O   UNL     1       6.688  49.347   9.362  1.00  0.00    -0.550 OA
ENDBRANCH  14  15
ENDBRANCH  13  14
ENDBRANCH  12  13
ENDBRANCH  11  12
ENDBRANCH  10  11
ENDBRANCH   9  10
ENDBRANCH   8   9
ENDBRANCH   7   8
ENDBRANCH   6   7
ENDBRANCH   5   6
ENDBRANCH   4   5
ENDBRANCH   3   4
ENDBRANCH   2   3
ENDBRANCH   1   2
BRANCH   1  18
ATOM     18  C   UNL     1       2.968  43.678  12.099  1.00  0.00     0.000 C 
BRANCH  18  19
ATOM     19  C   UNL     1       1.683  44.418  11.705  1.00  0.00     0.000 C 
BRANCH  19  20
ATOM     20  C   UNL     1       0.437  43.597  12.064  1.00  0.00     0.000 C 
BRANCH  20  21
ATOM     21  C   UNL     1       0.765  42.329  12.870  1.00  0.00     0.000 C 
BRANCH  21  22
ATOM     22  C   UNL     1      -0.463  41.701  13.562  1.00  0.00     0.000 C 
BRANCH  22  23
ATOM     23  C   UNL     1      -0.078  40.568  14.527  1.00  0.00     0.000 C 
BRANCH  23  24
ATOM     24  C   UNL     1      -0.905  39.303  14.248  1.00  0.00    -0.000 C 
BRANCH  24  25
ATOM     25  C   UNL     1      -0.883  38.885  12.766  1.00  0.00    -0.000 C 
BRANCH  25  26
ATOM     26  C   UNL     1      -0.898  37.367  12.513  1.00  0.00    -0.000 C 
BRANCH  26  27
ATOM     27  C   UNL     1       0.473  36.708  12.740  1.00  0.00    -0.000 C 
BRANCH  27  28
ATOM     28  C   UNL     1       1.558  37.235  11.783  1.00  0.00    -0.000 C 
BRANCH  28  29
ATOM     29  C   UNL     1       2.761  37.912  12.466  1.00  0.00    -0.000 C 
BRANCH  29  30
ATOM     30  C   UNL     1       2.732  39.446  12.350  1.00  0.00    -0.000 C 
BRANCH  30  31
ATOM     31  C   UNL     1       4.134  40.068  12.431  1.00  0.00    -0.003 C 
ATOM     32  C   UNL     1       5.000  39.432  13.520  1.00  0.00     0.004 C 
ENDBRANCH  30  31
ENDBRANCH  29  30
ENDBRANCH  28  29
ENDBRANCH  27  28
ENDBRANCH  26  27
ENDBRANCH  25  26
ENDBRANCH  24  25
ENDBRANCH  23  24
ENDBRANCH  22  23
ENDBRANCH  21  22
ENDBRANCH  20  21
ENDBRANCH  19  20
ENDBRANCH  18  19
ENDBRANCH   1  18
TORSDOF 28
ENDMDL
MODEL 5
REMARK VINA RESULT:    -3.128      2.370      7.848
REMARK INTER + INTRA:         -11.404
REMARK INTER:                  -7.638
REMARK INTRA:                  -3.766
REMARK UNBOUND:                -3.157
REMARK SMILES CCCCCCCCCCCCCCCCCCCCCCCCCCCCCC(=O)[O-]
REMARK SMILES IDX 16 1 17 2 18 3 19 4 20 5 21 6 22 7 23 8 24 9 25 10 26 11
REMARK SMILES IDX 27 12 28 13 29 14 30 15 31 16 32 17 15 18 14 19 13 20 12 21
REMARK SMILES IDX 11 22 10 23 9 24 8 25 7 26 6 27 5 28 4 29 3 30 2 31 1 32
REMARK H PARENT
REMARK Flexibility Score: inf
ROOT
ATOM      1  C   UNL     1       3.854  42.631  10.026  1.00  0.00     0.000 C 
ENDROOT
BRANCH   1   2
ATOM      2  C   UNL     1       3.302  43.356   8.780  1.00  0.00     0.000 C 
BRANCH   2   3
ATOM      3  C   UNL     1       1.794  43.143   8.548  1.00  0.00     0.000 C 
BRANCH   3   4
ATOM      4  C   UNL     1       0.952  44.431   8.486  1.00  0.00     0.000 C 
BRANCH   4   5
ATOM      5  C   UNL     1      -0.039  44.515   7.305  1.00  0.00     0.000 C 
BRANCH   5   6
ATOM      6  C   UNL     1      -0.952  45.754   7.307  1.00  0.00     0.000 C 
BRANCH   6   7
ATOM      7  C   UNL     1      -0.884  46.543   8.623  1.00  0.00     0.000 C 
BRANCH   7   8
ATOM      8  C   UNL     1      -0.783  48.053   8.351  1.00  0.00     0.000 C 
BRANCH   8   9
ATOM      9  C   UNL     1       0.653  48.588   8.469  1.00  0.00     0.000 C 
BRANCH   9  10
ATOM     10  C   UNL     1       1.685  47.699   7.755  1.00  0.00     0.000 C 
BRANCH  10  11
ATOM     11  C   UNL     1       3.066  47.732   8.434  1.00  0.00     0.000 C 
BRANCH  11  12
ATOM     12  C   UNL     1       3.132  46.914   9.741  1.00  0.00     0.000 C 
BRANCH  12  13
ATOM     13  C   UNL     1       4.576  46.728  10.242  1.00  0.00     0.006 C 
BRANCH  13  14
ATOM     14  C   UNL     1       5.601  46.808   9.103  1.00  0.00     0.053 C 
BRANCH  14  15
ATOM     15  C   UNL     1       6.717  47.755   9.427  1.00  0.00     0.041 C 
ATOM     16  O   UNL     1       7.894  47.327   9.555  1.00  0.00    -0.550 OA
ATOM     17  O   UNL     1       6.459  49.114   9.553  1.00  0.00    -0.550 OA
ENDBRANCH  14  15
ENDBRANCH  13  14
ENDBRANCH  12  13
ENDBRANCH  11  12
ENDBRANCH  10  11
ENDBRANCH   9  10
ENDBRANCH   8   9
ENDBRANCH   7   8
ENDBRANCH   6   7
ENDBRANCH   5   6
ENDBRANCH   4   5
ENDBRANCH   3   4
ENDBRANCH   2   3
ENDBRANCH   1   2
BRANCH   1  18
ATOM     18  C   UNL     1       4.529  43.584  11.023  1.00  0.00     0.000 C 
BRANCH  18  19
ATOM     19  C   UNL     1       3.827  43.530  12.386  1.00  0.00     0.000 C 
BRANCH  19  20
ATOM     20  C   UNL     1       2.462  44.230  12.338  1.00  0.00     0.000 C 
BRANCH  20  21
ATOM     21  C   UNL     1       1.306  43.266  12.020  1.00  0.00     0.000 C 
BRANCH  21  22
ATOM     22  C   UNL     1      -0.033  43.979  11.736  1.00  0.00     0.000 C 
BRANCH  22  23
ATOM     23  C   UNL     1      -1.059  43.772  12.861  1.00  0.00     0.000 C 
BRANCH  23  24
ATOM     24  C   UNL     1      -1.116  42.297  13.289  1.00  0.00    -0.000 C 
BRANCH  24  25
ATOM     25  C   UNL     1      -0.821  42.093  14.786  1.00  0.00    -0.000 C 
BRANCH  25  26
ATOM     26  C   UNL     1      -0.040  40.812  15.132  1.00  0.00    -0.000 C 
BRANCH  26  27
ATOM     27  C   UNL     1       0.212  39.916  13.908  1.00  0.00    -0.000 C 
BRANCH  27  28
ATOM     28  C   UNL     1       1.706  39.620  13.678  1.00  0.00    -0.000 C 
BRANCH  28  29
ATOM     29  C   UNL     1       2.227  39.940  12.264  1.00  0.00    -0.000 C 
BRANCH  29  30
ATOM     30  C   UNL     1       3.749  40.160  12.222  1.00  0.00    -0.000 C 
BRANCH  30  31
ATOM     31  C   UNL     1       4.531  38.974  12.806  1.00  0.00    -0.003 C 
ATOM     32  C   UNL     1       5.386  39.366  14.012  1.00  0.00     0.004 C 
ENDBRANCH  30  31
ENDBRANCH  29  30
ENDBRANCH  28  29
ENDBRANCH  27  28
ENDBRANCH  26  27
ENDBRANCH  25  26
ENDBRANCH  24  25
ENDBRANCH  23  24
ENDBRANCH  22  23
ENDBRANCH  21  22
ENDBRANCH  20  21
ENDBRANCH  19  20
ENDBRANCH  18  19
ENDBRANCH   1  18
TORSDOF 28
ENDMDL
MODEL 6
REMARK VINA RESULT:    -2.957      2.658      9.317
REMARK INTER + INTRA:         -10.955
REMARK INTER:                  -8.583
REMARK INTRA:                  -2.371
REMARK UNBOUND:                -3.157
REMARK SMILES CCCCCCCCCCCCCCCCCCCCCCCCCCCCCC(=O)[O-]
REMARK SMILES IDX 16 1 17 2 18 3 19 4 20 5 21 6 22 7 23 8 24 9 25 10 26 11
REMARK SMILES IDX 27 12 28 13 29 14 30 15 31 16 32 17 15 18 14 19 13 20 12 21
REMARK SMILES IDX 11 22 10 23 9 24 8 25 7 26 6 27 5 28 4 29 3 30 2 31 1 32
REMARK H PARENT
REMARK Flexibility Score: inf
ROOT
ATOM      1  C   UNL     1       4.554  43.916  11.368  1.00  0.00     0.000 C 
ENDROOT
BRANCH   1   2
ATOM      2  C   UNL     1       3.692  44.242  10.130  1.00  0.00     0.000 C 
BRANCH   2   3
ATOM      3  C   UNL     1       2.579  43.214   9.853  1.00  0.00     0.000 C 
BRANCH   3   4
ATOM      4  C   UNL     1       1.771  43.454   8.563  1.00  0.00     0.000 C 
BRANCH   4   5
ATOM      5  C   UNL     1       0.680  44.541   8.661  1.00  0.00     0.000 C 
BRANCH   5   6
ATOM      6  C   UNL     1       0.009  44.913   7.326  1.00  0.00     0.000 C 
BRANCH   6   7
ATOM      7  C   UNL     1      -0.534  46.350   7.312  1.00  0.00     0.000 C 
BRANCH   7   8
ATOM      8  C   UNL     1      -0.697  46.887   8.743  1.00  0.00     0.000 C 
BRANCH   8   9
ATOM      9  C   UNL     1       0.359  47.941   9.111  1.00  0.00     0.000 C 
BRANCH   9  10
ATOM     10  C   UNL     1       1.024  48.581   7.880  1.00  0.00     0.000 C 
BRANCH  10  11
ATOM     11  C   UNL     1       2.486  48.134   7.696  1.00  0.00     0.000 C 
BRANCH  11  12
ATOM     12  C   UNL     1       3.012  47.254   8.849  1.00  0.00     0.000 C 
BRANCH  12  13
ATOM     13  C   UNL     1       4.547  47.118   8.827  1.00  0.00     0.006 C 
BRANCH  13  14
ATOM     14  C   UNL     1       5.241  48.438   8.468  1.00  0.00     0.053 C 
BRANCH  14  15
ATOM     15  C   UNL     1       6.506  48.630   9.249  1.00  0.00     0.041 C 
ATOM     16  O   UNL     1       6.737  49.726   9.824  1.00  0.00    -0.550 OA
ATOM     17  O   UNL     1       7.413  47.584   9.367  1.00  0.00    -0.550 OA
ENDBRANCH  14  15
ENDBRANCH  13  14
ENDBRANCH  12  13
ENDBRANCH  11  12
ENDBRANCH  10  11
ENDBRANCH   9  10
ENDBRANCH   8   9
ENDBRANCH   7   8
ENDBRANCH   6   7
ENDBRANCH   5   6
ENDBRANCH   4   5
ENDBRANCH   3   4
ENDBRANCH   2   3
ENDBRANCH   1   2
BRANCH   1  18
ATOM     18  C   UNL     1       3.815  43.058  12.404  1.00  0.00     0.000 C 
BRANCH  18  19
ATOM     19  C   UNL     1       4.386  41.635  12.439  1.00  0.00     0.000 C 
BRANCH  19  20
ATOM     20  C   UNL     1       3.267  40.585  12.409  1.00  0.00     0.000 C 
BRANCH  20  21
ATOM     21  C   UNL     1       3.731  39.231  11.843  1.00  0.00     0.000 C 
BRANCH  21  22
ATOM     22  C   UNL     1       2.992  38.021  12.453  1.00  0.00     0.000 C 
BRANCH  22  23
ATOM     23  C   UNL     1       2.806  36.877  11.443  1.00  0.00     0.000 C 
BRANCH  23  24
ATOM     24  C   UNL     1       1.900  35.778  12.018  1.00  0.00    -0.000 C 
BRANCH  24  25
ATOM     25  C   UNL     1       0.480  35.797  11.425  1.00  0.00    -0.000 C 
BRANCH  25  26
ATOM     26  C   UNL     1      -0.647  36.101  12.429  1.00  0.00    -0.000 C 
BRANCH  26  27
ATOM     27  C   UNL     1      -1.121  37.562  12.373  1.00  0.00    -0.000 C 
BRANCH  27  28
ATOM     28  C   UNL     1      -0.387  38.471  13.375  1.00  0.00    -0.000 C 
BRANCH  28  29
ATOM     29  C   UNL     1      -1.097  39.800  13.697  1.00  0.00    -0.000 C 
BRANCH  29  30
ATOM     30  C   UNL     1      -0.173  40.825  14.377  1.00  0.00    -0.000 C 
BRANCH  30  31
ATOM     31  C   UNL     1      -0.191  40.709  15.908  1.00  0.00    -0.003 C 
ATOM     32  C   UNL     1      -0.722  41.970  16.590  1.00  0.00     0.004 C 
ENDBRANCH  30  31
ENDBRANCH  29  30
ENDBRANCH  28  29
ENDBRANCH  27  28
ENDBRANCH  26  27
ENDBRANCH  25  26
ENDBRANCH  24  25
ENDBRANCH  23  24
ENDBRANCH  22  23
ENDBRANCH  21  22
ENDBRANCH  20  21
ENDBRANCH  19  20
ENDBRANCH  18  19
ENDBRANCH   1  18
TORSDOF 28
ENDMDL
MODEL 7
REMARK VINA RESULT:    -2.838      2.864      8.265
REMARK INTER + INTRA:         -10.641
REMARK INTER:                  -7.224
REMARK INTRA:                  -3.417
REMARK UNBOUND:                -3.157
REMARK SMILES CCCCCCCCCCCCCCCCCCCCCCCCCCCCCC(=O)[O-]
REMARK SMILES IDX 16 1 17 2 18 3 19 4 20 5 21 6 22 7 23 8 24 9 25 10 26 11
REMARK SMILES IDX 27 12 28 13 29 14 30 15 31 16 32 17 15 18 14 19 13 20 12 21
REMARK SMILES IDX 11 22 10 23 9 24 8 25 7 26 6 27 5 28 4 29 3 30 2 31 1 32
REMARK H PARENT
REMARK Flexibility Score: inf
ROOT
ATOM      1  C   UNL     1       4.377  46.604  10.071  1.00  0.00     0.000 C 
ENDROOT
BRANCH   1   2
ATOM      2  C   UNL     1       5.904  46.740  10.242  1.00  0.00     0.000 C 
BRANCH   2   3
ATOM      3  C   UNL     1       6.615  47.384   9.036  1.00  0.00     0.000 C 
BRANCH   3   4
ATOM      4  C   UNL     1       6.744  48.918   9.092  1.00  0.00     0.000 C 
BRANCH   4   5
ATOM      5  C   UNL     1       5.567  49.701   8.472  1.00  0.00     0.000 C 
BRANCH   5   6
ATOM      6  C   UNL     1       4.846  48.986   7.315  1.00  0.00     0.000 C 
BRANCH   6   7
ATOM      7  C   UNL     1       3.332  49.242   7.305  1.00  0.00     0.000 C 
BRANCH   7   8
ATOM      8  C   UNL     1       2.555  47.940   7.559  1.00  0.00     0.000 C 
BRANCH   8   9
ATOM      9  C   UNL     1       1.158  48.182   8.151  1.00  0.00     0.000 C 
BRANCH   9  10
ATOM     10  C   UNL     1       1.028  47.690   9.603  1.00  0.00     0.000 C 
BRANCH  10  11
ATOM     11  C   UNL     1      -0.259  46.880   9.841  1.00  0.00     0.000 C 
BRANCH  11  12
ATOM     12  C   UNL     1      -0.062  45.355   9.715  1.00  0.00     0.000 C 
BRANCH  12  13
ATOM     13  C   UNL     1       0.828  44.978   8.515  1.00  0.00     0.006 C 
BRANCH  13  14
ATOM     14  C   UNL     1       0.102  44.066   7.518  1.00  0.00     0.053 C 
BRANCH  14  15
ATOM     15  C   UNL     1      -0.688  44.856   6.518  1.00  0.00     0.041 C 
ATOM     16  O   UNL     1      -1.036  44.331   5.427  1.00  0.00    -0.550 OA
ATOM     17  O   UNL     1      -1.067  46.160   6.808  1.00  0.00    -0.550 OA
ENDBRANCH  14  15
ENDBRANCH  13  14
ENDBRANCH  12  13
ENDBRANCH  11  12
ENDBRANCH  10  11
ENDBRANCH   9  10
ENDBRANCH   8   9
ENDBRANCH   7   8
ENDBRANCH   6   7
ENDBRANCH   5   6
ENDBRANCH   4   5
ENDBRANCH   3   4
ENDBRANCH   2   3
ENDBRANCH   1   2
BRANCH   1  18
ATOM     18  C   UNL     1       3.799  45.380  10.796  1.00  0.00     0.000 C 
BRANCH  18  19
ATOM     19  C   UNL     1       4.101  44.094  10.017  1.00  0.00     0.000 C 
BRANCH  19  20
ATOM     20  C   UNL     1       4.240  42.891  10.960  1.00  0.00     0.000 C 
BRANCH  20  21
ATOM     21  C   UNL     1       3.016  41.960  10.927  1.00  0.00     0.000 C 
BRANCH  21  22
ATOM     22  C   UNL     1       1.685  42.677  11.238  1.00  0.00     0.000 C 
BRANCH  22  23
ATOM     23  C   UNL     1       1.320  42.617  12.730  1.00  0.00     0.000 C 
BRANCH  23  24
ATOM     24  C   UNL     1      -0.203  42.569  12.923  1.00  0.00    -0.000 C 
BRANCH  24  25
ATOM     25  C   UNL     1      -0.623  41.874  14.231  1.00  0.00    -0.000 C 
BRANCH  25  26
ATOM     26  C   UNL     1       0.173  40.604  14.583  1.00  0.00    -0.000 C 
BRANCH  26  27
ATOM     27  C   UNL     1      -0.378  39.343  13.896  1.00  0.00    -0.000 C 
BRANCH  27  28
ATOM     28  C   UNL     1       0.662  38.643  13.002  1.00  0.00    -0.000 C 
BRANCH  28  29
ATOM     29  C   UNL     1       2.091  39.212  13.091  1.00  0.00    -0.000 C 
BRANCH  29  30
ATOM     30  C   UNL     1       3.153  38.260  12.513  1.00  0.00    -0.000 C 
BRANCH  30  31
ATOM     31  C   UNL     1       4.505  38.954  12.290  1.00  0.00    -0.003 C 
ATOM     32  C   UNL     1       4.983  39.726  13.520  1.00  0.00     0.004 C 
ENDBRANCH  30  31
ENDBRANCH  29  30
ENDBRANCH  28  29
ENDBRANCH  27  28
ENDBRANCH  26  27
ENDBRANCH  25  26
ENDBRANCH  24  25
ENDBRANCH  23  24
ENDBRANCH  22  23
ENDBRANCH  21  22
ENDBRANCH  20  21
ENDBRANCH  19  20
ENDBRANCH  18  19
ENDBRANCH   1  18
TORSDOF 28
ENDMDL
MODEL 8
REMARK VINA RESULT:    -2.806      1.447      4.992
REMARK INTER + INTRA:         -10.556
REMARK INTER:                  -7.680
REMARK INTRA:                  -2.876
REMARK UNBOUND:                -3.157
REMARK SMILES CCCCCCCCCCCCCCCCCCCCCCCCCCCCCC(=O)[O-]
REMARK SMILES IDX 16 1 17 2 18 3 19 4 20 5 21 6 22 7 23 8 24 9 25 10 26 11
REMARK SMILES IDX 27 12 28 13 29 14 30 15 31 16 32 17 15 18 14 19 13 20 12 21
REMARK SMILES IDX 11 22 10 23 9 24 8 25 7 26 6 27 5 28 4 29 3 30 2 31 1 32
REMARK H PARENT
REMARK Flexibility Score: inf
ROOT
ATOM      1  C   UNL     1       2.497  44.033   9.143  1.00  0.00     0.000 C 
ENDROOT
BRANCH   1   2
ATOM      2  C   UNL     1       1.273  43.548   9.947  1.00  0.00     0.000 C 
BRANCH   2   3
ATOM      3  C   UNL     1       0.911  44.448  11.144  1.00  0.00     0.000 C 
BRANCH   3   4
ATOM      4  C   UNL     1      -0.122  43.856  12.122  1.00  0.00     0.000 C 
BRANCH   4   5
ATOM      5  C   UNL     1       0.330  42.581  12.866  1.00  0.00     0.000 C 
BRANCH   5   6
ATOM      6  C   UNL     1      -0.811  41.733  13.458  1.00  0.00     0.000 C 
BRANCH   6   7
ATOM      7  C   UNL     1      -0.314  40.432  14.104  1.00  0.00     0.000 C 
BRANCH   7   8
ATOM      8  C   UNL     1       1.178  40.208  13.807  1.00  0.00     0.000 C 
BRANCH   8   9
ATOM      9  C   UNL     1       1.469  38.819  13.217  1.00  0.00     0.000 C 
BRANCH   9  10
ATOM     10  C   UNL     1       2.728  38.794  12.335  1.00  0.00     0.000 C 
BRANCH  10  11
ATOM     11  C   UNL     1       4.014  39.084  13.130  1.00  0.00     0.000 C 
BRANCH  11  12
ATOM     12  C   UNL     1       4.680  40.426  12.759  1.00  0.00     0.000 C 
BRANCH  12  13
ATOM     13  C   UNL     1       3.829  41.248  11.772  1.00  0.00     0.006 C 
BRANCH  13  14
ATOM     14  C   UNL     1       4.548  42.520  11.305  1.00  0.00     0.053 C 
BRANCH  14  15
ATOM     15  C   UNL     1       4.406  43.633  12.299  1.00  0.00     0.041 C 
ATOM     16  O   UNL     1       3.370  43.720  13.010  1.00  0.00    -0.550 OA
ATOM     17  O   UNL     1       5.434  44.553  12.461  1.00  0.00    -0.550 OA
ENDBRANCH  14  15
ENDBRANCH  13  14
ENDBRANCH  12  13
ENDBRANCH  11  12
ENDBRANCH  10  11
ENDBRANCH   9  10
ENDBRANCH   8   9
ENDBRANCH   7   8
ENDBRANCH   6   7
ENDBRANCH   5   6
ENDBRANCH   4   5
ENDBRANCH   3   4
ENDBRANCH   2   3
ENDBRANCH   1   2
BRANCH   1  18
ATOM     18  C   UNL     1       2.964  45.438   9.551  1.00  0.00     0.000 C 
BRANCH  18  19
ATOM     19  C   UNL     1       4.419  45.673   9.126  1.00  0.00     0.000 C 
BRANCH  19  20
ATOM     20  C   UNL     1       5.128  46.642  10.082  1.00  0.00     0.000 C 
BRANCH  20  21
ATOM     21  C   UNL     1       6.360  47.312   9.450  1.00  0.00     0.000 C 
BRANCH  21  22
ATOM     22  C   UNL     1       6.284  48.853   9.431  1.00  0.00     0.000 C 
BRANCH  22  23
ATOM     23  C   UNL     1       5.537  49.389   8.199  1.00  0.00     0.000 C 
BRANCH  23  24
ATOM     24  C   UNL     1       4.488  48.379   7.709  1.00  0.00    -0.000 C 
BRANCH  24  25
ATOM     25  C   UNL     1       3.126  49.027   7.403  1.00  0.00    -0.000 C 
BRANCH  25  26
ATOM     26  C   UNL     1       1.899  48.148   7.704  1.00  0.00    -0.000 C 
BRANCH  26  27
ATOM     27  C   UNL     1       1.328  48.379   9.113  1.00  0.00    -0.000 C 
BRANCH  27  28
ATOM     28  C   UNL     1      -0.002  47.642   9.351  1.00  0.00    -0.000 C 
BRANCH  28  29
ATOM     29  C   UNL     1      -0.875  47.444   8.097  1.00  0.00    -0.000 C 
BRANCH  29  30
ATOM     30  C   UNL     1      -1.125  45.962   7.767  1.00  0.00    -0.000 C 
BRANCH  30  31
ATOM     31  C   UNL     1      -0.780  45.618   6.310  1.00  0.00    -0.003 C 
ATOM     32  C   UNL     1      -0.738  44.111   6.054  1.00  0.00     0.004 C 
ENDBRANCH  30  31
ENDBRANCH  29  30
ENDBRANCH  28  29
ENDBRANCH  27  28
ENDBRANCH  26  27
ENDBRANCH  25  26
ENDBRANCH  24  25
ENDBRANCH  23  24
ENDBRANCH  22  23
ENDBRANCH  21  22
ENDBRANCH  20  21
ENDBRANCH  19  20
ENDBRANCH  18  19
ENDBRANCH   1  18
TORSDOF 28
ENDMDL
