MODEL 1
REMARK VINA RESULT:    -4.192      0.000      0.000
REMARK INTER + INTRA:          -7.280
REMARK INTER:                  -6.643
REMARK INTRA:                  -0.637
REMARK UNBOUND:                -0.637
REMARK SMILES CCCCCCCCCCCC(=O)[O-]
REMARK SMILES IDX 7 1 8 2 9 3 10 4 11 5 12 6 13 7 14 8 6 9 5 10 4 11 3 12 2 13
REMARK SMILES IDX 1 14
REMARK H PARENT
REMARK Flexibility Score: inf
ROOT
ATOM      1  C   UNL     1     -99.671 -62.054 -67.162  1.00  0.00     0.000 C 
ENDROOT
BRANCH   1   2
ATOM      2  C   UNL     1     -99.676 -62.539 -68.616  1.00  0.00     0.000 C 
BRANCH   2   3
ATOM      3  C   UNL     1     -98.304 -63.097 -69.015  1.00  0.00     0.000 C 
BRANCH   3   4
ATOM      4  C   UNL     1     -97.580 -62.142 -69.976  1.00  0.00     0.006 C 
BRANCH   4   5
ATOM      5  C   UNL     1     -96.163 -62.623 -70.313  1.00  0.00     0.053 C 
BRANCH   5   6
ATOM      6  C   UNL     1     -95.226 -61.476 -70.536  1.00  0.00     0.041 C 
ATOM      7  O   UNL     1     -94.255 -61.288 -69.756  1.00  0.00    -0.550 OA
ATOM      8  O   UNL     1     -95.408 -60.631 -71.624  1.00  0.00    -0.550 OA
ENDBRANCH   5   6
ENDBRANCH   4   5
ENDBRANCH   3   4
ENDBRANCH   2   3
ENDBRANCH   1   2
BRANCH   1   9
ATOM      9  C   UNL     1    -100.679 -60.913 -66.960  1.00  0.00     0.000 C 
BRANCH   9  10
ATOM     10  C   UNL     1     -99.998 -59.550 -66.759  1.00  0.00    -0.000 C 
BRANCH  10  11
ATOM     11  C   UNL     1     -98.528 -59.683 -66.320  1.00  0.00    -0.000 C 
BRANCH  11  12
ATOM     12  C   UNL     1     -97.626 -58.610 -66.950  1.00  0.00    -0.000 C 
BRANCH  12  13
ATOM     13  C   UNL     1     -96.814 -57.832 -65.904  1.00  0.00    -0.003 C 
ATOM     14  C   UNL     1     -96.517 -58.698 -64.684  1.00  0.00     0.004 C 
ENDBRANCH  12  13
ENDBRANCH  11  12
ENDBRANCH  10  11
ENDBRANCH   9  10
ENDBRANCH   1   9
TORSDOF 10
ENDMDL
MODEL 2
REMARK VINA RESULT:    -4.093      0.897      1.518
REMARK INTER + INTRA:          -7.123
REMARK INTER:                  -6.260
REMARK INTRA:                  -0.863
REMARK UNBOUND:                -0.637
REMARK SMILES CCCCCCCCCCCC(=O)[O-]
REMARK SMILES IDX 7 1 8 2 9 3 10 4 11 5 12 6 13 7 14 8 6 9 5 10 4 11 3 12 2 13
REMARK SMILES IDX 1 14
REMARK H PARENT
REMARK Flexibility Score: inf
ROOT
ATOM      1  C   UNL     1    -100.042 -62.956 -68.526  1.00  0.00     0.000 C 
ENDROOT
BRANCH   1   2
ATOM      2  C   UNL     1     -98.554 -63.084 -68.871  1.00  0.00     0.000 C 
BRANCH   2   3
ATOM      3  C   UNL     1     -98.123 -62.000 -69.867  1.00  0.00     0.000 C 
BRANCH   3   4
ATOM      4  C   UNL     1     -96.659 -62.191 -70.290  1.00  0.00     0.006 C 
BRANCH   4   5
ATOM      5  C   UNL     1     -95.888 -60.866 -70.329  1.00  0.00     0.053 C 
BRANCH   5   6
ATOM      6  C   UNL     1     -94.420 -61.084 -70.527  1.00  0.00     0.041 C 
ATOM      7  O   UNL     1     -93.679 -61.343 -69.543  1.00  0.00    -0.550 OA
ATOM      8  O   UNL     1     -93.875 -61.030 -71.804  1.00  0.00    -0.550 OA
ENDBRANCH   5   6
ENDBRANCH   4   5
ENDBRANCH   3   4
ENDBRANCH   2   3
ENDBRANCH   1   2
BRANCH   1   9
ATOM      9  C   UNL     1    -100.293 -61.743 -67.618  1.00  0.00     0.000 C 
BRANCH   9  10
ATOM     10  C   UNL     1     -99.608 -61.879 -66.248  1.00  0.00    -0.000 C 
BRANCH  10  11
ATOM     11  C   UNL     1     -98.988 -60.555 -65.765  1.00  0.00    -0.000 C 
BRANCH  11  12
ATOM     12  C   UNL     1     -99.198 -59.408 -66.765  1.00  0.00    -0.000 C 
BRANCH  12  13
ATOM     13  C   UNL     1     -97.875 -58.795 -67.248  1.00  0.00    -0.003 C 
ATOM     14  C   UNL     1     -97.107 -58.163 -66.092  1.00  0.00     0.004 C 
ENDBRANCH  12  13
ENDBRANCH  11  12
ENDBRANCH  10  11
ENDBRANCH   9  10
ENDBRANCH   1   9
TORSDOF 10
ENDMDL
MODEL 3
REMARK VINA RESULT:    -4.007      2.208      5.070
REMARK INTER + INTRA:          -6.986
REMARK INTER:                  -6.291
REMARK INTRA:                  -0.695
REMARK UNBOUND:                -0.637
REMARK SMILES CCCCCCCCCCCC(=O)[O-]
REMARK SMILES IDX 7 1 8 2 9 3 10 4 11 5 12 6 13 7 14 8 6 9 5 10 4 11 3 12 2 13
REMARK SMILES IDX 1 14
REMARK H PARENT
REMARK Flexibility Score: inf
ROOT
ATOM      1  C   UNL     1     -99.163 -62.518 -69.226  1.00  0.00     0.000 C 
ENDROOT
BRANCH   1   2
ATOM      2  C   UNL     1     -99.576 -62.719 -67.762  1.00  0.00     0.000 C 
BRANCH   2   3
ATOM      3  C   UNL     1    -100.312 -61.485 -67.224  1.00  0.00     0.000 C 
BRANCH   3   4
ATOM      4  C   UNL     1     -99.395 -60.649 -66.318  1.00  0.00     0.006 C 
BRANCH   4   5
ATOM      5  C   UNL     1     -99.304 -59.188 -66.775  1.00  0.00     0.053 C 
BRANCH   5   6
ATOM      6  C   UNL     1     -97.889 -58.778 -67.042  1.00  0.00     0.041 C 
ATOM      7  O   UNL     1     -97.291 -59.194 -68.070  1.00  0.00    -0.550 OA
ATOM      8  O   UNL     1     -97.239 -57.912 -66.172  1.00  0.00    -0.550 OA
ENDBRANCH   5   6
ENDBRANCH   4   5
ENDBRANCH   3   4
ENDBRANCH   2   3
ENDBRANCH   1   2
BRANCH   1   9
ATOM      9  C   UNL     1     -97.641 -62.637 -69.388  1.00  0.00     0.000 C 
BRANCH   9  10
ATOM     10  C   UNL     1     -97.128 -61.958 -70.669  1.00  0.00    -0.000 C 
BRANCH  10  11
ATOM     11  C   UNL     1     -95.599 -61.772 -70.666  1.00  0.00    -0.000 C 
BRANCH  11  12
ATOM     12  C   UNL     1     -94.849 -63.076 -70.354  1.00  0.00    -0.000 C 
BRANCH  12  13
ATOM     13  C   UNL     1     -93.588 -62.844 -69.508  1.00  0.00    -0.003 C 
ATOM     14  C   UNL     1     -93.213 -61.366 -69.473  1.00  0.00     0.004 C 
ENDBRANCH  12  13
ENDBRANCH  11  12
ENDBRANCH  10  11
ENDBRANCH   9  10
ENDBRANCH   1   9
TORSDOF 10
ENDMDL
MODEL 4
REMARK VINA RESULT:    -3.968      2.116      2.926
REMARK INTER + INTRA:          -6.925
REMARK INTER:                  -6.409
REMARK INTRA:                  -0.516
REMARK UNBOUND:                -0.637
REMARK SMILES CCCCCCCCCCCC(=O)[O-]
REMARK SMILES IDX 7 1 8 2 9 3 10 4 11 5 12 6 13 7 14 8 6 9 5 10 4 11 3 12 2 13
REMARK SMILES IDX 1 14
REMARK H PARENT
REMARK Flexibility Score: inf
ROOT
ATOM      1  C   UNL     1     -98.914 -63.058 -68.524  1.00  0.00     0.000 C 
ENDROOT
BRANCH   1   2
ATOM      2  C   UNL     1     -98.349 -62.171 -69.640  1.00  0.00     0.000 C 
BRANCH   2   3
ATOM      3  C   UNL     1     -96.930 -62.608 -70.026  1.00  0.00     0.000 C 
BRANCH   3   4
ATOM      4  C   UNL     1     -96.459 -61.888 -71.299  1.00  0.00     0.006 C 
BRANCH   4   5
ATOM      5  C   UNL     1     -95.636 -60.632 -70.984  1.00  0.00     0.053 C 
BRANCH   5   6
ATOM      6  C   UNL     1     -94.193 -60.958 -70.756  1.00  0.00     0.041 C 
ATOM      7  O   UNL     1     -93.773 -61.205 -69.594  1.00  0.00    -0.550 OA
ATOM      8  O   UNL     1     -93.315 -61.020 -71.832  1.00  0.00    -0.550 OA
ENDBRANCH   5   6
ENDBRANCH   4   5
ENDBRANCH   3   4
ENDBRANCH   2   3
ENDBRANCH   1   2
BRANCH   1   9
ATOM      9  C   UNL     1    -100.074 -62.359 -67.801  1.00  0.00     0.000 C 
BRANCH   9  10
ATOM     10  C   UNL     1     -99.614 -61.144 -66.979  1.00  0.00    -0.000 C 
BRANCH  10  11
ATOM     11  C   UNL     1     -99.986 -61.263 -65.490  1.00  0.00    -0.000 C 
BRANCH  11  12
ATOM     12  C   UNL     1     -98.842 -61.842 -64.643  1.00  0.00    -0.000 C 
BRANCH  12  13
ATOM     13  C   UNL     1     -99.062 -63.318 -64.282  1.00  0.00    -0.003 C 
ATOM     14  C   UNL     1     -97.892 -63.867 -63.471  1.00  0.00     0.004 C 
ENDBRANCH  12  13
ENDBRANCH  11  12
ENDBRANCH  10  11
ENDBRANCH   9  10
ENDBRANCH   1   9
TORSDOF 10
ENDMDL
MODEL 5
REMARK VINA RESULT:    -3.902      1.592      2.940
REMARK INTER + INTRA:          -6.820
REMARK INTER:                  -5.969
REMARK INTRA:                  -0.852
REMARK UNBOUND:                -0.637
REMARK SMILES CCCCCCCCCCCC(=O)[O-]
REMARK SMILES IDX 7 1 8 2 9 3 10 4 11 5 12 6 13 7 14 8 6 9 5 10 4 11 3 12 2 13
REMARK SMILES IDX 1 14
REMARK H PARENT
REMARK Flexibility Score: inf
ROOT
ATOM      1  C   UNL     1     -97.767 -62.703 -69.297  1.00  0.00     0.000 C 
ENDROOT
BRANCH   1   2
ATOM      2  C   UNL     1     -97.384 -61.855 -70.516  1.00  0.00     0.000 C 
BRANCH   2   3
ATOM      3  C   UNL     1     -96.227 -60.905 -70.184  1.00  0.00     0.000 C 
BRANCH   3   4
ATOM      4  C   UNL     1     -95.271 -60.763 -71.379  1.00  0.00     0.006 C 
BRANCH   4   5
ATOM      5  C   UNL     1     -93.842 -61.199 -71.033  1.00  0.00     0.053 C 
BRANCH   5   6
ATOM      6  C   UNL     1     -93.784 -62.639 -70.627  1.00  0.00     0.041 C 
ATOM      7  O   UNL     1     -93.867 -63.547 -71.497  1.00  0.00    -0.550 OA
ATOM      8  O   UNL     1     -93.609 -62.980 -69.292  1.00  0.00    -0.550 OA
ENDBRANCH   5   6
ENDBRANCH   4   5
ENDBRANCH   3   4
ENDBRANCH   2   3
ENDBRANCH   1   2
BRANCH   1   9
ATOM      9  C   UNL     1     -99.280 -62.644 -69.039  1.00  0.00     0.000 C 
BRANCH   9  10
ATOM     10  C   UNL     1     -99.623 -62.584 -67.542  1.00  0.00    -0.000 C 
BRANCH  10  11
ATOM     11  C   UNL     1    -100.332 -61.275 -67.151  1.00  0.00    -0.000 C 
BRANCH  11  12
ATOM     12  C   UNL     1     -99.451 -60.367 -66.277  1.00  0.00    -0.000 C 
BRANCH  12  13
ATOM     13  C   UNL     1     -99.173 -59.006 -66.931  1.00  0.00    -0.003 C 
ATOM     14  C   UNL     1     -97.727 -58.909 -67.406  1.00  0.00     0.004 C 
ENDBRANCH  12  13
ENDBRANCH  11  12
ENDBRANCH  10  11
ENDBRANCH   9  10
ENDBRANCH   1   9
TORSDOF 10
ENDMDL
MODEL 6
REMARK VINA RESULT:    -3.803      2.645      5.175
REMARK INTER + INTRA:          -6.664
REMARK INTER:                  -5.908
REMARK INTRA:                  -0.756
REMARK UNBOUND:                -0.637
REMARK SMILES CCCCCCCCCCCC(=O)[O-]
REMARK SMILES IDX 7 1 8 2 9 3 10 4 11 5 12 6 13 7 14 8 6 9 5 10 4 11 3 12 2 13
REMARK SMILES IDX 1 14
REMARK H PARENT
REMARK Flexibility Score: inf
ROOT
ATOM      1  C   UNL     1     -99.589 -61.678 -66.912  1.00  0.00     0.000 C 
ENDROOT
BRANCH   1   2
ATOM      2  C   UNL     1    -100.492 -60.444 -67.022  1.00  0.00     0.000 C 
BRANCH   2   3
ATOM      3  C   UNL     1     -99.726 -59.166 -66.659  1.00  0.00     0.000 C 
BRANCH   3   4
ATOM      4  C   UNL     1     -98.212 -59.366 -66.825  1.00  0.00     0.006 C 
BRANCH   4   5
ATOM      5  C   UNL     1     -97.400 -58.306 -66.070  1.00  0.00     0.053 C 
BRANCH   5   6
ATOM      6  C   UNL     1     -96.814 -58.852 -64.805  1.00  0.00     0.041 C 
ATOM      7  O   UNL     1     -96.089 -58.125 -64.076  1.00  0.00    -0.550 OA
ATOM      8  O   UNL     1     -97.094 -60.157 -64.415  1.00  0.00    -0.550 OA
ENDBRANCH   5   6
ENDBRANCH   4   5
ENDBRANCH   3   4
ENDBRANCH   2   3
ENDBRANCH   1   2
BRANCH   1   9
ATOM      9  C   UNL     1     -99.962 -62.728 -67.967  1.00  0.00     0.000 C 
BRANCH   9  10
ATOM     10  C   UNL     1     -98.758 -63.168 -68.816  1.00  0.00    -0.000 C 
BRANCH  10  11
ATOM     11  C   UNL     1     -98.163 -62.012 -69.640  1.00  0.00    -0.000 C 
BRANCH  11  12
ATOM     12  C   UNL     1     -96.808 -62.374 -70.268  1.00  0.00    -0.000 C 
BRANCH  12  13
ATOM     13  C   UNL     1     -95.812 -61.205 -70.240  1.00  0.00    -0.003 C 
ATOM     14  C   UNL     1     -94.395 -61.682 -70.542  1.00  0.00     0.004 C 
ENDBRANCH  12  13
ENDBRANCH  11  12
ENDBRANCH  10  11
ENDBRANCH   9  10
ENDBRANCH   1   9
TORSDOF 10
ENDMDL
MODEL 7
REMARK VINA RESULT:    -3.582     12.661     14.082
REMARK INTER + INTRA:          -6.313
REMARK INTER:                  -5.085
REMARK INTRA:                  -1.228
REMARK UNBOUND:                -0.637
REMARK SMILES CCCCCCCCCCCC(=O)[O-]
REMARK SMILES IDX 7 1 8 2 9 3 10 4 11 5 12 6 13 7 14 8 6 9 5 10 4 11 3 12 2 13
REMARK SMILES IDX 1 14
REMARK H PARENT
REMARK Flexibility Score: inf
ROOT
ATOM      1  C   UNL     1     -94.555 -46.617 -68.876  1.00  0.00     0.000 C 
ENDROOT
BRANCH   1   2
ATOM      2  C   UNL     1     -93.757 -46.926 -70.149  1.00  0.00     0.000 C 
BRANCH   2   3
ATOM      3  C   UNL     1     -94.477 -47.973 -71.009  1.00  0.00     0.000 C 
BRANCH   3   4
ATOM      4  C   UNL     1     -94.291 -47.677 -72.505  1.00  0.00     0.006 C 
BRANCH   4   5
ATOM      5  C   UNL     1     -95.067 -48.660 -73.392  1.00  0.00     0.053 C 
BRANCH   5   6
ATOM      6  C   UNL     1     -94.416 -50.008 -73.426  1.00  0.00     0.041 C 
ATOM      7  O   UNL     1     -93.228 -50.129 -73.825  1.00  0.00    -0.550 OA
ATOM      8  O   UNL     1     -95.112 -51.128 -72.988  1.00  0.00    -0.550 OA
ENDBRANCH   5   6
ENDBRANCH   4   5
ENDBRANCH   3   4
ENDBRANCH   2   3
ENDBRANCH   1   2
BRANCH   1   9
ATOM      9  C   UNL     1     -95.118 -45.189 -68.914  1.00  0.00     0.000 C 
BRANCH   9  10
ATOM     10  C   UNL     1     -96.537 -45.127 -69.502  1.00  0.00    -0.000 C 
BRANCH  10  11
ATOM     11  C   UNL     1     -97.536 -46.005 -68.727  1.00  0.00    -0.000 C 
BRANCH  11  12
ATOM     12  C   UNL     1     -98.363 -46.911 -69.651  1.00  0.00    -0.000 C 
BRANCH  12  13
ATOM     13  C   UNL     1     -98.030 -46.704 -71.136  1.00  0.00    -0.003 C 
ATOM     14  C   UNL     1     -98.403 -47.932 -71.960  1.00  0.00     0.004 C 
ENDBRANCH  12  13
ENDBRANCH  11  12
ENDBRANCH  10  11
ENDBRANCH   9  10
ENDBRANCH   1   9
TORSDOF 10
ENDMDL
MODEL 8
REMARK VINA RESULT:    -3.455     13.723     15.048
REMARK INTER + INTRA:          -6.112
REMARK INTER:                  -4.826
REMARK INTRA:                  -1.286
REMARK UNBOUND:                -0.637
REMARK SMILES CCCCCCCCCCCC(=O)[O-]
REMARK SMILES IDX 7 1 8 2 9 3 10 4 11 5 12 6 13 7 14 8 6 9 5 10 4 11 3 12 2 13
REMARK SMILES IDX 1 14
REMARK H PARENT
REMARK Flexibility Score: inf
ROOT
ATOM      1  C   UNL     1     -95.407 -44.742 -68.931  1.00  0.00     0.000 C 
ENDROOT
BRANCH   1   2
ATOM      2  C   UNL     1     -96.873 -44.792 -69.379  1.00  0.00     0.000 C 
BRANCH   2   3
ATOM      3  C   UNL     1     -97.590 -46.010 -68.783  1.00  0.00     0.000 C 
BRANCH   3   4
ATOM      4  C   UNL     1     -98.242 -46.859 -69.885  1.00  0.00     0.006 C 
BRANCH   4   5
ATOM      5  C   UNL     1     -97.673 -46.543 -71.274  1.00  0.00     0.053 C 
BRANCH   5   6
ATOM      6  C   UNL     1     -98.094 -47.559 -72.290  1.00  0.00     0.041 C 
ATOM      7  O   UNL     1     -99.018 -48.374 -72.027  1.00  0.00    -0.550 OA
ATOM      8  O   UNL     1     -97.488 -47.587 -73.540  1.00  0.00    -0.550 OA
ENDBRANCH   5   6
ENDBRANCH   4   5
ENDBRANCH   3   4
ENDBRANCH   2   3
ENDBRANCH   1   2
BRANCH   1   9
ATOM      9  C   UNL     1     -95.037 -45.993 -68.121  1.00  0.00     0.000 C 
BRANCH   9  10
ATOM     10  C   UNL     1     -93.993 -46.870 -68.832  1.00  0.00    -0.000 C 
BRANCH  10  11
ATOM     11  C   UNL     1     -93.232 -46.108 -69.931  1.00  0.00    -0.000 C 
BRANCH  11  12
ATOM     12  C   UNL     1     -93.370 -46.772 -71.310  1.00  0.00    -0.000 C 
BRANCH  12  13
ATOM     13  C   UNL     1     -94.329 -47.971 -71.296  1.00  0.00    -0.003 C 
ATOM     14  C   UNL     1     -94.306 -48.710 -72.630  1.00  0.00     0.004 C 
ENDBRANCH  12  13
ENDBRANCH  11  12
ENDBRANCH  10  11
ENDBRANCH   9  10
ENDBRANCH   1   9
TORSDOF 10
ENDMDL
MODEL 9
REMARK VINA RESULT:    -3.455     13.889     15.279
REMARK INTER + INTRA:          -6.111
REMARK INTER:                  -4.840
REMARK INTRA:                  -1.271
REMARK UNBOUND:                -0.637
REMARK SMILES CCCCCCCCCCCC(=O)[O-]
REMARK SMILES IDX 7 1 8 2 9 3 10 4 11 5 12 6 13 7 14 8 6 9 5 10 4 11 3 12 2 13
REMARK SMILES IDX 1 14
REMARK H PARENT
REMARK Flexibility Score: inf
ROOT
ATOM      1  C   UNL     1     -95.471 -44.841 -69.010  1.00  0.00     0.000 C 
ENDROOT
BRANCH   1   2
ATOM      2  C   UNL     1     -96.964 -44.852 -69.358  1.00  0.00     0.000 C 
BRANCH   2   3
ATOM      3  C   UNL     1     -97.684 -46.012 -68.659  1.00  0.00     0.000 C 
BRANCH   3   4
ATOM      4  C   UNL     1     -98.439 -46.883 -69.674  1.00  0.00     0.006 C 
BRANCH   4   5
ATOM      5  C   UNL     1     -99.384 -46.058 -70.557  1.00  0.00     0.053 C 
BRANCH   5   6
ATOM      6  C   UNL     1    -100.190 -46.928 -71.471  1.00  0.00     0.041 C 
ATOM      7  O   UNL     1     -99.617 -47.764 -72.220  1.00  0.00    -0.550 OA
ATOM      8  O   UNL     1    -101.577 -46.837 -71.475  1.00  0.00    -0.550 OA
ENDBRANCH   5   6
ENDBRANCH   4   5
ENDBRANCH   3   4
ENDBRANCH   2   3
ENDBRANCH   1   2
BRANCH   1   9
ATOM      9  C   UNL     1     -95.115 -46.008 -68.078  1.00  0.00     0.000 C 
BRANCH   9  10
ATOM     10  C   UNL     1     -93.994 -46.897 -68.643  1.00  0.00    -0.000 C 
BRANCH  10  11
ATOM     11  C   UNL     1     -93.723 -46.627 -70.134  1.00  0.00    -0.000 C 
BRANCH  11  12
ATOM     12  C   UNL     1     -94.343 -47.695 -71.048  1.00  0.00    -0.000 C 
BRANCH  12  13
ATOM     13  C   UNL     1     -95.446 -47.130 -71.955  1.00  0.00    -0.003 C 
ATOM     14  C   UNL     1     -96.140 -48.241 -72.736  1.00  0.00     0.004 C 
ENDBRANCH  12  13
ENDBRANCH  11  12
ENDBRANCH  10  11
ENDBRANCH   9  10
ENDBRANCH   1   9
TORSDOF 10
ENDMDL
