MODEL 1
REMARK VINA RESULT:    -3.986      0.000      0.000
REMARK INTER + INTRA:          -5.910
REMARK INTER:                  -6.084
REMARK INTRA:                   0.173
REMARK UNBOUND:                 0.173
REMARK SMILES CC1=CCC[C@@H](C)C(=O)C[C@@H](C(C)C)C(=O)C1
REMARK SMILES IDX 8 1 9 2 6 3 7 4 5 5 4 6 3 7 2 8 1 9 10 11 11 12 15 13 16 14
REMARK SMILES IDX 17 15 12 17 13 18 14 19
REMARK H PARENT
REMARK Flexibility Score: 70.00
ROOT
ATOM      1  C   UNL     1     -14.273  14.452   2.265  1.00  0.00     0.136 C 
ATOM      2  O   UNL     1     -15.378  14.974   2.249  1.00  0.00    -0.299 OA
ENDROOT
BRANCH   1   3
ATOM      3  C   UNL     1     -13.591  14.106   0.952  1.00  0.00     0.053 C 
ATOM      4  C   UNL     1     -12.916  15.348   0.353  1.00  0.00     0.016 C 
BRANCH   3   5
ATOM      5  C   UNL     1     -14.598  13.493  -0.045  1.00  0.00     0.015 C 
BRANCH   5   6
ATOM      6  C   UNL     1     -14.908  12.019   0.290  1.00  0.00     0.028 C 
BRANCH   6   7
ATOM      7  C   UNL     1     -13.672  11.204   0.564  1.00  0.00    -0.028 C 
ATOM      8  C   UNL     1     -13.385  10.597   1.741  1.00  0.00    -0.070 CG0
ATOM      9  C   UNL     1     -12.054   9.899   1.864  1.00  0.00     0.039 C 
ATOM     10  G   UNL     1     -14.352  10.554   2.916  1.00  0.00     0.000 G0
ENDBRANCH   6   7
ENDBRANCH   5   6
ENDBRANCH   3   5
ENDBRANCH   1   3
BRANCH   1  11
ATOM     11  C   UNL     1     -13.584  14.206   3.590  1.00  0.00     0.087 C 
BRANCH  11  12
ATOM     12  C   UNL     1     -13.174  12.729   3.862  1.00  0.00     0.066 C 
BRANCH  12  13
ATOM     13  C   UNL     1     -14.374  11.792   3.779  1.00  0.00     0.140 C 
ATOM     14  O   UNL     1     -15.399  12.092   4.376  1.00  0.00    -0.299 OA
BRANCH  13  15
ATOM     15  C   UNL     1     -14.359  10.544   2.922  1.00  0.00     0.106 CG0
ATOM     16  G   UNL     1     -13.389  10.615   1.751  1.00  0.00     0.000 G0
ENDBRANCH  13  15
ENDBRANCH  12  13
BRANCH  12  17
ATOM     17  C   UNL     1     -12.325  12.493   5.156  1.00  0.00    -0.006 C 
ATOM     18  C   UNL     1     -12.215  11.003   5.523  1.00  0.00     0.008 C 
ATOM     19  C   UNL     1     -12.930  13.251   6.353  1.00  0.00     0.008 C 
ENDBRANCH  12  17
ENDBRANCH  11  12
ENDBRANCH   1  11
TORSDOF 1
ENDMDL
MODEL 2
REMARK VINA RESULT:    -3.971      1.548      4.193
REMARK INTER + INTRA:          -5.887
REMARK INTER:                  -6.532
REMARK INTRA:                   0.644
REMARK UNBOUND:                 0.173
REMARK SMILES CC1=CCC[C@@H](C)C(=O)C[C@@H](C(C)C)C(=O)C1
REMARK SMILES IDX 8 1 9 2 6 3 7 4 5 5 4 6 3 7 2 8 1 9 10 11 11 12 15 13 16 14
REMARK SMILES IDX 17 15 12 17 13 18 14 19
REMARK H PARENT
REMARK Flexibility Score: 70.00
ROOT
ATOM      1  C   UNL     1     -14.375  13.412   4.131  1.00  0.00     0.136 C 
ATOM      2  O   UNL     1     -15.538  13.039   4.075  1.00  0.00    -0.299 OA
ENDROOT
BRANCH   1   3
ATOM      3  C   UNL     1     -13.395  12.667   5.023  1.00  0.00     0.053 C 
ATOM      4  C   UNL     1     -12.000  13.301   4.936  1.00  0.00     0.016 C 
BRANCH   3   5
ATOM      5  C   UNL     1     -13.343  11.169   4.653  1.00  0.00     0.015 C 
BRANCH   5   6
ATOM      6  C   UNL     1     -12.539  10.929   3.358  1.00  0.00     0.028 C 
BRANCH   6   7
ATOM      7  C   UNL     1     -13.403  10.532   2.191  1.00  0.00    -0.028 C 
ATOM      8  C   UNL     1     -13.803  11.364   1.200  1.00  0.00    -0.070 CG0
ATOM      9  C   UNL     1     -14.747  10.814   0.160  1.00  0.00     0.039 C 
ATOM     10  G   UNL     1     -13.318  12.802   1.069  1.00  0.00     0.000 G0
ENDBRANCH   6   7
ENDBRANCH   5   6
ENDBRANCH   3   5
ENDBRANCH   1   3
BRANCH   1  11
ATOM     11  C   UNL     1     -13.922  14.574   3.275  1.00  0.00     0.087 C 
BRANCH  11  12
ATOM     12  C   UNL     1     -14.769  14.827   1.994  1.00  0.00     0.066 C 
BRANCH  12  13
ATOM     13  C   UNL     1     -14.454  13.807   0.905  1.00  0.00     0.140 C 
ATOM     14  O   UNL     1     -15.093  13.840  -0.137  1.00  0.00    -0.299 OA
BRANCH  13  15
ATOM     15  C   UNL     1     -13.326  12.806   1.046  1.00  0.00     0.106 CG0
ATOM     16  G   UNL     1     -13.799  11.367   1.205  1.00  0.00     0.000 G0
ENDBRANCH  13  15
ENDBRANCH  12  13
BRANCH  12  17
ATOM     17  C   UNL     1     -14.751  16.296   1.454  1.00  0.00    -0.006 C 
ATOM     18  C   UNL     1     -16.107  16.723   0.865  1.00  0.00     0.008 C 
ATOM     19  C   UNL     1     -13.669  16.469   0.371  1.00  0.00     0.008 C 
ENDBRANCH  12  17
ENDBRANCH  11  12
ENDBRANCH   1  11
TORSDOF 1
ENDMDL
MODEL 3
REMARK VINA RESULT:    -3.931      1.721      4.090
REMARK INTER + INTRA:          -5.825
REMARK INTER:                  -5.543
REMARK INTRA:                  -0.282
REMARK UNBOUND:                 0.173
REMARK SMILES CC1=CCC[C@@H](C)C(=O)C[C@@H](C(C)C)C(=O)C1
REMARK SMILES IDX 8 1 9 2 6 3 7 4 5 5 4 6 3 7 2 8 1 9 10 11 11 12 15 13 16 14
REMARK SMILES IDX 17 15 12 17 13 18 14 19
REMARK H PARENT
REMARK Flexibility Score: 70.00
ROOT
ATOM      1  C   UNL     1     -14.385  12.790  -0.111  1.00  0.00     0.136 C 
ATOM      2  O   UNL     1     -13.988  13.369  -1.113  1.00  0.00    -0.299 OA
ENDROOT
BRANCH   1   3
ATOM      3  C   UNL     1     -14.019  11.330   0.101  1.00  0.00     0.053 C 
ATOM      4  C   UNL     1     -15.256  10.520   0.513  1.00  0.00     0.016 C 
BRANCH   3   5
ATOM      5  C   UNL     1     -12.896  11.192   1.152  1.00  0.00     0.015 C 
BRANCH   5   6
ATOM      6  C   UNL     1     -13.377  10.429   2.404  1.00  0.00     0.028 C 
BRANCH   6   7
ATOM      7  C   UNL     1     -12.901  11.049   3.691  1.00  0.00    -0.028 C 
ATOM      8  C   UNL     1     -13.467  12.122   4.294  1.00  0.00    -0.070 CG0
ATOM      9  C   UNL     1     -12.798  12.665   5.532  1.00  0.00     0.039 C 
ATOM     10  G   UNL     1     -14.756  12.770   3.807  1.00  0.00     0.000 G0
ENDBRANCH   6   7
ENDBRANCH   5   6
ENDBRANCH   3   5
ENDBRANCH   1   3
BRANCH   1  11
ATOM     11  C   UNL     1     -15.189  13.550   0.920  1.00  0.00     0.087 C 
BRANCH  11  12
ATOM     12  C   UNL     1     -14.371  14.530   1.811  1.00  0.00     0.066 C 
BRANCH  12  13
ATOM     13  C   UNL     1     -14.537  14.208   3.293  1.00  0.00     0.140 C 
ATOM     14  O   UNL     1     -14.564  15.129   4.097  1.00  0.00    -0.299 OA
BRANCH  13  15
ATOM     15  C   UNL     1     -14.744  12.791   3.787  1.00  0.00     0.106 CG0
ATOM     16  G   UNL     1     -13.469  12.122   4.283  1.00  0.00     0.000 G0
ENDBRANCH  13  15
ENDBRANCH  12  13
BRANCH  12  17
ATOM     17  C   UNL     1     -14.581  16.051   1.508  1.00  0.00    -0.006 C 
ATOM     18  C   UNL     1     -16.021  16.371   1.071  1.00  0.00     0.008 C 
ATOM     19  C   UNL     1     -13.615  16.529   0.408  1.00  0.00     0.008 C 
ENDBRANCH  12  17
ENDBRANCH  11  12
ENDBRANCH   1  11
TORSDOF 1
ENDMDL
MODEL 4
REMARK VINA RESULT:    -3.300      2.081      4.621
REMARK INTER + INTRA:          -4.862
REMARK INTER:                  -5.827
REMARK INTRA:                   0.965
REMARK UNBOUND:                 0.173
REMARK SMILES CC1=CCC[C@@H](C)C(=O)C[C@@H](C(C)C)C(=O)C1
REMARK SMILES IDX 8 1 9 2 6 3 7 4 5 5 4 6 3 7 2 8 1 9 10 11 11 12 15 13 16 14
REMARK SMILES IDX 17 15 12 17 13 18 14 19
REMARK H PARENT
REMARK Flexibility Score: 70.00
ROOT
ATOM      1  C   UNL     1     -13.639  13.642   3.546  1.00  0.00     0.136 C 
ATOM      2  O   UNL     1     -12.514  13.654   4.024  1.00  0.00    -0.299 OA
ENDROOT
BRANCH   1   3
ATOM      3  C   UNL     1     -14.382  12.322   3.419  1.00  0.00     0.053 C 
ATOM      4  C   UNL     1     -15.046  11.948   4.752  1.00  0.00     0.016 C 
BRANCH   3   5
ATOM      5  C   UNL     1     -13.433  11.201   2.943  1.00  0.00     0.015 C 
BRANCH   5   6
ATOM      6  C   UNL     1     -13.152  11.296   1.429  1.00  0.00     0.028 C 
BRANCH   6   7
ATOM      7  C   UNL     1     -14.392  11.551   0.613  1.00  0.00    -0.028 C 
ATOM      8  C   UNL     1     -14.624  12.665  -0.122  1.00  0.00    -0.070 CG0
ATOM      9  C   UNL     1     -15.964  12.791  -0.801  1.00  0.00     0.039 C 
ATOM     10  G   UNL     1     -13.589  13.763  -0.323  1.00  0.00     0.000 G0
ENDBRANCH   6   7
ENDBRANCH   5   6
ENDBRANCH   3   5
ENDBRANCH   1   3
BRANCH   1  11
ATOM     11  C   UNL     1     -14.290  14.945   3.137  1.00  0.00     0.087 C 
BRANCH  11  12
ATOM     12  C   UNL     1     -14.855  14.981   1.687  1.00  0.00     0.066 C 
BRANCH  12  13
ATOM     13  C   UNL     1     -13.737  14.924   0.651  1.00  0.00     0.140 C 
ATOM     14  O   UNL     1     -12.906  15.821   0.632  1.00  0.00    -0.299 OA
BRANCH  13  15
ATOM     15  C   UNL     1     -13.585  13.758  -0.302  1.00  0.00     0.106 CG0
ATOM     16  G   UNL     1     -14.641  12.675  -0.120  1.00  0.00     0.000 G0
ENDBRANCH  13  15
ENDBRANCH  12  13
BRANCH  12  17
ATOM     17  C   UNL     1     -15.881  16.125   1.392  1.00  0.00    -0.006 C 
ATOM     18  C   UNL     1     -16.994  15.682   0.426  1.00  0.00     0.008 C 
ATOM     19  C   UNL     1     -15.172  17.355   0.794  1.00  0.00     0.008 C 
ENDBRANCH  12  17
ENDBRANCH  11  12
ENDBRANCH   1  11
TORSDOF 1
ENDMDL
MODEL 5
REMARK VINA RESULT:    -3.179      1.854      4.470
REMARK INTER + INTRA:          -4.678
REMARK INTER:                  -5.588
REMARK INTRA:                   0.910
REMARK UNBOUND:                 0.173
REMARK SMILES CC1=CCC[C@@H](C)C(=O)C[C@@H](C(C)C)C(=O)C1
REMARK SMILES IDX 8 1 9 2 6 3 7 4 5 5 4 6 3 7 2 8 1 9 10 11 11 12 15 13 16 14
REMARK SMILES IDX 17 15 12 17 13 18 14 19
REMARK H PARENT
REMARK Flexibility Score: 70.00
ROOT
ATOM      1  C   UNL     1     -13.955  11.199   1.322  1.00  0.00     0.136 C 
ATOM      2  O   UNL     1     -14.402  10.444   0.470  1.00  0.00    -0.299 OA
ENDROOT
BRANCH   1   3
ATOM      3  C   UNL     1     -12.740  10.774   2.131  1.00  0.00     0.053 C 
ATOM      4  C   UNL     1     -11.771   9.961   1.262  1.00  0.00     0.016 C 
BRANCH   3   5
ATOM      5  C   UNL     1     -13.166   9.971   3.380  1.00  0.00     0.015 C 
BRANCH   5   6
ATOM      6  C   UNL     1     -14.376  10.616   4.088  1.00  0.00     0.028 C 
BRANCH   6   7
ATOM      7  C   UNL     1     -14.025  11.222   5.421  1.00  0.00    -0.028 C 
ATOM      8  C   UNL     1     -13.208  12.287   5.600  1.00  0.00    -0.070 CG0
ATOM      9  C   UNL     1     -12.895  12.701   7.017  1.00  0.00     0.039 C 
ATOM     10  G   UNL     1     -12.632  13.102   4.450  1.00  0.00     0.000 G0
ENDBRANCH   6   7
ENDBRANCH   5   6
ENDBRANCH   3   5
ENDBRANCH   1   3
BRANCH   1  11
ATOM     11  C   UNL     1     -14.587  12.559   1.519  1.00  0.00     0.087 C 
BRANCH  11  12
ATOM     12  C   UNL     1     -13.629  13.668   2.044  1.00  0.00     0.066 C 
BRANCH  12  13
ATOM     13  C   UNL     1     -13.680  13.775   3.565  1.00  0.00     0.140 C 
ATOM     14  O   UNL     1     -14.631  14.341   4.084  1.00  0.00    -0.299 OA
BRANCH  13  15
ATOM     15  C   UNL     1     -12.628  13.139   4.448  1.00  0.00     0.106 CG0
ATOM     16  G   UNL     1     -13.203  12.327   5.601  1.00  0.00     0.000 G0
ENDBRANCH  13  15
ENDBRANCH  12  13
BRANCH  12  17
ATOM     17  C   UNL     1     -13.766  15.062   1.346  1.00  0.00    -0.006 C 
ATOM     18  C   UNL     1     -15.231  15.435   1.058  1.00  0.00     0.008 C 
ATOM     19  C   UNL     1     -12.982  15.091   0.021  1.00  0.00     0.008 C 
ENDBRANCH  12  17
ENDBRANCH  11  12
ENDBRANCH   1  11
TORSDOF 1
ENDMDL
MODEL 6
REMARK VINA RESULT:    -3.025      1.687      3.471
REMARK INTER + INTRA:          -4.444
REMARK INTER:                  -5.617
REMARK INTRA:                   1.173
REMARK UNBOUND:                 0.173
REMARK SMILES CC1=CCC[C@@H](C)C(=O)C[C@@H](C(C)C)C(=O)C1
REMARK SMILES IDX 8 1 9 2 6 3 7 4 5 5 4 6 3 7 2 8 1 9 10 11 11 12 15 13 16 14
REMARK SMILES IDX 17 15 12 17 13 18 14 19
REMARK H PARENT
REMARK Flexibility Score: 70.00
ROOT
ATOM      1  C   UNL     1     -13.424  10.336   3.287  1.00  0.00     0.136 C 
ATOM      2  O   UNL     1     -12.522   9.912   3.996  1.00  0.00    -0.299 OA
ENDROOT
BRANCH   1   3
ATOM      3  C   UNL     1     -13.506   9.890   1.836  1.00  0.00     0.053 C 
ATOM      4  C   UNL     1     -12.153  10.083   1.137  1.00  0.00     0.016 C 
BRANCH   3   5
ATOM      5  C   UNL     1     -14.624  10.649   1.090  1.00  0.00     0.015 C 
BRANCH   5   6
ATOM      6  C   UNL     1     -14.050  11.632   0.049  1.00  0.00     0.028 C 
BRANCH   6   7
ATOM      7  C   UNL     1     -14.615  13.022   0.175  1.00  0.00    -0.028 C 
ATOM      8  C   UNL     1     -14.335  13.888   1.178  1.00  0.00    -0.070 CG0
ATOM      9  C   UNL     1     -15.067  15.206   1.192  1.00  0.00     0.039 C 
ATOM     10  G   UNL     1     -13.296  13.609   2.257  1.00  0.00     0.000 G0
ENDBRANCH   6   7
ENDBRANCH   5   6
ENDBRANCH   3   5
ENDBRANCH   1   3
BRANCH   1  11
ATOM     11  C   UNL     1     -14.469  11.256   3.880  1.00  0.00     0.087 C 
BRANCH  11  12
ATOM     12  C   UNL     1     -13.912  12.513   4.608  1.00  0.00     0.066 C 
BRANCH  12  13
ATOM     13  C   UNL     1     -13.854  13.719   3.675  1.00  0.00     0.140 C 
ATOM     14  O   UNL     1     -14.210  14.809   4.099  1.00  0.00    -0.299 OA
BRANCH  13  15
ATOM     15  C   UNL     1     -13.301  13.619   2.269  1.00  0.00     0.106 CG0
ATOM     16  G   UNL     1     -14.333  13.889   1.183  1.00  0.00     0.000 G0
ENDBRANCH  13  15
ENDBRANCH  12  13
BRANCH  12  17
ATOM     17  C   UNL     1     -12.572  12.303   5.389  1.00  0.00    -0.006 C 
ATOM     18  C   UNL     1     -12.781  11.581   6.731  1.00  0.00     0.008 C 
ATOM     19  C   UNL     1     -11.877  13.650   5.657  1.00  0.00     0.008 C 
ENDBRANCH  12  17
ENDBRANCH  11  12
ENDBRANCH   1  11
TORSDOF 1
ENDMDL
MODEL 7
REMARK VINA RESULT:    -2.562      1.334      1.936
REMARK INTER + INTRA:          -3.737
REMARK INTER:                  -5.645
REMARK INTRA:                   1.908
REMARK UNBOUND:                 0.173
REMARK SMILES CC1=CCC[C@@H](C)C(=O)C[C@@H](C(C)C)C(=O)C1
REMARK SMILES IDX 8 1 9 2 6 3 7 4 5 5 4 6 3 7 2 8 1 9 10 11 11 12 15 13 16 14
REMARK SMILES IDX 17 15 12 17 13 18 14 19
REMARK H PARENT
REMARK Flexibility Score: 70.00
ROOT
ATOM      1  C   UNL     1     -14.750  15.044   2.513  1.00  0.00     0.136 C 
ATOM      2  O   UNL     1     -15.908  15.339   2.256  1.00  0.00    -0.299 OA
ENDROOT
BRANCH   1   3
ATOM      3  C   UNL     1     -13.633  15.558   1.619  1.00  0.00     0.053 C 
ATOM      4  C   UNL     1     -14.095  16.797   0.840  1.00  0.00     0.016 C 
BRANCH   3   5
ATOM      5  C   UNL     1     -13.146  14.453   0.657  1.00  0.00     0.015 C 
BRANCH   5   6
ATOM      6  C   UNL     1     -14.096  14.286  -0.547  1.00  0.00     0.028 C 
BRANCH   6   7
ATOM      7  C   UNL     1     -14.769  12.939  -0.585  1.00  0.00    -0.028 C 
ATOM      8  C   UNL     1     -14.390  11.860   0.140  1.00  0.00    -0.070 CG0
ATOM      9  C   UNL     1     -15.124  10.563  -0.096  1.00  0.00     0.039 C 
ATOM     10  G   UNL     1     -13.296  11.906   1.199  1.00  0.00     0.000 G0
ENDBRANCH   6   7
ENDBRANCH   5   6
ENDBRANCH   3   5
ENDBRANCH   1   3
BRANCH   1  11
ATOM     11  C   UNL     1     -14.446  14.215   3.741  1.00  0.00     0.087 C 
BRANCH  11  12
ATOM     12  C   UNL     1     -13.352  13.123   3.554  1.00  0.00     0.066 C 
BRANCH  12  13
ATOM     13  C   UNL     1     -13.822  12.017   2.615  1.00  0.00     0.140 C 
ATOM     14  O   UNL     1     -14.698  11.253   2.997  1.00  0.00    -0.299 OA
BRANCH  13  15
ATOM     15  C   UNL     1     -13.292  11.884   1.203  1.00  0.00     0.106 CG0
ATOM     16  G   UNL     1     -14.380  11.842   0.140  1.00  0.00     0.000 G0
ENDBRANCH  13  15
ENDBRANCH  12  13
BRANCH  12  17
ATOM     17  C   UNL     1     -12.732  12.557   4.875  1.00  0.00    -0.006 C 
ATOM     18  C   UNL     1     -13.800  12.233   5.934  1.00  0.00     0.008 C 
ATOM     19  C   UNL     1     -11.726  13.555   5.480  1.00  0.00     0.008 C 
ENDBRANCH  12  17
ENDBRANCH  11  12
ENDBRANCH   1  11
TORSDOF 1
ENDMDL
MODEL 8
REMARK VINA RESULT:    -2.449      1.817      3.912
REMARK INTER + INTRA:          -3.564
REMARK INTER:                  -4.776
REMARK INTRA:                   1.212
REMARK UNBOUND:                 0.173
REMARK SMILES CC1=CCC[C@@H](C)C(=O)C[C@@H](C(C)C)C(=O)C1
REMARK SMILES IDX 8 1 9 2 6 3 7 4 5 5 4 6 3 7 2 8 1 9 10 11 11 12 15 13 16 14
REMARK SMILES IDX 17 15 12 17 13 18 14 19
REMARK H PARENT
REMARK Flexibility Score: 70.00
ROOT
ATOM      1  C   UNL     1     -13.791  14.819   1.369  1.00  0.00     0.136 C 
ATOM      2  O   UNL     1     -13.354  15.887   0.965  1.00  0.00    -0.299 OA
ENDROOT
BRANCH   1   3
ATOM      3  C   UNL     1     -15.183  14.764   1.976  1.00  0.00     0.053 C 
ATOM      4  C   UNL     1     -16.053  15.905   1.430  1.00  0.00     0.016 C 
BRANCH   3   5
ATOM      5  C   UNL     1     -15.114  14.815   3.517  1.00  0.00     0.015 C 
BRANCH   5   6
ATOM      6  C   UNL     1     -13.866  14.085   4.056  1.00  0.00     0.028 C 
BRANCH   6   7
ATOM      7  C   UNL     1     -14.197  12.801   4.772  1.00  0.00    -0.028 C 
ATOM      8  C   UNL     1     -13.624  11.600   4.518  1.00  0.00    -0.070 CG0
ATOM      9  C   UNL     1     -14.147  10.402   5.270  1.00  0.00     0.039 C 
ATOM     10  G   UNL     1     -12.464  11.415   3.550  1.00  0.00     0.000 G0
ENDBRANCH   6   7
ENDBRANCH   5   6
ENDBRANCH   3   5
ENDBRANCH   1   3
BRANCH   1  11
ATOM     11  C   UNL     1     -12.959  13.565   1.213  1.00  0.00     0.087 C 
BRANCH  11  12
ATOM     12  C   UNL     1     -13.740  12.226   1.357  1.00  0.00     0.066 C 
BRANCH  12  13
ATOM     13  C   UNL     1     -12.925  11.185   2.118  1.00  0.00     0.140 C 
ATOM     14  O   UNL     1     -12.572  10.171   1.532  1.00  0.00    -0.299 OA
BRANCH  13  15
ATOM     15  C   UNL     1     -12.480  11.403   3.548  1.00  0.00     0.106 CG0
ATOM     16  G   UNL     1     -13.630  11.587   4.528  1.00  0.00     0.000 G0
ENDBRANCH  13  15
ENDBRANCH  12  13
BRANCH  12  17
ATOM     17  C   UNL     1     -14.346  11.653   0.033  1.00  0.00    -0.006 C 
ATOM     18  C   UNL     1     -15.112  12.718  -0.772  1.00  0.00     0.008 C 
ATOM     19  C   UNL     1     -15.300  10.481   0.330  1.00  0.00     0.008 C 
ENDBRANCH  12  17
ENDBRANCH  11  12
ENDBRANCH   1  11
TORSDOF 1
ENDMDL
MODEL 9
REMARK VINA RESULT:    -2.141      1.930      4.235
REMARK INTER + INTRA:          -3.094
REMARK INTER:                  -3.491
REMARK INTRA:                   0.397
REMARK UNBOUND:                 0.173
REMARK SMILES CC1=CCC[C@@H](C)C(=O)C[C@@H](C(C)C)C(=O)C1
REMARK SMILES IDX 8 1 9 2 6 3 7 4 5 5 4 6 3 7 2 8 1 9 10 11 11 12 15 13 16 14
REMARK SMILES IDX 17 15 12 17 13 18 14 19
REMARK H PARENT
REMARK Flexibility Score: 70.00
ROOT
ATOM      1  C   UNL     1     -14.352  12.048   4.419  1.00  0.00     0.136 C 
ATOM      2  O   UNL     1     -14.763  11.519   5.442  1.00  0.00    -0.299 OA
ENDROOT
BRANCH   1   3
ATOM      3  C   UNL     1     -13.373  13.206   4.520  1.00  0.00     0.053 C 
ATOM      4  C   UNL     1     -12.921  13.404   5.974  1.00  0.00     0.016 C 
BRANCH   3   5
ATOM      5  C   UNL     1     -13.994  14.502   3.957  1.00  0.00     0.015 C 
BRANCH   5   6
ATOM      6  C   UNL     1     -13.647  14.700   2.466  1.00  0.00     0.028 C 
BRANCH   6   7
ATOM      7  C   UNL     1     -14.863  14.752   1.579  1.00  0.00    -0.028 C 
ATOM      8  C   UNL     1     -15.012  14.061   0.423  1.00  0.00    -0.070 CG0
ATOM      9  C   UNL     1     -16.261  14.307  -0.385  1.00  0.00     0.039 C 
ATOM     10  G   UNL     1     -14.006  13.029  -0.069  1.00  0.00     0.000 G0
ENDBRANCH   6   7
ENDBRANCH   5   6
ENDBRANCH   3   5
ENDBRANCH   1   3
BRANCH   1  11
ATOM     11  C   UNL     1     -14.786  11.509   3.074  1.00  0.00     0.087 C 
BRANCH  11  12
ATOM     12  C   UNL     1     -13.656  11.389   2.010  1.00  0.00     0.066 C 
BRANCH  12  13
ATOM     13  C   UNL     1     -14.182  11.666   0.605  1.00  0.00     0.140 C 
ATOM     14  O   UNL     1     -14.811  10.791   0.028  1.00  0.00    -0.299 OA
BRANCH  13  15
ATOM     15  C   UNL     1     -14.011  13.014  -0.063  1.00  0.00     0.106 CG0
ATOM     16  G   UNL     1     -15.021  14.058   0.395  1.00  0.00     0.000 G0
ENDBRANCH  13  15
ENDBRANCH  12  13
BRANCH  12  17
ATOM     17  C   UNL     1     -12.804  10.077   2.076  1.00  0.00    -0.006 C 
ATOM     18  C   UNL     1     -12.071   9.920   3.420  1.00  0.00     0.008 C 
ATOM     19  C   UNL     1     -11.764  10.042   0.941  1.00  0.00     0.008 C 
ENDBRANCH  12  17
ENDBRANCH  11  12
ENDBRANCH   1  11
TORSDOF 1
ENDMDL
