MODEL 1
REMARK VINA RESULT:    -3.006      0.000      0.000
REMARK INTER + INTRA:          -5.094
REMARK INTER:                  -4.588
REMARK INTRA:                  -0.506
REMARK UNBOUND:                -0.506
REMARK SMILES CC1=CCC[C@H](C)C(=O)C[C@H](C(C)C)C(=O)C1
REMARK SMILES IDX 8 1 9 2 6 3 7 4 5 5 4 6 3 7 2 8 1 9 10 11 11 12 15 13 16 14
REMARK SMILES IDX 17 15 12 17 13 18 14 19
REMARK H PARENT
REMARK Flexibility Score: 70.00
ROOT
ATOM      1  C   UNL     1      26.266 -32.507 -11.797  1.00  0.00     0.136 C 
ATOM      2  O   UNL     1      25.239 -32.933 -11.287  1.00  0.00    -0.299 OA
ENDROOT
BRANCH   1   3
ATOM      3  C   UNL     1      27.474 -32.243 -10.918  1.00  0.00     0.053 C 
ATOM      4  C   UNL     1      27.184 -31.113  -9.923  1.00  0.00     0.016 C 
BRANCH   3   5
ATOM      5  C   UNL     1      27.877 -33.553 -10.187  1.00  0.00     0.015 C 
BRANCH   5   6
ATOM      6  C   UNL     1      29.099 -34.280 -10.781  1.00  0.00     0.028 C 
BRANCH   6   7
ATOM      7  C   UNL     1      28.827 -35.180 -11.970  1.00  0.00    -0.028 C 
ATOM      8  C   UNL     1      28.948 -34.849 -13.278  1.00  0.00    -0.070 CG0
ATOM      9  C   UNL     1      28.549 -35.874 -14.310  1.00  0.00     0.039 C 
ATOM     10  G   UNL     1      29.524 -33.530 -13.758  1.00  0.00     0.000 G0
ENDBRANCH   6   7
ENDBRANCH   5   6
ENDBRANCH   3   5
ENDBRANCH   1   3
BRANCH   1  11
ATOM     11  C   UNL     1      26.290 -32.262 -13.291  1.00  0.00     0.087 C 
BRANCH  11  12
ATOM     12  C   UNL     1      27.612 -31.624 -13.806  1.00  0.00     0.066 C 
BRANCH  12  13
ATOM     13  C   UNL     1      28.511 -32.642 -14.508  1.00  0.00     0.140 C 
ATOM     14  O   UNL     1      28.445 -32.745 -15.724  1.00  0.00    -0.299 OA
BRANCH  13  15
ATOM     15  C   UNL     1      29.511 -33.526 -13.779  1.00  0.00     0.106 CG0
ATOM     16  G   UNL     1      28.938 -34.836 -13.273  1.00  0.00     0.000 G0
ENDBRANCH  13  15
ENDBRANCH  12  13
BRANCH  12  17
ATOM     17  C   UNL     1      27.399 -30.362 -14.699  1.00  0.00    -0.006 C 
ATOM     18  C   UNL     1      26.096 -29.596 -14.418  1.00  0.00     0.008 C 
ATOM     19  C   UNL     1      28.598 -29.402 -14.625  1.00  0.00     0.008 C 
ENDBRANCH  12  17
ENDBRANCH  11  12
ENDBRANCH   1  11
TORSDOF 1
ENDMDL
MODEL 2
REMARK VINA RESULT:    -2.952     10.913     12.758
REMARK INTER + INTRA:          -5.012
REMARK INTER:                  -5.045
REMARK INTRA:                   0.033
REMARK UNBOUND:                -0.506
REMARK SMILES CC1=CCC[C@H](C)C(=O)C[C@H](C(C)C)C(=O)C1
REMARK SMILES IDX 8 1 9 2 6 3 7 4 5 5 4 6 3 7 2 8 1 9 10 11 11 12 15 13 16 14
REMARK SMILES IDX 17 15 12 17 13 18 14 19
REMARK H PARENT
REMARK Flexibility Score: 70.00
ROOT
ATOM      1  C   UNL     1      28.521 -44.105 -20.185  1.00  0.00     0.136 C 
ATOM      2  O   UNL     1      28.577 -45.224 -20.676  1.00  0.00    -0.299 OA
ENDROOT
BRANCH   1   3
ATOM      3  C   UNL     1      28.729 -43.942 -18.691  1.00  0.00     0.053 C 
ATOM      4  C   UNL     1      29.694 -45.007 -18.158  1.00  0.00     0.016 C 
BRANCH   3   5
ATOM      5  C   UNL     1      29.247 -42.507 -18.395  1.00  0.00     0.015 C 
BRANCH   5   6
ATOM      6  C   UNL     1      28.163 -41.496 -17.974  1.00  0.00     0.028 C 
BRANCH   6   7
ATOM      7  C   UNL     1      26.824 -42.083 -17.573  1.00  0.00    -0.028 C 
ATOM      8  C   UNL     1      25.700 -42.121 -18.328  1.00  0.00    -0.070 CG0
ATOM      9  C   UNL     1      24.445 -42.681 -17.706  1.00  0.00     0.039 C 
ATOM     10  G   UNL     1      25.653 -41.692 -19.782  1.00  0.00     0.000 G0
ENDBRANCH   6   7
ENDBRANCH   5   6
ENDBRANCH   3   5
ENDBRANCH   1   3
BRANCH   1  11
ATOM     11  C   UNL     1      28.248 -42.924 -21.093  1.00  0.00     0.087 C 
BRANCH  11  12
ATOM     12  C   UNL     1      26.861 -42.977 -21.797  1.00  0.00     0.066 C 
BRANCH  12  13
ATOM     13  C   UNL     1      25.705 -42.813 -20.812  1.00  0.00     0.140 C 
ATOM     14  O   UNL     1      24.804 -43.639 -20.818  1.00  0.00    -0.299 OA
BRANCH  13  15
ATOM     15  C   UNL     1      25.618 -41.686 -19.794  1.00  0.00     0.106 CG0
ATOM     16  G   UNL     1      25.703 -42.138 -18.349  1.00  0.00     0.000 G0
ENDBRANCH  13  15
ENDBRANCH  12  13
BRANCH  12  17
ATOM     17  C   UNL     1      26.720 -41.980 -22.989  1.00  0.00    -0.006 C 
ATOM     18  C   UNL     1      27.200 -40.550 -22.684  1.00  0.00     0.008 C 
ATOM     19  C   UNL     1      27.413 -42.505 -24.257  1.00  0.00     0.008 C 
ENDBRANCH  12  17
ENDBRANCH  11  12
ENDBRANCH   1  11
TORSDOF 1
ENDMDL
MODEL 3
REMARK VINA RESULT:    -2.857     15.089     16.604
REMARK INTER + INTRA:          -4.866
REMARK INTER:                  -4.690
REMARK INTRA:                  -0.175
REMARK UNBOUND:                -0.506
REMARK SMILES CC1=CCC[C@H](C)C(=O)C[C@H](C(C)C)C(=O)C1
REMARK SMILES IDX 8 1 9 2 6 3 7 4 5 5 4 6 3 7 2 8 1 9 10 11 11 12 15 13 16 14
REMARK SMILES IDX 17 15 12 17 13 18 14 19
REMARK H PARENT
REMARK Flexibility Score: 70.00
ROOT
ATOM      1  C   UNL     1      12.530 -37.453 -20.060  1.00  0.00     0.136 C 
ATOM      2  O   UNL     1      12.748 -36.271 -20.290  1.00  0.00    -0.299 OA
ENDROOT
BRANCH   1   3
ATOM      3  C   UNL     1      12.607 -38.453 -21.197  1.00  0.00     0.053 C 
ATOM      4  C   UNL     1      11.502 -38.191 -22.227  1.00  0.00     0.016 C 
BRANCH   3   5
ATOM      5  C   UNL     1      14.017 -38.387 -21.849  1.00  0.00     0.015 C 
BRANCH   5   6
ATOM      6  C   UNL     1      15.103 -39.215 -21.136  1.00  0.00     0.028 C 
BRANCH   6   7
ATOM      7  C   UNL     1      16.267 -38.433 -20.560  1.00  0.00    -0.028 C 
ATOM      8  C   UNL     1      16.563 -38.275 -19.248  1.00  0.00    -0.070 CG0
ATOM      9  C   UNL     1      17.727 -37.386 -18.884  1.00  0.00     0.039 C 
ATOM     10  G   UNL     1      15.831 -38.994 -18.131  1.00  0.00     0.000 G0
ENDBRANCH   6   7
ENDBRANCH   5   6
ENDBRANCH   3   5
ENDBRANCH   1   3
BRANCH   1  11
ATOM     11  C   UNL     1      12.191 -37.870 -18.644  1.00  0.00     0.087 C 
BRANCH  11  12
ATOM     12  C   UNL     1      13.150 -38.944 -18.056  1.00  0.00     0.066 C 
BRANCH  12  13
ATOM     13  C   UNL     1      14.519 -38.366 -17.699  1.00  0.00     0.140 C 
ATOM     14  O   UNL     1      14.571 -37.343 -17.031  1.00  0.00    -0.299 OA
BRANCH  13  15
ATOM     15  C   UNL     1      15.836 -39.007 -18.107  1.00  0.00     0.106 CG0
ATOM     16  G   UNL     1      16.549 -38.305 -19.248  1.00  0.00     0.000 G0
ENDBRANCH  13  15
ENDBRANCH  12  13
BRANCH  12  17
ATOM     17  C   UNL     1      12.550 -39.734 -16.851  1.00  0.00    -0.006 C 
ATOM     18  C   UNL     1      13.584 -40.517 -16.024  1.00  0.00     0.008 C 
ATOM     19  C   UNL     1      11.722 -38.825 -15.929  1.00  0.00     0.008 C 
ENDBRANCH  12  17
ENDBRANCH  11  12
ENDBRANCH   1  11
TORSDOF 1
ENDMDL
MODEL 4
REMARK VINA RESULT:    -2.714     11.443     13.283
REMARK INTER + INTRA:          -4.647
REMARK INTER:                  -4.196
REMARK INTRA:                  -0.451
REMARK UNBOUND:                -0.506
REMARK SMILES CC1=CCC[C@H](C)C(=O)C[C@H](C(C)C)C(=O)C1
REMARK SMILES IDX 8 1 9 2 6 3 7 4 5 5 4 6 3 7 2 8 1 9 10 11 11 12 15 13 16 14
REMARK SMILES IDX 17 15 12 17 13 18 14 19
REMARK H PARENT
REMARK Flexibility Score: 70.00
ROOT
ATOM      1  C   UNL     1      26.706 -43.526 -17.933  1.00  0.00     0.136 C 
ATOM      2  O   UNL     1      26.035 -42.930 -17.102  1.00  0.00    -0.299 OA
ENDROOT
BRANCH   1   3
ATOM      3  C   UNL     1      28.209 -43.323 -17.954  1.00  0.00     0.053 C 
ATOM      4  C   UNL     1      28.908 -44.510 -18.627  1.00  0.00     0.016 C 
BRANCH   3   5
ATOM      5  C   UNL     1      28.540 -41.987 -18.674  1.00  0.00     0.015 C 
BRANCH   5   6
ATOM      6  C   UNL     1      29.227 -42.139 -20.045  1.00  0.00     0.028 C 
BRANCH   6   7
ATOM      7  C   UNL     1      28.444 -41.638 -21.243  1.00  0.00    -0.028 C 
ATOM      8  C   UNL     1      27.660 -42.378 -22.062  1.00  0.00    -0.070 CG0
ATOM      9  C   UNL     1      27.030 -41.695 -23.250  1.00  0.00     0.039 C 
ATOM     10  G   UNL     1      27.330 -43.838 -21.812  1.00  0.00     0.000 G0
ENDBRANCH   6   7
ENDBRANCH   5   6
ENDBRANCH   3   5
ENDBRANCH   1   3
BRANCH   1  11
ATOM     11  C   UNL     1      26.006 -44.446 -18.911  1.00  0.00     0.087 C 
BRANCH  11  12
ATOM     12  C   UNL     1      25.300 -43.704 -20.082  1.00  0.00     0.066 C 
BRANCH  12  13
ATOM     13  C   UNL     1      25.877 -44.090 -21.444  1.00  0.00     0.140 C 
ATOM     14  O   UNL     1      25.140 -44.609 -22.269  1.00  0.00    -0.299 OA
BRANCH  13  15
ATOM     15  C   UNL     1      27.321 -43.840 -21.848  1.00  0.00     0.106 CG0
ATOM     16  G   UNL     1      27.667 -42.380 -22.072  1.00  0.00     0.000 G0
ENDBRANCH  13  15
ENDBRANCH  12  13
BRANCH  12  17
ATOM     17  C   UNL     1      23.746 -43.848 -20.076  1.00  0.00    -0.006 C 
ATOM     18  C   UNL     1      23.206 -44.882 -19.073  1.00  0.00     0.008 C 
ATOM     19  C   UNL     1      23.048 -42.496 -19.861  1.00  0.00     0.008 C 
ENDBRANCH  12  17
ENDBRANCH  11  12
ENDBRANCH   1  11
TORSDOF 1
ENDMDL
MODEL 5
REMARK VINA RESULT:    -2.683     13.814     15.828
REMARK INTER + INTRA:          -4.600
REMARK INTER:                  -4.177
REMARK INTRA:                  -0.423
REMARK UNBOUND:                -0.506
REMARK SMILES CC1=CCC[C@H](C)C(=O)C[C@H](C(C)C)C(=O)C1
REMARK SMILES IDX 8 1 9 2 6 3 7 4 5 5 4 6 3 7 2 8 1 9 10 11 11 12 15 13 16 14
REMARK SMILES IDX 17 15 12 17 13 18 14 19
REMARK H PARENT
REMARK Flexibility Score: 70.00
ROOT
ATOM      1  C   UNL     1      20.815 -45.295 -10.528  1.00  0.00     0.136 C 
ATOM      2  O   UNL     1      21.443 -45.562 -11.544  1.00  0.00    -0.299 OA
ENDROOT
BRANCH   1   3
ATOM      3  C   UNL     1      19.727 -44.240 -10.587  1.00  0.00     0.053 C 
ATOM      4  C   UNL     1      20.077 -43.156 -11.613  1.00  0.00     0.016 C 
BRANCH   3   5
ATOM      5  C   UNL     1      18.368 -44.917 -10.920  1.00  0.00     0.015 C 
BRANCH   5   6
ATOM      6  C   UNL     1      17.459 -45.184  -9.704  1.00  0.00     0.028 C 
BRANCH   6   7
ATOM      7  C   UNL     1      17.568 -44.196  -8.560  1.00  0.00    -0.028 C 
ATOM      8  C   UNL     1      18.155 -44.414  -7.359  1.00  0.00    -0.070 CG0
ATOM      9  C   UNL     1      18.083 -43.317  -6.324  1.00  0.00     0.039 C 
ATOM     10  G   UNL     1      18.933 -45.672  -7.022  1.00  0.00     0.000 G0
ENDBRANCH   6   7
ENDBRANCH   5   6
ENDBRANCH   3   5
ENDBRANCH   1   3
BRANCH   1  11
ATOM     11  C   UNL     1      21.151 -46.034  -9.250  1.00  0.00     0.087 C 
BRANCH  11  12
ATOM     12  C   UNL     1      21.371 -45.103  -8.023  1.00  0.00     0.066 C 
BRANCH  12  13
ATOM     13  C   UNL     1      20.442 -45.449  -6.859  1.00  0.00     0.140 C 
ATOM     14  O   UNL     1      20.913 -45.537  -5.735  1.00  0.00    -0.299 OA
BRANCH  13  15
ATOM     15  C   UNL     1      18.945 -45.667  -7.014  1.00  0.00     0.106 CG0
ATOM     16  G   UNL     1      18.161 -44.414  -7.358  1.00  0.00     0.000 G0
ENDBRANCH  13  15
ENDBRANCH  12  13
BRANCH  12  17
ATOM     17  C   UNL     1      22.855 -45.029  -7.545  1.00  0.00    -0.006 C 
ATOM     18  C   UNL     1      23.824 -45.926  -8.333  1.00  0.00     0.008 C 
ATOM     19  C   UNL     1      23.377 -43.584  -7.526  1.00  0.00     0.008 C 
ENDBRANCH  12  17
ENDBRANCH  11  12
ENDBRANCH   1  11
TORSDOF 1
ENDMDL
MODEL 6
REMARK VINA RESULT:    -2.668     10.880     12.829
REMARK INTER + INTRA:          -4.577
REMARK INTER:                  -4.170
REMARK INTRA:                  -0.407
REMARK UNBOUND:                -0.506
REMARK SMILES CC1=CCC[C@H](C)C(=O)C[C@H](C(C)C)C(=O)C1
REMARK SMILES IDX 8 1 9 2 6 3 7 4 5 5 4 6 3 7 2 8 1 9 10 11 11 12 15 13 16 14
REMARK SMILES IDX 17 15 12 17 13 18 14 19
REMARK H PARENT
REMARK Flexibility Score: 70.00
ROOT
ATOM      1  C   UNL     1      27.173 -44.207 -17.530  1.00  0.00     0.136 C 
ATOM      2  O   UNL     1      27.286 -44.606 -16.379  1.00  0.00    -0.299 OA
ENDROOT
BRANCH   1   3
ATOM      3  C   UNL     1      28.395 -43.670 -18.249  1.00  0.00     0.053 C 
ATOM      4  C   UNL     1      29.421 -43.128 -17.247  1.00  0.00     0.016 C 
BRANCH   3   5
ATOM      5  C   UNL     1      29.007 -44.790 -19.136  1.00  0.00     0.015 C 
BRANCH   5   6
ATOM      6  C   UNL     1      28.614 -44.728 -20.625  1.00  0.00     0.028 C 
BRANCH   6   7
ATOM      7  C   UNL     1      28.352 -43.346 -21.189  1.00  0.00    -0.028 C 
ATOM      8  C   UNL     1      27.144 -42.811 -21.488  1.00  0.00    -0.070 CG0
ATOM      9  C   UNL     1      27.110 -41.441 -22.119  1.00  0.00     0.039 C 
ATOM     10  G   UNL     1      25.825 -43.487 -21.162  1.00  0.00     0.000 G0
ENDBRANCH   6   7
ENDBRANCH   5   6
ENDBRANCH   3   5
ENDBRANCH   1   3
BRANCH   1  11
ATOM     11  C   UNL     1      25.812 -44.268 -18.191  1.00  0.00     0.087 C 
BRANCH  11  12
ATOM     12  C   UNL     1      25.249 -42.878 -18.605  1.00  0.00     0.066 C 
BRANCH  12  13
ATOM     13  C   UNL     1      24.972 -42.789 -20.105  1.00  0.00     0.140 C 
ATOM     14  O   UNL     1      24.035 -42.106 -20.492  1.00  0.00    -0.299 OA
BRANCH  13  15
ATOM     15  C   UNL     1      25.817 -43.485 -21.161  1.00  0.00     0.106 CG0
ATOM     16  G   UNL     1      27.130 -42.791 -21.470  1.00  0.00     0.000 G0
ENDBRANCH  13  15
ENDBRANCH  12  13
BRANCH  12  17
ATOM     17  C   UNL     1      24.000 -42.433 -17.782  1.00  0.00    -0.006 C 
ATOM     18  C   UNL     1      23.354 -43.552 -16.949  1.00  0.00     0.008 C 
ATOM     19  C   UNL     1      24.309 -41.224 -16.885  1.00  0.00     0.008 C 
ENDBRANCH  12  17
ENDBRANCH  11  12
ENDBRANCH   1  11
TORSDOF 1
ENDMDL
MODEL 7
REMARK VINA RESULT:    -2.647      8.630     11.228
REMARK INTER + INTRA:          -4.546
REMARK INTER:                  -4.041
REMARK INTRA:                  -0.504
REMARK UNBOUND:                -0.506
REMARK SMILES CC1=CCC[C@H](C)C(=O)C[C@H](C(C)C)C(=O)C1
REMARK SMILES IDX 8 1 9 2 6 3 7 4 5 5 4 6 3 7 2 8 1 9 10 11 11 12 15 13 16 14
REMARK SMILES IDX 17 15 12 17 13 18 14 19
REMARK H PARENT
REMARK Flexibility Score: 70.00
ROOT
ATOM      1  C   UNL     1      27.050 -42.653 -16.850  1.00  0.00     0.136 C 
ATOM      2  O   UNL     1      26.511 -43.220 -15.909  1.00  0.00    -0.299 OA
ENDROOT
BRANCH   1   3
ATOM      3  C   UNL     1      28.526 -42.888 -17.107  1.00  0.00     0.053 C 
ATOM      4  C   UNL     1      29.333 -42.744 -15.812  1.00  0.00     0.016 C 
BRANCH   3   5
ATOM      5  C   UNL     1      28.723 -44.292 -17.744  1.00  0.00     0.015 C 
BRANCH   5   6
ATOM      6  C   UNL     1      28.938 -44.291 -19.270  1.00  0.00     0.028 C 
BRANCH   6   7
ATOM      7  C   UNL     1      27.685 -44.370 -20.120  1.00  0.00    -0.028 C 
ATOM      8  C   UNL     1      27.073 -43.342 -20.754  1.00  0.00    -0.070 CG0
ATOM      9  C   UNL     1      25.785 -43.624 -21.486  1.00  0.00     0.039 C 
ATOM     10  G   UNL     1      27.647 -41.938 -20.822  1.00  0.00     0.000 G0
ENDBRANCH   6   7
ENDBRANCH   5   6
ENDBRANCH   3   5
ENDBRANCH   1   3
BRANCH   1  11
ATOM     11  C   UNL     1      26.217 -41.739 -17.723  1.00  0.00     0.087 C 
BRANCH  11  12
ATOM     12  C   UNL     1      27.052 -40.707 -18.535  1.00  0.00     0.066 C 
BRANCH  12  13
ATOM     13  C   UNL     1      26.889 -40.889 -20.043  1.00  0.00     0.140 C 
ATOM     14  O   UNL     1      26.133 -40.143 -20.648  1.00  0.00    -0.299 OA
BRANCH  13  15
ATOM     15  C   UNL     1      27.640 -41.936 -20.851  1.00  0.00     0.106 CG0
ATOM     16  G   UNL     1      27.073 -43.339 -20.740  1.00  0.00     0.000 G0
ENDBRANCH  13  15
ENDBRANCH  12  13
BRANCH  12  17
ATOM     17  C   UNL     1      26.795 -39.223 -18.123  1.00  0.00    -0.006 C 
ATOM     18  C   UNL     1      25.422 -38.970 -17.479  1.00  0.00     0.008 C 
ATOM     19  C   UNL     1      27.909 -38.683 -17.212  1.00  0.00     0.008 C 
ENDBRANCH  12  17
ENDBRANCH  11  12
ENDBRANCH   1  11
TORSDOF 1
ENDMDL
MODEL 8
REMARK VINA RESULT:    -2.617      2.889      5.240
REMARK INTER + INTRA:          -4.500
REMARK INTER:                  -4.362
REMARK INTRA:                  -0.138
REMARK UNBOUND:                -0.506
REMARK SMILES CC1=CCC[C@H](C)C(=O)C[C@H](C(C)C)C(=O)C1
REMARK SMILES IDX 8 1 9 2 6 3 7 4 5 5 4 6 3 7 2 8 1 9 10 11 11 12 15 13 16 14
REMARK SMILES IDX 17 15 12 17 13 18 14 19
REMARK H PARENT
REMARK Flexibility Score: 70.00
ROOT
ATOM      1  C   UNL     1      25.397 -28.208 -16.243  1.00  0.00     0.136 C 
ATOM      2  O   UNL     1      24.653 -27.586 -16.990  1.00  0.00    -0.299 OA
ENDROOT
BRANCH   1   3
ATOM      3  C   UNL     1      26.885 -27.918 -16.272  1.00  0.00     0.053 C 
ATOM      4  C   UNL     1      27.147 -26.462 -16.673  1.00  0.00     0.016 C 
BRANCH   3   5
ATOM      5  C   UNL     1      27.501 -28.243 -14.883  1.00  0.00     0.015 C 
BRANCH   5   6
ATOM      6  C   UNL     1      28.461 -29.449 -14.862  1.00  0.00     0.028 C 
BRANCH   6   7
ATOM      7  C   UNL     1      28.513 -30.238 -13.569  1.00  0.00    -0.028 C 
ATOM      8  C   UNL     1      27.820 -31.366 -13.284  1.00  0.00    -0.070 CG0
ATOM      9  C   UNL     1      27.956 -31.952 -11.900  1.00  0.00     0.039 C 
ATOM     10  G   UNL     1      26.967 -32.105 -14.298  1.00  0.00     0.000 G0
ENDBRANCH   6   7
ENDBRANCH   5   6
ENDBRANCH   3   5
ENDBRANCH   1   3
BRANCH   1  11
ATOM     11  C   UNL     1      24.797 -29.245 -15.317  1.00  0.00     0.087 C 
BRANCH  11  12
ATOM     12  C   UNL     1      25.144 -30.712 -15.702  1.00  0.00     0.066 C 
BRANCH  12  13
ATOM     13  C   UNL     1      25.553 -31.548 -14.490  1.00  0.00     0.140 C 
ATOM     14  O   UNL     1      24.716 -31.794 -13.635  1.00  0.00    -0.299 OA
BRANCH  13  15
ATOM     15  C   UNL     1      26.949 -32.120 -14.294  1.00  0.00     0.106 CG0
ATOM     16  G   UNL     1      27.805 -31.358 -13.301  1.00  0.00     0.000 G0
ENDBRANCH  13  15
ENDBRANCH  12  13
BRANCH  12  17
ATOM     17  C   UNL     1      24.026 -31.431 -16.521  1.00  0.00    -0.006 C 
ATOM     18  C   UNL     1      22.594 -31.098 -16.072  1.00  0.00     0.008 C 
ATOM     19  C   UNL     1      24.174 -31.181 -18.030  1.00  0.00     0.008 C 
ENDBRANCH  12  17
ENDBRANCH  11  12
ENDBRANCH   1  11
TORSDOF 1
ENDMDL
MODEL 9
REMARK VINA RESULT:    -2.536      8.669     11.798
REMARK INTER + INTRA:          -4.377
REMARK INTER:                  -4.115
REMARK INTRA:                  -0.262
REMARK UNBOUND:                -0.506
REMARK SMILES CC1=CCC[C@H](C)C(=O)C[C@H](C(C)C)C(=O)C1
REMARK SMILES IDX 8 1 9 2 6 3 7 4 5 5 4 6 3 7 2 8 1 9 10 11 11 12 15 13 16 14
REMARK SMILES IDX 17 15 12 17 13 18 14 19
REMARK H PARENT
REMARK Flexibility Score: 70.00
ROOT
ATOM      1  C   UNL     1      28.341 -44.004 -19.810  1.00  0.00     0.136 C 
ATOM      2  O   UNL     1      28.464 -44.738 -20.781  1.00  0.00    -0.299 OA
ENDROOT
BRANCH   1   3
ATOM      3  C   UNL     1      28.394 -44.604 -18.418  1.00  0.00     0.053 C 
ATOM      4  C   UNL     1      29.354 -45.799 -18.378  1.00  0.00     0.016 C 
BRANCH   3   5
ATOM      5  C   UNL     1      28.810 -43.508 -17.398  1.00  0.00     0.015 C 
BRANCH   5   6
ATOM      6  C   UNL     1      27.733 -43.146 -16.356  1.00  0.00     0.028 C 
BRANCH   6   7
ATOM      7  C   UNL     1      27.653 -41.684 -15.961  1.00  0.00    -0.028 C 
ATOM      8  C   UNL     1      26.903 -40.727 -16.557  1.00  0.00    -0.070 CG0
ATOM      9  C   UNL     1      27.030 -39.310 -16.055  1.00  0.00     0.039 C 
ATOM     10  G   UNL     1      25.896 -41.014 -17.656  1.00  0.00     0.000 G0
ENDBRANCH   6   7
ENDBRANCH   5   6
ENDBRANCH   3   5
ENDBRANCH   1   3
BRANCH   1  11
ATOM     11  C   UNL     1      28.141 -42.521 -20.039  1.00  0.00     0.087 C 
BRANCH  11  12
ATOM     12  C   UNL     1      26.652 -42.070 -19.998  1.00  0.00     0.066 C 
BRANCH  12  13
ATOM     13  C   UNL     1      26.433 -40.879 -19.067  1.00  0.00     0.140 C 
ATOM     14  O   UNL     1      26.694 -39.757 -19.475  1.00  0.00    -0.299 OA
BRANCH  13  15
ATOM     15  C   UNL     1      25.878 -41.004 -17.656  1.00  0.00     0.106 CG0
ATOM     16  G   UNL     1      26.887 -40.722 -16.558  1.00  0.00     0.000 G0
ENDBRANCH  13  15
ENDBRANCH  12  13
BRANCH  12  17
ATOM     17  C   UNL     1      26.037 -41.795 -21.406  1.00  0.00    -0.006 C 
ATOM     18  C   UNL     1      27.067 -41.444 -22.493  1.00  0.00     0.008 C 
ATOM     19  C   UNL     1      25.153 -42.960 -21.880  1.00  0.00     0.008 C 
ENDBRANCH  12  17
ENDBRANCH  11  12
ENDBRANCH   1  11
TORSDOF 1
ENDMDL
