MODEL 1
REMARK VINA RESULT:    -7.257      0.000      0.000
REMARK INTER + INTRA:         -12.343
REMARK INTER:                 -10.651
REMARK INTRA:                  -1.692
REMARK UNBOUND:                -1.692
REMARK SMILES O=c1c(O[C@H]2O[C@@H](CO)[C@@H](O)[C@H](O)[C@@H]2O)c(-c2ccc(O)c(O)c2)oc2cc(O)cc(O)c12
REMARK SMILES IDX 4 1 3 2 16 3 25 4 2 5 26 6 1 7 33 8 27 9 31 10 28 11 30 12
REMARK SMILES IDX 17 13 18 14 19 15 20 16 24 17 22 18 21 19 23 21 32 23 29 25
REMARK SMILES IDX 5 27 14 28 6 29 12 30 7 31 10 32 15 33 13 35 8 37 9 38 11 40
REMARK H PARENT 21 20 23 22 32 24 29 26 15 34 13 36 9 39 11 41
REMARK Flexibility Score: inf
ROOT
ATOM      1  O   UNL     1     -37.825   5.002  81.944  1.00  0.00    -0.454 OA
ENDROOT
BRANCH   1   2
ATOM      2  C   UNL     1     -38.500   4.320  80.871  1.00  0.00     0.214 A 
ATOM      3  C   UNL     1     -37.993   4.199  79.533  1.00  0.00     0.180 A 
ATOM      4  O   UNL     1     -38.659   3.438  78.649  1.00  0.00    -0.452 OA
ATOM      5  C   UNL     1     -39.828   3.892  81.094  1.00  0.00     0.239 A 
ATOM      6  C   UNL     1     -39.936   3.138  78.788  1.00  0.00     0.146 A 
ATOM      7  O   UNL     1     -40.349   4.047  82.226  1.00  0.00    -0.285 OA
ATOM      8  C   UNL     1     -40.594   3.398  80.008  1.00  0.00     0.111 A 
ATOM      9  C   UNL     1     -40.649   2.768  77.648  1.00  0.00     0.094 A 
ATOM     10  C   UNL     1     -42.013   3.257  80.056  1.00  0.00     0.134 A 
ATOM     11  C   UNL     1     -42.047   2.715  77.684  1.00  0.00     0.123 A 
ATOM     12  C   UNL     1     -42.718   2.969  78.884  1.00  0.00     0.093 A 
BRANCH   3  13
ATOM     13  C   UNL     1     -36.898   5.053  78.979  1.00  0.00     0.025 A 
ATOM     14  C   UNL     1     -37.166   6.290  78.299  1.00  0.00     0.016 A 
ATOM     15  C   UNL     1     -36.113   7.132  77.922  1.00  0.00     0.051 A 
ATOM     16  C   UNL     1     -34.778   6.739  78.131  1.00  0.00     0.157 A 
ATOM     17  C   UNL     1     -35.576   4.788  79.370  1.00  0.00     0.062 A 
ATOM     18  C   UNL     1     -34.497   5.552  78.880  1.00  0.00     0.158 A 
BRANCH  16  19
ATOM     19  O   UNL     1     -33.765   7.493  77.542  1.00  0.00    -0.504 OA
ATOM     20  H   UNL     1     -33.991   8.205  76.856  1.00  0.00     0.293 HD
ENDBRANCH  16  19
BRANCH  18  21
ATOM     21  O   UNL     1     -33.189   5.087  79.166  1.00  0.00    -0.504 OA
ATOM     22  H   UNL     1     -32.463   5.609  79.642  1.00  0.00     0.293 HD
ENDBRANCH  18  21
ENDBRANCH   3  13
BRANCH  10  23
ATOM     23  O   UNL     1     -42.725   3.543  81.219  1.00  0.00    -0.507 OA
ATOM     24  H   UNL     1     -42.651   2.944  82.045  1.00  0.00     0.293 HD
ENDBRANCH  10  23
BRANCH  11  25
ATOM     25  O   UNL     1     -42.740   2.570  76.496  1.00  0.00    -0.508 OA
ATOM     26  H   UNL     1     -43.712   2.278  76.471  1.00  0.00     0.293 HD
ENDBRANCH  11  25
ENDBRANCH   1   2
BRANCH   1  27
ATOM     27  C   UNL     1     -37.895   6.403  82.245  1.00  0.00     0.339 C 
ATOM     28  C   UNL     1     -36.609   7.125  81.787  1.00  0.00     0.214 C 
ATOM     29  O   UNL     1     -38.188   6.645  83.628  1.00  0.00    -0.332 OA
ATOM     30  C   UNL     1     -35.416   6.812  82.711  1.00  0.00     0.180 C 
ATOM     31  C   UNL     1     -37.138   6.371  84.548  1.00  0.00     0.179 C 
ATOM     32  C   UNL     1     -35.811   7.126  84.175  1.00  0.00     0.177 C 
BRANCH  28  33
ATOM     33  O   UNL     1     -36.814   8.517  81.660  1.00  0.00    -0.384 OA
ATOM     34  H   UNL     1     -36.343   8.818  80.838  1.00  0.00     0.211 HD
ENDBRANCH  28  33
BRANCH  30  35
ATOM     35  O   UNL     1     -34.319   7.600  82.332  1.00  0.00    -0.387 OA
ATOM     36  H   UNL     1     -33.919   7.969  83.164  1.00  0.00     0.211 HD
ENDBRANCH  30  35
BRANCH  31  37
ATOM     37  C   UNL     1     -37.084   4.873  84.946  1.00  0.00     0.191 C 
BRANCH  37  38
ATOM     38  O   UNL     1     -38.318   4.234  84.690  1.00  0.00    -0.394 OA
ATOM     39  H   UNL     1     -39.021   4.574  85.322  1.00  0.00     0.210 HD
ENDBRANCH  37  38
ENDBRANCH  31  37
BRANCH  32  40
ATOM     40  O   UNL     1     -34.805   6.884  85.125  1.00  0.00    -0.387 OA
ATOM     41  H   UNL     1     -34.815   7.594  85.822  1.00  0.00     0.211 HD
ENDBRANCH  32  40
ENDBRANCH   1  27
TORSDOF 12
ENDMDL
MODEL 2
REMARK VINA RESULT:    -7.208      1.176      1.707
REMARK INTER + INTRA:         -12.271
REMARK INTER:                 -11.679
REMARK INTRA:                  -0.592
REMARK UNBOUND:                -1.692
REMARK SMILES O=c1c(O[C@H]2O[C@@H](CO)[C@@H](O)[C@H](O)[C@@H]2O)c(-c2ccc(O)c(O)c2)oc2cc(O)cc(O)c12
REMARK SMILES IDX 4 1 3 2 16 3 25 4 2 5 26 6 1 7 33 8 27 9 31 10 28 11 30 12
REMARK SMILES IDX 17 13 18 14 19 15 20 16 24 17 22 18 21 19 23 21 32 23 29 25
REMARK SMILES IDX 5 27 14 28 6 29 12 30 7 31 10 32 15 33 13 35 8 37 9 38 11 40
REMARK H PARENT 21 20 23 22 32 24 29 26 15 34 13 36 9 39 11 41
REMARK Flexibility Score: inf
ROOT
ATOM      1  O   UNL     1     -37.725   4.915  81.871  1.00  0.00    -0.454 OA
ENDROOT
BRANCH   1   2
ATOM      2  C   UNL     1     -38.428   4.256  80.802  1.00  0.00     0.214 A 
ATOM      3  C   UNL     1     -37.954   4.158  79.450  1.00  0.00     0.180 A 
ATOM      4  O   UNL     1     -38.644   3.416  78.569  1.00  0.00    -0.452 OA
ATOM      5  C   UNL     1     -39.752   3.826  81.050  1.00  0.00     0.239 A 
ATOM      6  C   UNL     1     -39.919   3.117  78.734  1.00  0.00     0.146 A 
ATOM      7  O   UNL     1     -40.243   3.961  82.197  1.00  0.00    -0.285 OA
ATOM      8  C   UNL     1     -40.546   3.355  79.974  1.00  0.00     0.111 A 
ATOM      9  C   UNL     1     -40.661   2.771  77.605  1.00  0.00     0.094 A 
ATOM     10  C   UNL     1     -41.963   3.217  80.055  1.00  0.00     0.134 A 
ATOM     11  C   UNL     1     -42.058   2.721  77.674  1.00  0.00     0.123 A 
ATOM     12  C   UNL     1     -42.698   2.953  78.895  1.00  0.00     0.093 A 
BRANCH   3  13
ATOM     13  C   UNL     1     -36.871   5.020  78.886  1.00  0.00     0.025 A 
ATOM     14  C   UNL     1     -37.158   6.190  78.102  1.00  0.00     0.016 A 
ATOM     15  C   UNL     1     -36.124   7.050  77.713  1.00  0.00     0.051 A 
ATOM     16  C   UNL     1     -34.786   6.737  78.014  1.00  0.00     0.157 A 
ATOM     17  C   UNL     1     -35.560   4.847  79.358  1.00  0.00     0.062 A 
ATOM     18  C   UNL     1     -34.492   5.622  78.863  1.00  0.00     0.158 A 
BRANCH  16  19
ATOM     19  O   UNL     1     -33.779   7.493  77.418  1.00  0.00    -0.504 OA
ATOM     20  H   UNL     1     -32.887   7.068  77.190  1.00  0.00     0.293 HD
ENDBRANCH  16  19
BRANCH  18  21
ATOM     21  O   UNL     1     -33.182   5.242  79.244  1.00  0.00    -0.504 OA
ATOM     22  H   UNL     1     -32.403   5.869  79.404  1.00  0.00     0.293 HD
ENDBRANCH  18  21
ENDBRANCH   3  13
BRANCH  10  23
ATOM     23  O   UNL     1     -42.645   3.482  81.240  1.00  0.00    -0.507 OA
ATOM     24  H   UNL     1     -42.690   2.790  81.991  1.00  0.00     0.293 HD
ENDBRANCH  10  23
BRANCH  11  25
ATOM     25  O   UNL     1     -42.780   2.600  76.501  1.00  0.00    -0.508 OA
ATOM     26  H   UNL     1     -42.943   3.390  75.885  1.00  0.00     0.293 HD
ENDBRANCH  11  25
ENDBRANCH   1   2
BRANCH   1  27
ATOM     27  C   UNL     1     -38.055   4.869  83.267  1.00  0.00     0.339 C 
ATOM     28  C   UNL     1     -37.901   6.264  83.911  1.00  0.00     0.214 C 
ATOM     29  O   UNL     1     -37.306   3.865  83.966  1.00  0.00    -0.332 OA
ATOM     30  C   UNL     1     -36.421   6.649  84.098  1.00  0.00     0.180 C 
ATOM     31  C   UNL     1     -35.925   4.142  84.172  1.00  0.00     0.179 C 
ATOM     32  C   UNL     1     -35.699   5.526  84.882  1.00  0.00     0.177 C 
BRANCH  28  33
ATOM     33  O   UNL     1     -38.617   6.356  85.125  1.00  0.00    -0.384 OA
ATOM     34  H   UNL     1     -37.979   6.639  85.832  1.00  0.00     0.211 HD
ENDBRANCH  28  33
BRANCH  30  35
ATOM     35  O   UNL     1     -36.343   7.856  84.810  1.00  0.00    -0.387 OA
ATOM     36  H   UNL     1     -35.754   8.466  84.292  1.00  0.00     0.211 HD
ENDBRANCH  30  35
BRANCH  31  37
ATOM     37  C   UNL     1     -35.061   3.758  82.943  1.00  0.00     0.191 C 
BRANCH  37  38
ATOM     38  O   UNL     1     -33.785   3.302  83.341  1.00  0.00    -0.394 OA
ATOM     39  H   UNL     1     -33.803   3.022  84.306  1.00  0.00     0.210 HD
ENDBRANCH  37  38
ENDBRANCH  31  37
BRANCH  32  40
ATOM     40  O   UNL     1     -34.334   5.755  85.123  1.00  0.00    -0.387 OA
ATOM     41  H   UNL     1     -34.117   6.716  84.979  1.00  0.00     0.211 HD
ENDBRANCH  32  40
ENDBRANCH   1  27
TORSDOF 12
ENDMDL
MODEL 3
REMARK VINA RESULT:    -6.950      9.914     13.371
REMARK INTER + INTRA:         -11.893
REMARK INTER:                 -10.661
REMARK INTRA:                  -1.233
REMARK UNBOUND:                -1.692
REMARK SMILES O=c1c(O[C@H]2O[C@@H](CO)[C@@H](O)[C@H](O)[C@@H]2O)c(-c2ccc(O)c(O)c2)oc2cc(O)cc(O)c12
REMARK SMILES IDX 4 1 3 2 16 3 25 4 2 5 26 6 1 7 33 8 27 9 31 10 28 11 30 12
REMARK SMILES IDX 17 13 18 14 19 15 20 16 24 17 22 18 21 19 23 21 32 23 29 25
REMARK SMILES IDX 5 27 14 28 6 29 12 30 7 31 10 32 15 33 13 35 8 37 9 38 11 40
REMARK H PARENT 21 20 23 22 32 24 29 26 15 34 13 36 9 39 11 41
REMARK Flexibility Score: inf
ROOT
ATOM      1  O   UNL     1     -42.154  -5.562  80.528  1.00  0.00    -0.454 OA
ENDROOT
BRANCH   1   2
ATOM      2  C   UNL     1     -41.094  -6.324  81.136  1.00  0.00     0.214 A 
ATOM      3  C   UNL     1     -40.282  -5.867  82.228  1.00  0.00     0.180 A 
ATOM      4  O   UNL     1     -39.403  -6.715  82.787  1.00  0.00    -0.452 OA
ATOM      5  C   UNL     1     -40.707  -7.530  80.509  1.00  0.00     0.239 A 
ATOM      6  C   UNL     1     -38.940  -7.778  82.156  1.00  0.00     0.146 A 
ATOM      7  O   UNL     1     -41.335  -7.935  79.500  1.00  0.00    -0.285 OA
ATOM      8  C   UNL     1     -39.543  -8.207  80.956  1.00  0.00     0.111 A 
ATOM      9  C   UNL     1     -37.729  -8.318  82.587  1.00  0.00     0.094 A 
ATOM     10  C   UNL     1     -38.895  -9.224  80.197  1.00  0.00     0.134 A 
ATOM     11  C   UNL     1     -37.057  -9.254  81.792  1.00  0.00     0.123 A 
ATOM     12  C   UNL     1     -37.641  -9.693  80.600  1.00  0.00     0.093 A 
BRANCH   3  13
ATOM     13  C   UNL     1     -40.173  -4.434  82.639  1.00  0.00     0.025 A 
ATOM     14  C   UNL     1     -41.322  -3.575  82.724  1.00  0.00     0.016 A 
ATOM     15  C   UNL     1     -41.201  -2.284  83.250  1.00  0.00     0.051 A 
ATOM     16  C   UNL     1     -39.941  -1.782  83.625  1.00  0.00     0.157 A 
ATOM     17  C   UNL     1     -38.973  -3.991  83.221  1.00  0.00     0.062 A 
ATOM     18  C   UNL     1     -38.803  -2.652  83.625  1.00  0.00     0.158 A 
BRANCH  16  19
ATOM     19  O   UNL     1     -39.830  -0.427  83.927  1.00  0.00    -0.504 OA
ATOM     20  H   UNL     1     -40.489   0.011  84.561  1.00  0.00     0.293 HD
ENDBRANCH  16  19
BRANCH  18  21
ATOM     21  O   UNL     1     -37.500  -2.250  84.009  1.00  0.00    -0.504 OA
ATOM     22  H   UNL     1     -37.273  -1.487  84.636  1.00  0.00     0.293 HD
ENDBRANCH  18  21
ENDBRANCH   3  13
BRANCH  10  23
ATOM     23  O   UNL     1     -39.418  -9.658  78.980  1.00  0.00    -0.507 OA
ATOM     24  H   UNL     1     -39.866 -10.574  78.894  1.00  0.00     0.293 HD
ENDBRANCH  10  23
BRANCH  11  25
ATOM     25  O   UNL     1     -35.762  -9.605  82.125  1.00  0.00    -0.508 OA
ATOM     26  H   UNL     1     -34.960  -9.250  81.613  1.00  0.00     0.293 HD
ENDBRANCH  11  25
ENDBRANCH   1   2
BRANCH   1  27
ATOM     27  C   UNL     1     -43.488  -5.400  81.033  1.00  0.00     0.339 C 
ATOM     28  C   UNL     1     -44.230  -6.754  81.059  1.00  0.00     0.214 C 
ATOM     29  O   UNL     1     -44.218  -4.396  80.314  1.00  0.00    -0.332 OA
ATOM     30  C   UNL     1     -44.637  -7.212  79.645  1.00  0.00     0.180 C 
ATOM     31  C   UNL     1     -44.624  -4.741  78.994  1.00  0.00     0.179 C 
ATOM     32  C   UNL     1     -45.440  -6.083  78.956  1.00  0.00     0.177 C 
BRANCH  28  33
ATOM     33  O   UNL     1     -45.340  -6.719  81.931  1.00  0.00    -0.384 OA
ATOM     34  H   UNL     1     -45.019  -6.960  82.840  1.00  0.00     0.211 HD
ENDBRANCH  28  33
BRANCH  30  35
ATOM     35  O   UNL     1     -45.424  -8.369  79.743  1.00  0.00    -0.387 OA
ATOM     36  H   UNL     1     -44.810  -9.130  79.925  1.00  0.00     0.211 HD
ENDBRANCH  30  35
BRANCH  31  37
ATOM     37  C   UNL     1     -43.500  -4.494  77.954  1.00  0.00     0.191 C 
BRANCH  37  38
ATOM     38  O   UNL     1     -42.804  -5.690  77.664  1.00  0.00    -0.394 OA
ATOM     39  H   UNL     1     -43.455  -6.441  77.514  1.00  0.00     0.210 HD
ENDBRANCH  37  38
ENDBRANCH  31  37
BRANCH  32  40
ATOM     40  O   UNL     1     -45.875  -6.375  77.653  1.00  0.00    -0.387 OA
ATOM     41  H   UNL     1     -46.706  -6.923  77.684  1.00  0.00     0.211 HD
ENDBRANCH  32  40
ENDBRANCH   1  27
TORSDOF 12
ENDMDL
MODEL 4
REMARK VINA RESULT:    -6.504      2.095      7.358
REMARK INTER + INTRA:         -11.237
REMARK INTER:                  -9.652
REMARK INTRA:                  -1.586
REMARK UNBOUND:                -1.692
REMARK SMILES O=c1c(O[C@H]2O[C@@H](CO)[C@@H](O)[C@H](O)[C@@H]2O)c(-c2ccc(O)c(O)c2)oc2cc(O)cc(O)c12
REMARK SMILES IDX 4 1 3 2 16 3 25 4 2 5 26 6 1 7 33 8 27 9 31 10 28 11 30 12
REMARK SMILES IDX 17 13 18 14 19 15 20 16 24 17 22 18 21 19 23 21 32 23 29 25
REMARK SMILES IDX 5 27 14 28 6 29 12 30 7 31 10 32 15 33 13 35 8 37 9 38 11 40
REMARK H PARENT 21 20 23 22 32 24 29 26 15 34 13 36 9 39 11 41
REMARK Flexibility Score: inf
ROOT
ATOM      1  O   UNL     1     -37.823   4.779  79.054  1.00  0.00    -0.454 OA
ENDROOT
BRANCH   1   2
ATOM      2  C   UNL     1     -36.645   5.395  79.606  1.00  0.00     0.214 A 
ATOM      3  C   UNL     1     -36.201   5.240  80.963  1.00  0.00     0.180 A 
ATOM      4  O   UNL     1     -35.022   5.770  81.328  1.00  0.00    -0.452 OA
ATOM      5  C   UNL     1     -35.973   6.356  78.817  1.00  0.00     0.239 A 
ATOM      6  C   UNL     1     -34.449   6.756  80.665  1.00  0.00     0.146 A 
ATOM      7  O   UNL     1     -36.370   6.588  77.649  1.00  0.00    -0.285 OA
ATOM      8  C   UNL     1     -34.932   7.128  79.394  1.00  0.00     0.111 A 
ATOM      9  C   UNL     1     -33.515   7.542  81.340  1.00  0.00     0.094 A 
ATOM     10  C   UNL     1     -34.429   8.323  78.800  1.00  0.00     0.134 A 
ATOM     11  C   UNL     1     -33.091   8.755  80.787  1.00  0.00     0.123 A 
ATOM     12  C   UNL     1     -33.558   9.140  79.527  1.00  0.00     0.093 A 
BRANCH   3  13
ATOM     13  C   UNL     1     -37.071   4.733  82.068  1.00  0.00     0.025 A 
ATOM     14  C   UNL     1     -37.823   5.618  82.915  1.00  0.00     0.016 A 
ATOM     15  C   UNL     1     -38.735   5.102  83.843  1.00  0.00     0.051 A 
ATOM     16  C   UNL     1     -38.867   3.712  84.015  1.00  0.00     0.157 A 
ATOM     17  C   UNL     1     -37.379   3.363  82.106  1.00  0.00     0.062 A 
ATOM     18  C   UNL     1     -38.188   2.820  83.124  1.00  0.00     0.158 A 
BRANCH  16  19
ATOM     19  O   UNL     1     -39.610   3.246  85.097  1.00  0.00    -0.504 OA
ATOM     20  H   UNL     1     -39.221   3.269  86.032  1.00  0.00     0.293 HD
ENDBRANCH  16  19
BRANCH  18  21
ATOM     21  O   UNL     1     -38.277   1.408  83.199  1.00  0.00    -0.504 OA
ATOM     22  H   UNL     1     -37.854   0.821  83.908  1.00  0.00     0.293 HD
ENDBRANCH  18  21
ENDBRANCH   3  13
BRANCH  10  23
ATOM     23  O   UNL     1     -34.900   8.767  77.566  1.00  0.00    -0.507 OA
ATOM     24  H   UNL     1     -35.461   9.619  77.490  1.00  0.00     0.293 HD
ENDBRANCH  10  23
BRANCH  11  25
ATOM     25  O   UNL     1     -32.346   9.620  81.567  1.00  0.00    -0.508 OA
ATOM     26  H   UNL     1     -32.302   9.531  82.578  1.00  0.00     0.293 HD
ENDBRANCH  11  25
ENDBRANCH   1   2
BRANCH   1  27
ATOM     27  C   UNL     1     -39.056   5.435  78.725  1.00  0.00     0.339 C 
ATOM     28  C   UNL     1     -39.917   5.644  79.989  1.00  0.00     0.214 C 
ATOM     29  O   UNL     1     -39.774   4.748  77.689  1.00  0.00    -0.332 OA
ATOM     30  C   UNL     1     -40.550   4.327  80.477  1.00  0.00     0.180 C 
ATOM     31  C   UNL     1     -40.381   3.516  78.059  1.00  0.00     0.179 C 
ATOM     32  C   UNL     1     -41.323   3.670  79.308  1.00  0.00     0.177 C 
BRANCH  28  33
ATOM     33  O   UNL     1     -40.895   6.645  79.790  1.00  0.00    -0.384 OA
ATOM     34  H   UNL     1     -40.606   7.201  79.019  1.00  0.00     0.211 HD
ENDBRANCH  28  33
BRANCH  30  35
ATOM     35  O   UNL     1     -41.427   4.600  81.538  1.00  0.00    -0.387 OA
ATOM     36  H   UNL     1     -42.335   4.311  81.252  1.00  0.00     0.211 HD
ENDBRANCH  30  35
BRANCH  31  37
ATOM     37  C   UNL     1     -39.386   2.328  77.990  1.00  0.00     0.191 C 
BRANCH  37  38
ATOM     38  O   UNL     1     -38.769   2.107  79.242  1.00  0.00    -0.394 OA
ATOM     39  H   UNL     1     -38.110   1.351  79.173  1.00  0.00     0.210 HD
ENDBRANCH  37  38
ENDBRANCH  31  37
BRANCH  32  40
ATOM     40  O   UNL     1     -41.953   2.454  79.622  1.00  0.00    -0.387 OA
ATOM     41  H   UNL     1     -42.919   2.607  79.806  1.00  0.00     0.211 HD
ENDBRANCH  32  40
ENDBRANCH   1  27
TORSDOF 12
ENDMDL
MODEL 5
REMARK VINA RESULT:    -6.342      2.887      5.355
REMARK INTER + INTRA:         -11.000
REMARK INTER:                  -9.434
REMARK INTRA:                  -1.566
REMARK UNBOUND:                -1.692
REMARK SMILES O=c1c(O[C@H]2O[C@@H](CO)[C@@H](O)[C@H](O)[C@@H]2O)c(-c2ccc(O)c(O)c2)oc2cc(O)cc(O)c12
REMARK SMILES IDX 4 1 3 2 16 3 25 4 2 5 26 6 1 7 33 8 27 9 31 10 28 11 30 12
REMARK SMILES IDX 17 13 18 14 19 15 20 16 24 17 22 18 21 19 23 21 32 23 29 25
REMARK SMILES IDX 5 27 14 28 6 29 12 30 7 31 10 32 15 33 13 35 8 37 9 38 11 40
REMARK H PARENT 21 20 23 22 32 24 29 26 15 34 13 36 9 39 11 41
REMARK Flexibility Score: inf
ROOT
ATOM      1  O   UNL     1     -38.951   6.407  79.858  1.00  0.00    -0.454 OA
ENDROOT
BRANCH   1   2
ATOM      2  C   UNL     1     -38.682   5.555  80.987  1.00  0.00     0.214 A 
ATOM      3  C   UNL     1     -37.380   5.334  81.553  1.00  0.00     0.180 A 
ATOM      4  O   UNL     1     -37.273   4.610  82.679  1.00  0.00    -0.452 OA
ATOM      5  C   UNL     1     -39.735   4.743  81.465  1.00  0.00     0.239 A 
ATOM      6  C   UNL     1     -38.200   3.754  83.066  1.00  0.00     0.146 A 
ATOM      7  O   UNL     1     -40.876   4.839  80.950  1.00  0.00    -0.285 OA
ATOM      8  C   UNL     1     -39.463   3.749  82.440  1.00  0.00     0.111 A 
ATOM      9  C   UNL     1     -37.824   2.735  83.941  1.00  0.00     0.094 A 
ATOM     10  C   UNL     1     -40.362   2.683  82.736  1.00  0.00     0.134 A 
ATOM     11  C   UNL     1     -38.680   1.650  84.160  1.00  0.00     0.123 A 
ATOM     12  C   UNL     1     -39.937   1.627  83.549  1.00  0.00     0.093 A 
BRANCH   3  13
ATOM     13  C   UNL     1     -36.103   5.654  80.847  1.00  0.00     0.025 A 
ATOM     14  C   UNL     1     -35.541   4.782  79.852  1.00  0.00     0.016 A 
ATOM     15  C   UNL     1     -34.423   5.182  79.111  1.00  0.00     0.051 A 
ATOM     16  C   UNL     1     -33.787   6.407  79.387  1.00  0.00     0.157 A 
ATOM     17  C   UNL     1     -35.585   6.956  80.950  1.00  0.00     0.062 A 
ATOM     18  C   UNL     1     -34.382   7.322  80.314  1.00  0.00     0.158 A 
BRANCH  16  19
ATOM     19  O   UNL     1     -32.556   6.663  78.789  1.00  0.00    -0.504 OA
ATOM     20  H   UNL     1     -31.744   6.105  79.031  1.00  0.00     0.293 HD
ENDBRANCH  16  19
BRANCH  18  21
ATOM     21  O   UNL     1     -33.834   8.587  80.639  1.00  0.00    -0.504 OA
ATOM     22  H   UNL     1     -32.884   8.764  80.942  1.00  0.00     0.293 HD
ENDBRANCH  18  21
ENDBRANCH   3  13
BRANCH  10  23
ATOM     23  O   UNL     1     -41.607   2.597  82.116  1.00  0.00    -0.507 OA
ATOM     24  H   UNL     1     -42.130   3.438  81.861  1.00  0.00     0.293 HD
ENDBRANCH  10  23
BRANCH  11  25
ATOM     25  O   UNL     1     -38.200   0.550  84.847  1.00  0.00    -0.508 OA
ATOM     26  H   UNL     1     -37.253   0.514  85.212  1.00  0.00     0.293 HD
ENDBRANCH  11  25
ENDBRANCH   1   2
BRANCH   1  27
ATOM     27  C   UNL     1     -38.980   7.842  79.859  1.00  0.00     0.339 C 
ATOM     28  C   UNL     1     -40.433   8.358  79.797  1.00  0.00     0.214 C 
ATOM     29  O   UNL     1     -38.163   8.399  78.820  1.00  0.00    -0.332 OA
ATOM     30  C   UNL     1     -41.048   8.177  78.396  1.00  0.00     0.180 C 
ATOM     31  C   UNL     1     -38.658   8.263  77.493  1.00  0.00     0.179 C 
ATOM     32  C   UNL     1     -40.117   8.828  77.344  1.00  0.00     0.177 C 
BRANCH  28  33
ATOM     33  O   UNL     1     -40.525   9.700  80.232  1.00  0.00    -0.384 OA
ATOM     34  H   UNL     1     -41.355  10.087  79.845  1.00  0.00     0.211 HD
ENDBRANCH  28  33
BRANCH  30  35
ATOM     35  O   UNL     1     -42.311   8.787  78.362  1.00  0.00    -0.387 OA
ATOM     36  H   UNL     1     -42.821   8.454  79.148  1.00  0.00     0.211 HD
ENDBRANCH  30  35
BRANCH  31  37
ATOM     37  C   UNL     1     -38.299   6.888  76.871  1.00  0.00     0.191 C 
BRANCH  37  38
ATOM     38  O   UNL     1     -39.412   6.017  76.885  1.00  0.00    -0.394 OA
ATOM     39  H   UNL     1     -39.281   5.280  76.215  1.00  0.00     0.210 HD
ENDBRANCH  37  38
ENDBRANCH  31  37
BRANCH  32  40
ATOM     40  O   UNL     1     -40.565   8.733  76.016  1.00  0.00    -0.387 OA
ATOM     41  H   UNL     1     -40.733   9.641  75.645  1.00  0.00     0.211 HD
ENDBRANCH  32  40
ENDBRANCH   1  27
TORSDOF 12
ENDMDL
MODEL 6
REMARK VINA RESULT:    -6.304      3.086      7.356
REMARK INTER + INTRA:         -10.944
REMARK INTER:                  -9.664
REMARK INTRA:                  -1.280
REMARK UNBOUND:                -1.692
REMARK SMILES O=c1c(O[C@H]2O[C@@H](CO)[C@@H](O)[C@H](O)[C@@H]2O)c(-c2ccc(O)c(O)c2)oc2cc(O)cc(O)c12
REMARK SMILES IDX 4 1 3 2 16 3 25 4 2 5 26 6 1 7 33 8 27 9 31 10 28 11 30 12
REMARK SMILES IDX 17 13 18 14 19 15 20 16 24 17 22 18 21 19 23 21 32 23 29 25
REMARK SMILES IDX 5 27 14 28 6 29 12 30 7 31 10 32 15 33 13 35 8 37 9 38 11 40
REMARK H PARENT 21 20 23 22 32 24 29 26 15 34 13 36 9 39 11 41
REMARK Flexibility Score: inf
ROOT
ATOM      1  O   UNL     1     -38.075   7.358  78.502  1.00  0.00    -0.454 OA
ENDROOT
BRANCH   1   2
ATOM      2  C   UNL     1     -37.248   6.436  79.235  1.00  0.00     0.214 A 
ATOM      3  C   UNL     1     -37.633   5.099  79.591  1.00  0.00     0.180 A 
ATOM      4  O   UNL     1     -36.730   4.293  80.172  1.00  0.00    -0.452 OA
ATOM      5  C   UNL     1     -36.048   6.928  79.795  1.00  0.00     0.239 A 
ATOM      6  C   UNL     1     -35.669   4.754  80.809  1.00  0.00     0.146 A 
ATOM      7  O   UNL     1     -35.704   8.116  79.581  1.00  0.00    -0.285 OA
ATOM      8  C   UNL     1     -35.307   6.111  80.687  1.00  0.00     0.111 A 
ATOM      9  C   UNL     1     -35.063   3.927  81.754  1.00  0.00     0.094 A 
ATOM     10  C   UNL     1     -34.288   6.620  81.545  1.00  0.00     0.134 A 
ATOM     11  C   UNL     1     -34.126   4.457  82.648  1.00  0.00     0.123 A 
ATOM     12  C   UNL     1     -33.752   5.800  82.542  1.00  0.00     0.093 A 
BRANCH   3  13
ATOM     13  C   UNL     1     -39.045   4.610  79.578  1.00  0.00     0.025 A 
ATOM     14  C   UNL     1     -39.714   4.243  78.360  1.00  0.00     0.016 A 
ATOM     15  C   UNL     1     -40.984   3.655  78.401  1.00  0.00     0.051 A 
ATOM     16  C   UNL     1     -41.654   3.491  79.627  1.00  0.00     0.157 A 
ATOM     17  C   UNL     1     -39.639   4.237  80.795  1.00  0.00     0.062 A 
ATOM     18  C   UNL     1     -40.969   3.773  80.853  1.00  0.00     0.158 A 
BRANCH  16  19
ATOM     19  O   UNL     1     -42.995   3.115  79.605  1.00  0.00    -0.504 OA
ATOM     20  H   UNL     1     -43.557   3.175  80.446  1.00  0.00     0.293 HD
ENDBRANCH  16  19
BRANCH  18  21
ATOM     21  O   UNL     1     -41.547   3.616  82.137  1.00  0.00    -0.504 OA
ATOM     22  H   UNL     1     -41.865   4.363  82.742  1.00  0.00     0.293 HD
ENDBRANCH  18  21
ENDBRANCH   3  13
BRANCH  10  23
ATOM     23  O   UNL     1     -33.917   7.962  81.504  1.00  0.00    -0.507 OA
ATOM     24  H   UNL     1     -33.491   8.369  80.668  1.00  0.00     0.293 HD
ENDBRANCH  10  23
BRANCH  11  25
ATOM     25  O   UNL     1     -33.709   3.681  83.714  1.00  0.00    -0.508 OA
ATOM     26  H   UNL     1     -32.742   3.666  84.024  1.00  0.00     0.293 HD
ENDBRANCH  11  25
ENDBRANCH   1   2
BRANCH   1  27
ATOM     27  C   UNL     1     -38.596   8.606  78.982  1.00  0.00     0.339 C 
ATOM     28  C   UNL     1     -40.068   8.450  79.422  1.00  0.00     0.214 C 
ATOM     29  O   UNL     1     -38.425   9.665  78.030  1.00  0.00    -0.332 OA
ATOM     30  C   UNL     1     -41.017   8.323  78.215  1.00  0.00     0.180 C 
ATOM     31  C   UNL     1     -39.261   9.614  76.879  1.00  0.00     0.179 C 
ATOM     32  C   UNL     1     -40.783   9.516  77.257  1.00  0.00     0.177 C 
BRANCH  28  33
ATOM     33  O   UNL     1     -40.465   9.497  80.283  1.00  0.00    -0.384 OA
ATOM     34  H   UNL     1     -39.694   9.713  80.872  1.00  0.00     0.211 HD
ENDBRANCH  28  33
BRANCH  30  35
ATOM     35  O   UNL     1     -42.344   8.325  78.668  1.00  0.00    -0.387 OA
ATOM     36  H   UNL     1     -42.930   8.394  77.866  1.00  0.00     0.211 HD
ENDBRANCH  30  35
BRANCH  31  37
ATOM     37  C   UNL     1     -38.681   8.692  75.776  1.00  0.00     0.191 C 
BRANCH  37  38
ATOM     38  O   UNL     1     -39.397   7.475  75.701  1.00  0.00    -0.394 OA
ATOM     39  H   UNL     1     -38.957   6.855  75.044  1.00  0.00     0.210 HD
ENDBRANCH  37  38
ENDBRANCH  31  37
BRANCH  32  40
ATOM     40  O   UNL     1     -41.592   9.521  76.108  1.00  0.00    -0.387 OA
ATOM     41  H   UNL     1     -41.973   8.615  75.953  1.00  0.00     0.211 HD
ENDBRANCH  32  40
ENDBRANCH   1  27
TORSDOF 12
ENDMDL
MODEL 7
REMARK VINA RESULT:    -6.293      2.065      5.862
REMARK INTER + INTRA:         -10.929
REMARK INTER:                  -9.516
REMARK INTRA:                  -1.413
REMARK UNBOUND:                -1.692
REMARK SMILES O=c1c(O[C@H]2O[C@@H](CO)[C@@H](O)[C@H](O)[C@@H]2O)c(-c2ccc(O)c(O)c2)oc2cc(O)cc(O)c12
REMARK SMILES IDX 4 1 3 2 16 3 25 4 2 5 26 6 1 7 33 8 27 9 31 10 28 11 30 12
REMARK SMILES IDX 17 13 18 14 19 15 20 16 24 17 22 18 21 19 23 21 32 23 29 25
REMARK SMILES IDX 5 27 14 28 6 29 12 30 7 31 10 32 15 33 13 35 8 37 9 38 11 40
REMARK H PARENT 21 20 23 22 32 24 29 26 15 34 13 36 9 39 11 41
REMARK Flexibility Score: inf
ROOT
ATOM      1  O   UNL     1     -37.108   4.427  80.976  1.00  0.00    -0.454 OA
ENDROOT
BRANCH   1   2
ATOM      2  C   UNL     1     -37.384   5.601  80.189  1.00  0.00     0.214 A 
ATOM      3  C   UNL     1     -38.631   5.868  79.529  1.00  0.00     0.180 A 
ATOM      4  O   UNL     1     -38.808   7.053  78.923  1.00  0.00    -0.452 OA
ATOM      5  C   UNL     1     -36.306   6.467  79.897  1.00  0.00     0.239 A 
ATOM      6  C   UNL     1     -37.800   7.810  78.533  1.00  0.00     0.146 A 
ATOM      7  O   UNL     1     -35.173   6.234  80.384  1.00  0.00    -0.285 OA
ATOM      8  C   UNL     1     -36.490   7.521  78.966  1.00  0.00     0.111 A 
ATOM      9  C   UNL     1     -38.037   8.750  77.530  1.00  0.00     0.094 A 
ATOM     10  C   UNL     1     -35.406   8.226  78.365  1.00  0.00     0.134 A 
ATOM     11  C   UNL     1     -36.962   9.374  76.887  1.00  0.00     0.123 A 
ATOM     12  C   UNL     1     -35.656   9.101  77.303  1.00  0.00     0.093 A 
BRANCH   3  13
ATOM     13  C   UNL     1     -39.669   4.826  79.262  1.00  0.00     0.025 A 
ATOM     14  C   UNL     1     -39.585   3.936  78.137  1.00  0.00     0.016 A 
ATOM     15  C   UNL     1     -40.496   2.882  78.001  1.00  0.00     0.051 A 
ATOM     16  C   UNL     1     -41.553   2.731  78.917  1.00  0.00     0.157 A 
ATOM     17  C   UNL     1     -40.594   4.524  80.275  1.00  0.00     0.062 A 
ATOM     18  C   UNL     1     -41.602   3.556  80.086  1.00  0.00     0.158 A 
BRANCH  16  19
ATOM     19  O   UNL     1     -42.561   1.816  78.621  1.00  0.00    -0.504 OA
ATOM     20  H   UNL     1     -43.410   2.123  78.159  1.00  0.00     0.293 HD
ENDBRANCH  16  19
BRANCH  18  21
ATOM     21  O   UNL     1     -42.608   3.464  81.079  1.00  0.00    -0.504 OA
ATOM     22  H   UNL     1     -43.387   4.100  81.198  1.00  0.00     0.293 HD
ENDBRANCH  18  21
ENDBRANCH   3  13
BRANCH  10  23
ATOM     23  O   UNL     1     -34.086   7.953  78.717  1.00  0.00    -0.507 OA
ATOM     24  H   UNL     1     -33.578   8.551  79.373  1.00  0.00     0.293 HD
ENDBRANCH  10  23
BRANCH  11  25
ATOM     25  O   UNL     1     -37.208  10.125  75.752  1.00  0.00    -0.508 OA
ATOM     26  H   UNL     1     -37.780   9.776  74.990  1.00  0.00     0.293 HD
ENDBRANCH  11  25
ENDBRANCH   1   2
BRANCH   1  27
ATOM     27  C   UNL     1     -37.744   4.055  82.207  1.00  0.00     0.339 C 
ATOM     28  C   UNL     1     -38.123   5.308  83.026  1.00  0.00     0.214 C 
ATOM     29  O   UNL     1     -36.951   3.131  82.966  1.00  0.00    -0.332 OA
ATOM     30  C   UNL     1     -36.888   5.970  83.666  1.00  0.00     0.180 C 
ATOM     31  C   UNL     1     -35.785   3.665  83.583  1.00  0.00     0.179 C 
ATOM     32  C   UNL     1     -36.109   4.911  84.484  1.00  0.00     0.177 C 
BRANCH  28  33
ATOM     33  O   UNL     1     -39.111   5.015  83.992  1.00  0.00    -0.384 OA
ATOM     34  H   UNL     1     -39.960   4.830  83.510  1.00  0.00     0.211 HD
ENDBRANCH  28  33
BRANCH  30  35
ATOM     35  O   UNL     1     -37.305   7.013  84.506  1.00  0.00    -0.387 OA
ATOM     36  H   UNL     1     -36.753   7.810  84.284  1.00  0.00     0.211 HD
ENDBRANCH  30  35
BRANCH  31  37
ATOM     37  C   UNL     1     -34.579   3.713  82.610  1.00  0.00     0.191 C 
BRANCH  37  38
ATOM     38  O   UNL     1     -33.384   3.328  83.260  1.00  0.00    -0.394 OA
ATOM     39  H   UNL     1     -33.415   3.598  84.228  1.00  0.00     0.210 HD
ENDBRANCH  37  38
ENDBRANCH  31  37
BRANCH  32  40
ATOM     40  O   UNL     1     -34.953   5.389  85.124  1.00  0.00    -0.387 OA
ATOM     41  H   UNL     1     -34.976   6.383  85.176  1.00  0.00     0.211 HD
ENDBRANCH  32  40
ENDBRANCH   1  27
TORSDOF 12
ENDMDL
MODEL 8
REMARK VINA RESULT:    -6.272      1.879      6.123
REMARK INTER + INTRA:         -10.897
REMARK INTER:                 -10.524
REMARK INTRA:                  -0.373
REMARK UNBOUND:                -1.692
REMARK SMILES O=c1c(O[C@H]2O[C@@H](CO)[C@@H](O)[C@H](O)[C@@H]2O)c(-c2ccc(O)c(O)c2)oc2cc(O)cc(O)c12
REMARK SMILES IDX 4 1 3 2 16 3 25 4 2 5 26 6 1 7 33 8 27 9 31 10 28 11 30 12
REMARK SMILES IDX 17 13 18 14 19 15 20 16 24 17 22 18 21 19 23 21 32 23 29 25
REMARK SMILES IDX 5 27 14 28 6 29 12 30 7 31 10 32 15 33 13 35 8 37 9 38 11 40
REMARK H PARENT 21 20 23 22 32 24 29 26 15 34 13 36 9 39 11 41
REMARK Flexibility Score: inf
ROOT
ATOM      1  O   UNL     1     -39.376   5.843  82.395  1.00  0.00    -0.454 OA
ENDROOT
BRANCH   1   2
ATOM      2  C   UNL     1     -38.313   6.202  81.492  1.00  0.00     0.214 A 
ATOM      3  C   UNL     1     -38.275   5.860  80.098  1.00  0.00     0.180 A 
ATOM      4  O   UNL     1     -37.289   6.353  79.332  1.00  0.00    -0.452 OA
ATOM      5  C   UNL     1     -37.145   6.776  82.044  1.00  0.00     0.239 A 
ATOM      6  C   UNL     1     -36.143   6.775  79.832  1.00  0.00     0.146 A 
ATOM      7  O   UNL     1     -37.096   7.021  83.274  1.00  0.00    -0.285 OA
ATOM      8  C   UNL     1     -36.003   6.960  81.223  1.00  0.00     0.111 A 
ATOM      9  C   UNL     1     -35.036   6.821  78.984  1.00  0.00     0.094 A 
ATOM     10  C   UNL     1     -34.701   7.213  81.746  1.00  0.00     0.134 A 
ATOM     11  C   UNL     1     -33.753   6.985  79.517  1.00  0.00     0.123 A 
ATOM     12  C   UNL     1     -33.595   7.171  80.894  1.00  0.00     0.093 A 
BRANCH   3  13
ATOM     13  C   UNL     1     -39.125   4.797  79.480  1.00  0.00     0.025 A 
ATOM     14  C   UNL     1     -40.507   5.019  79.154  1.00  0.00     0.016 A 
ATOM     15  C   UNL     1     -41.230   4.051  78.447  1.00  0.00     0.051 A 
ATOM     16  C   UNL     1     -40.637   2.818  78.118  1.00  0.00     0.157 A 
ATOM     17  C   UNL     1     -38.498   3.657  78.953  1.00  0.00     0.062 A 
ATOM     18  C   UNL     1     -39.241   2.615  78.362  1.00  0.00     0.158 A 
BRANCH  16  19
ATOM     19  O   UNL     1     -41.451   1.803  77.621  1.00  0.00    -0.504 OA
ATOM     20  H   UNL     1     -41.521   0.918  78.109  1.00  0.00     0.293 HD
ENDBRANCH  16  19
BRANCH  18  21
ATOM     21  O   UNL     1     -38.548   1.421  78.044  1.00  0.00    -0.504 OA
ATOM     22  H   UNL     1     -37.657   1.359  77.566  1.00  0.00     0.293 HD
ENDBRANCH  18  21
ENDBRANCH   3  13
BRANCH  10  23
ATOM     23  O   UNL     1     -34.493   7.359  83.116  1.00  0.00    -0.507 OA
ATOM     24  H   UNL     1     -34.814   6.650  83.779  1.00  0.00     0.293 HD
ENDBRANCH  10  23
BRANCH  11  25
ATOM     25  O   UNL     1     -32.659   6.802  78.691  1.00  0.00    -0.508 OA
ATOM     26  H   UNL     1     -32.337   5.878  78.421  1.00  0.00     0.293 HD
ENDBRANCH  11  25
ENDBRANCH   1   2
BRANCH   1  27
ATOM     27  C   UNL     1     -39.228   5.320  83.724  1.00  0.00     0.339 C 
ATOM     28  C   UNL     1     -38.091   4.277  83.777  1.00  0.00     0.214 C 
ATOM     29  O   UNL     1     -40.462   4.802  84.240  1.00  0.00    -0.332 OA
ATOM     30  C   UNL     1     -38.500   2.947  83.116  1.00  0.00     0.180 C 
ATOM     31  C   UNL     1     -40.914   3.578  83.672  1.00  0.00     0.179 C 
ATOM     32  C   UNL     1     -39.822   2.450  83.749  1.00  0.00     0.177 C 
BRANCH  28  33
ATOM     33  O   UNL     1     -37.633   4.078  85.098  1.00  0.00    -0.384 OA
ATOM     34  H   UNL     1     -37.241   3.166  85.149  1.00  0.00     0.211 HD
ENDBRANCH  28  33
BRANCH  30  35
ATOM     35  O   UNL     1     -37.486   1.999  83.317  1.00  0.00    -0.387 OA
ATOM     36  H   UNL     1     -37.797   1.145  82.912  1.00  0.00     0.211 HD
ENDBRANCH  30  35
BRANCH  31  37
ATOM     37  C   UNL     1     -41.699   3.799  82.353  1.00  0.00     0.191 C 
BRANCH  37  38
ATOM     38  O   UNL     1     -41.634   2.657  81.524  1.00  0.00    -0.394 OA
ATOM     39  H   UNL     1     -42.388   2.029  81.741  1.00  0.00     0.210 HD
ENDBRANCH  37  38
ENDBRANCH  31  37
BRANCH  32  40
ATOM     40  O   UNL     1     -40.308   1.237  83.233  1.00  0.00    -0.387 OA
ATOM     41  H   UNL     1     -40.545   0.619  83.976  1.00  0.00     0.211 HD
ENDBRANCH  32  40
ENDBRANCH   1  27
TORSDOF 12
ENDMDL
MODEL 9
REMARK VINA RESULT:    -5.599      2.286      5.812
REMARK INTER + INTRA:          -9.910
REMARK INTER:                  -8.355
REMARK INTRA:                  -1.555
REMARK UNBOUND:                -1.692
REMARK SMILES O=c1c(O[C@H]2O[C@@H](CO)[C@@H](O)[C@H](O)[C@@H]2O)c(-c2ccc(O)c(O)c2)oc2cc(O)cc(O)c12
REMARK SMILES IDX 4 1 3 2 16 3 25 4 2 5 26 6 1 7 33 8 27 9 31 10 28 11 30 12
REMARK SMILES IDX 17 13 18 14 19 15 20 16 24 17 22 18 21 19 23 21 32 23 29 25
REMARK SMILES IDX 5 27 14 28 6 29 12 30 7 31 10 32 15 33 13 35 8 37 9 38 11 40
REMARK H PARENT 21 20 23 22 32 24 29 26 15 34 13 36 9 39 11 41
REMARK Flexibility Score: inf
ROOT
ATOM      1  O   UNL     1     -37.843   5.317  81.299  1.00  0.00    -0.454 OA
ENDROOT
BRANCH   1   2
ATOM      2  C   UNL     1     -38.095   6.294  80.272  1.00  0.00     0.214 A 
ATOM      3  C   UNL     1     -39.155   6.211  79.307  1.00  0.00     0.180 A 
ATOM      4  O   UNL     1     -39.361   7.243  78.473  1.00  0.00    -0.452 OA
ATOM      5  C   UNL     1     -37.135   7.315  80.084  1.00  0.00     0.239 A 
ATOM      6  C   UNL     1     -38.425   8.131  78.195  1.00  0.00     0.146 A 
ATOM      7  O   UNL     1     -36.145   7.385  80.852  1.00  0.00    -0.285 OA
ATOM      8  C   UNL     1     -37.242   8.175  78.961  1.00  0.00     0.111 A 
ATOM      9  C   UNL     1     -38.545   8.860  77.012  1.00  0.00     0.094 A 
ATOM     10  C   UNL     1     -36.171   9.000  78.508  1.00  0.00     0.134 A 
ATOM     11  C   UNL     1     -37.458   9.599  76.531  1.00  0.00     0.123 A 
ATOM     12  C   UNL     1     -36.277   9.655  77.278  1.00  0.00     0.093 A 
BRANCH   3  13
ATOM     13  C   UNL     1     -39.903   4.953  79.001  1.00  0.00     0.025 A 
ATOM     14  C   UNL     1     -41.337   4.887  79.051  1.00  0.00     0.016 A 
ATOM     15  C   UNL     1     -42.007   3.736  78.620  1.00  0.00     0.051 A 
ATOM     16  C   UNL     1     -41.283   2.602  78.210  1.00  0.00     0.157 A 
ATOM     17  C   UNL     1     -39.215   3.895  78.385  1.00  0.00     0.062 A 
ATOM     18  C   UNL     1     -39.859   2.680  78.076  1.00  0.00     0.158 A 
BRANCH  16  19
ATOM     19  O   UNL     1     -41.976   1.411  78.007  1.00  0.00    -0.504 OA
ATOM     20  H   UNL     1     -41.539   0.644  77.507  1.00  0.00     0.293 HD
ENDBRANCH  16  19
BRANCH  18  21
ATOM     21  O   UNL     1     -39.045   1.604  77.646  1.00  0.00    -0.504 OA
ATOM     22  H   UNL     1     -38.033   1.607  77.594  1.00  0.00     0.293 HD
ENDBRANCH  18  21
ENDBRANCH   3  13
BRANCH  10  23
ATOM     23  O   UNL     1     -34.961   9.050  79.197  1.00  0.00    -0.507 OA
ATOM     24  H   UNL     1     -34.346   8.234  79.248  1.00  0.00     0.293 HD
ENDBRANCH  10  23
BRANCH  11  25
ATOM     25  O   UNL     1     -37.522  10.125  75.254  1.00  0.00    -0.508 OA
ATOM     26  H   UNL     1     -38.402  10.389  74.824  1.00  0.00     0.293 HD
ENDBRANCH  11  25
ENDBRANCH   1   2
BRANCH   1  27
ATOM     27  C   UNL     1     -37.962   5.516  82.715  1.00  0.00     0.339 C 
ATOM     28  C   UNL     1     -36.723   4.962  83.450  1.00  0.00     0.214 C 
ATOM     29  O   UNL     1     -39.186   4.978  83.235  1.00  0.00    -0.332 OA
ATOM     30  C   UNL     1     -36.723   3.422  83.495  1.00  0.00     0.180 C 
ATOM     31  C   UNL     1     -39.268   3.559  83.300  1.00  0.00     0.179 C 
ATOM     32  C   UNL     1     -38.065   2.931  84.092  1.00  0.00     0.177 C 
BRANCH  28  33
ATOM     33  O   UNL     1     -36.597   5.516  84.743  1.00  0.00    -0.384 OA
ATOM     34  H   UNL     1     -37.506   5.564  85.142  1.00  0.00     0.211 HD
ENDBRANCH  28  33
BRANCH  30  35
ATOM     35  O   UNL     1     -35.655   2.981  84.290  1.00  0.00    -0.387 OA
ATOM     36  H   UNL     1     -35.522   2.015  84.097  1.00  0.00     0.211 HD
ENDBRANCH  30  35
BRANCH  31  37
ATOM     37  C   UNL     1     -39.710   2.936  81.950  1.00  0.00     0.191 C 
BRANCH  37  38
ATOM     38  O   UNL     1     -38.637   2.261  81.326  1.00  0.00    -0.394 OA
ATOM     39  H   UNL     1     -37.790   2.793  81.424  1.00  0.00     0.210 HD
ENDBRANCH  37  38
ENDBRANCH  31  37
BRANCH  32  40
ATOM     40  O   UNL     1     -38.195   1.535  84.189  1.00  0.00    -0.387 OA
ATOM     41  H   UNL     1     -37.588   1.183  84.896  1.00  0.00     0.211 HD
ENDBRANCH  32  40
ENDBRANCH   1  27
TORSDOF 12
ENDMDL
