MODEL 1
REMARK VINA RESULT:    -4.421      0.000      0.000
REMARK INTER + INTRA:          -4.809
REMARK INTER:                  -4.809
REMARK INTRA:                   0.000
REMARK UNBOUND:                 0.000
REMARK SMILES Oc1cccc(O)c1O
REMARK SMILES IDX 4 1 5 2 6 3 8 4 2 5 3 6 7 7 1 9 9 11
REMARK H PARENT 7 8 1 10 9 12
REMARK Flexibility Score: inf
ROOT
ATOM      1  C   UNL     1      41.872  56.934  25.614  1.00  0.00     0.008 A 
ATOM      2  C   UNL     1      40.994  57.483  26.548  1.00  0.00     0.050 A 
ATOM      3  C   UNL     1      41.476  57.972  27.766  1.00  0.00     0.161 A 
ATOM      4  C   UNL     1      42.854  57.915  28.056  1.00  0.00     0.200 A 
ATOM      5  C   UNL     1      43.743  57.356  27.103  1.00  0.00     0.161 A 
ATOM      6  C   UNL     1      43.238  56.872  25.890  1.00  0.00     0.050 A 
ENDROOT
BRANCH   3   7
ATOM      7  O   UNL     1      40.569  58.514  28.678  1.00  0.00    -0.504 OA
ATOM      8  H   UNL     1      39.703  58.049  28.920  1.00  0.00     0.293 HD
ENDBRANCH   3   7
BRANCH   5   9
ATOM      9  O   UNL     1      45.120  57.263  27.316  1.00  0.00    -0.504 OA
ATOM     10  H   UNL     1      45.813  57.746  26.763  1.00  0.00     0.293 HD
ENDBRANCH   5   9
BRANCH   4  11
ATOM     11  O   UNL     1      43.297  58.414  29.284  1.00  0.00    -0.502 OA
ATOM     12  H   UNL     1      43.561  57.837  30.068  1.00  0.00     0.293 HD
ENDBRANCH   4  11
TORSDOF 3
ENDMDL
MODEL 2
REMARK VINA RESULT:    -4.406      0.102      2.826
REMARK INTER + INTRA:          -4.793
REMARK INTER:                  -4.793
REMARK INTRA:                   0.000
REMARK UNBOUND:                 0.000
REMARK SMILES Oc1cccc(O)c1O
REMARK SMILES IDX 4 1 5 2 6 3 8 4 2 5 3 6 7 7 1 9 9 11
REMARK H PARENT 7 8 1 10 9 12
REMARK Flexibility Score: inf
ROOT
ATOM      1  C   UNL     1      41.871  56.930  25.544  1.00  0.00     0.008 A 
ATOM      2  C   UNL     1      43.230  56.848  25.845  1.00  0.00     0.050 A 
ATOM      3  C   UNL     1      43.715  57.355  27.055  1.00  0.00     0.161 A 
ATOM      4  C   UNL     1      42.832  57.949  27.979  1.00  0.00     0.200 A 
ATOM      5  C   UNL     1      41.451  58.029  27.668  1.00  0.00     0.161 A 
ATOM      6  C   UNL     1      40.988  57.516  26.450  1.00  0.00     0.050 A 
ENDROOT
BRANCH   3   7
ATOM      7  O   UNL     1      45.081  57.257  27.324  1.00  0.00    -0.504 OA
ATOM      8  H   UNL     1      45.513  56.388  27.615  1.00  0.00     0.293 HD
ENDBRANCH   3   7
BRANCH   5   9
ATOM      9  O   UNL     1      40.514  58.603  28.529  1.00  0.00    -0.504 OA
ATOM     10  H   UNL     1      39.554  58.790  28.278  1.00  0.00     0.293 HD
ENDBRANCH   5   9
BRANCH   4  11
ATOM     11  O   UNL     1      43.355  58.443  29.176  1.00  0.00    -0.502 OA
ATOM     12  H   UNL     1      44.096  57.997  29.698  1.00  0.00     0.293 HD
ENDBRANCH   4  11
TORSDOF 3
ENDMDL
MODEL 3
REMARK VINA RESULT:    -4.269      1.345      2.358
REMARK INTER + INTRA:          -4.643
REMARK INTER:                  -4.643
REMARK INTRA:                   0.000
REMARK UNBOUND:                 0.000
REMARK SMILES Oc1cccc(O)c1O
REMARK SMILES IDX 4 1 5 2 6 3 8 4 2 5 3 6 7 7 1 9 9 11
REMARK H PARENT 7 8 1 10 9 12
REMARK Flexibility Score: inf
ROOT
ATOM      1  C   UNL     1      43.806  56.569  26.310  1.00  0.00     0.008 A 
ATOM      2  C   UNL     1      42.619  56.702  25.589  1.00  0.00     0.050 A 
ATOM      3  C   UNL     1      41.608  57.554  26.046  1.00  0.00     0.161 A 
ATOM      4  C   UNL     1      41.784  58.285  27.238  1.00  0.00     0.200 A 
ATOM      5  C   UNL     1      42.992  58.147  27.967  1.00  0.00     0.161 A 
ATOM      6  C   UNL     1      43.990  57.288  27.491  1.00  0.00     0.050 A 
ENDROOT
BRANCH   3   7
ATOM      7  O   UNL     1      40.434  57.662  25.300  1.00  0.00    -0.504 OA
ATOM      8  H   UNL     1      39.720  58.348  25.513  1.00  0.00     0.293 HD
ENDBRANCH   3   7
BRANCH   5   9
ATOM      9  O   UNL     1      43.241  58.836  29.156  1.00  0.00    -0.504 OA
ATOM     10  H   UNL     1      43.034  58.473  30.075  1.00  0.00     0.293 HD
ENDBRANCH   5   9
BRANCH   4  11
ATOM     11  O   UNL     1      40.751  59.125  27.661  1.00  0.00    -0.502 OA
ATOM     12  H   UNL     1      40.431  59.194  28.615  1.00  0.00     0.293 HD
ENDBRANCH   4  11
TORSDOF 3
ENDMDL
MODEL 4
REMARK VINA RESULT:    -4.237      1.260      2.731
REMARK INTER + INTRA:          -4.609
REMARK INTER:                  -4.609
REMARK INTRA:                   0.000
REMARK UNBOUND:                 0.000
REMARK SMILES Oc1cccc(O)c1O
REMARK SMILES IDX 4 1 5 2 6 3 8 4 2 5 3 6 7 7 1 9 9 11
REMARK H PARENT 7 8 1 10 9 12
REMARK Flexibility Score: inf
ROOT
ATOM      1  C   UNL     1      43.718  56.665  26.258  1.00  0.00     0.008 A 
ATOM      2  C   UNL     1      43.929  57.280  27.492  1.00  0.00     0.050 A 
ATOM      3  C   UNL     1      42.941  58.097  28.050  1.00  0.00     0.161 A 
ATOM      4  C   UNL     1      41.724  58.302  27.370  1.00  0.00     0.200 A 
ATOM      5  C   UNL     1      41.514  57.674  26.117  1.00  0.00     0.161 A 
ATOM      6  C   UNL     1      42.517  56.860  25.576  1.00  0.00     0.050 A 
ENDROOT
BRANCH   3   7
ATOM      7  O   UNL     1      43.187  58.696  29.286  1.00  0.00    -0.504 OA
ATOM      8  H   UNL     1      43.232  58.163  30.146  1.00  0.00     0.293 HD
ENDBRANCH   3   7
BRANCH   5   9
ATOM      9  O   UNL     1      40.337  57.828  25.381  1.00  0.00    -0.504 OA
ATOM     10  H   UNL     1      40.119  58.642  24.826  1.00  0.00     0.293 HD
ENDBRANCH   5   9
BRANCH   4  11
ATOM     11  O   UNL     1      40.762  59.124  27.961  1.00  0.00    -0.502 OA
ATOM     12  H   UNL     1      39.995  58.787  28.523  1.00  0.00     0.293 HD
ENDBRANCH   4  11
TORSDOF 3
ENDMDL
MODEL 5
REMARK VINA RESULT:    -4.042     16.022     17.065
REMARK INTER + INTRA:          -4.396
REMARK INTER:                  -4.396
REMARK INTRA:                   0.000
REMARK UNBOUND:                 0.000
REMARK SMILES Oc1cccc(O)c1O
REMARK SMILES IDX 4 1 5 2 6 3 8 4 2 5 3 6 7 7 1 9 9 11
REMARK H PARENT 7 8 1 10 9 12
REMARK Flexibility Score: inf
ROOT
ATOM      1  C   UNL     1      37.554  53.547  44.329  1.00  0.00     0.008 A 
ATOM      2  C   UNL     1      37.777  52.179  44.176  1.00  0.00     0.050 A 
ATOM      3  C   UNL     1      37.704  51.589  42.909  1.00  0.00     0.161 A 
ATOM      4  C   UNL     1      37.405  52.376  41.779  1.00  0.00     0.200 A 
ATOM      5  C   UNL     1      37.180  53.767  41.939  1.00  0.00     0.161 A 
ATOM      6  C   UNL     1      37.258  54.335  43.217  1.00  0.00     0.050 A 
ENDROOT
BRANCH   3   7
ATOM      7  O   UNL     1      37.933  50.218  42.794  1.00  0.00    -0.504 OA
ATOM      8  H   UNL     1      37.938  49.601  43.598  1.00  0.00     0.293 HD
ENDBRANCH   3   7
BRANCH   5   9
ATOM      9  O   UNL     1      36.879  54.612  40.870  1.00  0.00    -0.504 OA
ATOM     10  H   UNL     1      37.124  54.420  39.909  1.00  0.00     0.293 HD
ENDBRANCH   5   9
BRANCH   4  11
ATOM     11  O   UNL     1      37.342  51.751  40.532  1.00  0.00    -0.502 OA
ATOM     12  H   UNL     1      36.497  51.650  39.990  1.00  0.00     0.293 HD
ENDBRANCH   4  11
TORSDOF 3
ENDMDL
MODEL 6
REMARK VINA RESULT:    -3.938     12.775     13.487
REMARK INTER + INTRA:          -4.284
REMARK INTER:                  -4.284
REMARK INTRA:                   0.000
REMARK UNBOUND:                 0.000
REMARK SMILES Oc1cccc(O)c1O
REMARK SMILES IDX 4 1 5 2 6 3 8 4 2 5 3 6 7 7 1 9 9 11
REMARK H PARENT 7 8 1 10 9 12
REMARK Flexibility Score: inf
ROOT
ATOM      1  C   UNL     1      47.612  50.481  34.618  1.00  0.00     0.008 A 
ATOM      2  C   UNL     1      47.040  49.320  35.137  1.00  0.00     0.050 A 
ATOM      3  C   UNL     1      47.737  48.547  36.071  1.00  0.00     0.161 A 
ATOM      4  C   UNL     1      49.023  48.938  36.495  1.00  0.00     0.200 A 
ATOM      5  C   UNL     1      49.600  50.120  35.966  1.00  0.00     0.161 A 
ATOM      6  C   UNL     1      48.884  50.878  35.031  1.00  0.00     0.050 A 
ENDROOT
BRANCH   3   7
ATOM      7  O   UNL     1      47.134  47.391  36.569  1.00  0.00    -0.504 OA
ATOM      8  H   UNL     1      46.519  46.817  36.005  1.00  0.00     0.293 HD
ENDBRANCH   3   7
BRANCH   5   9
ATOM      9  O   UNL     1      50.868  50.573  36.335  1.00  0.00    -0.504 OA
ATOM     10  H   UNL     1      51.044  51.191  37.114  1.00  0.00     0.293 HD
ENDBRANCH   5   9
BRANCH   4  11
ATOM     11  O   UNL     1      49.686  48.140  37.430  1.00  0.00    -0.502 OA
ATOM     12  H   UNL     1      50.590  47.719  37.276  1.00  0.00     0.293 HD
ENDBRANCH   4  11
TORSDOF 3
ENDMDL
MODEL 7
REMARK VINA RESULT:    -3.936     12.774     13.654
REMARK INTER + INTRA:          -4.281
REMARK INTER:                  -4.281
REMARK INTRA:                   0.000
REMARK UNBOUND:                 0.000
REMARK SMILES Oc1cccc(O)c1O
REMARK SMILES IDX 4 1 5 2 6 3 8 4 2 5 3 6 7 7 1 9 9 11
REMARK H PARENT 7 8 1 10 9 12
REMARK Flexibility Score: inf
ROOT
ATOM      1  C   UNL     1      47.622  50.478  34.621  1.00  0.00     0.008 A 
ATOM      2  C   UNL     1      48.903  50.881  34.998  1.00  0.00     0.050 A 
ATOM      3  C   UNL     1      49.632  50.134  35.930  1.00  0.00     0.161 A 
ATOM      4  C   UNL     1      49.076  48.967  36.491  1.00  0.00     0.200 A 
ATOM      5  C   UNL     1      47.775  48.560  36.103  1.00  0.00     0.161 A 
ATOM      6  C   UNL     1      47.063  49.324  35.170  1.00  0.00     0.050 A 
ENDROOT
BRANCH   3   7
ATOM      7  O   UNL     1      50.909  50.568  36.284  1.00  0.00    -0.504 OA
ATOM      8  H   UNL     1      51.702  50.481  35.660  1.00  0.00     0.293 HD
ENDBRANCH   3   7
BRANCH   5   9
ATOM      9  O   UNL     1      47.156  47.417  36.614  1.00  0.00    -0.504 OA
ATOM     10  H   UNL     1      46.352  47.434  37.224  1.00  0.00     0.293 HD
ENDBRANCH   5   9
BRANCH   4  11
ATOM     11  O   UNL     1      49.836  48.248  37.416  1.00  0.00    -0.502 OA
ATOM     12  H   UNL     1      50.165  47.306  37.270  1.00  0.00     0.293 HD
ENDBRANCH   4  11
TORSDOF 3
ENDMDL
MODEL 8
REMARK VINA RESULT:    -3.834      1.582      2.746
REMARK INTER + INTRA:          -4.170
REMARK INTER:                  -4.170
REMARK INTRA:                   0.000
REMARK UNBOUND:                 0.000
REMARK SMILES Oc1cccc(O)c1O
REMARK SMILES IDX 4 1 5 2 6 3 8 4 2 5 3 6 7 7 1 9 9 11
REMARK H PARENT 7 8 1 10 9 12
REMARK Flexibility Score: inf
ROOT
ATOM      1  C   UNL     1      40.289  58.606  27.155  1.00  0.00     0.008 A 
ATOM      2  C   UNL     1      40.597  57.715  26.127  1.00  0.00     0.050 A 
ATOM      3  C   UNL     1      41.811  57.021  26.137  1.00  0.00     0.161 A 
ATOM      4  C   UNL     1      42.730  57.216  27.187  1.00  0.00     0.200 A 
ATOM      5  C   UNL     1      42.412  58.122  28.230  1.00  0.00     0.161 A 
ATOM      6  C   UNL     1      41.191  58.807  28.200  1.00  0.00     0.050 A 
ENDROOT
BRANCH   3   7
ATOM      7  O   UNL     1      42.086  56.138  25.092  1.00  0.00    -0.504 OA
ATOM      8  H   UNL     1      41.936  55.140  25.174  1.00  0.00     0.293 HD
ENDBRANCH   3   7
BRANCH   5   9
ATOM      9  O   UNL     1      43.269  58.370  29.304  1.00  0.00    -0.504 OA
ATOM     10  H   UNL     1      44.065  58.990  29.262  1.00  0.00     0.293 HD
ENDBRANCH   5   9
BRANCH   4  11
ATOM     11  O   UNL     1      43.931  56.504  27.160  1.00  0.00    -0.502 OA
ATOM     12  H   UNL     1      44.689  56.694  26.522  1.00  0.00     0.293 HD
ENDBRANCH   4  11
TORSDOF 3
ENDMDL
MODEL 9
REMARK VINA RESULT:    -3.832      1.552      2.544
REMARK INTER + INTRA:          -4.168
REMARK INTER:                  -4.168
REMARK INTRA:                   0.000
REMARK UNBOUND:                 0.000
REMARK SMILES Oc1cccc(O)c1O
REMARK SMILES IDX 4 1 5 2 6 3 8 4 2 5 3 6 7 7 1 9 9 11
REMARK H PARENT 7 8 1 10 9 12
REMARK Flexibility Score: inf
ROOT
ATOM      1  C   UNL     1      40.321  58.548  27.126  1.00  0.00     0.008 A 
ATOM      2  C   UNL     1      41.211  58.706  28.188  1.00  0.00     0.050 A 
ATOM      3  C   UNL     1      42.445  58.048  28.178  1.00  0.00     0.161 A 
ATOM      4  C   UNL     1      42.797  57.222  27.092  1.00  0.00     0.200 A 
ATOM      5  C   UNL     1      41.890  57.065  26.014  1.00  0.00     0.161 A 
ATOM      6  C   UNL     1      40.659  57.733  26.046  1.00  0.00     0.050 A 
ENDROOT
BRANCH   3   7
ATOM      7  O   UNL     1      43.310  58.229  29.257  1.00  0.00    -0.504 OA
ATOM      8  H   UNL     1      44.006  58.965  29.275  1.00  0.00     0.293 HD
ENDBRANCH   3   7
BRANCH   5   9
ATOM      9  O   UNL     1      42.165  56.265  24.904  1.00  0.00    -0.504 OA
ATOM     10  H   UNL     1      42.595  55.353  24.956  1.00  0.00     0.293 HD
ENDBRANCH   5   9
BRANCH   4  11
ATOM     11  O   UNL     1      44.039  56.583  27.119  1.00  0.00    -0.502 OA
ATOM     12  H   UNL     1      44.628  56.522  27.936  1.00  0.00     0.293 HD
ENDBRANCH   4  11
TORSDOF 3
ENDMDL
