MODEL 1
REMARK VINA RESULT:    -5.369      0.000      0.000
REMARK INTER + INTRA:          -6.556
REMARK INTER:                  -6.310
REMARK INTRA:                  -0.246
REMARK UNBOUND:                -0.246
REMARK SMILES O=c1c(O)c(-c2ccc(O)cc2)oc2cc(O)cc(O)c12
REMARK SMILES IDX 5 1 3 2 2 3 1 4 21 5 19 6 18 7 16 8 15 9 14 10 13 11 6 12
REMARK SMILES IDX 7 13 8 14 9 15 12 16 11 17 10 18 4 20 20 22 17 24
REMARK H PARENT 10 19 4 21 20 23 17 25
REMARK Flexibility Score: inf
ROOT
ATOM      1  C   UNL     1      33.563 -37.632  10.011  1.00  0.00     0.180 A 
ATOM      2  C   UNL     1      32.182 -37.428   9.858  1.00  0.00     0.208 A 
ATOM      3  C   UNL     1      31.676 -37.106   8.589  1.00  0.00     0.238 A 
ATOM      4  O   UNL     1      30.431 -36.999   8.443  1.00  0.00    -0.285 OA
ATOM      5  C   UNL     1      32.564 -36.935   7.499  1.00  0.00     0.111 A 
ATOM      6  C   UNL     1      32.168 -36.564   6.178  1.00  0.00     0.134 A 
ATOM      7  C   UNL     1      33.123 -36.529   5.155  1.00  0.00     0.093 A 
ATOM      8  C   UNL     1      34.468 -36.786   5.415  1.00  0.00     0.123 A 
ATOM      9  C   UNL     1      34.876 -37.096   6.713  1.00  0.00     0.094 A 
ATOM     10  C   UNL     1      33.941 -37.177   7.748  1.00  0.00     0.146 A 
ATOM     11  O   UNL     1      34.368 -37.497   8.963  1.00  0.00    -0.452 OA
ENDROOT
BRANCH   1  12
ATOM     12  C   UNL     1      34.169 -37.989  11.314  1.00  0.00     0.021 A 
ATOM     13  C   UNL     1      34.501 -39.328  11.579  1.00  0.00     0.016 A 
ATOM     14  C   UNL     1      35.053 -39.691  12.810  1.00  0.00     0.047 A 
ATOM     15  C   UNL     1      35.265 -38.721  13.800  1.00  0.00     0.115 A 
ATOM     16  C   UNL     1      34.366 -37.025  12.319  1.00  0.00     0.016 A 
ATOM     17  C   UNL     1      34.917 -37.390  13.551  1.00  0.00     0.047 A 
BRANCH  15  18
ATOM     18  O   UNL     1      35.815 -39.071  15.031  1.00  0.00    -0.508 OA
ATOM     19  H   UNL     1      36.647 -39.645  15.095  1.00  0.00     0.293 HD
ENDBRANCH  15  18
ENDBRANCH   1  12
BRANCH   2  20
ATOM     20  O   UNL     1      31.329 -37.527  10.962  1.00  0.00    -0.502 OA
ATOM     21  H   UNL     1      31.655 -37.812  11.877  1.00  0.00     0.293 HD
ENDBRANCH   2  20
BRANCH   6  22
ATOM     22  O   UNL     1      30.865 -36.199   5.824  1.00  0.00    -0.507 OA
ATOM     23  H   UNL     1      30.484 -35.269   5.904  1.00  0.00     0.293 HD
ENDBRANCH   6  22
BRANCH   8  24
ATOM     24  O   UNL     1      35.394 -36.725   4.375  1.00  0.00    -0.508 OA
ATOM     25  H   UNL     1      35.229 -36.157   3.551  1.00  0.00     0.293 HD
ENDBRANCH   8  24
TORSDOF 5
ENDMDL
MODEL 2
REMARK VINA RESULT:    -5.150      1.796      6.595
REMARK INTER + INTRA:          -6.300
REMARK INTER:                  -6.375
REMARK INTRA:                   0.076
REMARK UNBOUND:                -0.246
REMARK SMILES O=c1c(O)c(-c2ccc(O)cc2)oc2cc(O)cc(O)c12
REMARK SMILES IDX 5 1 3 2 2 3 1 4 21 5 19 6 18 7 16 8 15 9 14 10 13 11 6 12
REMARK SMILES IDX 7 13 8 14 9 15 12 16 11 17 10 18 4 20 20 22 17 24
REMARK H PARENT 10 19 4 21 20 23 17 25
REMARK Flexibility Score: inf
ROOT
ATOM      1  C   UNL     1      33.090 -36.700   6.744  1.00  0.00     0.180 A 
ATOM      2  C   UNL     1      31.714 -36.458   6.899  1.00  0.00     0.208 A 
ATOM      3  C   UNL     1      31.170 -36.422   8.193  1.00  0.00     0.238 A 
ATOM      4  O   UNL     1      29.954 -36.131   8.329  1.00  0.00    -0.285 OA
ATOM      5  C   UNL     1      31.996 -36.684   9.313  1.00  0.00     0.111 A 
ATOM      6  C   UNL     1      31.544 -36.719  10.667  1.00  0.00     0.134 A 
ATOM      7  C   UNL     1      32.473 -36.883  11.701  1.00  0.00     0.093 A 
ATOM      8  C   UNL     1      33.826 -37.079  11.431  1.00  0.00     0.123 A 
ATOM      9  C   UNL     1      34.273 -37.102  10.109  1.00  0.00     0.094 A 
ATOM     10  C   UNL     1      33.376 -36.902   9.056  1.00  0.00     0.146 A 
ATOM     11  O   UNL     1      33.846 -36.910   7.815  1.00  0.00    -0.452 OA
ENDROOT
BRANCH   1  12
ATOM     12  C   UNL     1      33.738 -36.738   5.414  1.00  0.00     0.021 A 
ATOM     13  C   UNL     1      33.183 -37.532   4.396  1.00  0.00     0.016 A 
ATOM     14  C   UNL     1      33.791 -37.601   3.140  1.00  0.00     0.047 A 
ATOM     15  C   UNL     1      34.973 -36.890   2.890  1.00  0.00     0.115 A 
ATOM     16  C   UNL     1      34.935 -36.044   5.162  1.00  0.00     0.016 A 
ATOM     17  C   UNL     1      35.543 -36.115   3.904  1.00  0.00     0.047 A 
BRANCH  15  18
ATOM     18  O   UNL     1      35.587 -36.952   1.641  1.00  0.00    -0.508 OA
ATOM     19  H   UNL     1      36.595 -36.984   1.548  1.00  0.00     0.293 HD
ENDBRANCH  15  18
ENDBRANCH   1  12
BRANCH   2  20
ATOM     20  O   UNL     1      30.900 -36.277   5.777  1.00  0.00    -0.502 OA
ATOM     21  H   UNL     1      30.014 -35.789   5.821  1.00  0.00     0.293 HD
ENDBRANCH   2  20
BRANCH   6  22
ATOM     22  O   UNL     1      30.201 -36.623  11.047  1.00  0.00    -0.507 OA
ATOM     23  H   UNL     1      29.878 -36.425  11.981  1.00  0.00     0.293 HD
ENDBRANCH   6  22
BRANCH   8  24
ATOM     24  O   UNL     1      34.719 -37.256  12.486  1.00  0.00    -0.508 OA
ATOM     25  H   UNL     1      35.673 -36.918  12.434  1.00  0.00     0.293 HD
ENDBRANCH   8  24
TORSDOF 5
ENDMDL
MODEL 3
REMARK VINA RESULT:    -5.019      1.909      3.011
REMARK INTER + INTRA:          -6.145
REMARK INTER:                  -5.955
REMARK INTRA:                  -0.190
REMARK UNBOUND:                -0.246
REMARK SMILES O=c1c(O)c(-c2ccc(O)cc2)oc2cc(O)cc(O)c12
REMARK SMILES IDX 5 1 3 2 2 3 1 4 21 5 19 6 18 7 16 8 15 9 14 10 13 11 6 12
REMARK SMILES IDX 7 13 8 14 9 15 12 16 11 17 10 18 4 20 20 22 17 24
REMARK H PARENT 10 19 4 21 20 23 17 25
REMARK Flexibility Score: inf
ROOT
ATOM      1  C   UNL     1      34.090 -37.626   7.379  1.00  0.00     0.180 A 
ATOM      2  C   UNL     1      32.858 -37.441   6.729  1.00  0.00     0.208 A 
ATOM      3  C   UNL     1      32.841 -37.267   5.336  1.00  0.00     0.238 A 
ATOM      4  O   UNL     1      31.731 -37.179   4.751  1.00  0.00    -0.285 OA
ATOM      5  C   UNL     1      34.060 -37.222   4.616  1.00  0.00     0.111 A 
ATOM      6  C   UNL     1      34.166 -37.006   3.209  1.00  0.00     0.134 A 
ATOM      7  C   UNL     1      35.419 -37.087   2.589  1.00  0.00     0.093 A 
ATOM      8  C   UNL     1      36.577 -37.312   3.331  1.00  0.00     0.123 A 
ATOM      9  C   UNL     1      36.493 -37.471   4.716  1.00  0.00     0.094 A 
ATOM     10  C   UNL     1      35.252 -37.434   5.358  1.00  0.00     0.146 A 
ATOM     11  O   UNL     1      35.215 -37.611   6.672  1.00  0.00    -0.452 OA
ENDROOT
BRANCH   1  12
ATOM     12  C   UNL     1      34.188 -37.830   8.841  1.00  0.00     0.021 A 
ATOM     13  C   UNL     1      34.499 -39.105   9.342  1.00  0.00     0.016 A 
ATOM     14  C   UNL     1      34.574 -39.326  10.720  1.00  0.00     0.047 A 
ATOM     15  C   UNL     1      34.323 -38.278  11.616  1.00  0.00     0.115 A 
ATOM     16  C   UNL     1      33.917 -36.788   9.747  1.00  0.00     0.016 A 
ATOM     17  C   UNL     1      33.991 -37.011  11.126  1.00  0.00     0.047 A 
BRANCH  15  18
ATOM     18  O   UNL     1      34.396 -38.486  12.991  1.00  0.00    -0.508 OA
ATOM     19  H   UNL     1      35.278 -38.671  13.453  1.00  0.00     0.293 HD
ENDBRANCH  15  18
ENDBRANCH   1  12
BRANCH   2  20
ATOM     20  O   UNL     1      31.670 -37.413   7.466  1.00  0.00    -0.502 OA
ATOM     21  H   UNL     1      30.848 -37.934   7.192  1.00  0.00     0.293 HD
ENDBRANCH   2  20
BRANCH   6  22
ATOM     22  O   UNL     1      33.084 -36.684   2.382  1.00  0.00    -0.507 OA
ATOM     23  H   UNL     1      33.154 -36.189   1.506  1.00  0.00     0.293 HD
ENDBRANCH   6  22
BRANCH   8  24
ATOM     24  O   UNL     1      37.809 -37.371   2.684  1.00  0.00    -0.508 OA
ATOM     25  H   UNL     1      37.878 -37.582   1.694  1.00  0.00     0.293 HD
ENDBRANCH   8  24
TORSDOF 5
ENDMDL
MODEL 4
REMARK VINA RESULT:    -4.956      1.363      2.967
REMARK INTER + INTRA:          -6.072
REMARK INTER:                  -5.975
REMARK INTRA:                  -0.097
REMARK UNBOUND:                -0.246
REMARK SMILES O=c1c(O)c(-c2ccc(O)cc2)oc2cc(O)cc(O)c12
REMARK SMILES IDX 5 1 3 2 2 3 1 4 21 5 19 6 18 7 16 8 15 9 14 10 13 11 6 12
REMARK SMILES IDX 7 13 8 14 9 15 12 16 11 17 10 18 4 20 20 22 17 24
REMARK H PARENT 10 19 4 21 20 23 17 25
REMARK Flexibility Score: inf
ROOT
ATOM      1  C   UNL     1      34.271 -38.189   9.333  1.00  0.00     0.180 A 
ATOM      2  C   UNL     1      35.277 -38.441   8.385  1.00  0.00     0.208 A 
ATOM      3  C   UNL     1      35.007 -38.210   7.027  1.00  0.00     0.238 A 
ATOM      4  O   UNL     1      35.935 -38.365   6.192  1.00  0.00    -0.285 OA
ATOM      5  C   UNL     1      33.717 -37.784   6.627  1.00  0.00     0.111 A 
ATOM      6  C   UNL     1      33.317 -37.562   5.274  1.00  0.00     0.134 A 
ATOM      7  C   UNL     1      32.046 -37.039   5.007  1.00  0.00     0.093 A 
ATOM      8  C   UNL     1      31.137 -36.791   6.034  1.00  0.00     0.123 A 
ATOM      9  C   UNL     1      31.497 -37.055   7.357  1.00  0.00     0.094 A 
ATOM     10  C   UNL     1      32.772 -37.541   7.659  1.00  0.00     0.146 A 
ATOM     11  O   UNL     1      33.081 -37.759   8.931  1.00  0.00    -0.452 OA
ENDROOT
BRANCH   1  12
ATOM     12  C   UNL     1      34.485 -38.394  10.784  1.00  0.00     0.021 A 
ATOM     13  C   UNL     1      34.751 -39.686  11.267  1.00  0.00     0.016 A 
ATOM     14  C   UNL     1      34.934 -39.907  12.635  1.00  0.00     0.047 A 
ATOM     15  C   UNL     1      34.836 -38.842  13.539  1.00  0.00     0.115 A 
ATOM     16  C   UNL     1      34.368 -37.333  11.699  1.00  0.00     0.016 A 
ATOM     17  C   UNL     1      34.550 -37.556  13.068  1.00  0.00     0.047 A 
BRANCH  15  18
ATOM     18  O   UNL     1      35.017 -39.050  14.905  1.00  0.00    -0.508 OA
ATOM     19  H   UNL     1      35.883 -39.423  15.274  1.00  0.00     0.293 HD
ENDBRANCH  15  18
ENDBRANCH   1  12
BRANCH   2  20
ATOM     20  O   UNL     1      36.521 -38.934   8.792  1.00  0.00    -0.502 OA
ATOM     21  H   UNL     1      37.016 -38.566   9.595  1.00  0.00     0.293 HD
ENDBRANCH   2  20
BRANCH   6  22
ATOM     22  O   UNL     1      34.113 -37.859   4.164  1.00  0.00    -0.507 OA
ATOM     23  H   UNL     1      33.762 -38.073   3.243  1.00  0.00     0.293 HD
ENDBRANCH   6  22
BRANCH   8  24
ATOM     24  O   UNL     1      29.875 -36.286   5.729  1.00  0.00    -0.508 OA
ATOM     25  H   UNL     1      29.255 -35.939   6.452  1.00  0.00     0.293 HD
ENDBRANCH   8  24
TORSDOF 5
ENDMDL
MODEL 5
REMARK VINA RESULT:    -4.808     12.451     14.354
REMARK INTER + INTRA:          -5.897
REMARK INTER:                  -5.601
REMARK INTRA:                  -0.296
REMARK UNBOUND:                -0.246
REMARK SMILES O=c1c(O)c(-c2ccc(O)cc2)oc2cc(O)cc(O)c12
REMARK SMILES IDX 5 1 3 2 2 3 1 4 21 5 19 6 18 7 16 8 15 9 14 10 13 11 6 12
REMARK SMILES IDX 7 13 8 14 9 15 12 16 11 17 10 18 4 20 20 22 17 24
REMARK H PARENT 10 19 4 21 20 23 17 25
REMARK Flexibility Score: inf
ROOT
ATOM      1  C   UNL     1      36.288 -41.035  -3.258  1.00  0.00     0.180 A 
ATOM      2  C   UNL     1      36.844 -42.324  -3.296  1.00  0.00     0.208 A 
ATOM      3  C   UNL     1      36.011 -43.418  -3.579  1.00  0.00     0.238 A 
ATOM      4  O   UNL     1      36.528 -44.560  -3.686  1.00  0.00    -0.285 OA
ATOM      5  C   UNL     1      34.621 -43.217  -3.763  1.00  0.00     0.111 A 
ATOM      6  C   UNL     1      33.674 -44.257  -4.009  1.00  0.00     0.134 A 
ATOM      7  C   UNL     1      32.341 -43.927  -4.281  1.00  0.00     0.093 A 
ATOM      8  C   UNL     1      31.905 -42.604  -4.251  1.00  0.00     0.123 A 
ATOM      9  C   UNL     1      32.810 -41.583  -3.958  1.00  0.00     0.094 A 
ATOM     10  C   UNL     1      34.155 -41.876  -3.720  1.00  0.00     0.146 A 
ATOM     11  O   UNL     1      34.986 -40.873  -3.466  1.00  0.00    -0.452 OA
ENDROOT
BRANCH   1  12
ATOM     12  C   UNL     1      37.104 -39.831  -2.981  1.00  0.00     0.021 A 
ATOM     13  C   UNL     1      37.154 -39.315  -1.675  1.00  0.00     0.016 A 
ATOM     14  C   UNL     1      37.900 -38.167  -1.395  1.00  0.00     0.047 A 
ATOM     15  C   UNL     1      38.593 -37.510  -2.421  1.00  0.00     0.115 A 
ATOM     16  C   UNL     1      37.786 -39.156  -4.009  1.00  0.00     0.016 A 
ATOM     17  C   UNL     1      38.531 -38.006  -3.727  1.00  0.00     0.047 A 
BRANCH  15  18
ATOM     18  O   UNL     1      39.341 -36.366  -2.154  1.00  0.00    -0.508 OA
ATOM     19  H   UNL     1      39.731 -36.190  -1.236  1.00  0.00     0.293 HD
ENDBRANCH  15  18
ENDBRANCH   1  12
BRANCH   2  20
ATOM     20  O   UNL     1      38.205 -42.512  -3.037  1.00  0.00    -0.502 OA
ATOM     21  H   UNL     1      38.626 -42.279  -2.147  1.00  0.00     0.293 HD
ENDBRANCH   2  20
BRANCH   6  22
ATOM     22  O   UNL     1      33.982 -45.621  -3.974  1.00  0.00    -0.507 OA
ATOM     23  H   UNL     1      34.017 -46.226  -4.780  1.00  0.00     0.293 HD
ENDBRANCH   6  22
BRANCH   8  24
ATOM     24  O   UNL     1      30.567 -42.315  -4.510  1.00  0.00    -0.508 OA
ATOM     25  H   UNL     1      29.953 -41.958  -3.787  1.00  0.00     0.293 HD
ENDBRANCH   8  24
TORSDOF 5
ENDMDL
MODEL 6
REMARK VINA RESULT:    -4.806      3.160      7.688
REMARK INTER + INTRA:          -5.895
REMARK INTER:                  -5.713
REMARK INTRA:                  -0.182
REMARK UNBOUND:                -0.246
REMARK SMILES O=c1c(O)c(-c2ccc(O)cc2)oc2cc(O)cc(O)c12
REMARK SMILES IDX 5 1 3 2 2 3 1 4 21 5 19 6 18 7 16 8 15 9 14 10 13 11 6 12
REMARK SMILES IDX 7 13 8 14 9 15 12 16 11 17 10 18 4 20 20 22 17 24
REMARK H PARENT 10 19 4 21 20 23 17 25
REMARK Flexibility Score: inf
ROOT
ATOM      1  C   UNL     1      35.280 -37.053   3.911  1.00  0.00     0.180 A 
ATOM      2  C   UNL     1      34.001 -37.344   3.409  1.00  0.00     0.208 A 
ATOM      3  C   UNL     1      32.914 -37.391   4.297  1.00  0.00     0.238 A 
ATOM      4  O   UNL     1      31.761 -37.576   3.830  1.00  0.00    -0.285 OA
ATOM      5  C   UNL     1      33.129 -37.204   5.684  1.00  0.00     0.111 A 
ATOM      6  C   UNL     1      32.109 -37.275   6.681  1.00  0.00     0.134 A 
ATOM      7  C   UNL     1      32.421 -36.967   8.011  1.00  0.00     0.093 A 
ATOM      8  C   UNL     1      33.725 -36.655   8.392  1.00  0.00     0.123 A 
ATOM      9  C   UNL     1      34.741 -36.635   7.435  1.00  0.00     0.094 A 
ATOM     10  C   UNL     1      34.454 -36.900   6.094  1.00  0.00     0.146 A 
ATOM     11  O   UNL     1      35.445 -36.850   5.213  1.00  0.00    -0.452 OA
ENDROOT
BRANCH   1  12
ATOM     12  C   UNL     1      36.472 -36.972   3.036  1.00  0.00     0.021 A 
ATOM     13  C   UNL     1      37.512 -37.902   3.197  1.00  0.00     0.016 A 
ATOM     14  C   UNL     1      38.656 -37.831   2.397  1.00  0.00     0.047 A 
ATOM     15  C   UNL     1      38.782 -36.817   1.437  1.00  0.00     0.115 A 
ATOM     16  C   UNL     1      36.614 -35.946   2.085  1.00  0.00     0.016 A 
ATOM     17  C   UNL     1      37.760 -35.875   1.286  1.00  0.00     0.047 A 
BRANCH  15  18
ATOM     18  O   UNL     1      39.917 -36.737   0.634  1.00  0.00    -0.508 OA
ATOM     19  H   UNL     1      40.469 -35.889   0.580  1.00  0.00     0.293 HD
ENDBRANCH  15  18
ENDBRANCH   1  12
BRANCH   2  20
ATOM     20  O   UNL     1      33.821 -37.601   2.046  1.00  0.00    -0.502 OA
ATOM     21  H   UNL     1      32.995 -38.060   1.684  1.00  0.00     0.293 HD
ENDBRANCH   2  20
BRANCH   6  22
ATOM     22  O   UNL     1      30.790 -37.664   6.426  1.00  0.00    -0.507 OA
ATOM     23  H   UNL     1      30.179 -38.106   7.095  1.00  0.00     0.293 HD
ENDBRANCH   6  22
BRANCH   8  24
ATOM     24  O   UNL     1      34.001 -36.371   9.728  1.00  0.00    -0.508 OA
ATOM     25  H   UNL     1      34.281 -37.097  10.377  1.00  0.00     0.293 HD
ENDBRANCH   8  24
TORSDOF 5
ENDMDL
MODEL 7
REMARK VINA RESULT:    -4.791      1.915      7.035
REMARK INTER + INTRA:          -5.877
REMARK INTER:                  -5.580
REMARK INTRA:                  -0.297
REMARK UNBOUND:                -0.246
REMARK SMILES O=c1c(O)c(-c2ccc(O)cc2)oc2cc(O)cc(O)c12
REMARK SMILES IDX 5 1 3 2 2 3 1 4 21 5 19 6 18 7 16 8 15 9 14 10 13 11 6 12
REMARK SMILES IDX 7 13 8 14 9 15 12 16 11 17 10 18 4 20 20 22 17 24
REMARK H PARENT 10 19 4 21 20 23 17 25
REMARK Flexibility Score: inf
ROOT
ATOM      1  C   UNL     1      33.381 -38.864   9.607  1.00  0.00     0.180 A 
ATOM      2  C   UNL     1      33.716 -40.229   9.586  1.00  0.00     0.208 A 
ATOM      3  C   UNL     1      34.316 -40.801  10.720  1.00  0.00     0.238 A 
ATOM      4  O   UNL     1      34.544 -42.038  10.723  1.00  0.00    -0.285 OA
ATOM      5  C   UNL     1      34.625 -39.990  11.838  1.00  0.00     0.111 A 
ATOM      6  C   UNL     1      35.274 -40.453  13.024  1.00  0.00     0.134 A 
ATOM      7  C   UNL     1      35.433 -39.583  14.109  1.00  0.00     0.093 A 
ATOM      8  C   UNL     1      35.028 -38.252  14.031  1.00  0.00     0.123 A 
ATOM      9  C   UNL     1      34.442 -37.773  12.858  1.00  0.00     0.094 A 
ATOM     10  C   UNL     1      34.234 -38.627  11.772  1.00  0.00     0.146 A 
ATOM     11  O   UNL     1      33.655 -38.136  10.684  1.00  0.00    -0.452 OA
ENDROOT
BRANCH   1  12
ATOM     12  C   UNL     1      32.735 -38.193   8.457  1.00  0.00     0.021 A 
ATOM     13  C   UNL     1      33.526 -37.498   7.527  1.00  0.00     0.016 A 
ATOM     14  C   UNL     1      32.935 -36.838   6.447  1.00  0.00     0.047 A 
ATOM     15  C   UNL     1      31.542 -36.851   6.290  1.00  0.00     0.115 A 
ATOM     16  C   UNL     1      31.336 -38.185   8.305  1.00  0.00     0.016 A 
ATOM     17  C   UNL     1      30.746 -37.523   7.223  1.00  0.00     0.047 A 
BRANCH  15  18
ATOM     18  O   UNL     1      30.942 -36.198   5.216  1.00  0.00    -0.508 OA
ATOM     19  H   UNL     1      31.280 -36.315   4.269  1.00  0.00     0.293 HD
ENDBRANCH  15  18
ENDBRANCH   1  12
BRANCH   2  20
ATOM     20  O   UNL     1      33.472 -40.997   8.443  1.00  0.00    -0.502 OA
ATOM     21  H   UNL     1      34.194 -41.543   7.991  1.00  0.00     0.293 HD
ENDBRANCH   2  20
BRANCH   6  22
ATOM     22  O   UNL     1      35.799 -41.740  13.177  1.00  0.00    -0.507 OA
ATOM     23  H   UNL     1      35.856 -42.240  14.051  1.00  0.00     0.293 HD
ENDBRANCH   6  22
BRANCH   8  24
ATOM     24  O   UNL     1      35.218 -37.410  15.125  1.00  0.00    -0.508 OA
ATOM     25  H   UNL     1      35.850 -37.655  15.878  1.00  0.00     0.293 HD
ENDBRANCH   8  24
TORSDOF 5
ENDMDL
MODEL 8
REMARK VINA RESULT:    -4.722      2.482      4.422
REMARK INTER + INTRA:          -5.797
REMARK INTER:                  -5.516
REMARK INTRA:                  -0.281
REMARK UNBOUND:                -0.246
REMARK SMILES O=c1c(O)c(-c2ccc(O)cc2)oc2cc(O)cc(O)c12
REMARK SMILES IDX 5 1 3 2 2 3 1 4 21 5 19 6 18 7 16 8 15 9 14 10 13 11 6 12
REMARK SMILES IDX 7 13 8 14 9 15 12 16 11 17 10 18 4 20 20 22 17 24
REMARK H PARENT 10 19 4 21 20 23 17 25
REMARK Flexibility Score: inf
ROOT
ATOM      1  C   UNL     1      34.143 -37.578   6.819  1.00  0.00     0.180 A 
ATOM      2  C   UNL     1      35.020 -36.727   6.125  1.00  0.00     0.208 A 
ATOM      3  C   UNL     1      35.028 -36.754   4.721  1.00  0.00     0.238 A 
ATOM      4  O   UNL     1      35.760 -35.937   4.106  1.00  0.00    -0.285 OA
ATOM      5  C   UNL     1      34.203 -37.673   4.029  1.00  0.00     0.111 A 
ATOM      6  C   UNL     1      34.162 -37.821   2.609  1.00  0.00     0.134 A 
ATOM      7  C   UNL     1      33.228 -38.689   2.031  1.00  0.00     0.093 A 
ATOM      8  C   UNL     1      32.378 -39.462   2.820  1.00  0.00     0.123 A 
ATOM      9  C   UNL     1      32.445 -39.367   4.211  1.00  0.00     0.094 A 
ATOM     10  C   UNL     1      33.341 -38.481   4.816  1.00  0.00     0.146 A 
ATOM     11  O   UNL     1      33.357 -38.407   6.141  1.00  0.00    -0.452 OA
ENDROOT
BRANCH   1  12
ATOM     12  C   UNL     1      34.066 -37.596   8.297  1.00  0.00     0.021 A 
ATOM     13  C   UNL     1      33.263 -36.652   8.959  1.00  0.00     0.016 A 
ATOM     14  C   UNL     1      33.192 -36.636  10.354  1.00  0.00     0.047 A 
ATOM     15  C   UNL     1      33.938 -37.553  11.108  1.00  0.00     0.115 A 
ATOM     16  C   UNL     1      34.827 -38.500   9.060  1.00  0.00     0.016 A 
ATOM     17  C   UNL     1      34.756 -38.481  10.457  1.00  0.00     0.047 A 
BRANCH  15  18
ATOM     18  O   UNL     1      33.875 -37.547  12.499  1.00  0.00    -0.508 OA
ATOM     19  H   UNL     1      34.161 -38.350  13.046  1.00  0.00     0.293 HD
ENDBRANCH  15  18
ENDBRANCH   1  12
BRANCH   2  20
ATOM     20  O   UNL     1      35.883 -35.880   6.828  1.00  0.00    -0.502 OA
ATOM     21  H   UNL     1      36.768 -35.569   6.448  1.00  0.00     0.293 HD
ENDBRANCH   2  20
BRANCH   6  22
ATOM     22  O   UNL     1      35.028 -37.164   1.729  1.00  0.00    -0.507 OA
ATOM     23  H   UNL     1      35.870 -37.561   1.342  1.00  0.00     0.293 HD
ENDBRANCH   6  22
BRANCH   8  24
ATOM     24  O   UNL     1      31.473 -40.328   2.210  1.00  0.00    -0.508 OA
ATOM     25  H   UNL     1      30.842 -40.009   1.483  1.00  0.00     0.293 HD
ENDBRANCH   8  24
TORSDOF 5
ENDMDL
MODEL 9
REMARK VINA RESULT:    -4.643      1.928      6.746
REMARK INTER + INTRA:          -5.704
REMARK INTER:                  -5.415
REMARK INTRA:                  -0.288
REMARK UNBOUND:                -0.246
REMARK SMILES O=c1c(O)c(-c2ccc(O)cc2)oc2cc(O)cc(O)c12
REMARK SMILES IDX 5 1 3 2 2 3 1 4 21 5 19 6 18 7 16 8 15 9 14 10 13 11 6 12
REMARK SMILES IDX 7 13 8 14 9 15 12 16 11 17 10 18 4 20 20 22 17 24
REMARK H PARENT 10 19 4 21 20 23 17 25
REMARK Flexibility Score: inf
ROOT
ATOM      1  C   UNL     1      34.328 -37.999   8.287  1.00  0.00     0.180 A 
ATOM      2  C   UNL     1      33.847 -37.110   9.263  1.00  0.00     0.208 A 
ATOM      3  C   UNL     1      33.896 -37.489  10.614  1.00  0.00     0.238 A 
ATOM      4  O   UNL     1      33.534 -36.659  11.488  1.00  0.00    -0.285 OA
ATOM      5  C   UNL     1      34.373 -38.774  10.969  1.00  0.00     0.111 A 
ATOM      6  C   UNL     1      34.426 -39.282  12.303  1.00  0.00     0.134 A 
ATOM      7  C   UNL     1      35.017 -40.528  12.544  1.00  0.00     0.093 A 
ATOM      8  C   UNL     1      35.497 -41.314  11.498  1.00  0.00     0.123 A 
ATOM      9  C   UNL     1      35.401 -40.851  10.184  1.00  0.00     0.094 A 
ATOM     10  C   UNL     1      34.852 -39.595   9.914  1.00  0.00     0.146 A 
ATOM     11  O   UNL     1      34.800 -39.185   8.654  1.00  0.00    -0.452 OA
ENDROOT
BRANCH   1  12
ATOM     12  C   UNL     1      34.323 -37.665   6.845  1.00  0.00     0.021 A 
ATOM     13  C   UNL     1      35.434 -37.016   6.281  1.00  0.00     0.016 A 
ATOM     14  C   UNL     1      35.441 -36.672   4.927  1.00  0.00     0.047 A 
ATOM     15  C   UNL     1      34.330 -36.957   4.122  1.00  0.00     0.115 A 
ATOM     16  C   UNL     1      33.203 -37.931   6.035  1.00  0.00     0.016 A 
ATOM     17  C   UNL     1      33.212 -37.584   4.680  1.00  0.00     0.047 A 
BRANCH  15  18
ATOM     18  O   UNL     1      34.327 -36.619   2.771  1.00  0.00    -0.508 OA
ATOM     19  H   UNL     1      33.999 -35.715   2.452  1.00  0.00     0.293 HD
ENDBRANCH  15  18
ENDBRANCH   1  12
BRANCH   2  20
ATOM     20  O   UNL     1      33.309 -35.875   8.887  1.00  0.00    -0.502 OA
ATOM     21  H   UNL     1      32.722 -35.764   8.070  1.00  0.00     0.293 HD
ENDBRANCH   2  20
BRANCH   6  22
ATOM     22  O   UNL     1      33.895 -38.620  13.414  1.00  0.00    -0.507 OA
ATOM     23  H   UNL     1      33.262 -39.031  14.083  1.00  0.00     0.293 HD
ENDBRANCH   6  22
BRANCH   8  24
ATOM     24  O   UNL     1      36.063 -42.556  11.774  1.00  0.00    -0.508 OA
ATOM     25  H   UNL     1      37.064 -42.705  11.724  1.00  0.00     0.293 HD
ENDBRANCH   8  24
TORSDOF 5
ENDMDL
