MODEL 1
REMARK VINA RESULT:    -7.036      0.000      0.000
REMARK INTER + INTRA:          -8.763
REMARK INTER:                  -8.476
REMARK INTRA:                  -0.288
REMARK UNBOUND:                -0.288
REMARK SMILES O=c1c(O)c(-c2ccc(O)c(O)c2)oc2cc(O)cc(O)c12
REMARK SMILES IDX 5 1 3 2 2 3 1 4 22 5 20 6 19 7 17 8 16 9 15 10 14 11 6 12
REMARK SMILES IDX 7 13 8 14 9 15 13 16 11 17 10 18 12 20 4 22 21 24 18 26
REMARK H PARENT 10 19 12 21 4 23 21 25 18 27
REMARK Flexibility Score: inf
ROOT
ATOM      1  C   UNL     1      21.348   6.231  31.242  1.00  0.00     0.180 A 
ATOM      2  C   UNL     1      20.015   6.637  31.427  1.00  0.00     0.208 A 
ATOM      3  C   UNL     1      19.418   7.472  30.469  1.00  0.00     0.238 A 
ATOM      4  O   UNL     1      18.242   7.877  30.668  1.00  0.00    -0.285 OA
ATOM      5  C   UNL     1      20.156   7.877  29.330  1.00  0.00     0.111 A 
ATOM      6  C   UNL     1      19.637   8.688  28.276  1.00  0.00     0.134 A 
ATOM      7  C   UNL     1      20.496   9.135  27.263  1.00  0.00     0.093 A 
ATOM      8  C   UNL     1      21.837   8.745  27.232  1.00  0.00     0.123 A 
ATOM      9  C   UNL     1      22.336   7.905  28.224  1.00  0.00     0.094 A 
ATOM     10  C   UNL     1      21.515   7.472  29.266  1.00  0.00     0.146 A 
ATOM     11  O   UNL     1      22.033   6.681  30.198  1.00  0.00    -0.452 OA
ENDROOT
BRANCH   1  12
ATOM     12  C   UNL     1      22.037   5.332  32.195  1.00  0.00     0.025 A 
ATOM     13  C   UNL     1      23.015   5.856  33.055  1.00  0.00     0.016 A 
ATOM     14  C   UNL     1      23.693   5.021  33.948  1.00  0.00     0.051 A 
ATOM     15  C   UNL     1      23.415   3.652  33.985  1.00  0.00     0.157 A 
ATOM     16  C   UNL     1      21.774   3.950  32.220  1.00  0.00     0.062 A 
ATOM     17  C   UNL     1      22.455   3.111  33.114  1.00  0.00     0.158 A 
BRANCH  15  18
ATOM     18  O   UNL     1      24.106   2.844  34.888  1.00  0.00    -0.504 OA
ATOM     19  H   UNL     1      25.029   2.480  34.688  1.00  0.00     0.293 HD
ENDBRANCH  15  18
BRANCH  17  20
ATOM     20  O   UNL     1      22.184   1.744  33.137  1.00  0.00    -0.504 OA
ATOM     21  H   UNL     1      22.466   1.159  33.915  1.00  0.00     0.293 HD
ENDBRANCH  17  20
ENDBRANCH   1  12
BRANCH   2  22
ATOM     22  O   UNL     1      19.313   6.244  32.569  1.00  0.00    -0.502 OA
ATOM     23  H   UNL     1      19.732   6.240  33.492  1.00  0.00     0.293 HD
ENDBRANCH   2  22
BRANCH   6  24
ATOM     24  O   UNL     1      18.294   9.058  28.163  1.00  0.00    -0.507 OA
ATOM     25  H   UNL     1      17.965   9.889  27.698  1.00  0.00     0.293 HD
ENDBRANCH   6  24
BRANCH   8  26
ATOM     26  O   UNL     1      22.680   9.182  26.212  1.00  0.00    -0.508 OA
ATOM     27  H   UNL     1      23.173  10.065  26.273  1.00  0.00     0.293 HD
ENDBRANCH   8  26
TORSDOF 6
ENDMDL
MODEL 2
REMARK VINA RESULT:    -6.566     11.128     13.297
REMARK INTER + INTRA:          -8.198
REMARK INTER:                  -7.866
REMARK INTRA:                  -0.331
REMARK UNBOUND:                -0.288
REMARK SMILES O=c1c(O)c(-c2ccc(O)c(O)c2)oc2cc(O)cc(O)c12
REMARK SMILES IDX 5 1 3 2 2 3 1 4 22 5 20 6 19 7 17 8 16 9 15 10 14 11 6 12
REMARK SMILES IDX 7 13 8 14 9 15 13 16 11 17 10 18 12 20 4 22 21 24 18 26
REMARK H PARENT 10 19 12 21 4 23 21 25 18 27
REMARK Flexibility Score: inf
ROOT
ATOM      1  C   UNL     1      27.857   1.015  22.821  1.00  0.00     0.180 A 
ATOM      2  C   UNL     1      27.702   0.768  21.446  1.00  0.00     0.208 A 
ATOM      3  C   UNL     1      28.231  -0.413  20.902  1.00  0.00     0.238 A 
ATOM      4  O   UNL     1      28.137  -0.603  19.661  1.00  0.00    -0.285 OA
ATOM      5  C   UNL     1      28.896  -1.340  21.742  1.00  0.00     0.111 A 
ATOM      6  C   UNL     1      29.435  -2.586  21.305  1.00  0.00     0.134 A 
ATOM      7  C   UNL     1      30.186  -3.364  22.196  1.00  0.00     0.093 A 
ATOM      8  C   UNL     1      30.360  -2.971  23.524  1.00  0.00     0.123 A 
ATOM      9  C   UNL     1      29.787  -1.784  23.975  1.00  0.00     0.094 A 
ATOM     10  C   UNL     1      29.063  -0.970  23.102  1.00  0.00     0.146 A 
ATOM     11  O   UNL     1      28.542   0.158  23.569  1.00  0.00    -0.452 OA
ENDROOT
BRANCH   1  12
ATOM     12  C   UNL     1      27.305   2.224  23.472  1.00  0.00     0.025 A 
ATOM     13  C   UNL     1      28.133   3.340  23.671  1.00  0.00     0.016 A 
ATOM     14  C   UNL     1      27.638   4.485  24.302  1.00  0.00     0.051 A 
ATOM     15  C   UNL     1      26.316   4.527  24.756  1.00  0.00     0.157 A 
ATOM     16  C   UNL     1      25.981   2.261  23.947  1.00  0.00     0.062 A 
ATOM     17  C   UNL     1      25.483   3.409  24.582  1.00  0.00     0.158 A 
BRANCH  15  18
ATOM     18  O   UNL     1      25.850   5.684  25.379  1.00  0.00    -0.504 OA
ATOM     19  H   UNL     1      26.254   6.595  25.197  1.00  0.00     0.293 HD
ENDBRANCH  15  18
BRANCH  17  20
ATOM     20  O   UNL     1      24.169   3.439  25.045  1.00  0.00    -0.504 OA
ATOM     21  H   UNL     1      23.535   4.189  24.793  1.00  0.00     0.293 HD
ENDBRANCH  17  20
ENDBRANCH   1  12
BRANCH   2  22
ATOM     22  O   UNL     1      27.062   1.706  20.632  1.00  0.00    -0.502 OA
ATOM     23  H   UNL     1      26.566   1.446  19.787  1.00  0.00     0.293 HD
ENDBRANCH   2  22
BRANCH   6  24
ATOM     24  O   UNL     1      29.242  -3.116  20.025  1.00  0.00    -0.507 OA
ATOM     25  H   UNL     1      28.350  -3.182  19.560  1.00  0.00     0.293 HD
ENDBRANCH   6  24
BRANCH   8  26
ATOM     26  O   UNL     1      31.095  -3.758  24.408  1.00  0.00    -0.508 OA
ATOM     27  H   UNL     1      30.840  -3.839  25.385  1.00  0.00     0.293 HD
ENDBRANCH   8  26
TORSDOF 6
ENDMDL
MODEL 3
REMARK VINA RESULT:    -6.441      1.519      7.067
REMARK INTER + INTRA:          -8.047
REMARK INTER:                  -7.728
REMARK INTRA:                  -0.319
REMARK UNBOUND:                -0.288
REMARK SMILES O=c1c(O)c(-c2ccc(O)c(O)c2)oc2cc(O)cc(O)c12
REMARK SMILES IDX 5 1 3 2 2 3 1 4 22 5 20 6 19 7 17 8 16 9 15 10 14 11 6 12
REMARK SMILES IDX 7 13 8 14 9 15 13 16 11 17 10 18 12 20 4 22 21 24 18 26
REMARK H PARENT 10 19 12 21 4 23 21 25 18 27
REMARK Flexibility Score: inf
ROOT
ATOM      1  C   UNL     1      21.807   7.017  31.019  1.00  0.00     0.180 A 
ATOM      2  C   UNL     1      22.479   7.770  31.997  1.00  0.00     0.208 A 
ATOM      3  C   UNL     1      23.094   7.101  33.068  1.00  0.00     0.238 A 
ATOM      4  O   UNL     1      23.648   7.784  33.970  1.00  0.00    -0.285 OA
ATOM      5  C   UNL     1      23.044   5.688  33.138  1.00  0.00     0.111 A 
ATOM      6  C   UNL     1      23.666   4.905  34.157  1.00  0.00     0.134 A 
ATOM      7  C   UNL     1      23.441   3.523  34.199  1.00  0.00     0.093 A 
ATOM      8  C   UNL     1      22.670   2.889  33.223  1.00  0.00     0.123 A 
ATOM      9  C   UNL     1      22.107   3.637  32.192  1.00  0.00     0.094 A 
ATOM     10  C   UNL     1      22.283   5.021  32.142  1.00  0.00     0.146 A 
ATOM     11  O   UNL     1      21.721   5.699  31.148  1.00  0.00    -0.452 OA
ENDROOT
BRANCH   1  12
ATOM     12  C   UNL     1      21.156   7.648  29.849  1.00  0.00     0.025 A 
ATOM     13  C   UNL     1      19.766   7.839  29.852  1.00  0.00     0.016 A 
ATOM     14  C   UNL     1      19.128   8.414  28.749  1.00  0.00     0.051 A 
ATOM     15  C   UNL     1      19.866   8.792  27.623  1.00  0.00     0.157 A 
ATOM     16  C   UNL     1      21.894   8.010  28.707  1.00  0.00     0.062 A 
ATOM     17  C   UNL     1      21.255   8.585  27.598  1.00  0.00     0.158 A 
BRANCH  15  18
ATOM     18  O   UNL     1      19.202   9.364  26.538  1.00  0.00    -0.504 OA
ATOM     19  H   UNL     1      18.265   9.087  26.273  1.00  0.00     0.293 HD
ENDBRANCH  15  18
BRANCH  17  20
ATOM     20  O   UNL     1      21.995   8.947  26.473  1.00  0.00    -0.504 OA
ATOM     21  H   UNL     1      21.846   9.832  26.002  1.00  0.00     0.293 HD
ENDBRANCH  17  20
ENDBRANCH   1  12
BRANCH   2  22
ATOM     22  O   UNL     1      22.498   9.165  31.920  1.00  0.00    -0.502 OA
ATOM     23  H   UNL     1      21.727   9.739  32.242  1.00  0.00     0.293 HD
ENDBRANCH   2  22
BRANCH   6  24
ATOM     24  O   UNL     1      24.530   5.427  35.125  1.00  0.00    -0.507 OA
ATOM     25  H   UNL     1      24.992   4.881  35.835  1.00  0.00     0.293 HD
ENDBRANCH   6  24
BRANCH   8  26
ATOM     26  O   UNL     1      22.464   1.512  33.265  1.00  0.00    -0.508 OA
ATOM     27  H   UNL     1      21.714   1.071  32.744  1.00  0.00     0.293 HD
ENDBRANCH   8  26
TORSDOF 6
ENDMDL
MODEL 4
REMARK VINA RESULT:    -6.108     10.160     11.862
REMARK INTER + INTRA:          -7.645
REMARK INTER:                  -7.351
REMARK INTRA:                  -0.294
REMARK UNBOUND:                -0.288
REMARK SMILES O=c1c(O)c(-c2ccc(O)c(O)c2)oc2cc(O)cc(O)c12
REMARK SMILES IDX 5 1 3 2 2 3 1 4 22 5 20 6 19 7 17 8 16 9 15 10 14 11 6 12
REMARK SMILES IDX 7 13 8 14 9 15 13 16 11 17 10 18 12 20 4 22 21 24 18 26
REMARK H PARENT 10 19 12 21 4 23 21 25 18 27
REMARK Flexibility Score: inf
ROOT
ATOM      1  C   UNL     1      27.906   1.376  22.995  1.00  0.00     0.180 A 
ATOM      2  C   UNL     1      28.504   2.629  22.775  1.00  0.00     0.208 A 
ATOM      3  C   UNL     1      27.973   3.759  23.418  1.00  0.00     0.238 A 
ATOM      4  O   UNL     1      28.478   4.886  23.174  1.00  0.00    -0.285 OA
ATOM      5  C   UNL     1      26.861   3.618  24.284  1.00  0.00     0.111 A 
ATOM      6  C   UNL     1      26.268   4.689  25.018  1.00  0.00     0.134 A 
ATOM      7  C   UNL     1      25.092   4.459  25.744  1.00  0.00     0.093 A 
ATOM      8  C   UNL     1      24.526   3.184  25.813  1.00  0.00     0.123 A 
ATOM      9  C   UNL     1      25.133   2.121  25.148  1.00  0.00     0.094 A 
ATOM     10  C   UNL     1      26.285   2.326  24.388  1.00  0.00     0.146 A 
ATOM     11  O   UNL     1      26.826   1.288  23.760  1.00  0.00    -0.452 OA
ENDROOT
BRANCH   1  12
ATOM     12  C   UNL     1      28.425   0.136  22.373  1.00  0.00     0.025 A 
ATOM     13  C   UNL     1      28.077  -0.169  21.047  1.00  0.00     0.016 A 
ATOM     14  C   UNL     1      28.538  -1.344  20.447  1.00  0.00     0.051 A 
ATOM     15  C   UNL     1      29.339  -2.238  21.165  1.00  0.00     0.157 A 
ATOM     16  C   UNL     1      29.214  -0.774  23.099  1.00  0.00     0.062 A 
ATOM     17  C   UNL     1      29.675  -1.955  22.499  1.00  0.00     0.158 A 
BRANCH  15  18
ATOM     18  O   UNL     1      29.785  -3.401  20.539  1.00  0.00    -0.504 OA
ATOM     19  H   UNL     1      29.232  -3.884  19.842  1.00  0.00     0.293 HD
ENDBRANCH  15  18
BRANCH  17  20
ATOM     20  O   UNL     1      30.462  -2.848  23.225  1.00  0.00    -0.504 OA
ATOM     21  H   UNL     1      30.947  -3.616  22.774  1.00  0.00     0.293 HD
ENDBRANCH  17  20
ENDBRANCH   1  12
BRANCH   2  22
ATOM     22  O   UNL     1      29.586   2.747  21.899  1.00  0.00    -0.502 OA
ATOM     23  H   UNL     1      30.294   3.464  22.003  1.00  0.00     0.293 HD
ENDBRANCH   2  22
BRANCH   6  24
ATOM     24  O   UNL     1      26.803   5.979  25.090  1.00  0.00    -0.507 OA
ATOM     25  H   UNL     1      26.417   6.786  24.627  1.00  0.00     0.293 HD
ENDBRANCH   6  24
BRANCH   8  26
ATOM     26  O   UNL     1      23.365   2.961  26.550  1.00  0.00    -0.508 OA
ATOM     27  H   UNL     1      22.838   2.099  26.463  1.00  0.00     0.293 HD
ENDBRANCH   8  26
TORSDOF 6
ENDMDL
MODEL 5
REMARK VINA RESULT:    -6.095     11.120     13.090
REMARK INTER + INTRA:          -7.630
REMARK INTER:                  -7.308
REMARK INTRA:                  -0.322
REMARK UNBOUND:                -0.288
REMARK SMILES O=c1c(O)c(-c2ccc(O)c(O)c2)oc2cc(O)cc(O)c12
REMARK SMILES IDX 5 1 3 2 2 3 1 4 22 5 20 6 19 7 17 8 16 9 15 10 14 11 6 12
REMARK SMILES IDX 7 13 8 14 9 15 13 16 11 17 10 18 12 20 4 22 21 24 18 26
REMARK H PARENT 10 19 12 21 4 23 21 25 18 27
REMARK Flexibility Score: inf
ROOT
ATOM      1  C   UNL     1      28.191   0.953  21.866  1.00  0.00     0.180 A 
ATOM      2  C   UNL     1      29.119   1.998  21.726  1.00  0.00     0.208 A 
ATOM      3  C   UNL     1      28.947   3.168  22.483  1.00  0.00     0.238 A 
ATOM      4  O   UNL     1      29.751   4.122  22.314  1.00  0.00    -0.285 OA
ATOM      5  C   UNL     1      27.858   3.271  23.382  1.00  0.00     0.111 A 
ATOM      6  C   UNL     1      27.610   4.394  24.228  1.00  0.00     0.134 A 
ATOM      7  C   UNL     1      26.430   4.442  24.982  1.00  0.00     0.093 A 
ATOM      8  C   UNL     1      25.523   3.381  24.969  1.00  0.00     0.123 A 
ATOM      9  C   UNL     1      25.786   2.255  24.192  1.00  0.00     0.094 A 
ATOM     10  C   UNL     1      26.936   2.192  23.402  1.00  0.00     0.146 A 
ATOM     11  O   UNL     1      27.144   1.106  22.668  1.00  0.00    -0.452 OA
ENDROOT
BRANCH   1  12
ATOM     12  C   UNL     1      28.320  -0.320  21.121  1.00  0.00     0.025 A 
ATOM     13  C   UNL     1      29.110  -1.353  21.649  1.00  0.00     0.016 A 
ATOM     14  C   UNL     1      29.263  -2.554  20.952  1.00  0.00     0.051 A 
ATOM     15  C   UNL     1      28.642  -2.737  19.713  1.00  0.00     0.157 A 
ATOM     16  C   UNL     1      27.712  -0.498  19.864  1.00  0.00     0.062 A 
ATOM     17  C   UNL     1      27.866  -1.703  19.162  1.00  0.00     0.158 A 
BRANCH  15  18
ATOM     18  O   UNL     1      28.810  -3.948  19.042  1.00  0.00    -0.504 OA
ATOM     19  H   UNL     1      28.878  -4.831  19.533  1.00  0.00     0.293 HD
ENDBRANCH  15  18
BRANCH  17  20
ATOM     20  O   UNL     1      27.255  -1.874  17.921  1.00  0.00    -0.504 OA
ATOM     21  H   UNL     1      27.667  -1.504  17.072  1.00  0.00     0.293 HD
ENDBRANCH  17  20
ENDBRANCH   1  12
BRANCH   2  22
ATOM     22  O   UNL     1      30.174   1.884  20.817  1.00  0.00    -0.502 OA
ATOM     23  H   UNL     1      30.031   1.644  19.843  1.00  0.00     0.293 HD
ENDBRANCH   2  22
BRANCH   6  24
ATOM     24  O   UNL     1      28.495   5.465  24.385  1.00  0.00    -0.507 OA
ATOM     25  H   UNL     1      29.481   5.429  24.180  1.00  0.00     0.293 HD
ENDBRANCH   6  24
BRANCH   8  26
ATOM     26  O   UNL     1      24.359   3.431  25.734  1.00  0.00    -0.508 OA
ATOM     27  H   UNL     1      24.385   3.635  26.726  1.00  0.00     0.293 HD
ENDBRANCH   8  26
TORSDOF 6
ENDMDL
MODEL 6
REMARK VINA RESULT:    -5.997      9.168     11.230
REMARK INTER + INTRA:          -7.513
REMARK INTER:                  -7.189
REMARK INTRA:                  -0.323
REMARK UNBOUND:                -0.288
REMARK SMILES O=c1c(O)c(-c2ccc(O)c(O)c2)oc2cc(O)cc(O)c12
REMARK SMILES IDX 5 1 3 2 2 3 1 4 22 5 20 6 19 7 17 8 16 9 15 10 14 11 6 12
REMARK SMILES IDX 7 13 8 14 9 15 13 16 11 17 10 18 12 20 4 22 21 24 18 26
REMARK H PARENT 10 19 12 21 4 23 21 25 18 27
REMARK Flexibility Score: inf
ROOT
ATOM      1  C   UNL     1      27.394   2.793  23.371  1.00  0.00     0.180 A 
ATOM      2  C   UNL     1      26.233   3.073  24.113  1.00  0.00     0.208 A 
ATOM      3  C   UNL     1      26.248   4.141  25.024  1.00  0.00     0.238 A 
ATOM      4  O   UNL     1      25.223   4.353  25.724  1.00  0.00    -0.285 OA
ATOM      5  C   UNL     1      27.417   4.926  25.170  1.00  0.00     0.111 A 
ATOM      6  C   UNL     1      27.531   6.056  26.034  1.00  0.00     0.134 A 
ATOM      7  C   UNL     1      28.776   6.679  26.196  1.00  0.00     0.093 A 
ATOM      8  C   UNL     1      29.893   6.251  25.476  1.00  0.00     0.123 A 
ATOM      9  C   UNL     1      29.777   5.186  24.587  1.00  0.00     0.094 A 
ATOM     10  C   UNL     1      28.559   4.523  24.430  1.00  0.00     0.146 A 
ATOM     11  O   UNL     1      28.494   3.506  23.579  1.00  0.00    -0.452 OA
ENDROOT
BRANCH   1  12
ATOM     12  C   UNL     1      27.447   1.700  22.374  1.00  0.00     0.025 A 
ATOM     13  C   UNL     1      28.030   0.473  22.726  1.00  0.00     0.016 A 
ATOM     14  C   UNL     1      28.110  -0.566  21.794  1.00  0.00     0.051 A 
ATOM     15  C   UNL     1      27.623  -0.390  20.495  1.00  0.00     0.157 A 
ATOM     16  C   UNL     1      26.976   1.882  21.061  1.00  0.00     0.062 A 
ATOM     17  C   UNL     1      27.057   0.842  20.124  1.00  0.00     0.158 A 
BRANCH  15  18
ATOM     18  O   UNL     1      27.714  -1.444  19.588  1.00  0.00    -0.504 OA
ATOM     19  H   UNL     1      26.928  -2.050  19.386  1.00  0.00     0.293 HD
ENDBRANCH  15  18
BRANCH  17  20
ATOM     20  O   UNL     1      26.582   1.029  18.827  1.00  0.00    -0.504 OA
ATOM     21  H   UNL     1      25.612   1.259  18.645  1.00  0.00     0.293 HD
ENDBRANCH  17  20
ENDBRANCH   1  12
BRANCH   2  22
ATOM     22  O   UNL     1      25.097   2.272  23.968  1.00  0.00    -0.502 OA
ATOM     23  H   UNL     1      24.206   2.642  23.660  1.00  0.00     0.293 HD
ENDBRANCH   2  22
BRANCH   6  24
ATOM     24  O   UNL     1      26.456   6.620  26.729  1.00  0.00    -0.507 OA
ATOM     25  H   UNL     1      25.703   6.095  27.145  1.00  0.00     0.293 HD
ENDBRANCH   6  24
BRANCH   8  26
ATOM     26  O   UNL     1      31.124   6.886  25.632  1.00  0.00    -0.508 OA
ATOM     27  H   UNL     1      31.189   7.883  25.802  1.00  0.00     0.293 HD
ENDBRANCH   8  26
TORSDOF 6
ENDMDL
MODEL 7
REMARK VINA RESULT:    -5.740     10.993     13.507
REMARK INTER + INTRA:          -7.203
REMARK INTER:                  -7.095
REMARK INTRA:                  -0.108
REMARK UNBOUND:                -0.288
REMARK SMILES O=c1c(O)c(-c2ccc(O)c(O)c2)oc2cc(O)cc(O)c12
REMARK SMILES IDX 5 1 3 2 2 3 1 4 22 5 20 6 19 7 17 8 16 9 15 10 14 11 6 12
REMARK SMILES IDX 7 13 8 14 9 15 13 16 11 17 10 18 12 20 4 22 21 24 18 26
REMARK H PARENT 10 19 12 21 4 23 21 25 18 27
REMARK Flexibility Score: inf
ROOT
ATOM      1  C   UNL     1      27.607   1.732  20.886  1.00  0.00     0.180 A 
ATOM      2  C   UNL     1      28.491   2.825  20.886  1.00  0.00     0.208 A 
ATOM      3  C   UNL     1      28.616   3.600  22.051  1.00  0.00     0.238 A 
ATOM      4  O   UNL     1      29.367   4.610  22.028  1.00  0.00    -0.285 OA
ATOM      5  C   UNL     1      27.868   3.261  23.205  1.00  0.00     0.111 A 
ATOM      6  C   UNL     1      27.947   3.952  24.451  1.00  0.00     0.134 A 
ATOM      7  C   UNL     1      27.066   3.612  25.486  1.00  0.00     0.093 A 
ATOM      8  C   UNL     1      26.154   2.564  25.340  1.00  0.00     0.123 A 
ATOM      9  C   UNL     1      26.111   1.846  24.147  1.00  0.00     0.094 A 
ATOM     10  C   UNL     1      26.952   2.184  23.085  1.00  0.00     0.146 A 
ATOM     11  O   UNL     1      26.872   1.481  21.962  1.00  0.00    -0.452 OA
ENDROOT
BRANCH   1  12
ATOM     12  C   UNL     1      27.440   0.855  19.705  1.00  0.00     0.025 A 
ATOM     13  C   UNL     1      26.949   1.396  18.506  1.00  0.00     0.016 A 
ATOM     14  C   UNL     1      26.764   0.582  17.386  1.00  0.00     0.051 A 
ATOM     15  C   UNL     1      27.051  -0.785  17.449  1.00  0.00     0.157 A 
ATOM     16  C   UNL     1      27.710  -0.524  19.772  1.00  0.00     0.062 A 
ATOM     17  C   UNL     1      27.522  -1.343  18.649  1.00  0.00     0.158 A 
BRANCH  15  18
ATOM     18  O   UNL     1      26.859  -1.571  16.314  1.00  0.00    -0.504 OA
ATOM     19  H   UNL     1      26.457  -2.500  16.364  1.00  0.00     0.293 HD
ENDBRANCH  15  18
BRANCH  17  20
ATOM     20  O   UNL     1      27.797  -2.708  18.723  1.00  0.00    -0.504 OA
ATOM     21  H   UNL     1      28.651  -3.098  18.341  1.00  0.00     0.293 HD
ENDBRANCH  17  20
ENDBRANCH   1  12
BRANCH   2  22
ATOM     22  O   UNL     1      29.202   3.154  19.729  1.00  0.00    -0.502 OA
ATOM     23  H   UNL     1      29.904   3.885  19.711  1.00  0.00     0.293 HD
ENDBRANCH   2  22
BRANCH   6  24
ATOM     24  O   UNL     1      28.883   4.952  24.733  1.00  0.00    -0.507 OA
ATOM     25  H   UNL     1      29.848   4.784  24.968  1.00  0.00     0.293 HD
ENDBRANCH   6  24
BRANCH   8  26
ATOM     26  O   UNL     1      25.292   2.222  26.380  1.00  0.00    -0.508 OA
ATOM     27  H   UNL     1      24.294   2.381  26.315  1.00  0.00     0.293 HD
ENDBRANCH   8  26
TORSDOF 6
ENDMDL
MODEL 8
REMARK VINA RESULT:    -5.740     11.653     13.483
REMARK INTER + INTRA:          -7.203
REMARK INTER:                  -6.885
REMARK INTRA:                  -0.318
REMARK UNBOUND:                -0.288
REMARK SMILES O=c1c(O)c(-c2ccc(O)c(O)c2)oc2cc(O)cc(O)c12
REMARK SMILES IDX 5 1 3 2 2 3 1 4 22 5 20 6 19 7 17 8 16 9 15 10 14 11 6 12
REMARK SMILES IDX 7 13 8 14 9 15 13 16 11 17 10 18 12 20 4 22 21 24 18 26
REMARK H PARENT 10 19 12 21 4 23 21 25 18 27
REMARK Flexibility Score: inf
ROOT
ATOM      1  C   UNL     1      27.782   0.676  22.389  1.00  0.00     0.180 A 
ATOM      2  C   UNL     1      28.536  -0.346  22.992  1.00  0.00     0.208 A 
ATOM      3  C   UNL     1      28.964  -1.430  22.208  1.00  0.00     0.238 A 
ATOM      4  O   UNL     1      29.591  -2.368  22.766  1.00  0.00    -0.285 OA
ATOM      5  C   UNL     1      28.646  -1.470  20.829  1.00  0.00     0.111 A 
ATOM      6  C   UNL     1      29.062  -2.500  19.933  1.00  0.00     0.134 A 
ATOM      7  C   UNL     1      28.580  -2.506  18.617  1.00  0.00     0.093 A 
ATOM      8  C   UNL     1      27.751  -1.484  18.150  1.00  0.00     0.123 A 
ATOM      9  C   UNL     1      27.388  -0.444  19.001  1.00  0.00     0.094 A 
ATOM     10  C   UNL     1      27.823  -0.429  20.328  1.00  0.00     0.146 A 
ATOM     11  O   UNL     1      27.445   0.576  21.109  1.00  0.00    -0.452 OA
ENDROOT
BRANCH   1  12
ATOM     12  C   UNL     1      27.317   1.862  23.144  1.00  0.00     0.025 A 
ATOM     13  C   UNL     1      28.182   2.954  23.314  1.00  0.00     0.016 A 
ATOM     14  C   UNL     1      27.771   4.075  24.041  1.00  0.00     0.051 A 
ATOM     15  C   UNL     1      26.499   4.116  24.620  1.00  0.00     0.157 A 
ATOM     16  C   UNL     1      26.045   1.896  23.745  1.00  0.00     0.062 A 
ATOM     17  C   UNL     1      25.632   3.019  24.477  1.00  0.00     0.158 A 
BRANCH  15  18
ATOM     18  O   UNL     1      26.116   5.248  25.338  1.00  0.00    -0.504 OA
ATOM     19  H   UNL     1      26.780   5.798  25.871  1.00  0.00     0.293 HD
ENDBRANCH  15  18
BRANCH  17  20
ATOM     20  O   UNL     1      24.368   3.047  25.063  1.00  0.00    -0.504 OA
ATOM     21  H   UNL     1      24.102   2.382  25.781  1.00  0.00     0.293 HD
ENDBRANCH  17  20
ENDBRANCH   1  12
BRANCH   2  22
ATOM     22  O   UNL     1      28.819  -0.297  24.359  1.00  0.00    -0.502 OA
ATOM     23  H   UNL     1      28.183  -0.658  25.061  1.00  0.00     0.293 HD
ENDBRANCH   2  22
BRANCH   6  24
ATOM     24  O   UNL     1      29.961  -3.516  20.272  1.00  0.00    -0.507 OA
ATOM     25  H   UNL     1      29.719  -4.491  20.357  1.00  0.00     0.293 HD
ENDBRANCH   6  24
BRANCH   8  26
ATOM     26  O   UNL     1      27.289  -1.489  16.835  1.00  0.00    -0.508 OA
ATOM     27  H   UNL     1      26.444  -1.983  16.571  1.00  0.00     0.293 HD
ENDBRANCH   8  26
TORSDOF 6
ENDMDL
MODEL 9
REMARK VINA RESULT:    -5.614      3.390      5.394
REMARK INTER + INTRA:          -7.051
REMARK INTER:                  -6.768
REMARK INTRA:                  -0.283
REMARK UNBOUND:                -0.288
REMARK SMILES O=c1c(O)c(-c2ccc(O)c(O)c2)oc2cc(O)cc(O)c12
REMARK SMILES IDX 5 1 3 2 2 3 1 4 22 5 20 6 19 7 17 8 16 9 15 10 14 11 6 12
REMARK SMILES IDX 7 13 8 14 9 15 13 16 11 17 10 18 12 20 4 22 21 24 18 26
REMARK H PARENT 10 19 12 21 4 23 21 25 18 27
REMARK Flexibility Score: inf
ROOT
ATOM      1  C   UNL     1      23.255   8.738  29.900  1.00  0.00     0.180 A 
ATOM      2  C   UNL     1      22.701   9.377  28.778  1.00  0.00     0.208 A 
ATOM      3  C   UNL     1      21.331   9.222  28.512  1.00  0.00     0.238 A 
ATOM      4  O   UNL     1      20.852   9.752  27.475  1.00  0.00    -0.285 OA
ATOM      5  C   UNL     1      20.529   8.442  29.381  1.00  0.00     0.111 A 
ATOM      6  C   UNL     1      19.123   8.250  29.230  1.00  0.00     0.134 A 
ATOM      7  C   UNL     1      18.455   7.353  30.074  1.00  0.00     0.093 A 
ATOM      8  C   UNL     1      19.130   6.693  31.102  1.00  0.00     0.123 A 
ATOM      9  C   UNL     1      20.491   6.920  31.294  1.00  0.00     0.094 A 
ATOM     10  C   UNL     1      21.192   7.780  30.447  1.00  0.00     0.146 A 
ATOM     11  O   UNL     1      22.491   7.961  30.658  1.00  0.00    -0.452 OA
ENDROOT
BRANCH   1  12
ATOM     12  C   UNL     1      24.685   8.875  30.259  1.00  0.00     0.025 A 
ATOM     13  C   UNL     1      25.062   9.785  31.259  1.00  0.00     0.016 A 
ATOM     14  C   UNL     1      26.408   9.946  31.599  1.00  0.00     0.051 A 
ATOM     15  C   UNL     1      27.397   9.213  30.936  1.00  0.00     0.157 A 
ATOM     16  C   UNL     1      25.683   8.154  29.579  1.00  0.00     0.062 A 
ATOM     17  C   UNL     1      27.035   8.315  29.917  1.00  0.00     0.158 A 
BRANCH  15  18
ATOM     18  O   UNL     1      28.731   9.393  31.298  1.00  0.00    -0.504 OA
ATOM     19  H   UNL     1      29.354  10.000  30.778  1.00  0.00     0.293 HD
ENDBRANCH  15  18
BRANCH  17  20
ATOM     20  O   UNL     1      28.017   7.592  29.243  1.00  0.00    -0.504 OA
ATOM     21  H   UNL     1      28.067   6.581  29.303  1.00  0.00     0.293 HD
ENDBRANCH  17  20
ENDBRANCH   1  12
BRANCH   2  22
ATOM     22  O   UNL     1      23.515  10.124  27.922  1.00  0.00    -0.502 OA
ATOM     23  H   UNL     1      23.138  10.706  27.183  1.00  0.00     0.293 HD
ENDBRANCH   2  22
BRANCH   6  24
ATOM     24  O   UNL     1      18.337   8.930  28.295  1.00  0.00    -0.507 OA
ATOM     25  H   UNL     1      17.577   9.549  28.527  1.00  0.00     0.293 HD
ENDBRANCH   6  24
BRANCH   8  26
ATOM     26  O   UNL     1      18.455   5.814  31.947  1.00  0.00    -0.508 OA
ATOM     27  H   UNL     1      17.484   5.570  31.791  1.00  0.00     0.293 HD
ENDBRANCH   8  26
TORSDOF 6
ENDMDL
