MODEL 1
REMARK VINA RESULT:    -3.719      0.000      0.000
REMARK INTER + INTRA:          -4.065
REMARK INTER:                  -4.589
REMARK INTRA:                   0.524
REMARK UNBOUND:                 0.524
REMARK SMILES C=C1[C@H]2CC[C@@H]3[C@@H]2C(C)(C)CCC[C@]13C
REMARK SMILES IDX 14 1 6 2 7 3 3 4 2 5 1 6 4 7 5 8 15 9 8 10 9 11 10 12 11 13
REMARK SMILES IDX 13 15 12 16
REMARK H PARENT
REMARK Flexibility Score: 80.00
ROOT
ATOM      1  C   UNL     1     136.990 133.555 137.490  1.00  0.00    -0.008 C 
ATOM      2  C   UNL     1     136.834 132.480 136.425  1.00  0.00     0.003 C 
ATOM      3  C   UNL     1     136.696 133.386 135.187  1.00  0.00     0.006 C 
ATOM      4  C   UNL     1     138.106 133.942 135.298  1.00  0.00     0.019 C 
ATOM      5  C   UNL     1     137.998 134.452 136.754  1.00  0.00    -0.068 C 
ATOM      6  C   UNL     1     138.618 135.527 137.249  1.00  0.00     0.009 C 
ATOM      7  C   UNL     1     138.977 132.693 135.314  1.00  0.00     0.008 C 
ATOM      8  C   UNL     1     138.128 131.693 136.101  1.00  0.00     0.005 C 
ATOM      9  C   UNL     1     137.587 133.023 138.810  1.00  0.00     0.016 C 
ENDROOT
BRANCH   3  10
ATOM     10  C   UNL     1     135.391 133.067 134.425  1.00  0.00    -0.032 C 
ATOM     11  C   UNL     1     135.419 131.633 133.851  1.00  0.00     0.011 C 
ATOM     12  C   UNL     1     135.171 134.039 133.232  1.00  0.00     0.011 C 
BRANCH  10  13
ATOM     13  C   UNL     1     134.217 133.227 135.497  1.00  0.00     0.007 CG0
ATOM     14  G   UNL     1     134.423 134.325 136.629  1.00  0.00     0.000 G0
ENDBRANCH  10  13
ENDBRANCH   3  10
BRANCH   1  15
ATOM     15  C   UNL     1     135.533 134.150 137.763  1.00  0.00     0.011 C 
BRANCH  15  16
ATOM     16  C   UNL     1     134.425 134.328 136.624  1.00  0.00     0.001 CG0
ATOM     17  G   UNL     1     134.216 133.220 135.503  1.00  0.00     0.000 G0
ENDBRANCH  15  16
ENDBRANCH   1  15
TORSDOF 0
ENDMDL
MODEL 2
REMARK VINA RESULT:    -3.680      5.094      6.809
REMARK INTER + INTRA:          -4.017
REMARK INTER:                  -4.543
REMARK INTRA:                   0.526
REMARK UNBOUND:                 0.524
REMARK SMILES C=C1[C@H]2CC[C@@H]3[C@@H]2C(C)(C)CCC[C@]13C
REMARK SMILES IDX 14 1 6 2 7 3 3 4 2 5 1 6 4 7 5 8 15 9 8 10 9 11 10 12 11 13
REMARK SMILES IDX 13 15 12 16
REMARK H PARENT
REMARK Flexibility Score: 80.00
ROOT
ATOM      1  C   UNL     1     135.642 139.055 137.689  1.00  0.00    -0.008 C 
ATOM      2  C   UNL     1     135.797 140.107 136.600  1.00  0.00     0.003 C 
ATOM      3  C   UNL     1     135.948 139.172 135.384  1.00  0.00     0.006 C 
ATOM      4  C   UNL     1     134.541 138.610 135.500  1.00  0.00     0.019 C 
ATOM      5  C   UNL     1     134.644 138.135 136.968  1.00  0.00    -0.068 C 
ATOM      6  C   UNL     1     134.027 137.068 137.485  1.00  0.00     0.009 C 
ATOM      7  C   UNL     1     133.662 139.854 135.482  1.00  0.00     0.008 C 
ATOM      8  C   UNL     1     134.501 140.877 136.250  1.00  0.00     0.005 C 
ATOM      9  C   UNL     1     135.033 139.615 138.992  1.00  0.00     0.016 C 
ENDROOT
BRANCH   3  10
ATOM     10  C   UNL     1     137.256 139.482 134.623  1.00  0.00    -0.032 C 
ATOM     11  C   UNL     1     137.208 140.887 133.984  1.00  0.00     0.011 C 
ATOM     12  C   UNL     1     137.509 138.461 133.478  1.00  0.00     0.011 C 
BRANCH  10  13
ATOM     13  C   UNL     1     138.420 139.394 135.714  1.00  0.00     0.007 CG0
ATOM     14  G   UNL     1     138.237 138.322 136.874  1.00  0.00     0.000 G0
ENDBRANCH  10  13
ENDBRANCH   3  10
BRANCH   1  15
ATOM     15  C   UNL     1     137.101 138.477 137.984  1.00  0.00     0.011 C 
BRANCH  15  16
ATOM     16  C   UNL     1     138.229 138.317 136.864  1.00  0.00     0.001 CG0
ATOM     17  G   UNL     1     138.416 139.410 135.724  1.00  0.00     0.000 G0
ENDBRANCH  15  16
ENDBRANCH   1  15
TORSDOF 0
ENDMDL
MODEL 3
REMARK VINA RESULT:    -3.659      1.500      3.094
REMARK INTER + INTRA:          -3.991
REMARK INTER:                  -4.500
REMARK INTRA:                   0.509
REMARK UNBOUND:                 0.524
REMARK SMILES C=C1[C@H]2CC[C@@H]3[C@@H]2C(C)(C)CCC[C@]13C
REMARK SMILES IDX 14 1 6 2 7 3 3 4 2 5 1 6 4 7 5 8 15 9 8 10 9 11 10 12 11 13
REMARK SMILES IDX 13 15 12 16
REMARK H PARENT
REMARK Flexibility Score: 80.00
ROOT
ATOM      1  C   UNL     1     137.674 134.479 134.806  1.00  0.00    -0.008 C 
ATOM      2  C   UNL     1     137.260 134.155 136.234  1.00  0.00     0.003 C 
ATOM      3  C   UNL     1     136.028 133.280 135.935  1.00  0.00     0.006 C 
ATOM      4  C   UNL     1     136.834 132.179 135.264  1.00  0.00     0.019 C 
ATOM      5  C   UNL     1     137.534 133.068 134.210  1.00  0.00    -0.068 C 
ATOM      6  C   UNL     1     137.882 132.686 132.978  1.00  0.00     0.009 C 
ATOM      7  C   UNL     1     137.873 131.812 136.316  1.00  0.00     0.008 C 
ATOM      8  C   UNL     1     138.187 133.159 136.971  1.00  0.00     0.005 C 
ATOM      9  C   UNL     1     139.128 134.983 134.693  1.00  0.00     0.016 C 
ENDROOT
BRANCH   3  10
ATOM     10  C   UNL     1     134.779 133.840 136.650  1.00  0.00    -0.032 C 
ATOM     11  C   UNL     1     134.956 133.809 138.184  1.00  0.00     0.011 C 
ATOM     12  C   UNL     1     133.506 133.013 136.314  1.00  0.00     0.011 C 
BRANCH  10  13
ATOM     13  C   UNL     1     134.621 135.342 136.127  1.00  0.00     0.007 CG0
ATOM     14  G   UNL     1     135.128 135.644 134.650  1.00  0.00     0.000 G0
ENDBRANCH  10  13
ENDBRANCH   3  10
BRANCH   1  15
ATOM     15  C   UNL     1     136.673 135.606 134.279  1.00  0.00     0.011 C 
BRANCH  15  16
ATOM     16  C   UNL     1     135.121 135.656 134.656  1.00  0.00     0.001 CG0
ATOM     17  G   UNL     1     134.627 135.348 136.136  1.00  0.00     0.000 G0
ENDBRANCH  15  16
ENDBRANCH   1  15
TORSDOF 0
ENDMDL
MODEL 4
REMARK VINA RESULT:    -3.631      1.417      2.796
REMARK INTER + INTRA:          -3.956
REMARK INTER:                  -4.455
REMARK INTRA:                   0.499
REMARK UNBOUND:                 0.524
REMARK SMILES C=C1[C@H]2CC[C@@H]3[C@@H]2C(C)(C)CCC[C@]13C
REMARK SMILES IDX 14 1 6 2 7 3 3 4 2 5 1 6 4 7 5 8 15 9 8 10 9 11 10 12 11 13
REMARK SMILES IDX 13 15 12 16
REMARK H PARENT
REMARK Flexibility Score: 80.00
ROOT
ATOM      1  C   UNL     1     138.019 134.847 135.845  1.00  0.00    -0.008 C 
ATOM      2  C   UNL     1     136.678 134.363 136.376  1.00  0.00     0.003 C 
ATOM      3  C   UNL     1     136.621 132.993 135.671  1.00  0.00     0.006 C 
ATOM      4  C   UNL     1     137.818 132.432 136.420  1.00  0.00     0.019 C 
ATOM      5  C   UNL     1     138.819 133.550 136.048  1.00  0.00    -0.068 C 
ATOM      6  C   UNL     1     140.133 133.388 135.865  1.00  0.00     0.009 C 
ATOM      7  C   UNL     1     137.440 132.625 137.884  1.00  0.00     0.008 C 
ATOM      8  C   UNL     1     136.680 133.952 137.869  1.00  0.00     0.005 C 
ATOM      9  C   UNL     1     138.621 136.002 136.673  1.00  0.00     0.016 C 
ENDROOT
BRANCH   3  10
ATOM     10  C   UNL     1     135.325 132.867 134.840  1.00  0.00    -0.032 C 
ATOM     11  C   UNL     1     134.075 132.944 135.745  1.00  0.00     0.011 C 
ATOM     12  C   UNL     1     135.262 131.512 134.079  1.00  0.00     0.011 C 
BRANCH  10  13
ATOM     13  C   UNL     1     135.355 134.085 133.808  1.00  0.00     0.007 CG0
ATOM     14  G   UNL     1     136.787 134.591 133.336  1.00  0.00     0.000 G0
ENDBRANCH  10  13
ENDBRANCH   3  10
BRANCH   1  15
ATOM     15  C   UNL     1     137.772 135.335 134.344  1.00  0.00     0.011 C 
BRANCH  15  16
ATOM     16  C   UNL     1     136.777 134.603 133.330  1.00  0.00     0.001 CG0
ATOM     17  G   UNL     1     135.352 134.085 133.810  1.00  0.00     0.000 G0
ENDBRANCH  15  16
ENDBRANCH   1  15
TORSDOF 0
ENDMDL
MODEL 5
REMARK VINA RESULT:    -3.626      2.957      4.665
REMARK INTER + INTRA:          -3.950
REMARK INTER:                  -4.468
REMARK INTRA:                   0.519
REMARK UNBOUND:                 0.524
REMARK SMILES C=C1[C@H]2CC[C@@H]3[C@@H]2C(C)(C)CCC[C@]13C
REMARK SMILES IDX 14 1 6 2 7 3 3 4 2 5 1 6 4 7 5 8 15 9 8 10 9 11 10 12 11 13
REMARK SMILES IDX 13 15 12 16
REMARK H PARENT
REMARK Flexibility Score: 80.00
ROOT
ATOM      1  C   UNL     1     139.062 136.876 137.735  1.00  0.00    -0.008 C 
ATOM      2  C   UNL     1     140.064 136.680 136.605  1.00  0.00     0.003 C 
ATOM      3  C   UNL     1     139.076 136.521 135.433  1.00  0.00     0.006 C 
ATOM      4  C   UNL     1     138.543 137.940 135.543  1.00  0.00     0.019 C 
ATOM      5  C   UNL     1     138.129 137.875 137.032  1.00  0.00    -0.068 C 
ATOM      6  C   UNL     1     137.096 138.521 137.580  1.00  0.00     0.009 C 
ATOM      7  C   UNL     1     139.799 138.796 135.454  1.00  0.00     0.008 C 
ATOM      8  C   UNL     1     140.840 137.955 136.196  1.00  0.00     0.005 C 
ATOM      9  C   UNL     1     139.687 137.501 139.000  1.00  0.00     0.016 C 
ENDROOT
BRANCH   3  10
ATOM     10  C   UNL     1     139.331 135.192 134.688  1.00  0.00    -0.032 C 
ATOM     11  C   UNL     1     140.728 135.185 134.029  1.00  0.00     0.011 C 
ATOM     12  C   UNL     1     138.287 134.958 133.561  1.00  0.00     0.011 C 
BRANCH  10  13
ATOM     13  C   UNL     1     139.221 134.048 135.797  1.00  0.00     0.007 CG0
ATOM     14  G   UNL     1     138.207 134.306 136.995  1.00  0.00     0.000 G0
ENDBRANCH  10  13
ENDBRANCH   3  10
BRANCH   1  15
ATOM     15  C   UNL     1     138.473 135.434 138.084  1.00  0.00     0.011 C 
BRANCH  15  16
ATOM     16  C   UNL     1     138.201 134.302 136.989  1.00  0.00     0.001 CG0
ATOM     17  G   UNL     1     139.222 134.054 135.795  1.00  0.00     0.000 G0
ENDBRANCH  15  16
ENDBRANCH   1  15
TORSDOF 0
ENDMDL
MODEL 6
REMARK VINA RESULT:    -3.623      3.061      4.771
REMARK INTER + INTRA:          -3.947
REMARK INTER:                  -4.456
REMARK INTRA:                   0.510
REMARK UNBOUND:                 0.524
REMARK SMILES C=C1[C@H]2CC[C@@H]3[C@@H]2C(C)(C)CCC[C@]13C
REMARK SMILES IDX 14 1 6 2 7 3 3 4 2 5 1 6 4 7 5 8 15 9 8 10 9 11 10 12 11 13
REMARK SMILES IDX 13 15 12 16
REMARK H PARENT
REMARK Flexibility Score: 80.00
ROOT
ATOM      1  C   UNL     1     133.722 135.739 137.425  1.00  0.00    -0.008 C 
ATOM      2  C   UNL     1     132.605 135.853 136.397  1.00  0.00     0.003 C 
ATOM      3  C   UNL     1     133.460 135.873 135.115  1.00  0.00     0.006 C 
ATOM      4  C   UNL     1     133.979 134.457 135.305  1.00  0.00     0.019 C 
ATOM      5  C   UNL     1     134.556 134.652 136.726  1.00  0.00    -0.068 C 
ATOM      6  C   UNL     1     135.633 134.035 137.220  1.00  0.00     0.009 C 
ATOM      7  C   UNL     1     132.706 133.630 135.438  1.00  0.00     0.008 C 
ATOM      8  C   UNL     1     131.768 134.566 136.202  1.00  0.00     0.005 C 
ATOM      9  C   UNL     1     133.232 135.256 138.806  1.00  0.00     0.016 C 
ENDROOT
BRANCH   3  10
ATOM     10  C   UNL     1     133.146 137.130 134.274  1.00  0.00    -0.032 C 
ATOM     11  C   UNL     1     131.678 137.125 133.795  1.00  0.00     0.011 C 
ATOM     12  C   UNL     1     134.045 137.213 133.009  1.00  0.00     0.011 C 
BRANCH  10  13
ATOM     13  C   UNL     1     133.424 138.373 135.239  1.00  0.00     0.007 CG0
ATOM     14  G   UNL     1     134.565 138.191 136.332  1.00  0.00     0.000 G0
ENDBRANCH  10  13
ENDBRANCH   3  10
BRANCH   1  15
ATOM     15  C   UNL     1     134.371 137.192 137.565  1.00  0.00     0.011 C 
BRANCH  15  16
ATOM     16  C   UNL     1     134.559 138.197 136.336  1.00  0.00     0.001 CG0
ATOM     17  G   UNL     1     133.422 138.372 135.238  1.00  0.00     0.000 G0
ENDBRANCH  15  16
ENDBRANCH   1  15
TORSDOF 0
ENDMDL
MODEL 7
REMARK VINA RESULT:    -3.620      2.835      5.051
REMARK INTER + INTRA:          -3.943
REMARK INTER:                  -4.453
REMARK INTRA:                   0.509
REMARK UNBOUND:                 0.524
REMARK SMILES C=C1[C@H]2CC[C@@H]3[C@@H]2C(C)(C)CCC[C@]13C
REMARK SMILES IDX 14 1 6 2 7 3 3 4 2 5 1 6 4 7 5 8 15 9 8 10 9 11 10 12 11 13
REMARK SMILES IDX 13 15 12 16
REMARK H PARENT
REMARK Flexibility Score: 80.00
ROOT
ATOM      1  C   UNL     1     134.779 134.607 135.776  1.00  0.00    -0.008 C 
ATOM      2  C   UNL     1     134.351 135.961 136.321  1.00  0.00     0.003 C 
ATOM      3  C   UNL     1     132.968 136.065 135.648  1.00  0.00     0.006 C 
ATOM      4  C   UNL     1     132.386 134.884 136.407  1.00  0.00     0.019 C 
ATOM      5  C   UNL     1     133.462 133.848 136.007  1.00  0.00    -0.068 C 
ATOM      6  C   UNL     1     133.254 132.541 135.825  1.00  0.00     0.009 C 
ATOM      7  C   UNL     1     132.624 135.251 137.866  1.00  0.00     0.008 C 
ATOM      8  C   UNL     1     133.975 135.969 137.823  1.00  0.00     0.005 C 
ATOM      9  C   UNL     1     135.933 133.966 136.576  1.00  0.00     0.016 C 
ENDROOT
BRANCH   3  10
ATOM     10  C   UNL     1     132.864 137.366 134.822  1.00  0.00    -0.032 C 
ATOM     11  C   UNL     1     132.978 138.610 135.731  1.00  0.00     0.011 C 
ATOM     12  C   UNL     1     131.505 137.463 134.074  1.00  0.00     0.011 C 
BRANCH  10  13
ATOM     13  C   UNL     1     134.073 137.312 133.779  1.00  0.00     0.007 CG0
ATOM     14  G   UNL     1     134.515 135.873 133.267  1.00  0.00     0.000 G0
ENDBRANCH  10  13
ENDBRANCH   3  10
BRANCH   1  15
ATOM     15  C   UNL     1     135.241 134.842 134.265  1.00  0.00     0.011 C 
BRANCH  15  16
ATOM     16  C   UNL     1     134.524 135.870 133.273  1.00  0.00     0.001 CG0
ATOM     17  G   UNL     1     134.070 137.311 133.771  1.00  0.00     0.000 G0
ENDBRANCH  15  16
ENDBRANCH   1  15
TORSDOF 0
ENDMDL
MODEL 8
REMARK VINA RESULT:    -3.617      3.706      5.179
REMARK INTER + INTRA:          -3.938
REMARK INTER:                  -4.451
REMARK INTRA:                   0.513
REMARK UNBOUND:                 0.524
REMARK SMILES C=C1[C@H]2CC[C@@H]3[C@@H]2C(C)(C)CCC[C@]13C
REMARK SMILES IDX 14 1 6 2 7 3 3 4 2 5 1 6 4 7 5 8 15 9 8 10 9 11 10 12 11 13
REMARK SMILES IDX 13 15 12 16
REMARK H PARENT
REMARK Flexibility Score: 80.00
ROOT
ATOM      1  C   UNL     1     137.865 138.055 135.831  1.00  0.00    -0.008 C 
ATOM      2  C   UNL     1     138.344 136.715 136.370  1.00  0.00     0.003 C 
ATOM      3  C   UNL     1     139.696 136.630 135.636  1.00  0.00     0.006 C 
ATOM      4  C   UNL     1     140.289 137.830 136.356  1.00  0.00     0.019 C 
ATOM      5  C   UNL     1     139.176 138.841 135.994  1.00  0.00    -0.068 C 
ATOM      6  C   UNL     1     139.350 140.150 135.790  1.00  0.00     0.009 C 
ATOM      7  C   UNL     1     140.124 137.475 137.828  1.00  0.00     0.008 C 
ATOM      8  C   UNL     1     138.787 136.731 137.853  1.00  0.00     0.005 C 
ATOM      9  C   UNL     1     136.736 138.683 136.676  1.00  0.00     0.016 C 
ENDROOT
BRANCH   3  10
ATOM     10  C   UNL     1     139.788 135.322 134.820  1.00  0.00    -0.032 C 
ATOM     11  C   UNL     1     139.752 134.086 135.746  1.00  0.00     0.011 C 
ATOM     12  C   UNL     1     141.108 135.248 134.002  1.00  0.00     0.011 C 
BRANCH  10  13
ATOM     13  C   UNL     1     138.525 135.336 133.841  1.00  0.00     0.007 CG0
ATOM     14  G   UNL     1     138.018 136.759 133.345  1.00  0.00     0.000 G0
ENDBRANCH  10  13
ENDBRANCH   3  10
BRANCH   1  15
ATOM     15  C   UNL     1     137.340 137.794 134.345  1.00  0.00     0.011 C 
BRANCH  15  16
ATOM     16  C   UNL     1     138.019 136.755 133.339  1.00  0.00     0.001 CG0
ATOM     17  G   UNL     1     138.524 135.334 133.844  1.00  0.00     0.000 G0
ENDBRANCH  15  16
ENDBRANCH   1  15
TORSDOF 0
ENDMDL
MODEL 9
REMARK VINA RESULT:    -3.599      2.833      4.894
REMARK INTER + INTRA:          -3.916
REMARK INTER:                  -4.426
REMARK INTRA:                   0.509
REMARK UNBOUND:                 0.524
REMARK SMILES C=C1[C@H]2CC[C@@H]3[C@@H]2C(C)(C)CCC[C@]13C
REMARK SMILES IDX 14 1 6 2 7 3 3 4 2 5 1 6 4 7 5 8 15 9 8 10 9 11 10 12 11 13
REMARK SMILES IDX 13 15 12 16
REMARK H PARENT
REMARK Flexibility Score: 80.00
ROOT
ATOM      1  C   UNL     1     138.027 137.901 135.274  1.00  0.00    -0.008 C 
ATOM      2  C   UNL     1     138.506 137.424 136.637  1.00  0.00     0.003 C 
ATOM      3  C   UNL     1     139.244 136.145 136.199  1.00  0.00     0.006 C 
ATOM      4  C   UNL     1     140.301 136.893 135.403  1.00  0.00     0.019 C 
ATOM      5  C   UNL     1     139.332 137.683 134.492  1.00  0.00    -0.068 C 
ATOM      6  C   UNL     1     139.572 138.040 133.227  1.00  0.00     0.009 C 
ATOM      7  C   UNL     1     140.876 137.874 136.417  1.00  0.00     0.008 C 
ATOM      8  C   UNL     1     139.654 138.260 137.252  1.00  0.00     0.005 C 
ATOM      9  C   UNL     1     137.617 139.389 135.258  1.00  0.00     0.016 C 
ENDROOT
BRANCH   3  10
ATOM     10  C   UNL     1     138.695 134.916 136.957  1.00  0.00    -0.032 C 
ATOM     11  C   UNL     1     138.947 135.043 138.476  1.00  0.00     0.011 C 
ATOM     12  C   UNL     1     139.375 133.600 136.484  1.00  0.00     0.011 C 
BRANCH  10  13
ATOM     13  C   UNL     1     137.130 134.880 136.642  1.00  0.00     0.007 CG0
ATOM     14  G   UNL     1     136.670 135.438 135.226  1.00  0.00     0.000 G0
ENDBRANCH  10  13
ENDBRANCH   3  10
BRANCH   1  15
ATOM     15  C   UNL     1     136.771 136.995 134.883  1.00  0.00     0.011 C 
BRANCH  15  16
ATOM     16  C   UNL     1     136.662 135.439 135.231  1.00  0.00     0.001 CG0
ATOM     17  G   UNL     1     137.126 134.881 136.646  1.00  0.00     0.000 G0
ENDBRANCH  15  16
ENDBRANCH   1  15
TORSDOF 0
ENDMDL
