MODEL 1
REMARK VINA RESULT:    16.233      0.000      0.000
REMARK INTER + INTRA:          28.598
REMARK INTER:                  29.519
REMARK INTRA:                  -0.921
REMARK UNBOUND:                -0.921
REMARK SMILES CCCCCCCCCCCCCC[C@@H](C)C(=O)[O-]
REMARK SMILES IDX 9 1 10 2 11 3 12 4 13 5 14 6 15 7 16 8 17 9 18 10 19 11 8 12
REMARK SMILES IDX 7 13 6 14 5 15 4 16 3 17 2 18 1 19
REMARK H PARENT
REMARK Flexibility Score: inf
ROOT
ATOM      1  C   UNL     1      -5.785 -10.869  23.792  1.00  0.00     0.000 C 
ENDROOT
BRANCH   1   2
ATOM      2  C   UNL     1      -6.629 -12.145  23.962  1.00  0.00     0.000 C 
BRANCH   2   3
ATOM      3  C   UNL     1      -5.797 -13.344  24.446  1.00  0.00     0.000 C 
BRANCH   3   4
ATOM      4  C   UNL     1      -5.914 -13.571  25.960  1.00  0.00     0.000 C 
BRANCH   4   5
ATOM      5  C   UNL     1      -5.071 -14.777  26.401  1.00  0.00     0.001 C 
BRANCH   5   6
ATOM      6  C   UNL     1      -4.589 -15.636  25.215  1.00  0.00     0.009 C 
BRANCH   6   7
ATOM      7  C   UNL     1      -4.631 -17.158  25.475  1.00  0.00     0.032 C 
ATOM      8  C   UNL     1      -5.601 -17.479  26.617  1.00  0.00     0.014 C 
BRANCH   7   9
ATOM      9  C   UNL     1      -5.036 -17.917  24.240  1.00  0.00     0.044 C 
ATOM     10  O   UNL     1      -4.671 -17.515  23.104  1.00  0.00    -0.550 OA
ATOM     11  O   UNL     1      -5.816 -19.062  24.342  1.00  0.00    -0.550 OA
ENDBRANCH   7   9
ENDBRANCH   6   7
ENDBRANCH   5   6
ENDBRANCH   4   5
ENDBRANCH   3   4
ENDBRANCH   2   3
ENDBRANCH   1   2
BRANCH   1  12
ATOM     12  C   UNL     1      -5.876  -9.932  25.007  1.00  0.00     0.000 C 
BRANCH  12  13
ATOM     13  C   UNL     1      -4.882  -8.761  24.924  1.00  0.00    -0.000 C 
BRANCH  13  14
ATOM     14  C   UNL     1      -3.446  -9.224  24.627  1.00  0.00    -0.000 C 
BRANCH  14  15
ATOM     15  C   UNL     1      -2.645  -8.191  23.815  1.00  0.00    -0.000 C 
BRANCH  15  16
ATOM     16  C   UNL     1      -1.173  -8.104  24.253  1.00  0.00    -0.000 C 
BRANCH  16  17
ATOM     17  C   UNL     1      -0.797  -9.192  25.274  1.00  0.00    -0.000 C 
BRANCH  17  18
ATOM     18  C   UNL     1       0.107  -8.658  26.396  1.00  0.00    -0.003 C 
ATOM     19  C   UNL     1       0.707  -7.290  26.075  1.00  0.00     0.004 C 
ENDBRANCH  17  18
ENDBRANCH  16  17
ENDBRANCH  15  16
ENDBRANCH  14  15
ENDBRANCH  13  14
ENDBRANCH  12  13
ENDBRANCH   1  12
TORSDOF 14
ENDMDL
MODEL 2
REMARK VINA RESULT:    16.427      3.728      8.348
REMARK INTER + INTRA:          28.951
REMARK INTER:                  29.771
REMARK INTRA:                  -0.820
REMARK UNBOUND:                -0.921
REMARK SMILES CCCCCCCCCCCCCC[C@@H](C)C(=O)[O-]
REMARK SMILES IDX 9 1 10 2 11 3 12 4 13 5 14 6 15 7 16 8 17 9 18 10 19 11 8 12
REMARK SMILES IDX 7 13 6 14 5 15 4 16 3 17 2 18 1 19
REMARK H PARENT
REMARK Flexibility Score: inf
ROOT
ATOM      1  C   UNL     1      -5.935 -11.316  23.818  1.00  0.00     0.000 C 
ENDROOT
BRANCH   1   2
ATOM      2  C   UNL     1      -5.868 -10.338  25.004  1.00  0.00     0.000 C 
BRANCH   2   3
ATOM      3  C   UNL     1      -5.327  -8.956  24.601  1.00  0.00     0.000 C 
BRANCH   3   4
ATOM      4  C   UNL     1      -3.846  -8.773  24.963  1.00  0.00     0.000 C 
BRANCH   4   5
ATOM      5  C   UNL     1      -3.095  -8.039  23.841  1.00  0.00     0.001 C 
BRANCH   5   6
ATOM      6  C   UNL     1      -1.569  -8.020  24.056  1.00  0.00     0.009 C 
BRANCH   6   7
ATOM      7  C   UNL     1      -1.059  -9.052  25.087  1.00  0.00     0.032 C 
ATOM      8  C   UNL     1      -0.622 -10.340  24.382  1.00  0.00     0.014 C 
BRANCH   7   9
ATOM      9  C   UNL     1       0.087  -8.504  25.894  1.00  0.00     0.044 C 
ATOM     10  O   UNL     1       0.439  -7.302  25.757  1.00  0.00    -0.550 OA
ATOM     11  O   UNL     1       0.767  -9.317  26.792  1.00  0.00    -0.550 OA
ENDBRANCH   7   9
ENDBRANCH   6   7
ENDBRANCH   5   6
ENDBRANCH   4   5
ENDBRANCH   3   4
ENDBRANCH   2   3
ENDBRANCH   1   2
BRANCH   1  12
ATOM     12  C   UNL     1      -6.659 -12.625  24.169  1.00  0.00     0.000 C 
BRANCH  12  13
ATOM     13  C   UNL     1      -6.300 -13.139  25.574  1.00  0.00    -0.000 C 
BRANCH  13  14
ATOM     14  C   UNL     1      -5.062 -14.051  25.570  1.00  0.00    -0.000 C 
BRANCH  14  15
ATOM     15  C   UNL     1      -5.255 -15.317  26.424  1.00  0.00    -0.000 C 
BRANCH  15  16
ATOM     16  C   UNL     1      -4.565 -16.551  25.819  1.00  0.00    -0.000 C 
BRANCH  16  17
ATOM     17  C   UNL     1      -5.433 -17.818  25.914  1.00  0.00    -0.000 C 
BRANCH  17  18
ATOM     18  C   UNL     1      -5.518 -18.573  24.578  1.00  0.00    -0.003 C 
ATOM     19  C   UNL     1      -5.399 -17.651  23.366  1.00  0.00     0.004 C 
ENDBRANCH  17  18
ENDBRANCH  16  17
ENDBRANCH  15  16
ENDBRANCH  14  15
ENDBRANCH  13  14
ENDBRANCH  12  13
ENDBRANCH   1  12
TORSDOF 14
ENDMDL
MODEL 3
REMARK VINA RESULT:    17.626      1.316      2.522
REMARK INTER + INTRA:          31.131
REMARK INTER:                  32.017
REMARK INTRA:                  -0.886
REMARK UNBOUND:                -0.921
REMARK SMILES CCCCCCCCCCCCCC[C@@H](C)C(=O)[O-]
REMARK SMILES IDX 9 1 10 2 11 3 12 4 13 5 14 6 15 7 16 8 17 9 18 10 19 11 8 12
REMARK SMILES IDX 7 13 6 14 5 15 4 16 3 17 2 18 1 19
REMARK H PARENT
REMARK Flexibility Score: inf
ROOT
ATOM      1  C   UNL     1      -5.752 -10.935  23.802  1.00  0.00     0.000 C 
ENDROOT
BRANCH   1   2
ATOM      2  C   UNL     1      -6.581 -12.215  24.011  1.00  0.00     0.000 C 
BRANCH   2   3
ATOM      3  C   UNL     1      -5.728 -13.400  24.494  1.00  0.00     0.000 C 
BRANCH   3   4
ATOM      4  C   UNL     1      -5.814 -13.609  26.012  1.00  0.00     0.000 C 
BRANCH   4   5
ATOM      5  C   UNL     1      -5.056 -14.876  26.435  1.00  0.00     0.001 C 
BRANCH   5   6
ATOM      6  C   UNL     1      -4.667 -15.769  25.240  1.00  0.00     0.009 C 
BRANCH   6   7
ATOM      7  C   UNL     1      -4.782 -17.284  25.515  1.00  0.00     0.032 C 
ATOM      8  C   UNL     1      -5.848 -17.555  26.582  1.00  0.00     0.014 C 
BRANCH   7   9
ATOM      9  C   UNL     1      -5.116 -18.048  24.261  1.00  0.00     0.044 C 
ATOM     10  O   UNL     1      -5.704 -19.159  24.337  1.00  0.00    -0.550 OA
ATOM     11  O   UNL     1      -4.777 -17.536  23.015  1.00  0.00    -0.550 OA
ENDBRANCH   7   9
ENDBRANCH   6   7
ENDBRANCH   5   6
ENDBRANCH   4   5
ENDBRANCH   3   4
ENDBRANCH   2   3
ENDBRANCH   1   2
BRANCH   1  12
ATOM     12  C   UNL     1      -6.039  -9.863  24.865  1.00  0.00     0.000 C 
BRANCH  12  13
ATOM     13  C   UNL     1      -4.758  -9.175  25.368  1.00  0.00    -0.000 C 
BRANCH  13  14
ATOM     14  C   UNL     1      -3.942  -8.541  24.230  1.00  0.00    -0.000 C 
BRANCH  14  15
ATOM     15  C   UNL     1      -2.428  -8.782  24.380  1.00  0.00    -0.000 C 
BRANCH  15  16
ATOM     16  C   UNL     1      -1.619  -8.219  23.199  1.00  0.00    -0.000 C 
BRANCH  16  17
ATOM     17  C   UNL     1      -2.439  -7.250  22.331  1.00  0.00    -0.000 C 
BRANCH  17  18
ATOM     18  C   UNL     1      -2.132  -7.399  20.832  1.00  0.00    -0.003 C 
ATOM     19  C   UNL     1      -3.368  -7.219  19.951  1.00  0.00     0.004 C 
ENDBRANCH  17  18
ENDBRANCH  16  17
ENDBRANCH  15  16
ENDBRANCH  14  15
ENDBRANCH  13  14
ENDBRANCH  12  13
ENDBRANCH   1  12
TORSDOF 14
ENDMDL
MODEL 4
REMARK VINA RESULT:    17.809      3.679      8.507
REMARK INTER + INTRA:          31.464
REMARK INTER:                  32.389
REMARK INTRA:                  -0.925
REMARK UNBOUND:                -0.921
REMARK SMILES CCCCCCCCCCCCCC[C@@H](C)C(=O)[O-]
REMARK SMILES IDX 9 1 10 2 11 3 12 4 13 5 14 6 15 7 16 8 17 9 18 10 19 11 8 12
REMARK SMILES IDX 7 13 6 14 5 15 4 16 3 17 2 18 1 19
REMARK H PARENT
REMARK Flexibility Score: inf
ROOT
ATOM      1  C   UNL     1      -6.550 -12.175  23.793  1.00  0.00     0.000 C 
ENDROOT
BRANCH   1   2
ATOM      2  C   UNL     1      -6.198 -11.022  24.749  1.00  0.00     0.000 C 
BRANCH   2   3
ATOM      3  C   UNL     1      -5.490  -9.858  24.036  1.00  0.00     0.000 C 
BRANCH   3   4
ATOM      4  C   UNL     1      -4.829  -8.879  25.018  1.00  0.00     0.000 C 
BRANCH   4   5
ATOM      5  C   UNL     1      -3.461  -8.417  24.493  1.00  0.00     0.001 C 
BRANCH   5   6
ATOM      6  C   UNL     1      -2.305  -9.327  24.953  1.00  0.00     0.009 C 
BRANCH   6   7
ATOM      7  C   UNL     1      -0.910  -8.875  24.468  1.00  0.00     0.032 C 
ATOM      8  C   UNL     1      -1.042  -7.779  23.407  1.00  0.00     0.014 C 
BRANCH   7   9
ATOM      9  C   UNL     1      -0.065  -8.375  25.610  1.00  0.00     0.044 C 
ATOM     10  O   UNL     1       0.340  -7.183  25.619  1.00  0.00    -0.550 OA
ATOM     11  O   UNL     1       0.275  -9.222  26.657  1.00  0.00    -0.550 OA
ENDBRANCH   7   9
ENDBRANCH   6   7
ENDBRANCH   5   6
ENDBRANCH   4   5
ENDBRANCH   3   4
ENDBRANCH   2   3
ENDBRANCH   1   2
BRANCH   1  12
ATOM     12  C   UNL     1      -5.909 -13.508  24.210  1.00  0.00     0.000 C 
BRANCH  12  13
ATOM     13  C   UNL     1      -5.773 -13.645  25.736  1.00  0.00    -0.000 C 
BRANCH  13  14
ATOM     14  C   UNL     1      -4.752 -14.719  26.143  1.00  0.00    -0.000 C 
BRANCH  14  15
ATOM     15  C   UNL     1      -5.416 -15.978  26.729  1.00  0.00    -0.000 C 
BRANCH  15  16
ATOM     16  C   UNL     1      -4.997 -17.265  25.997  1.00  0.00    -0.000 C 
BRANCH  16  17
ATOM     17  C   UNL     1      -4.588 -17.006  24.537  1.00  0.00    -0.000 C 
BRANCH  17  18
ATOM     18  C   UNL     1      -5.200 -18.026  23.565  1.00  0.00    -0.003 C 
ATOM     19  C   UNL     1      -6.175 -18.985  24.247  1.00  0.00     0.004 C 
ENDBRANCH  17  18
ENDBRANCH  16  17
ENDBRANCH  15  16
ENDBRANCH  14  15
ENDBRANCH  13  14
ENDBRANCH  12  13
ENDBRANCH   1  12
TORSDOF 14
ENDMDL
MODEL 5
REMARK VINA RESULT:    18.693      4.086      7.627
REMARK INTER + INTRA:          33.070
REMARK INTER:                  33.742
REMARK INTRA:                  -0.671
REMARK UNBOUND:                -0.921
REMARK SMILES CCCCCCCCCCCCCC[C@@H](C)C(=O)[O-]
REMARK SMILES IDX 9 1 10 2 11 3 12 4 13 5 14 6 15 7 16 8 17 9 18 10 19 11 8 12
REMARK SMILES IDX 7 13 6 14 5 15 4 16 3 17 2 18 1 19
REMARK H PARENT
REMARK Flexibility Score: inf
ROOT
ATOM      1  C   UNL     1      -7.374 -12.315  23.428  1.00  0.00     0.000 C 
ENDROOT
BRANCH   1   2
ATOM      2  C   UNL     1      -6.076 -12.450  24.244  1.00  0.00     0.000 C 
BRANCH   2   3
ATOM      3  C   UNL     1      -6.283 -13.214  25.563  1.00  0.00     0.000 C 
BRANCH   3   4
ATOM      4  C   UNL     1      -5.011 -13.937  26.031  1.00  0.00     0.000 C 
BRANCH   4   5
ATOM      5  C   UNL     1      -5.303 -15.413  26.341  1.00  0.00     0.001 C 
BRANCH   5   6
ATOM      6  C   UNL     1      -4.430 -16.382  25.519  1.00  0.00     0.009 C 
BRANCH   6   7
ATOM      7  C   UNL     1      -5.019 -17.803  25.377  1.00  0.00     0.032 C 
ATOM      8  C   UNL     1      -6.268 -17.953  26.251  1.00  0.00     0.014 C 
BRANCH   7   9
ATOM      9  C   UNL     1      -5.363 -18.115  23.945  1.00  0.00     0.044 C 
ATOM     10  O   UNL     1      -6.352 -18.848  23.679  1.00  0.00    -0.550 OA
ATOM     11  O   UNL     1      -4.593 -17.602  22.909  1.00  0.00    -0.550 OA
ENDBRANCH   7   9
ENDBRANCH   6   7
ENDBRANCH   5   6
ENDBRANCH   4   5
ENDBRANCH   3   4
ENDBRANCH   2   3
ENDBRANCH   1   2
BRANCH   1  12
ATOM     12  C   UNL     1      -7.385 -13.212  22.180  1.00  0.00     0.000 C 
BRANCH  12  13
ATOM     13  C   UNL     1      -8.526 -12.858  21.211  1.00  0.00    -0.000 C 
BRANCH  13  14
ATOM     14  C   UNL     1      -8.885 -14.022  20.273  1.00  0.00    -0.000 C 
BRANCH  14  15
ATOM     15  C   UNL     1      -8.834 -13.625  18.786  1.00  0.00    -0.000 C 
BRANCH  15  16
ATOM     16  C   UNL     1      -8.541 -14.819  17.863  1.00  0.00    -0.000 C 
BRANCH  16  17
ATOM     17  C   UNL     1      -9.808 -15.617  17.511  1.00  0.00    -0.000 C 
BRANCH  17  18
ATOM     18  C   UNL     1      -9.895 -16.948  18.274  1.00  0.00    -0.003 C 
ATOM     19  C   UNL     1      -9.497 -18.151  17.420  1.00  0.00     0.004 C 
ENDBRANCH  17  18
ENDBRANCH  16  17
ENDBRANCH  15  16
ENDBRANCH  14  15
ENDBRANCH  13  14
ENDBRANCH  12  13
ENDBRANCH   1  12
TORSDOF 14
ENDMDL
MODEL 6
REMARK VINA RESULT:    18.901      3.870      8.539
REMARK INTER + INTRA:          33.449
REMARK INTER:                  34.264
REMARK INTRA:                  -0.815
REMARK UNBOUND:                -0.921
REMARK SMILES CCCCCCCCCCCCCC[C@@H](C)C(=O)[O-]
REMARK SMILES IDX 9 1 10 2 11 3 12 4 13 5 14 6 15 7 16 8 17 9 18 10 19 11 8 12
REMARK SMILES IDX 7 13 6 14 5 15 4 16 3 17 2 18 1 19
REMARK H PARENT
REMARK Flexibility Score: inf
ROOT
ATOM      1  C   UNL     1      -6.500 -12.405  23.934  1.00  0.00     0.000 C 
ENDROOT
BRANCH   1   2
ATOM      2  C   UNL     1      -6.122 -10.919  23.801  1.00  0.00     0.000 C 
BRANCH   2   3
ATOM      3  C   UNL     1      -6.010 -10.214  25.163  1.00  0.00     0.000 C 
BRANCH   3   4
ATOM      4  C   UNL     1      -5.518  -8.765  25.038  1.00  0.00     0.000 C 
BRANCH   4   5
ATOM      5  C   UNL     1      -4.003  -8.720  24.793  1.00  0.00     0.001 C 
BRANCH   5   6
ATOM      6  C   UNL     1      -3.601  -7.703  23.706  1.00  0.00     0.009 C 
BRANCH   6   7
ATOM      7  C   UNL     1      -2.098  -7.711  23.353  1.00  0.00     0.032 C 
ATOM      8  C   UNL     1      -1.405  -8.918  23.993  1.00  0.00     0.014 C 
BRANCH   7   9
ATOM      9  C   UNL     1      -1.881  -7.734  21.863  1.00  0.00     0.044 C 
ATOM     10  O   UNL     1      -2.726  -7.203  21.095  1.00  0.00    -0.550 OA
ATOM     11  O   UNL     1      -0.754  -8.341  21.326  1.00  0.00    -0.550 OA
ENDBRANCH   7   9
ENDBRANCH   6   7
ENDBRANCH   5   6
ENDBRANCH   4   5
ENDBRANCH   3   4
ENDBRANCH   2   3
ENDBRANCH   1   2
BRANCH   1  12
ATOM     12  C   UNL     1      -6.328 -12.935  25.366  1.00  0.00     0.000 C 
BRANCH  12  13
ATOM     13  C   UNL     1      -5.339 -14.111  25.445  1.00  0.00    -0.000 C 
BRANCH  13  14
ATOM     14  C   UNL     1      -5.156 -14.633  26.880  1.00  0.00    -0.000 C 
BRANCH  14  15
ATOM     15  C   UNL     1      -5.150 -16.170  26.956  1.00  0.00    -0.000 C 
BRANCH  15  16
ATOM     16  C   UNL     1      -4.980 -16.831  25.577  1.00  0.00    -0.000 C 
BRANCH  16  17
ATOM     17  C   UNL     1      -5.351 -18.324  25.589  1.00  0.00    -0.000 C 
BRANCH  17  18
ATOM     18  C   UNL     1      -5.971 -18.786  24.260  1.00  0.00    -0.003 C 
ATOM     19  C   UNL     1      -5.367 -18.081  23.046  1.00  0.00     0.004 C 
ENDBRANCH  17  18
ENDBRANCH  16  17
ENDBRANCH  15  16
ENDBRANCH  14  15
ENDBRANCH  13  14
ENDBRANCH  12  13
ENDBRANCH   1  12
TORSDOF 14
ENDMDL
