MODEL 1
REMARK VINA RESULT:    -3.879      0.000      0.000
REMARK INTER + INTRA:          -4.499
REMARK INTER:                  -4.446
REMARK INTRA:                  -0.053
REMARK UNBOUND:                -0.053
REMARK SMILES COc1cc(C=O)ccc1O
REMARK SMILES IDX 3 1 10 2 9 3 8 4 5 5 4 6 2 7 1 8 11 9 6 11 7 12
REMARK H PARENT 11 10
REMARK Flexibility Score: inf
ROOT
ATOM      1  C   UNL     1     106.283 104.660 102.061  1.00  0.00     0.161 A 
ATOM      2  C   UNL     1     104.994 105.222 102.042  1.00  0.00     0.157 A 
ATOM      3  C   UNL     1     104.829 106.603 102.191  1.00  0.00     0.051 A 
ATOM      4  C   UNL     1     105.938 107.434 102.361  1.00  0.00     0.015 A 
ATOM      5  C   UNL     1     107.232 106.890 102.382  1.00  0.00     0.018 A 
ATOM      6  C   UNL     1     107.399 105.504 102.231  1.00  0.00     0.062 A 
ENDROOT
BRANCH   1   7
ATOM      7  O   UNL     1     106.418 103.271 101.908  1.00  0.00    -0.493 OA
ATOM      8  C   UNL     1     107.589 102.531 102.239  1.00  0.00     0.278 C 
ENDBRANCH   1   7
BRANCH   2   9
ATOM      9  O   UNL     1     103.862 104.424 101.875  1.00  0.00    -0.504 OA
ATOM     10  H   UNL     1     102.941 104.725 102.172  1.00  0.00     0.293 HD
ENDBRANCH   2   9
BRANCH   5  11
ATOM     11  C   UNL     1     108.415 107.752 102.558  1.00  0.00     0.260 C 
ATOM     12  O   UNL     1     109.500 107.498 101.970  1.00  0.00    -0.298 OA
ENDBRANCH   5  11
TORSDOF 3
ENDMDL
MODEL 2
REMARK VINA RESULT:    -3.824      1.427      3.147
REMARK INTER + INTRA:          -4.435
REMARK INTER:                  -4.383
REMARK INTRA:                  -0.052
REMARK UNBOUND:                -0.053
REMARK SMILES COc1cc(C=O)ccc1O
REMARK SMILES IDX 3 1 10 2 9 3 8 4 5 5 4 6 2 7 1 8 11 9 6 11 7 12
REMARK H PARENT 11 10
REMARK Flexibility Score: inf
ROOT
ATOM      1  C   UNL     1     105.286 107.001 102.167  1.00  0.00     0.161 A 
ATOM      2  C   UNL     1     105.087 105.611 102.093  1.00  0.00     0.157 A 
ATOM      3  C   UNL     1     106.181 104.752 101.950  1.00  0.00     0.051 A 
ATOM      4  C   UNL     1     107.477 105.264 101.877  1.00  0.00     0.015 A 
ATOM      5  C   UNL     1     107.695 106.649 101.949  1.00  0.00     0.018 A 
ATOM      6  C   UNL     1     106.598 107.512 102.094  1.00  0.00     0.062 A 
ENDROOT
BRANCH   1   7
ATOM      7  O   UNL     1     104.169 107.839 102.311  1.00  0.00    -0.493 OA
ATOM      8  C   UNL     1     104.223 109.187 102.767  1.00  0.00     0.278 C 
ENDBRANCH   1   7
BRANCH   2   9
ATOM      9  O   UNL     1     103.805 105.062 102.161  1.00  0.00    -0.504 OA
ATOM     10  H   UNL     1     102.997 105.527 101.766  1.00  0.00     0.293 HD
ENDBRANCH   2   9
BRANCH   5  11
ATOM     11  C   UNL     1     109.058 107.208 101.876  1.00  0.00     0.260 C 
ATOM     12  O   UNL     1     109.444 108.092 102.687  1.00  0.00    -0.298 OA
ENDBRANCH   5  11
TORSDOF 3
ENDMDL
MODEL 3
REMARK VINA RESULT:    -3.822      1.126      3.721
REMARK INTER + INTRA:          -4.434
REMARK INTER:                  -4.382
REMARK INTRA:                  -0.052
REMARK UNBOUND:                -0.053
REMARK SMILES COc1cc(C=O)ccc1O
REMARK SMILES IDX 3 1 10 2 9 3 8 4 5 5 4 6 2 7 1 8 11 9 6 11 7 12
REMARK H PARENT 11 10
REMARK Flexibility Score: inf
ROOT
ATOM      1  C   UNL     1     106.756 105.151 102.328  1.00  0.00     0.161 A 
ATOM      2  C   UNL     1     107.002 106.532 102.213  1.00  0.00     0.157 A 
ATOM      3  C   UNL     1     105.942 107.416 101.989  1.00  0.00     0.051 A 
ATOM      4  C   UNL     1     104.635 106.940 101.877  1.00  0.00     0.015 A 
ATOM      5  C   UNL     1     104.371 105.565 101.989  1.00  0.00     0.018 A 
ATOM      6  C   UNL     1     105.434 104.676 102.215  1.00  0.00     0.062 A 
ENDROOT
BRANCH   1   7
ATOM      7  O   UNL     1     107.840 104.287 102.553  1.00  0.00    -0.493 OA
ATOM      8  C   UNL     1     107.753 102.865 102.556  1.00  0.00     0.278 C 
ENDBRANCH   1   7
BRANCH   2   9
ATOM      9  O   UNL     1     108.295 107.045 102.319  1.00  0.00    -0.504 OA
ATOM     10  H   UNL     1     108.476 107.991 102.633  1.00  0.00     0.293 HD
ENDBRANCH   2   9
BRANCH   5  11
ATOM     11  C   UNL     1     102.996 105.044 101.875  1.00  0.00     0.260 C 
ATOM     12  O   UNL     1     102.595 104.099 102.606  1.00  0.00    -0.298 OA
ENDBRANCH   5  11
TORSDOF 3
ENDMDL
MODEL 4
REMARK VINA RESULT:    -3.820      1.867      3.209
REMARK INTER + INTRA:          -4.431
REMARK INTER:                  -4.380
REMARK INTRA:                  -0.051
REMARK UNBOUND:                -0.053
REMARK SMILES COc1cc(C=O)ccc1O
REMARK SMILES IDX 3 1 10 2 9 3 8 4 5 5 4 6 2 7 1 8 11 9 6 11 7 12
REMARK H PARENT 11 10
REMARK Flexibility Score: inf
ROOT
ATOM      1  C   UNL     1     105.130 105.225 102.358  1.00  0.00     0.161 A 
ATOM      2  C   UNL     1     106.517 105.002 102.417  1.00  0.00     0.157 A 
ATOM      3  C   UNL     1     107.406 106.075 102.299  1.00  0.00     0.051 A 
ATOM      4  C   UNL     1     106.926 107.374 102.122  1.00  0.00     0.015 A 
ATOM      5  C   UNL     1     105.545 107.615 102.061  1.00  0.00     0.018 A 
ATOM      6  C   UNL     1     104.652 106.539 102.179  1.00  0.00     0.062 A 
ENDROOT
BRANCH   1   7
ATOM      7  O   UNL     1     104.262 104.128 102.480  1.00  0.00    -0.493 OA
ATOM      8  C   UNL     1     102.850 104.228 102.634  1.00  0.00     0.278 C 
ENDBRANCH   1   7
BRANCH   2   9
ATOM      9  O   UNL     1     107.034 103.718 102.593  1.00  0.00    -0.504 OA
ATOM     10  H   UNL     1     106.793 103.144 103.392  1.00  0.00     0.293 HD
ENDBRANCH   2   9
BRANCH   5  11
ATOM     11  C   UNL     1     105.020 108.981 101.875  1.00  0.00     0.260 C 
ATOM     12  O   UNL     1     104.119 109.441 102.627  1.00  0.00    -0.298 OA
ENDBRANCH   5  11
TORSDOF 3
ENDMDL
MODEL 5
REMARK VINA RESULT:    -3.790      1.615      4.805
REMARK INTER + INTRA:          -4.397
REMARK INTER:                  -4.345
REMARK INTRA:                  -0.052
REMARK UNBOUND:                -0.053
REMARK SMILES COc1cc(C=O)ccc1O
REMARK SMILES IDX 3 1 10 2 9 3 8 4 5 5 4 6 2 7 1 8 11 9 6 11 7 12
REMARK H PARENT 11 10
REMARK Flexibility Score: inf
ROOT
ATOM      1  C   UNL     1     105.852 107.302 102.106  1.00  0.00     0.161 A 
ATOM      2  C   UNL     1     107.138 106.735 102.054  1.00  0.00     0.157 A 
ATOM      3  C   UNL     1     107.301 105.352 102.182  1.00  0.00     0.051 A 
ATOM      4  C   UNL     1     106.192 104.523 102.362  1.00  0.00     0.015 A 
ATOM      5  C   UNL     1     104.901 105.072 102.416  1.00  0.00     0.018 A 
ATOM      6  C   UNL     1     104.736 106.460 102.288  1.00  0.00     0.062 A 
ENDROOT
BRANCH   1   7
ATOM      7  O   UNL     1     105.720 108.694 101.975  1.00  0.00    -0.493 OA
ATOM      8  C   UNL     1     104.505 109.412 102.168  1.00  0.00     0.278 C 
ENDBRANCH   1   7
BRANCH   2   9
ATOM      9  O   UNL     1     108.270 107.531 101.876  1.00  0.00    -0.504 OA
ATOM     10  H   UNL     1     109.192 107.233 102.172  1.00  0.00     0.293 HD
ENDBRANCH   2   9
BRANCH   5  11
ATOM     11  C   UNL     1     103.718 104.212 102.605  1.00  0.00     0.260 C 
ATOM     12  O   UNL     1     102.607 104.509 102.089  1.00  0.00    -0.298 OA
ENDBRANCH   5  11
TORSDOF 3
ENDMDL
MODEL 6
REMARK VINA RESULT:    -3.718      2.484      3.667
REMARK INTER + INTRA:          -4.314
REMARK INTER:                  -4.255
REMARK INTRA:                  -0.059
REMARK UNBOUND:                -0.053
REMARK SMILES COc1cc(C=O)ccc1O
REMARK SMILES IDX 3 1 10 2 9 3 8 4 5 5 4 6 2 7 1 8 11 9 6 11 7 12
REMARK H PARENT 11 10
REMARK Flexibility Score: inf
ROOT
ATOM      1  C   UNL     1     106.755 103.752 104.281  1.00  0.00     0.161 A 
ATOM      2  C   UNL     1     107.330 103.357 103.059  1.00  0.00     0.157 A 
ATOM      3  C   UNL     1     106.980 104.013 101.875  1.00  0.00     0.051 A 
ATOM      4  C   UNL     1     106.062 105.064 101.893  1.00  0.00     0.015 A 
ATOM      5  C   UNL     1     105.479 105.473 103.103  1.00  0.00     0.018 A 
ATOM      6  C   UNL     1     105.829 104.815 104.292  1.00  0.00     0.062 A 
ENDROOT
BRANCH   1   7
ATOM      7  O   UNL     1     107.125 103.075 105.454  1.00  0.00    -0.493 OA
ATOM      8  C   UNL     1     107.241 103.684 106.736  1.00  0.00     0.278 C 
ENDBRANCH   1   7
BRANCH   2   9
ATOM      9  O   UNL     1     108.251 102.310 103.002  1.00  0.00    -0.504 OA
ATOM     10  H   UNL     1     109.244 102.457 103.143  1.00  0.00     0.293 HD
ENDBRANCH   2   9
BRANCH   5  11
ATOM     11  C   UNL     1     104.507 106.581 103.141  1.00  0.00     0.260 C 
ATOM     12  O   UNL     1     104.496 107.469 102.247  1.00  0.00    -0.298 OA
ENDBRANCH   5  11
TORSDOF 3
ENDMDL
MODEL 7
REMARK VINA RESULT:    -3.703      3.257      4.929
REMARK INTER + INTRA:          -4.296
REMARK INTER:                  -4.246
REMARK INTRA:                  -0.050
REMARK UNBOUND:                -0.053
REMARK SMILES COc1cc(C=O)ccc1O
REMARK SMILES IDX 3 1 10 2 9 3 8 4 5 5 4 6 2 7 1 8 11 9 6 11 7 12
REMARK H PARENT 11 10
REMARK Flexibility Score: inf
ROOT
ATOM      1  C   UNL     1     104.498 106.711 105.180  1.00  0.00     0.161 A 
ATOM      2  C   UNL     1     104.882 107.986 104.725  1.00  0.00     0.157 A 
ATOM      3  C   UNL     1     104.887 108.270 103.356  1.00  0.00     0.051 A 
ATOM      4  C   UNL     1     104.513 107.295 102.430  1.00  0.00     0.015 A 
ATOM      5  C   UNL     1     104.127 106.017 102.866  1.00  0.00     0.018 A 
ATOM      6  C   UNL     1     104.121 105.731 104.240  1.00  0.00     0.062 A 
ENDROOT
BRANCH   1   7
ATOM      7  O   UNL     1     104.502 106.455 106.560  1.00  0.00    -0.493 OA
ATOM      8  C   UNL     1     104.054 105.243 107.159  1.00  0.00     0.278 C 
ENDBRANCH   1   7
BRANCH   2   9
ATOM      9  O   UNL     1     105.262 108.986 105.620  1.00  0.00    -0.504 OA
ATOM     10  H   UNL     1     105.412 109.944 105.327  1.00  0.00     0.293 HD
ENDBRANCH   2   9
BRANCH   5  11
ATOM     11  C   UNL     1     103.727 104.975 101.902  1.00  0.00     0.260 C 
ATOM     12  O   UNL     1     102.549 104.529 101.875  1.00  0.00    -0.298 OA
ENDBRANCH   5  11
TORSDOF 3
ENDMDL
MODEL 8
REMARK VINA RESULT:    -3.686      3.039      3.862
REMARK INTER + INTRA:          -4.277
REMARK INTER:                  -4.226
REMARK INTRA:                  -0.052
REMARK UNBOUND:                -0.053
REMARK SMILES COc1cc(C=O)ccc1O
REMARK SMILES IDX 3 1 10 2 9 3 8 4 5 5 4 6 2 7 1 8 11 9 6 11 7 12
REMARK H PARENT 11 10
REMARK Flexibility Score: inf
ROOT
ATOM      1  C   UNL     1     105.305 104.510 105.233  1.00  0.00     0.161 A 
ATOM      2  C   UNL     1     104.042 104.894 104.748  1.00  0.00     0.157 A 
ATOM      3  C   UNL     1     103.786 104.884 103.373  1.00  0.00     0.051 A 
ATOM      4  C   UNL     1     104.777 104.493 102.472  1.00  0.00     0.015 A 
ATOM      5  C   UNL     1     106.044 104.106 102.938  1.00  0.00     0.018 A 
ATOM      6  C   UNL     1     106.302 104.116 104.317  1.00  0.00     0.062 A 
ENDROOT
BRANCH   1   7
ATOM      7  O   UNL     1     105.534 104.531 106.618  1.00  0.00    -0.493 OA
ATOM      8  C   UNL     1     106.661 103.943 107.260  1.00  0.00     0.278 C 
ENDBRANCH   1   7
BRANCH   2   9
ATOM      9  O   UNL     1     103.026 105.291 105.618  1.00  0.00    -0.504 OA
ATOM     10  H   UNL     1     102.724 106.255 105.691  1.00  0.00     0.293 HD
ENDBRANCH   2   9
BRANCH   5  11
ATOM     11  C   UNL     1     107.103 103.690 102.001  1.00  0.00     0.260 C 
ATOM     12  O   UNL     1     107.856 102.714 102.261  1.00  0.00    -0.298 OA
ENDBRANCH   5  11
TORSDOF 3
ENDMDL
