MODEL 1
REMARK VINA RESULT:    -3.186      0.000      0.000
REMARK INTER + INTRA:          -4.287
REMARK INTER:                  -5.235
REMARK INTRA:                   0.948
REMARK UNBOUND:                 0.948
REMARK SMILES C[C@@H]1O[C@@H](OC[C@H]2O[C@@H](Oc3c(-c4ccc(O)c(O)c4)oc4cc(O)cc(O)c4c3=O)[C@@H](O)[C@@H](O)[C@@H]2O)[C@H](O)[C@@H](O)[C@H]1O
REMARK SMILES IDX 7 1 36 2 34 3 32 4 9 5 8 6 6 7 5 8 4 9 1 10 2 11 42 12 3 13
REMARK SMILES IDX 40 14 38 15 43 16 41 18 39 20 37 22 35 24 10 26 11 27 12 28
REMARK SMILES IDX 30 29 21 30 29 31 31 32 22 33 27 34 23 35 26 36 24 37 13 38
REMARK SMILES IDX 20 39 14 40 18 41 15 42 16 43 19 44 17 46 28 48 25 50 33 52
REMARK H PARENT 43 17 41 19 39 21 37 23 35 25 19 45 17 47 28 49 25 51 33 53
REMARK Flexibility Score: inf
ROOT
ATOM      1  C   UNL     1     122.837 115.544 119.352  1.00  0.00     0.180 C 
ATOM      2  C   UNL     1     122.712 114.280 118.379  1.00  0.00     0.177 C 
ATOM      3  C   UNL     1     121.802 113.145 119.054  1.00  0.00     0.180 C 
ATOM      4  C   UNL     1     121.217 113.594 120.514  1.00  0.00     0.214 C 
ATOM      5  C   UNL     1     121.171 115.112 120.898  1.00  0.00     0.339 C 
ATOM      6  O   UNL     1     121.523 115.991 119.836  1.00  0.00    -0.332 OA
ENDROOT
BRANCH   1   7
ATOM      7  C   UNL     1     123.834 116.675 118.985  1.00  0.00     0.198 C 
BRANCH   7   8
ATOM      8  O   UNL     1     125.247 116.294 119.006  1.00  0.00    -0.347 OA
BRANCH   8   9
ATOM      9  C   UNL     1     126.112 117.398 119.309  1.00  0.00     0.281 C 
ATOM     10  C   UNL     1     126.173 120.716 118.889  1.00  0.00     0.041 C 
ATOM     11  C   UNL     1     127.031 119.471 118.616  1.00  0.00     0.150 C 
ATOM     12  C   UNL     1     128.040 119.232 119.805  1.00  0.00     0.174 C 
ATOM     13  O   UNL     1     126.203 118.352 118.257  1.00  0.00    -0.344 OA
ATOM     14  C   UNL     1     128.557 117.770 119.945  1.00  0.00     0.179 C 
ATOM     15  C   UNL     1     127.510 116.751 119.451  1.00  0.00     0.202 C 
BRANCH  12  16
ATOM     16  O   UNL     1     129.141 120.084 119.743  1.00  0.00    -0.388 OA
ATOM     17  H   UNL     1     129.998 119.552 119.659  1.00  0.00     0.211 HD
ENDBRANCH  12  16
BRANCH  14  18
ATOM     18  O   UNL     1     129.806 117.628 119.298  1.00  0.00    -0.387 OA
ATOM     19  H   UNL     1     130.085 118.501 118.925  1.00  0.00     0.211 HD
ENDBRANCH  14  18
BRANCH  15  20
ATOM     20  O   UNL     1     127.558 115.582 120.284  1.00  0.00    -0.385 OA
ATOM     21  H   UNL     1     127.662 115.875 121.215  1.00  0.00     0.211 HD
ENDBRANCH  15  20
ENDBRANCH   8   9
ENDBRANCH   7   8
ENDBRANCH   1   7
BRANCH   2  22
ATOM     22  O   UNL     1     124.066 113.856 118.190  1.00  0.00    -0.387 OA
ATOM     23  H   UNL     1     124.254 114.037 117.239  1.00  0.00     0.211 HD
ENDBRANCH   2  22
BRANCH   3  24
ATOM     24  O   UNL     1     120.937 112.300 118.237  1.00  0.00    -0.387 OA
ATOM     25  H   UNL     1     120.262 111.700 118.753  1.00  0.00     0.211 HD
ENDBRANCH   3  24
BRANCH   5  26
ATOM     26  O   UNL     1     120.219 115.654 121.841  1.00  0.00    -0.454 OA
BRANCH  26  27
ATOM     27  C   UNL     1     118.974 116.314 121.695  1.00  0.00     0.214 A 
ATOM     28  C   UNL     1     117.740 115.847 122.198  1.00  0.00     0.180 A 
ATOM     29  C   UNL     1     118.846 117.257 120.671  1.00  0.00     0.239 A 
ATOM     30  O   UNL     1     116.817 116.768 122.400  1.00  0.00    -0.452 OA
ATOM     31  C   UNL     1     117.644 117.987 120.533  1.00  0.00     0.111 A 
ATOM     32  O   UNL     1     119.683 117.241 119.738  1.00  0.00    -0.285 OA
ATOM     33  C   UNL     1     116.724 117.879 121.609  1.00  0.00     0.146 A 
ATOM     34  C   UNL     1     117.195 118.547 119.341  1.00  0.00     0.134 A 
ATOM     35  C   UNL     1     115.670 118.842 121.648  1.00  0.00     0.094 A 
ATOM     36  C   UNL     1     116.242 119.630 119.415  1.00  0.00     0.093 A 
ATOM     37  C   UNL     1     115.511 119.783 120.627  1.00  0.00     0.123 A 
BRANCH  28  38
ATOM     38  C   UNL     1     117.247 114.537 121.550  1.00  0.00     0.025 A 
ATOM     39  C   UNL     1     117.820 113.255 121.765  1.00  0.00     0.062 A 
ATOM     40  C   UNL     1     115.892 114.555 121.144  1.00  0.00     0.016 A 
ATOM     41  C   UNL     1     116.979 112.107 121.855  1.00  0.00     0.158 A 
ATOM     42  C   UNL     1     115.086 113.411 121.106  1.00  0.00     0.051 A 
ATOM     43  C   UNL     1     115.580 112.194 121.569  1.00  0.00     0.157 A 
BRANCH  41  44
ATOM     44  O   UNL     1     117.451 110.898 122.302  1.00  0.00    -0.504 OA
ATOM     45  H   UNL     1     117.487 110.621 123.322  1.00  0.00     0.293 HD
ENDBRANCH  41  44
BRANCH  43  46
ATOM     46  O   UNL     1     114.764 111.119 122.065  1.00  0.00    -0.504 OA
ATOM     47  H   UNL     1     113.881 111.231 122.541  1.00  0.00     0.293 HD
ENDBRANCH  43  46
ENDBRANCH  28  38
BRANCH  34  48
ATOM     48  O   UNL     1     117.624 117.992 118.099  1.00  0.00    -0.507 OA
ATOM     49  H   UNL     1     117.539 117.006 117.857  1.00  0.00     0.293 HD
ENDBRANCH  34  48
BRANCH  37  50
ATOM     50  O   UNL     1     114.532 120.756 120.824  1.00  0.00    -0.508 OA
ATOM     51  H   UNL     1     114.736 121.741 120.656  1.00  0.00     0.293 HD
ENDBRANCH  37  50
ENDBRANCH  26  27
ENDBRANCH   5  26
BRANCH   4  52
ATOM     52  O   UNL     1     120.243 112.741 121.115  1.00  0.00    -0.384 OA
ATOM     53  H   UNL     1     120.295 112.710 122.149  1.00  0.00     0.211 HD
ENDBRANCH   4  52
TORSDOF 16
ENDMDL
