MODEL 1
REMARK VINA RESULT:    -2.820      0.000      0.000
REMARK INTER + INTRA:          -3.439
REMARK INTER:                  -3.314
REMARK INTRA:                  -0.124
REMARK UNBOUND:                -0.124
REMARK SMILES O=C([O-])CCC(=O)[O-]
REMARK SMILES IDX 4 1 2 2 1 3 3 4 5 5 6 6 7 7 8 8
REMARK H PARENT
REMARK Flexibility Score: inf
ROOT
ATOM      1  C   UNL     1      -1.185   9.030  39.087  1.00  0.00     0.059 C 
ENDROOT
BRANCH   1   2
ATOM      2  C   UNL     1      -1.981   7.799  39.400  1.00  0.00     0.042 C 
ATOM      3  O   UNL     1      -2.818   7.808  40.340  1.00  0.00    -0.550 OA
ATOM      4  O   UNL     1      -1.768   6.632  38.678  1.00  0.00    -0.550 OA
ENDBRANCH   1   2
BRANCH   1   5
ATOM      5  C   UNL     1      -1.839   9.857  37.974  1.00  0.00     0.059 C 
BRANCH   5   6
ATOM      6  C   UNL     1      -1.228   9.565  36.638  1.00  0.00     0.042 C 
ATOM      7  O   UNL     1      -1.746  10.033  35.590  1.00  0.00    -0.550 OA
ATOM      8  O   UNL     1      -0.066   8.810  36.553  1.00  0.00    -0.550 OA
ENDBRANCH   5   6
ENDBRANCH   1   5
TORSDOF 3
ENDMDL
MODEL 2
REMARK VINA RESULT:    -2.806      0.094      3.668
REMARK INTER + INTRA:          -3.422
REMARK INTER:                  -3.298
REMARK INTRA:                  -0.124
REMARK UNBOUND:                -0.124
REMARK SMILES O=C([O-])CCC(=O)[O-]
REMARK SMILES IDX 4 1 2 2 1 3 3 4 5 5 6 6 7 7 8 8
REMARK H PARENT
REMARK Flexibility Score: inf
ROOT
ATOM      1  C   UNL     1      -1.859   9.803  38.004  1.00  0.00     0.059 C 
ENDROOT
BRANCH   1   2
ATOM      2  C   UNL     1      -1.235   9.521  36.671  1.00  0.00     0.042 C 
ATOM      3  O   UNL     1      -1.800   9.904  35.613  1.00  0.00    -0.550 OA
ATOM      4  O   UNL     1      -0.048   8.803  36.597  1.00  0.00    -0.550 OA
ENDBRANCH   1   2
BRANCH   1   5
ATOM      5  C   UNL     1      -1.206   8.977  39.118  1.00  0.00     0.059 C 
BRANCH   5   6
ATOM      6  C   UNL     1      -1.965   7.714  39.387  1.00  0.00     0.042 C 
ATOM      7  O   UNL     1      -2.864   7.691  40.269  1.00  0.00    -0.550 OA
ATOM      8  O   UNL     1      -1.707   6.573  38.637  1.00  0.00    -0.550 OA
ENDBRANCH   5   6
ENDBRANCH   1   5
TORSDOF 3
ENDMDL
MODEL 3
REMARK VINA RESULT:    -2.682      2.194      3.883
REMARK INTER + INTRA:          -3.277
REMARK INTER:                  -3.155
REMARK INTRA:                  -0.122
REMARK UNBOUND:                -0.124
REMARK SMILES O=C([O-])CCC(=O)[O-]
REMARK SMILES IDX 4 1 2 2 1 3 3 4 5 5 6 6 7 7 8 8
REMARK H PARENT
REMARK Flexibility Score: inf
ROOT
ATOM      1  C   UNL     1      -1.934   8.640  39.009  1.00  0.00     0.059 C 
ENDROOT
BRANCH   1   2
ATOM      2  C   UNL     1      -0.605   9.144  39.484  1.00  0.00     0.042 C 
ATOM      3  O   UNL     1       0.120   9.835  38.721  1.00  0.00    -0.550 OA
ATOM      4  O   UNL     1      -0.153   8.818  40.756  1.00  0.00    -0.550 OA
ENDBRANCH   1   2
BRANCH   1   5
ATOM      5  C   UNL     1      -2.613   7.760  40.065  1.00  0.00     0.059 C 
BRANCH   5   6
ATOM      6  C   UNL     1      -2.521   6.307  39.715  1.00  0.00     0.042 C 
ATOM      7  O   UNL     1      -3.541   5.687  39.312  1.00  0.00    -0.550 OA
ATOM      8  O   UNL     1      -1.302   5.646  39.797  1.00  0.00    -0.550 OA
ENDBRANCH   5   6
ENDBRANCH   1   5
TORSDOF 3
ENDMDL
MODEL 4
REMARK VINA RESULT:    -2.681      0.705      3.770
REMARK INTER + INTRA:          -3.275
REMARK INTER:                  -3.158
REMARK INTRA:                  -0.117
REMARK UNBOUND:                -0.124
REMARK SMILES O=C([O-])CCC(=O)[O-]
REMARK SMILES IDX 4 1 2 2 1 3 3 4 5 5 6 6 7 7 8 8
REMARK H PARENT
REMARK Flexibility Score: inf
ROOT
ATOM      1  C   UNL     1      -1.794  10.080  37.907  1.00  0.00     0.059 C 
ENDROOT
BRANCH   1   2
ATOM      2  C   UNL     1      -1.161   9.931  36.557  1.00  0.00     0.042 C 
ATOM      3  O   UNL     1      -1.879   9.805  35.531  1.00  0.00    -0.550 OA
ATOM      4  O   UNL     1       0.223   9.892  36.439  1.00  0.00    -0.550 OA
ENDBRANCH   1   2
BRANCH   1   5
ATOM      5  C   UNL     1      -0.984   9.363  38.992  1.00  0.00     0.059 C 
BRANCH   5   6
ATOM      6  C   UNL     1      -1.418   7.939  39.155  1.00  0.00     0.042 C 
ATOM      7  O   UNL     1      -0.645   7.000  38.829  1.00  0.00    -0.550 OA
ATOM      8  O   UNL     1      -2.660   7.647  39.704  1.00  0.00    -0.550 OA
ENDBRANCH   5   6
ENDBRANCH   1   5
TORSDOF 3
ENDMDL
MODEL 5
REMARK VINA RESULT:    -2.672      1.485      3.958
REMARK INTER + INTRA:          -3.265
REMARK INTER:                  -3.138
REMARK INTRA:                  -0.127
REMARK UNBOUND:                -0.124
REMARK SMILES O=C([O-])CCC(=O)[O-]
REMARK SMILES IDX 4 1 2 2 1 3 3 4 5 5 6 6 7 7 8 8
REMARK H PARENT
REMARK Flexibility Score: inf
ROOT
ATOM      1  C   UNL     1      -1.297   8.600  39.459  1.00  0.00     0.059 C 
ENDROOT
BRANCH   1   2
ATOM      2  C   UNL     1      -1.388   8.996  38.016  1.00  0.00     0.042 C 
ATOM      3  O   UNL     1      -0.783   8.330  37.137  1.00  0.00    -0.550 OA
ATOM      4  O   UNL     1      -2.111  10.125  37.650  1.00  0.00    -0.550 OA
ENDBRANCH   1   2
BRANCH   1   5
ATOM      5  C   UNL     1      -2.547   7.839  39.915  1.00  0.00     0.059 C 
BRANCH   5   6
ATOM      6  C   UNL     1      -2.450   6.378  39.600  1.00  0.00     0.042 C 
ATOM      7  O   UNL     1      -1.330   5.801  39.610  1.00  0.00    -0.550 OA
ATOM      8  O   UNL     1      -3.599   5.645  39.335  1.00  0.00    -0.550 OA
ENDBRANCH   5   6
ENDBRANCH   1   5
TORSDOF 3
ENDMDL
MODEL 6
REMARK VINA RESULT:    -2.660      2.025      4.411
REMARK INTER + INTRA:          -3.251
REMARK INTER:                  -3.142
REMARK INTRA:                  -0.110
REMARK UNBOUND:                -0.124
REMARK SMILES O=C([O-])CCC(=O)[O-]
REMARK SMILES IDX 4 1 2 2 1 3 3 4 5 5 6 6 7 7 8 8
REMARK H PARENT
REMARK Flexibility Score: inf
ROOT
ATOM      1  C   UNL     1      -1.615   7.970  38.977  1.00  0.00     0.059 C 
ENDROOT
BRANCH   1   2
ATOM      2  C   UNL     1      -1.334   9.399  38.623  1.00  0.00     0.042 C 
ATOM      3  O   UNL     1      -0.282   9.957  39.031  1.00  0.00    -0.550 OA
ATOM      4  O   UNL     1      -2.253  10.124  37.876  1.00  0.00    -0.550 OA
ENDBRANCH   1   2
BRANCH   1   5
ATOM      5  C   UNL     1      -2.623   7.862  40.127  1.00  0.00     0.059 C 
BRANCH   5   6
ATOM      6  C   UNL     1      -1.948   7.532  41.423  1.00  0.00     0.042 C 
ATOM      7  O   UNL     1      -0.739   7.180  41.436  1.00  0.00    -0.550 OA
ATOM      8  O   UNL     1      -2.642   7.651  42.620  1.00  0.00    -0.550 OA
ENDBRANCH   5   6
ENDBRANCH   1   5
TORSDOF 3
ENDMDL
MODEL 7
REMARK VINA RESULT:    -2.592      2.141      2.803
REMARK INTER + INTRA:          -3.171
REMARK INTER:                  -3.053
REMARK INTRA:                  -0.118
REMARK UNBOUND:                -0.124
REMARK SMILES O=C([O-])CCC(=O)[O-]
REMARK SMILES IDX 4 1 2 2 1 3 3 4 5 5 6 6 7 7 8 8
REMARK H PARENT
REMARK Flexibility Score: inf
ROOT
ATOM      1  C   UNL     1      -0.183   8.676  39.192  1.00  0.00     0.059 C 
ENDROOT
BRANCH   1   2
ATOM      2  C   UNL     1      -1.643   8.910  38.947  1.00  0.00     0.042 C 
ATOM      3  O   UNL     1      -2.015   9.807  38.147  1.00  0.00    -0.550 OA
ATOM      4  O   UNL     1      -2.591   8.163  39.634  1.00  0.00    -0.550 OA
ENDBRANCH   1   2
BRANCH   1   5
ATOM      5  C   UNL     1       0.625   9.972  39.060  1.00  0.00     0.059 C 
BRANCH   5   6
ATOM      6  C   UNL     1       1.569   9.918  37.898  1.00  0.00     0.042 C 
ATOM      7  O   UNL     1       2.786   9.649  38.082  1.00  0.00    -0.550 OA
ATOM      8  O   UNL     1       1.099  10.125  36.607  1.00  0.00    -0.550 OA
ENDBRANCH   5   6
ENDBRANCH   1   5
TORSDOF 3
ENDMDL
MODEL 8
REMARK VINA RESULT:    -2.340      2.124      2.470
REMARK INTER + INTRA:          -2.875
REMARK INTER:                  -2.782
REMARK INTRA:                  -0.093
REMARK UNBOUND:                -0.124
REMARK SMILES O=C([O-])CCC(=O)[O-]
REMARK SMILES IDX 4 1 2 2 1 3 3 4 5 5 6 6 7 7 8 8
REMARK H PARENT
REMARK Flexibility Score: inf
ROOT
ATOM      1  C   UNL     1      -2.553   7.875  40.116  1.00  0.00     0.059 C 
ENDROOT
BRANCH   1   2
ATOM      2  C   UNL     1      -1.820   7.492  41.366  1.00  0.00     0.042 C 
ATOM      3  O   UNL     1      -0.723   8.039  41.649  1.00  0.00    -0.550 OA
ATOM      4  O   UNL     1      -2.333   6.504  42.197  1.00  0.00    -0.550 OA
ENDBRANCH   1   2
BRANCH   1   5
ATOM      5  C   UNL     1      -1.598   8.023  38.926  1.00  0.00     0.059 C 
BRANCH   5   6
ATOM      6  C   UNL     1      -1.365   9.462  38.581  1.00  0.00     0.042 C 
ATOM      7  O   UNL     1      -2.199  10.086  37.872  1.00  0.00    -0.550 OA
ATOM      8  O   UNL     1      -0.249  10.125  39.073  1.00  0.00    -0.550 OA
ENDBRANCH   5   6
ENDBRANCH   1   5
TORSDOF 3
ENDMDL
MODEL 9
REMARK VINA RESULT:    -1.771     11.165     12.081
REMARK INTER + INTRA:          -2.206
REMARK INTER:                  -2.085
REMARK INTRA:                  -0.120
REMARK UNBOUND:                -0.124
REMARK SMILES O=C([O-])CCC(=O)[O-]
REMARK SMILES IDX 4 1 2 2 1 3 3 4 5 5 6 6 7 7 8 8
REMARK H PARENT
REMARK Flexibility Score: inf
ROOT
ATOM      1  C   UNL     1       3.381   8.136  27.824  1.00  0.00     0.059 C 
ENDROOT
BRANCH   1   2
ATOM      2  C   UNL     1       4.363   9.241  28.068  1.00  0.00     0.042 C 
ATOM      3  O   UNL     1       4.874   9.393  29.208  1.00  0.00    -0.550 OA
ATOM      4  O   UNL     1       4.683  10.125  27.046  1.00  0.00    -0.550 OA
ENDBRANCH   1   2
BRANCH   1   5
ATOM      5  C   UNL     1       1.952   8.673  27.679  1.00  0.00     0.059 C 
BRANCH   5   6
ATOM      6  C   UNL     1       1.490   8.637  26.255  1.00  0.00     0.042 C 
ATOM      7  O   UNL     1       0.811   7.663  25.833  1.00  0.00    -0.550 OA
ATOM      8  O   UNL     1       1.776   9.696  25.402  1.00  0.00    -0.550 OA
ENDBRANCH   5   6
ENDBRANCH   1   5
TORSDOF 3
ENDMDL
