MODEL 1
REMARK VINA RESULT:    -5.632      0.000      0.000
REMARK INTER + INTRA:          -6.822
REMARK INTER:                  -6.619
REMARK INTRA:                  -0.202
REMARK UNBOUND:                -0.202
REMARK SMILES CCCC[C@@H]1OC(=O)C2=C1CCC=C2
REMARK SMILES IDX 3 1 2 2 1 3 4 4 5 5 10 6 6 7 9 8 11 9 7 10 14 11 12 12 8 13
REMARK SMILES IDX 13 14
REMARK H PARENT
REMARK Flexibility Score: inf
ROOT
ATOM      1  C   UNL     1       3.279 -16.514  30.398  1.00  0.00     0.004 C 
ENDROOT
BRANCH   1   2
ATOM      2  C   UNL     1       2.656 -15.331  29.636  1.00  0.00    -0.003 C 
ATOM      3  C   UNL     1       3.203 -15.178  28.217  1.00  0.00     0.004 C 
ENDBRANCH   1   2
BRANCH   1   4
ATOM      4  C   UNL     1       2.551 -16.899  31.700  1.00  0.00     0.050 C 
BRANCH   4   5
ATOM      5  C   UNL     1       1.386 -17.877  31.480  1.00  0.00     0.204 C 
ATOM      6  C   UNL     1       1.862 -19.309  31.492  1.00  0.00    -0.015 C 
ATOM      7  O   UNL     1       0.469 -17.832  32.578  1.00  0.00    -0.454 OA
ATOM      8  C   UNL     1       1.259 -19.995  32.451  1.00  0.00     0.062 C 
ATOM      9  C   UNL     1       2.667 -20.003  30.427  1.00  0.00     0.040 C 
ATOM     10  C   UNL     1       0.385 -19.088  33.151  1.00  0.00     0.338 C 
ATOM     11  C   UNL     1       1.420 -21.444  32.615  1.00  0.00     0.011 C 
ATOM     12  C   UNL     1       3.278 -21.319  30.966  1.00  0.00     0.032 C 
ATOM     13  O   UNL     1      -0.357 -19.378  34.125  1.00  0.00    -0.246 OA
ATOM     14  C   UNL     1       2.324 -22.084  31.862  1.00  0.00    -0.026 C 
ENDBRANCH   4   5
ENDBRANCH   1   4
TORSDOF 3
ENDMDL
MODEL 2
REMARK VINA RESULT:    -5.574      1.686      4.911
REMARK INTER + INTRA:          -6.754
REMARK INTER:                  -6.543
REMARK INTRA:                  -0.211
REMARK UNBOUND:                -0.202
REMARK SMILES CCCC[C@@H]1OC(=O)C2=C1CCC=C2
REMARK SMILES IDX 3 1 2 2 1 3 4 4 5 5 10 6 6 7 9 8 11 9 7 10 14 11 12 12 8 13
REMARK SMILES IDX 13 14
REMARK H PARENT
REMARK Flexibility Score: inf
ROOT
ATOM      1  C   UNL     1       1.747 -19.060  31.314  1.00  0.00     0.004 C 
ENDROOT
BRANCH   1   2
ATOM      2  C   UNL     1       2.130 -20.504  31.683  1.00  0.00    -0.003 C 
ATOM      3  C   UNL     1       3.075 -21.150  30.670  1.00  0.00     0.004 C 
ENDBRANCH   1   2
BRANCH   1   4
ATOM      4  C   UNL     1       0.978 -18.296  32.408  1.00  0.00     0.050 C 
BRANCH   4   5
ATOM      5  C   UNL     1       0.953 -16.776  32.188  1.00  0.00     0.204 C 
ATOM      6  C   UNL     1       2.094 -16.330  31.306  1.00  0.00    -0.015 C 
ATOM      7  O   UNL     1      -0.204 -16.387  31.441  1.00  0.00    -0.454 OA
ATOM      8  C   UNL     1       1.637 -15.730  30.218  1.00  0.00     0.062 C 
ATOM      9  C   UNL     1       3.552 -16.271  31.675  1.00  0.00     0.040 C 
ATOM     10  C   UNL     1       0.198 -15.759  30.276  1.00  0.00     0.338 C 
ATOM     11  C   UNL     1       2.515 -15.072  29.244  1.00  0.00     0.011 C 
ATOM     12  C   UNL     1       4.435 -16.138  30.412  1.00  0.00     0.032 C 
ATOM     13  O   UNL     1      -0.588 -15.282  29.418  1.00  0.00    -0.246 OA
ATOM     14  C   UNL     1       3.842 -15.204  29.376  1.00  0.00    -0.026 C 
ENDBRANCH   4   5
ENDBRANCH   1   4
TORSDOF 3
ENDMDL
MODEL 3
REMARK VINA RESULT:    -5.572     14.445     17.176
REMARK INTER + INTRA:          -6.752
REMARK INTER:                  -6.484
REMARK INTRA:                  -0.268
REMARK UNBOUND:                -0.202
REMARK SMILES CCCC[C@@H]1OC(=O)C2=C1CCC=C2
REMARK SMILES IDX 3 1 2 2 1 3 4 4 5 5 10 6 6 7 9 8 11 9 7 10 14 11 12 12 8 13
REMARK SMILES IDX 13 14
REMARK H PARENT
REMARK Flexibility Score: inf
ROOT
ATOM      1  C   UNL     1      12.323  -9.844  30.831  1.00  0.00     0.004 C 
ENDROOT
BRANCH   1   2
ATOM      2  C   UNL     1      13.232 -10.648  29.885  1.00  0.00    -0.003 C 
ATOM      3  C   UNL     1      12.541 -11.034  28.577  1.00  0.00     0.004 C 
ENDBRANCH   1   2
BRANCH   1   4
ATOM      4  C   UNL     1      13.044  -9.209  32.035  1.00  0.00     0.050 C 
BRANCH   4   5
ATOM      5  C   UNL     1      14.162  -8.236  31.632  1.00  0.00     0.204 C 
ATOM      6  C   UNL     1      13.753  -6.802  31.865  1.00  0.00    -0.015 C 
ATOM      7  O   UNL     1      15.303  -8.388  32.483  1.00  0.00    -0.454 OA
ATOM      8  C   UNL     1      14.582  -6.210  32.710  1.00  0.00     0.062 C 
ATOM      9  C   UNL     1      12.751  -6.008  31.071  1.00  0.00     0.040 C 
ATOM     10  C   UNL     1      15.560  -7.186  33.117  1.00  0.00     0.338 C 
ATOM     11  C   UNL     1      14.513  -4.777  33.019  1.00  0.00     0.011 C 
ATOM     12  C   UNL     1      12.326  -4.732  31.836  1.00  0.00     0.032 C 
ATOM     13  O   UNL     1      16.513  -6.992  33.914  1.00  0.00    -0.246 OA
ATOM     14  C   UNL     1      13.485  -4.061  32.547  1.00  0.00    -0.026 C 
ENDBRANCH   4   5
ENDBRANCH   1   4
TORSDOF 3
ENDMDL
MODEL 4
REMARK VINA RESULT:    -4.979     14.946     17.585
REMARK INTER + INTRA:          -6.055
REMARK INTER:                  -5.890
REMARK INTRA:                  -0.165
REMARK UNBOUND:                -0.202
REMARK SMILES CCCC[C@@H]1OC(=O)C2=C1CCC=C2
REMARK SMILES IDX 3 1 2 2 1 3 4 4 5 5 10 6 6 7 9 8 11 9 7 10 14 11 12 12 8 13
REMARK SMILES IDX 13 14
REMARK H PARENT
REMARK Flexibility Score: inf
ROOT
ATOM      1  C   UNL     1      13.981 -10.256  31.087  1.00  0.00     0.004 C 
ENDROOT
BRANCH   1   2
ATOM      2  C   UNL     1      14.331 -10.777  29.681  1.00  0.00    -0.003 C 
ATOM      3  C   UNL     1      13.098 -11.151  28.859  1.00  0.00     0.004 C 
ENDBRANCH   1   2
BRANCH   1   4
ATOM      4  C   UNL     1      14.770  -9.009  31.527  1.00  0.00     0.050 C 
BRANCH   4   5
ATOM      5  C   UNL     1      13.926  -8.004  32.327  1.00  0.00     0.204 C 
ATOM      6  C   UNL     1      14.750  -6.815  32.758  1.00  0.00    -0.015 C 
ATOM      7  O   UNL     1      12.917  -7.416  31.501  1.00  0.00    -0.454 OA
ATOM      8  C   UNL     1      14.244  -5.694  32.269  1.00  0.00     0.062 C 
ATOM      9  C   UNL     1      15.816  -6.791  33.820  1.00  0.00     0.040 C 
ATOM     10  C   UNL     1      13.097  -6.044  31.472  1.00  0.00     0.338 C 
ATOM     11  C   UNL     1      14.754  -4.367  32.632  1.00  0.00     0.011 C 
ATOM     12  C   UNL     1      16.682  -5.515  33.704  1.00  0.00     0.032 C 
ATOM     13  O   UNL     1      12.354  -5.243  30.848  1.00  0.00    -0.246 OA
ATOM     14  C   UNL     1      15.868  -4.280  33.372  1.00  0.00    -0.026 C 
ENDBRANCH   4   5
ENDBRANCH   1   4
TORSDOF 3
ENDMDL
MODEL 5
REMARK VINA RESULT:    -4.828     12.379     14.712
REMARK INTER + INTRA:          -5.877
REMARK INTER:                  -5.444
REMARK INTRA:                  -0.433
REMARK UNBOUND:                -0.202
REMARK SMILES CCCC[C@@H]1OC(=O)C2=C1CCC=C2
REMARK SMILES IDX 3 1 2 2 1 3 4 4 5 5 10 6 6 7 9 8 11 9 7 10 14 11 12 12 8 13
REMARK SMILES IDX 13 14
REMARK H PARENT
REMARK Flexibility Score: inf
ROOT
ATOM      1  C   UNL     1      -1.649 -19.712  18.769  1.00  0.00     0.004 C 
ENDROOT
BRANCH   1   2
ATOM      2  C   UNL     1      -2.702 -19.078  19.695  1.00  0.00    -0.003 C 
ATOM      3  C   UNL     1      -2.107 -18.539  20.995  1.00  0.00     0.004 C 
ENDBRANCH   1   2
BRANCH   1   4
ATOM      4  C   UNL     1      -1.351 -18.911  17.487  1.00  0.00     0.050 C 
BRANCH   4   5
ATOM      5  C   UNL     1      -1.388 -17.390  17.696  1.00  0.00     0.204 C 
ATOM      6  C   UNL     1      -0.010 -16.841  17.979  1.00  0.00    -0.015 C 
ATOM      7  O   UNL     1      -1.761 -16.718  16.489  1.00  0.00    -0.454 OA
ATOM      8  C   UNL     1       0.332 -15.943  17.068  1.00  0.00     0.062 C 
ATOM      9  C   UNL     1       0.789 -17.013  19.242  1.00  0.00     0.040 C 
ATOM     10  C   UNL     1      -0.747 -15.853  16.118  1.00  0.00     0.338 C 
ATOM     11  C   UNL     1       1.558 -15.143  17.162  1.00  0.00     0.011 C 
ATOM     12  C   UNL     1       2.273 -16.644  19.011  1.00  0.00     0.032 C 
ATOM     13  O   UNL     1      -0.786 -15.102  15.110  1.00  0.00    -0.246 OA
ATOM     14  C   UNL     1       2.445 -15.426  18.125  1.00  0.00    -0.026 C 
ENDBRANCH   4   5
ENDBRANCH   1   4
TORSDOF 3
ENDMDL
MODEL 6
REMARK VINA RESULT:    -4.759     13.517     15.530
REMARK INTER + INTRA:          -5.796
REMARK INTER:                  -5.432
REMARK INTRA:                  -0.364
REMARK UNBOUND:                -0.202
REMARK SMILES CCCC[C@@H]1OC(=O)C2=C1CCC=C2
REMARK SMILES IDX 3 1 2 2 1 3 4 4 5 5 10 6 6 7 9 8 11 9 7 10 14 11 12 12 8 13
REMARK SMILES IDX 13 14
REMARK H PARENT
REMARK Flexibility Score: inf
ROOT
ATOM      1  C   UNL     1      14.145  -6.948  31.668  1.00  0.00     0.004 C 
ENDROOT
BRANCH   1   2
ATOM      2  C   UNL     1      13.376  -5.674  32.062  1.00  0.00    -0.003 C 
ATOM      3  C   UNL     1      12.307  -5.282  31.043  1.00  0.00     0.004 C 
ENDBRANCH   1   2
BRANCH   1   4
ATOM      4  C   UNL     1      14.514  -7.869  32.846  1.00  0.00     0.050 C 
BRANCH   4   5
ATOM      5  C   UNL     1      14.568  -9.356  32.464  1.00  0.00     0.204 C 
ATOM      6  C   UNL     1      13.351  -9.764  31.669  1.00  0.00    -0.015 C 
ATOM      7  O   UNL     1      15.646  -9.610  31.557  1.00  0.00    -0.454 OA
ATOM      8  C   UNL     1      13.703 -10.226  30.479  1.00  0.00     0.062 C 
ATOM      9  C   UNL     1      11.948  -9.930  32.187  1.00  0.00     0.040 C 
ATOM     10  C   UNL     1      15.137 -10.134  30.383  1.00  0.00     0.338 C 
ATOM     11  C   UNL     1      12.743 -10.823  29.543  1.00  0.00     0.011 C 
ATOM     12  C   UNL     1      10.932  -9.975  31.022  1.00  0.00     0.032 C 
ATOM     13  O   UNL     1      15.837 -10.483  29.397  1.00  0.00    -0.246 OA
ATOM     14  C   UNL     1      11.436 -10.769  29.832  1.00  0.00    -0.026 C 
ENDBRANCH   4   5
ENDBRANCH   1   4
TORSDOF 3
ENDMDL
MODEL 7
REMARK VINA RESULT:    -4.737      2.228      3.702
REMARK INTER + INTRA:          -5.771
REMARK INTER:                  -5.623
REMARK INTRA:                  -0.148
REMARK UNBOUND:                -0.202
REMARK SMILES CCCC[C@@H]1OC(=O)C2=C1CCC=C2
REMARK SMILES IDX 3 1 2 2 1 3 4 4 5 5 10 6 6 7 9 8 11 9 7 10 14 11 12 12 8 13
REMARK SMILES IDX 13 14
REMARK H PARENT
REMARK Flexibility Score: inf
ROOT
ATOM      1  C   UNL     1       0.712 -15.273  30.353  1.00  0.00     0.004 C 
ENDROOT
BRANCH   1   2
ATOM      2  C   UNL     1      -0.160 -15.748  29.177  1.00  0.00    -0.003 C 
ATOM      3  C   UNL     1      -1.614 -15.289  29.288  1.00  0.00     0.004 C 
ENDBRANCH   1   2
BRANCH   1   4
ATOM      4  C   UNL     1       2.214 -15.581  30.208  1.00  0.00     0.050 C 
BRANCH   4   5
ATOM      5  C   UNL     1       2.718 -16.643  31.198  1.00  0.00     0.204 C 
ATOM      6  C   UNL     1       1.631 -17.054  32.162  1.00  0.00    -0.015 C 
ATOM      7  O   UNL     1       3.028 -17.864  30.521  1.00  0.00    -0.454 OA
ATOM      8  C   UNL     1       1.388 -18.352  32.067  1.00  0.00     0.062 C 
ATOM      9  C   UNL     1       1.072 -16.237  33.295  1.00  0.00     0.040 C 
ATOM     10  C   UNL     1       2.248 -18.882  31.039  1.00  0.00     0.338 C 
ATOM     11  C   UNL     1       0.479 -19.059  32.975  1.00  0.00     0.011 C 
ATOM     12  C   UNL     1      -0.264 -16.833  33.798  1.00  0.00     0.032 C 
ATOM     13  O   UNL     1       2.304 -20.082  30.666  1.00  0.00    -0.246 OA
ATOM     14  C   UNL     1      -0.251 -18.348  33.845  1.00  0.00    -0.026 C 
ENDBRANCH   4   5
ENDBRANCH   1   4
TORSDOF 3
ENDMDL
MODEL 8
REMARK VINA RESULT:    -4.640     12.653     15.101
REMARK INTER + INTRA:          -5.656
REMARK INTER:                  -4.976
REMARK INTRA:                  -0.680
REMARK UNBOUND:                -0.202
REMARK SMILES CCCC[C@@H]1OC(=O)C2=C1CCC=C2
REMARK SMILES IDX 3 1 2 2 1 3 4 4 5 5 10 6 6 7 9 8 11 9 7 10 14 11 12 12 8 13
REMARK SMILES IDX 13 14
REMARK H PARENT
REMARK Flexibility Score: inf
ROOT
ATOM      1  C   UNL     1      -0.470 -17.934  15.163  1.00  0.00     0.004 C 
ENDROOT
BRANCH   1   2
ATOM      2  C   UNL     1      -1.333 -19.152  15.540  1.00  0.00    -0.003 C 
ATOM      3  C   UNL     1      -0.646 -20.086  16.536  1.00  0.00     0.004 C 
ENDBRANCH   1   2
BRANCH   1   4
ATOM      4  C   UNL     1      -1.183 -16.575  15.284  1.00  0.00     0.050 C 
BRANCH   4   5
ATOM      5  C   UNL     1      -0.543 -15.640  16.322  1.00  0.00     0.204 C 
ATOM      6  C   UNL     1      -0.230 -16.375  17.603  1.00  0.00    -0.015 C 
ATOM      7  O   UNL     1       0.744 -15.195  15.882  1.00  0.00    -0.454 OA
ATOM      8  C   UNL     1       1.065 -16.316  17.871  1.00  0.00     0.062 C 
ATOM      9  C   UNL     1      -1.217 -16.865  18.627  1.00  0.00     0.040 C 
ATOM     10  C   UNL     1       1.699 -15.587  16.803  1.00  0.00     0.338 C 
ATOM     11  C   UNL     1       1.642 -16.823  19.121  1.00  0.00     0.011 C 
ATOM     12  C   UNL     1      -0.558 -17.888  19.583  1.00  0.00     0.032 C 
ATOM     13  O   UNL     1       2.926 -15.326  16.710  1.00  0.00    -0.246 OA
ATOM     14  C   UNL     1       0.858 -17.505  19.967  1.00  0.00    -0.026 C 
ENDBRANCH   4   5
ENDBRANCH   1   4
TORSDOF 3
ENDMDL
MODEL 9
REMARK VINA RESULT:    -4.615     12.209     14.691
REMARK INTER + INTRA:          -5.626
REMARK INTER:                  -5.208
REMARK INTRA:                  -0.418
REMARK UNBOUND:                -0.202
REMARK SMILES CCCC[C@@H]1OC(=O)C2=C1CCC=C2
REMARK SMILES IDX 3 1 2 2 1 3 4 4 5 5 10 6 6 7 9 8 11 9 7 10 14 11 12 12 8 13
REMARK SMILES IDX 13 14
REMARK H PARENT
REMARK Flexibility Score: inf
ROOT
ATOM      1  C   UNL     1      -1.361 -18.940  20.229  1.00  0.00     0.004 C 
ENDROOT
BRANCH   1   2
ATOM      2  C   UNL     1      -2.376 -19.514  19.224  1.00  0.00    -0.003 C 
ATOM      3  C   UNL     1      -1.857 -20.750  18.490  1.00  0.00     0.004 C 
ENDBRANCH   1   2
BRANCH   1   4
ATOM      4  C   UNL     1      -0.813 -17.546  19.869  1.00  0.00     0.050 C 
BRANCH   4   5
ATOM      5  C   UNL     1       0.233 -17.574  18.744  1.00  0.00     0.204 C 
ATOM      6  C   UNL     1      -0.165 -16.673  17.601  1.00  0.00    -0.015 C 
ATOM      7  O   UNL     1       1.471 -17.008  19.186  1.00  0.00    -0.454 OA
ATOM      8  C   UNL     1       0.753 -15.741  17.399  1.00  0.00     0.062 C 
ATOM      9  C   UNL     1      -1.268 -16.911  16.605  1.00  0.00     0.040 C 
ATOM     10  C   UNL     1       1.787 -15.926  18.384  1.00  0.00     0.338 C 
ATOM     11  C   UNL     1       0.702 -14.808  16.268  1.00  0.00     0.011 C 
ATOM     12  C   UNL     1      -1.614 -15.609  15.844  1.00  0.00     0.032 C 
ATOM     13  O   UNL     1       2.828 -15.230  18.505  1.00  0.00    -0.246 OA
ATOM     14  C   UNL     1      -0.387 -14.794  15.487  1.00  0.00    -0.026 C 
ENDBRANCH   4   5
ENDBRANCH   1   4
TORSDOF 3
ENDMDL
