MODEL 1
REMARK VINA RESULT:    -3.615      0.000      0.000
REMARK INTER + INTRA:          -4.466
REMARK INTER:                  -4.355
REMARK INTRA:                  -0.112
REMARK UNBOUND:                -0.112
REMARK SMILES CC[C@@H](C)[C@@H]([NH3+])C(=O)[O-]
REMARK SMILES IDX 3 1 4 2 5 3 6 4 7 8 8 9 9 10 2 11 1 12
REMARK H PARENT 6 5 6 6 6 7
REMARK Flexibility Score: inf
ROOT
ATOM      1  C   UNL     1      28.322   6.948  28.391  1.00  0.00     0.050 C 
ATOM      2  C   UNL     1      29.800   7.367  28.493  1.00  0.00     0.014 C 
ENDROOT
BRANCH   1   3
ATOM      3  C   UNL     1      27.388   8.197  28.339  1.00  0.00     0.230 C 
BRANCH   3   4
ATOM      4  N   UNL     1      26.645   8.301  27.073  1.00  0.00    -0.350 N 
ATOM      5  H   UNL     1      26.774   7.435  26.503  1.00  0.00     0.345 HD
ATOM      6  H   UNL     1      25.626   8.458  27.238  1.00  0.00     0.345 HD
ATOM      7  H   UNL     1      27.019   9.104  26.515  1.00  0.00     0.345 HD
ENDBRANCH   3   4
BRANCH   3   8
ATOM      8  C   UNL     1      26.445   8.218  29.518  1.00  0.00     0.099 C 
ATOM      9  O   UNL     1      26.537   7.335  30.410  1.00  0.00    -0.544 OA
ATOM     10  O   UNL     1      25.444   9.179  29.612  1.00  0.00    -0.544 OA
ENDBRANCH   3   8
ENDBRANCH   1   3
BRANCH   1  11
ATOM     11  C   UNL     1      28.094   5.974  27.208  1.00  0.00     0.006 C 
ATOM     12  C   UNL     1      29.291   5.908  26.258  1.00  0.00     0.004 C 
ENDBRANCH   1  11
TORSDOF 4
ENDMDL
MODEL 2
REMARK VINA RESULT:    -3.525      1.326      2.111
REMARK INTER + INTRA:          -4.358
REMARK INTER:                  -4.301
REMARK INTRA:                  -0.057
REMARK UNBOUND:                -0.112
REMARK SMILES CC[C@@H](C)[C@@H]([NH3+])C(=O)[O-]
REMARK SMILES IDX 3 1 4 2 5 3 6 4 7 8 8 9 9 10 2 11 1 12
REMARK H PARENT 6 5 6 6 6 7
REMARK Flexibility Score: inf
ROOT
ATOM      1  C   UNL     1      28.562   6.319  27.242  1.00  0.00     0.050 C 
ATOM      2  C   UNL     1      29.195   6.815  25.930  1.00  0.00     0.014 C 
ENDROOT
BRANCH   1   3
ATOM      3  C   UNL     1      28.016   7.512  28.088  1.00  0.00     0.230 C 
BRANCH   3   4
ATOM      4  N   UNL     1      26.744   8.042  27.572  1.00  0.00    -0.350 N 
ATOM      5  H   UNL     1      26.902   8.945  27.072  1.00  0.00     0.345 HD
ATOM      6  H   UNL     1      26.281   7.364  26.925  1.00  0.00     0.345 HD
ATOM      7  H   UNL     1      26.097   8.232  28.371  1.00  0.00     0.345 HD
ENDBRANCH   3   4
BRANCH   3   8
ATOM      8  C   UNL     1      27.889   7.131  29.544  1.00  0.00     0.099 C 
ATOM      9  O   UNL     1      26.774   7.223  30.120  1.00  0.00    -0.544 OA
ATOM     10  O   UNL     1      29.000   6.719  30.271  1.00  0.00    -0.544 OA
ENDBRANCH   3   8
ENDBRANCH   1   3
BRANCH   1  11
ATOM     11  C   UNL     1      27.492   5.231  26.974  1.00  0.00     0.006 C 
ATOM     12  C   UNL     1      26.974   5.253  25.535  1.00  0.00     0.004 C 
ENDBRANCH   1  11
TORSDOF 4
ENDMDL
MODEL 3
REMARK VINA RESULT:    -3.502     13.808     15.218
REMARK INTER + INTRA:          -4.330
REMARK INTER:                  -4.232
REMARK INTRA:                  -0.099
REMARK UNBOUND:                -0.112
REMARK SMILES CC[C@@H](C)[C@@H]([NH3+])C(=O)[O-]
REMARK SMILES IDX 3 1 4 2 5 3 6 4 7 8 8 9 9 10 2 11 1 12
REMARK H PARENT 6 5 6 6 6 7
REMARK Flexibility Score: inf
ROOT
ATOM      1  C   UNL     1      12.816   9.851  32.434  1.00  0.00     0.050 C 
ATOM      2  C   UNL     1      12.199  10.769  33.505  1.00  0.00     0.014 C 
ENDROOT
BRANCH   1   3
ATOM      3  C   UNL     1      13.993   9.014  33.024  1.00  0.00     0.230 C 
BRANCH   3   4
ATOM      4  N   UNL     1      14.593   8.101  32.039  1.00  0.00    -0.350 N 
ATOM      5  H   UNL     1      15.171   8.635  31.351  1.00  0.00     0.345 HD
ATOM      6  H   UNL     1      15.188   7.376  32.501  1.00  0.00     0.345 HD
ATOM      7  H   UNL     1      13.834   7.617  31.505  1.00  0.00     0.345 HD
ENDBRANCH   3   4
BRANCH   3   8
ATOM      8  C   UNL     1      15.044   9.911  33.635  1.00  0.00     0.099 C 
ATOM      9  O   UNL     1      15.592  10.801  32.934  1.00  0.00    -0.544 OA
ATOM     10  O   UNL     1      15.445   9.739  34.955  1.00  0.00    -0.544 OA
ENDBRANCH   3   8
ENDBRANCH   1   3
BRANCH   1  11
ATOM     11  C   UNL     1      11.734   8.975  31.754  1.00  0.00     0.006 C 
ATOM     12  C   UNL     1      10.883   8.200  32.760  1.00  0.00     0.004 C 
ENDBRANCH   1  11
TORSDOF 4
ENDMDL
MODEL 4
REMARK VINA RESULT:    -3.329      1.669      2.093
REMARK INTER + INTRA:          -4.121
REMARK INTER:                  -4.031
REMARK INTRA:                  -0.090
REMARK UNBOUND:                -0.112
REMARK SMILES CC[C@@H](C)[C@@H]([NH3+])C(=O)[O-]
REMARK SMILES IDX 3 1 4 2 5 3 6 4 7 8 8 9 9 10 2 11 1 12
REMARK H PARENT 6 5 6 6 6 7
REMARK Flexibility Score: inf
ROOT
ATOM      1  C   UNL     1      28.361   7.062  27.650  1.00  0.00     0.050 C 
ATOM      2  C   UNL     1      28.258   5.748  26.854  1.00  0.00     0.014 C 
ENDROOT
BRANCH   1   3
ATOM      3  C   UNL     1      27.450   7.023  28.916  1.00  0.00     0.230 C 
BRANCH   3   4
ATOM      4  N   UNL     1      28.199   6.729  30.149  1.00  0.00    -0.350 N 
ATOM      5  H   UNL     1      28.940   7.448  30.305  1.00  0.00     0.345 HD
ATOM      6  H   UNL     1      27.568   6.694  30.981  1.00  0.00     0.345 HD
ATOM      7  H   UNL     1      28.674   5.801  30.054  1.00  0.00     0.345 HD
ENDBRANCH   3   4
BRANCH   3   8
ATOM      8  C   UNL     1      26.664   8.305  29.058  1.00  0.00     0.099 C 
ATOM      9  O   UNL     1      26.216   8.643  30.185  1.00  0.00    -0.544 OA
ATOM     10  O   UNL     1      26.392   9.099  27.950  1.00  0.00    -0.544 OA
ENDBRANCH   3   8
ENDBRANCH   1   3
BRANCH   1  11
ATOM     11  C   UNL     1      29.836   7.406  27.978  1.00  0.00     0.006 C 
ATOM     12  C   UNL     1      30.831   6.630  27.113  1.00  0.00     0.004 C 
ENDBRANCH   1  11
TORSDOF 4
ENDMDL
MODEL 5
REMARK VINA RESULT:    -3.288      1.732      1.983
REMARK INTER + INTRA:          -4.073
REMARK INTER:                  -4.021
REMARK INTRA:                  -0.052
REMARK UNBOUND:                -0.112
REMARK SMILES CC[C@@H](C)[C@@H]([NH3+])C(=O)[O-]
REMARK SMILES IDX 3 1 4 2 5 3 6 4 7 8 8 9 9 10 2 11 1 12
REMARK H PARENT 6 5 6 6 6 7
REMARK Flexibility Score: inf
ROOT
ATOM      1  C   UNL     1      28.808   6.755  28.089  1.00  0.00     0.050 C 
ATOM      2  C   UNL     1      29.722   7.994  28.098  1.00  0.00     0.014 C 
ENDROOT
BRANCH   1   3
ATOM      3  C   UNL     1      27.400   7.093  28.670  1.00  0.00     0.230 C 
BRANCH   3   4
ATOM      4  N   UNL     1      27.347   6.984  30.137  1.00  0.00    -0.350 N 
ATOM      5  H   UNL     1      28.288   6.735  30.518  1.00  0.00     0.345 HD
ATOM      6  H   UNL     1      27.020   7.874  30.576  1.00  0.00     0.345 HD
ATOM      7  H   UNL     1      26.686   6.219  30.405  1.00  0.00     0.345 HD
ENDBRANCH   3   4
BRANCH   3   8
ATOM      8  C   UNL     1      26.939   8.457  28.216  1.00  0.00     0.099 C 
ATOM      9  O   UNL     1      26.794   9.382  29.058  1.00  0.00    -0.544 OA
ATOM     10  O   UNL     1      26.632   8.697  26.881  1.00  0.00    -0.544 OA
ENDBRANCH   3   8
ENDBRANCH   1   3
BRANCH   1  11
ATOM     11  C   UNL     1      28.742   6.116  26.679  1.00  0.00     0.006 C 
ATOM     12  C   UNL     1      27.569   5.147  26.524  1.00  0.00     0.004 C 
ENDBRANCH   1  11
TORSDOF 4
ENDMDL
MODEL 6
REMARK VINA RESULT:    -3.248      2.479      3.816
REMARK INTER + INTRA:          -4.024
REMARK INTER:                  -3.893
REMARK INTRA:                  -0.131
REMARK UNBOUND:                -0.112
REMARK SMILES CC[C@@H](C)[C@@H]([NH3+])C(=O)[O-]
REMARK SMILES IDX 3 1 4 2 5 3 6 4 7 8 8 9 9 10 2 11 1 12
REMARK H PARENT 6 5 6 6 6 7
REMARK Flexibility Score: inf
ROOT
ATOM      1  C   UNL     1      27.269   8.156  28.916  1.00  0.00     0.050 C 
ATOM      2  C   UNL     1      26.709   7.474  30.178  1.00  0.00     0.014 C 
ENDROOT
BRANCH   1   3
ATOM      3  C   UNL     1      27.638   7.103  27.826  1.00  0.00     0.230 C 
BRANCH   3   4
ATOM      4  N   UNL     1      26.893   7.296  26.572  1.00  0.00    -0.350 N 
ATOM      5  H   UNL     1      26.322   8.170  26.617  1.00  0.00     0.345 HD
ATOM      6  H   UNL     1      27.535   7.344  25.749  1.00  0.00     0.345 HD
ATOM      7  H   UNL     1      26.234   6.495  26.432  1.00  0.00     0.345 HD
ENDBRANCH   3   4
BRANCH   3   8
ATOM      8  C   UNL     1      29.126   7.086  27.570  1.00  0.00     0.099 C 
ATOM      9  O   UNL     1      29.877   7.885  28.189  1.00  0.00    -0.544 OA
ATOM     10  O   UNL     1      29.676   6.224  26.628  1.00  0.00    -0.544 OA
ENDBRANCH   3   8
ENDBRANCH   1   3
BRANCH   1  11
ATOM     11  C   UNL     1      26.304   9.252  28.395  1.00  0.00     0.006 C 
ATOM     12  C   UNL     1      26.892  10.659  28.506  1.00  0.00     0.004 C 
ENDBRANCH   1  11
TORSDOF 4
ENDMDL
MODEL 7
REMARK VINA RESULT:    -3.033      1.921      2.775
REMARK INTER + INTRA:          -3.765
REMARK INTER:                  -3.657
REMARK INTRA:                  -0.107
REMARK UNBOUND:                -0.112
REMARK SMILES CC[C@@H](C)[C@@H]([NH3+])C(=O)[O-]
REMARK SMILES IDX 3 1 4 2 5 3 6 4 7 8 8 9 9 10 2 11 1 12
REMARK H PARENT 6 5 6 6 6 7
REMARK Flexibility Score: inf
ROOT
ATOM      1  C   UNL     1      28.662   7.776  28.345  1.00  0.00     0.050 C 
ATOM      2  C   UNL     1      29.836   7.035  27.678  1.00  0.00     0.014 C 
ENDROOT
BRANCH   1   3
ATOM      3  C   UNL     1      27.999   8.782  27.354  1.00  0.00     0.230 C 
BRANCH   3   4
ATOM      4  N   UNL     1      26.667   8.348  26.905  1.00  0.00    -0.350 N 
ATOM      5  H   UNL     1      26.734   7.441  26.390  1.00  0.00     0.345 HD
ATOM      6  H   UNL     1      26.008   8.242  27.709  1.00  0.00     0.345 HD
ATOM      7  H   UNL     1      26.274   9.057  26.245  1.00  0.00     0.345 HD
ENDBRANCH   3   4
BRANCH   3   8
ATOM      8  C   UNL     1      27.940  10.169  27.949  1.00  0.00     0.099 C 
ATOM      9  O   UNL     1      28.892  10.972  27.763  1.00  0.00    -0.544 OA
ATOM     10  O   UNL     1      26.864  10.560  28.737  1.00  0.00    -0.544 OA
ENDBRANCH   3   8
ENDBRANCH   1   3
BRANCH   1  11
ATOM     11  C   UNL     1      27.647   6.781  28.963  1.00  0.00     0.006 C 
ATOM     12  C   UNL     1      26.966   7.332  30.215  1.00  0.00     0.004 C 
ENDBRANCH   1  11
TORSDOF 4
ENDMDL
MODEL 8
REMARK VINA RESULT:    -2.944     14.286     15.360
REMARK INTER + INTRA:          -3.659
REMARK INTER:                  -3.568
REMARK INTRA:                  -0.091
REMARK UNBOUND:                -0.112
REMARK SMILES CC[C@@H](C)[C@@H]([NH3+])C(=O)[O-]
REMARK SMILES IDX 3 1 4 2 5 3 6 4 7 8 8 9 9 10 2 11 1 12
REMARK H PARENT 6 5 6 6 6 7
REMARK Flexibility Score: inf
ROOT
ATOM      1  C   UNL     1      14.151  10.990  33.044  1.00  0.00     0.050 C 
ATOM      2  C   UNL     1      15.619  11.125  32.597  1.00  0.00     0.014 C 
ENDROOT
BRANCH   1   3
ATOM      3  C   UNL     1      13.451   9.801  32.315  1.00  0.00     0.230 C 
BRANCH   3   4
ATOM      4  N   UNL     1      13.963   8.489  32.741  1.00  0.00    -0.350 N 
ATOM      5  H   UNL     1      13.456   8.160  33.594  1.00  0.00     0.345 HD
ATOM      6  H   UNL     1      13.866   7.776  31.984  1.00  0.00     0.345 HD
ATOM      7  H   UNL     1      14.975   8.575  32.990  1.00  0.00     0.345 HD
ENDBRANCH   3   4
BRANCH   3   8
ATOM      8  C   UNL     1      11.951   9.873  32.478  1.00  0.00     0.099 C 
ATOM      9  O   UNL     1      11.281   8.812  32.574  1.00  0.00    -0.544 OA
ATOM     10  O   UNL     1      11.293  11.097  32.484  1.00  0.00    -0.544 OA
ENDBRANCH   3   8
ENDBRANCH   1   3
BRANCH   1  11
ATOM     11  C   UNL     1      14.039  10.902  34.587  1.00  0.00     0.006 C 
ATOM     12  C   UNL     1      15.393  10.702  35.268  1.00  0.00     0.004 C 
ENDBRANCH   1  11
TORSDOF 4
ENDMDL
MODEL 9
REMARK VINA RESULT:    -2.934      2.898      3.398
REMARK INTER + INTRA:          -3.646
REMARK INTER:                  -3.564
REMARK INTRA:                  -0.082
REMARK UNBOUND:                -0.112
REMARK SMILES CC[C@@H](C)[C@@H]([NH3+])C(=O)[O-]
REMARK SMILES IDX 3 1 4 2 5 3 6 4 7 8 8 9 9 10 2 11 1 12
REMARK H PARENT 6 5 6 6 6 7
REMARK Flexibility Score: inf
ROOT
ATOM      1  C   UNL     1      28.466   6.926  27.620  1.00  0.00     0.050 C 
ATOM      2  C   UNL     1      27.712   6.348  28.833  1.00  0.00     0.014 C 
ENDROOT
BRANCH   1   3
ATOM      3  C   UNL     1      29.791   7.620  28.063  1.00  0.00     0.230 C 
BRANCH   3   4
ATOM      4  N   UNL     1      30.983   7.024  27.440  1.00  0.00    -0.350 N 
ATOM      5  H   UNL     1      31.270   6.161  27.955  1.00  0.00     0.345 HD
ATOM      6  H   UNL     1      30.813   6.788  26.436  1.00  0.00     0.345 HD
ATOM      7  H   UNL     1      31.779   7.702  27.492  1.00  0.00     0.345 HD
ENDBRANCH   3   4
BRANCH   3   8
ATOM      8  C   UNL     1      29.736   9.107  27.806  1.00  0.00     0.099 C 
ATOM      9  O   UNL     1      28.623   9.679  27.673  1.00  0.00    -0.544 OA
ATOM     10  O   UNL     1      30.904   9.850  27.672  1.00  0.00    -0.544 OA
ENDBRANCH   3   8
ENDBRANCH   1   3
BRANCH   1  11
ATOM     11  C   UNL     1      28.685   5.847  26.529  1.00  0.00     0.006 C 
ATOM     12  C   UNL     1      27.432   5.013  26.262  1.00  0.00     0.004 C 
ENDBRANCH   1  11
TORSDOF 4
ENDMDL
