MODEL 1
REMARK VINA RESULT:     0.000      0.000      0.000
REMARK INTER + INTRA:          -7.780
REMARK INTER:                   0.000
REMARK INTRA:                  -7.780
REMARK UNBOUND:                -7.780
REMARK SMILES CCCCCCCCCCCCCCCCCCCCCCCCCCCCCC(=O)[O-]
REMARK SMILES IDX 16 1 17 2 18 3 19 4 20 5 21 6 22 7 23 8 24 9 25 10 26 11
REMARK SMILES IDX 27 12 28 13 29 14 30 15 31 16 32 17 15 18 14 19 13 20 12 21
REMARK SMILES IDX 11 22 10 23 9 24 8 25 7 26 6 27 5 28 4 29 3 30 2 31 1 32
REMARK H PARENT
REMARK Flexibility Score: inf
ROOT
ATOM      1  C   UNL     1     183.651 177.382 182.570  1.00  0.00     0.000 C 
ENDROOT
BRANCH   1   2
ATOM      2  C   UNL     1     184.462 176.470 181.633  1.00  0.00     0.000 C 
BRANCH   2   3
ATOM      3  C   UNL     1     184.067 174.990 181.752  1.00  0.00     0.000 C 
BRANCH   3   4
ATOM      4  C   UNL     1     182.884 174.770 182.708  1.00  0.00     0.000 C 
BRANCH   4   5
ATOM      5  C   UNL     1     181.641 174.195 182.008  1.00  0.00     0.000 C 
BRANCH   5   6
ATOM      6  C   UNL     1     180.406 175.119 182.069  1.00  0.00     0.000 C 
BRANCH   6   7
ATOM      7  C   UNL     1     179.991 175.638 180.681  1.00  0.00     0.000 C 
BRANCH   7   8
ATOM      8  C   UNL     1     180.928 175.159 179.557  1.00  0.00     0.000 C 
BRANCH   8   9
ATOM      9  C   UNL     1     181.871 176.237 178.991  1.00  0.00     0.000 C 
BRANCH   9  10
ATOM     10  C   UNL     1     183.054 175.646 178.208  1.00  0.00     0.000 C 
BRANCH  10  11
ATOM     11  C   UNL     1     184.147 176.697 177.969  1.00  0.00     0.000 C 
BRANCH  11  12
ATOM     12  C   UNL     1     183.643 178.141 178.152  1.00  0.00     0.000 C 
BRANCH  12  13
ATOM     13  C   UNL     1     184.718 179.111 178.690  1.00  0.00     0.006 C 
BRANCH  13  14
ATOM     14  C   UNL     1     186.085 178.428 178.849  1.00  0.00     0.053 C 
BRANCH  14  15
ATOM     15  C   UNL     1     186.787 178.934 180.070  1.00  0.00     0.041 C 
ATOM     16  O   UNL     1     188.024 178.730 180.219  1.00  0.00    -0.550 OA
ATOM     17  O   UNL     1     186.085 179.666 181.020  1.00  0.00    -0.550 OA
ENDBRANCH  14  15
ENDBRANCH  13  14
ENDBRANCH  12  13
ENDBRANCH  11  12
ENDBRANCH  10  11
ENDBRANCH   9  10
ENDBRANCH   8   9
ENDBRANCH   7   8
ENDBRANCH   6   7
ENDBRANCH   5   6
ENDBRANCH   4   5
ENDBRANCH   3   4
ENDBRANCH   2   3
ENDBRANCH   1   2
BRANCH   1  18
ATOM     18  C   UNL     1     182.841 178.439 181.797  1.00  0.00     0.000 C 
BRANCH  18  19
ATOM     19  C   UNL     1     181.418 178.621 182.358  1.00  0.00     0.000 C 
BRANCH  19  20
ATOM     20  C   UNL     1     180.449 179.231 181.325  1.00  0.00     0.000 C 
BRANCH  20  21
ATOM     21  C   UNL     1     181.139 179.977 180.171  1.00  0.00     0.000 C 
BRANCH  21  22
ATOM     22  C   UNL     1     180.436 179.771 178.820  1.00  0.00     0.000 C 
BRANCH  22  23
ATOM     23  C   UNL     1     179.177 178.886 178.920  1.00  0.00     0.000 C 
BRANCH  23  24
ATOM     24  C   UNL     1     178.948 177.924 177.736  1.00  0.00    -0.000 C 
BRANCH  24  25
ATOM     25  C   UNL     1     179.860 178.214 176.532  1.00  0.00    -0.000 C 
BRANCH  25  26
ATOM     26  C   UNL     1     180.227 176.921 175.788  1.00  0.00    -0.000 C 
BRANCH  26  27
ATOM     27  C   UNL     1     181.616 176.985 175.131  1.00  0.00    -0.000 C 
BRANCH  27  28
ATOM     28  C   UNL     1     181.916 178.357 174.501  1.00  0.00    -0.000 C 
BRANCH  28  29
ATOM     29  C   UNL     1     183.396 178.764 174.670  1.00  0.00    -0.000 C 
BRANCH  29  30
ATOM     30  C   UNL     1     183.592 180.249 175.029  1.00  0.00    -0.000 C 
BRANCH  30  31
ATOM     31  C   UNL     1     182.450 180.866 175.849  1.00  0.00    -0.003 C 
ATOM     32  C   UNL     1     182.946 181.842 176.917  1.00  0.00     0.004 C 
ENDBRANCH  30  31
ENDBRANCH  29  30
ENDBRANCH  28  29
ENDBRANCH  27  28
ENDBRANCH  26  27
ENDBRANCH  25  26
ENDBRANCH  24  25
ENDBRANCH  23  24
ENDBRANCH  22  23
ENDBRANCH  21  22
ENDBRANCH  20  21
ENDBRANCH  19  20
ENDBRANCH  18  19
ENDBRANCH   1  18
TORSDOF 28
ENDMDL
MODEL 2
REMARK VINA RESULT:     0.020      5.100      8.348
REMARK INTER + INTRA:          -7.726
REMARK INTER:                   0.000
REMARK INTRA:                  -7.726
REMARK UNBOUND:                -7.780
REMARK SMILES CCCCCCCCCCCCCCCCCCCCCCCCCCCCCC(=O)[O-]
REMARK SMILES IDX 16 1 17 2 18 3 19 4 20 5 21 6 22 7 23 8 24 9 25 10 26 11
REMARK SMILES IDX 27 12 28 13 29 14 30 15 31 16 32 17 15 18 14 19 13 20 12 21
REMARK SMILES IDX 11 22 10 23 9 24 8 25 7 26 6 27 5 28 4 29 3 30 2 31 1 32
REMARK H PARENT
REMARK Flexibility Score: inf
ROOT
ATOM      1  C   UNL     1     177.357 181.561 181.077  1.00  0.00     0.000 C 
ENDROOT
BRANCH   1   2
ATOM      2  C   UNL     1     176.124 181.720 181.985  1.00  0.00     0.000 C 
BRANCH   2   3
ATOM      3  C   UNL     1     175.198 182.861 181.540  1.00  0.00     0.000 C 
BRANCH   3   4
ATOM      4  C   UNL     1     173.846 182.353 181.015  1.00  0.00     0.000 C 
BRANCH   4   5
ATOM      5  C   UNL     1     173.468 182.943 179.646  1.00  0.00     0.000 C 
BRANCH   5   6
ATOM      6  C   UNL     1     174.038 182.154 178.447  1.00  0.00     0.000 C 
BRANCH   6   7
ATOM      7  C   UNL     1     173.982 180.631 178.666  1.00  0.00     0.000 C 
BRANCH   7   8
ATOM      8  C   UNL     1     175.315 179.930 178.345  1.00  0.00     0.000 C 
BRANCH   8   9
ATOM      9  C   UNL     1     175.696 178.787 179.304  1.00  0.00     0.000 C 
BRANCH   9  10
ATOM     10  C   UNL     1     177.176 178.385 179.195  1.00  0.00     0.000 C 
BRANCH  10  11
ATOM     11  C   UNL     1     177.883 179.160 178.073  1.00  0.00     0.000 C 
BRANCH  11  12
ATOM     12  C   UNL     1     179.382 179.381 178.348  1.00  0.00     0.000 C 
BRANCH  12  13
ATOM     13  C   UNL     1     179.817 178.981 179.776  1.00  0.00     0.006 C 
BRANCH  13  14
ATOM     14  C   UNL     1     180.719 180.042 180.424  1.00  0.00     0.053 C 
BRANCH  14  15
ATOM     15  C   UNL     1     181.919 180.304 179.570  1.00  0.00     0.041 C 
ATOM     16  O   UNL     1     182.760 179.386 179.361  1.00  0.00    -0.550 OA
ATOM     17  O   UNL     1     182.087 181.548 178.973  1.00  0.00    -0.550 OA
ENDBRANCH  14  15
ENDBRANCH  13  14
ENDBRANCH  12  13
ENDBRANCH  11  12
ENDBRANCH  10  11
ENDBRANCH   9  10
ENDBRANCH   8   9
ENDBRANCH   7   8
ENDBRANCH   6   7
ENDBRANCH   5   6
ENDBRANCH   4   5
ENDBRANCH   3   4
ENDBRANCH   2   3
ENDBRANCH   1   2
BRANCH   1  18
ATOM     18  C   UNL     1     177.368 182.580 179.924  1.00  0.00     0.000 C 
BRANCH  18  19
ATOM     19  C   UNL     1     178.791 182.906 179.435  1.00  0.00     0.000 C 
BRANCH  19  20
ATOM     20  C   UNL     1     178.862 183.092 177.905  1.00  0.00     0.000 C 
BRANCH  20  21
ATOM     21  C   UNL     1     177.575 182.705 177.158  1.00  0.00     0.000 C 
BRANCH  21  22
ATOM     22  C   UNL     1     176.963 183.877 176.373  1.00  0.00     0.000 C 
BRANCH  22  23
ATOM     23  C   UNL     1     176.890 185.182 177.189  1.00  0.00     0.000 C 
BRANCH  23  24
ATOM     24  C   UNL     1     175.492 185.549 177.729  1.00  0.00    -0.000 C 
BRANCH  24  25
ATOM     25  C   UNL     1     175.485 185.860 179.235  1.00  0.00    -0.000 C 
BRANCH  25  26
ATOM     26  C   UNL     1     176.902 186.164 179.746  1.00  0.00    -0.000 C 
BRANCH  26  27
ATOM     27  C   UNL     1     176.989 186.188 181.281  1.00  0.00    -0.000 C 
BRANCH  27  28
ATOM     28  C   UNL     1     178.346 185.688 181.810  1.00  0.00    -0.000 C 
BRANCH  28  29
ATOM     29  C   UNL     1     178.186 184.736 183.015  1.00  0.00    -0.000 C 
BRANCH  29  30
ATOM     30  C   UNL     1     179.377 183.777 183.208  1.00  0.00    -0.000 C 
BRANCH  30  31
ATOM     31  C   UNL     1     179.122 182.633 184.199  1.00  0.00    -0.003 C 
ATOM     32  C   UNL     1     179.887 181.357 183.842  1.00  0.00     0.004 C 
ENDBRANCH  30  31
ENDBRANCH  29  30
ENDBRANCH  28  29
ENDBRANCH  27  28
ENDBRANCH  26  27
ENDBRANCH  25  26
ENDBRANCH  24  25
ENDBRANCH  23  24
ENDBRANCH  22  23
ENDBRANCH  21  22
ENDBRANCH  20  21
ENDBRANCH  19  20
ENDBRANCH  18  19
ENDBRANCH   1  18
TORSDOF 28
ENDMDL
MODEL 3
REMARK VINA RESULT:     0.074      2.996      6.107
REMARK INTER + INTRA:          -7.586
REMARK INTER:                   0.000
REMARK INTRA:                  -7.586
REMARK UNBOUND:                -7.780
REMARK SMILES CCCCCCCCCCCCCCCCCCCCCCCCCCCCCC(=O)[O-]
REMARK SMILES IDX 16 1 17 2 18 3 19 4 20 5 21 6 22 7 23 8 24 9 25 10 26 11
REMARK SMILES IDX 27 12 28 13 29 14 30 15 31 16 32 17 15 18 14 19 13 20 12 21
REMARK SMILES IDX 11 22 10 23 9 24 8 25 7 26 6 27 5 28 4 29 3 30 2 31 1 32
REMARK H PARENT
REMARK Flexibility Score: inf
ROOT
ATOM      1  C   UNL     1     188.084 177.126 182.987  1.00  0.00     0.000 C 
ENDROOT
BRANCH   1   2
ATOM      2  C   UNL     1     188.213 178.371 182.091  1.00  0.00     0.000 C 
BRANCH   2   3
ATOM      3  C   UNL     1     188.012 179.684 182.862  1.00  0.00     0.000 C 
BRANCH   3   4
ATOM      4  C   UNL     1     186.916 180.568 182.245  1.00  0.00     0.000 C 
BRANCH   4   5
ATOM      5  C   UNL     1     185.732 179.760 181.685  1.00  0.00     0.000 C 
BRANCH   5   6
ATOM      6  C   UNL     1     184.690 179.360 182.751  1.00  0.00     0.000 C 
BRANCH   6   7
ATOM      7  C   UNL     1     183.331 178.987 182.132  1.00  0.00     0.000 C 
BRANCH   7   8
ATOM      8  C   UNL     1     183.163 179.511 180.694  1.00  0.00     0.000 C 
BRANCH   8   9
ATOM      9  C   UNL     1     181.730 179.933 180.318  1.00  0.00     0.000 C 
BRANCH   9  10
ATOM     10  C   UNL     1     181.429 179.760 178.821  1.00  0.00     0.000 C 
BRANCH  10  11
ATOM     11  C   UNL     1     182.686 179.341 178.045  1.00  0.00     0.000 C 
BRANCH  11  12
ATOM     12  C   UNL     1     182.878 180.133 176.739  1.00  0.00     0.000 C 
BRANCH  12  13
ATOM     13  C   UNL     1     183.874 179.478 175.756  1.00  0.00     0.006 C 
BRANCH  13  14
ATOM     14  C   UNL     1     184.270 180.428 174.615  1.00  0.00     0.053 C 
BRANCH  14  15
ATOM     15  C   UNL     1     185.393 181.320 175.040  1.00  0.00     0.041 C 
ATOM     16  O   UNL     1     186.567 180.864 175.123  1.00  0.00    -0.550 OA
ATOM     17  O   UNL     1     185.151 182.663 175.303  1.00  0.00    -0.550 OA
ENDBRANCH  14  15
ENDBRANCH  13  14
ENDBRANCH  12  13
ENDBRANCH  11  12
ENDBRANCH  10  11
ENDBRANCH   9  10
ENDBRANCH   8   9
ENDBRANCH   7   8
ENDBRANCH   6   7
ENDBRANCH   5   6
ENDBRANCH   4   5
ENDBRANCH   3   4
ENDBRANCH   2   3
ENDBRANCH   1   2
BRANCH   1  18
ATOM     18  C   UNL     1     186.850 176.277 182.633  1.00  0.00     0.000 C 
BRANCH  18  19
ATOM     19  C   UNL     1     186.755 175.970 181.126  1.00  0.00     0.000 C 
BRANCH  19  20
ATOM     20  C   UNL     1     185.334 176.184 180.568  1.00  0.00     0.000 C 
BRANCH  20  21
ATOM     21  C   UNL     1     185.286 176.907 179.212  1.00  0.00     0.000 C 
BRANCH  21  22
ATOM     22  C   UNL     1     186.637 177.524 178.815  1.00  0.00     0.000 C 
BRANCH  22  23
ATOM     23  C   UNL     1     186.501 178.913 178.160  1.00  0.00     0.000 C 
BRANCH  23  24
ATOM     24  C   UNL     1     187.674 179.883 178.413  1.00  0.00    -0.000 C 
BRANCH  24  25
ATOM     25  C   UNL     1     187.223 181.337 178.628  1.00  0.00    -0.000 C 
BRANCH  25  26
ATOM     26  C   UNL     1     185.691 181.454 178.604  1.00  0.00    -0.000 C 
BRANCH  26  27
ATOM     27  C   UNL     1     185.193 182.851 179.009  1.00  0.00    -0.000 C 
BRANCH  27  28
ATOM     28  C   UNL     1     183.663 182.918 179.161  1.00  0.00    -0.000 C 
BRANCH  28  29
ATOM     29  C   UNL     1     183.238 183.344 180.584  1.00  0.00    -0.000 C 
BRANCH  29  30
ATOM     30  C   UNL     1     184.366 183.231 181.626  1.00  0.00    -0.000 C 
BRANCH  30  31
ATOM     31  C   UNL     1     183.890 182.936 183.056  1.00  0.00    -0.003 C 
ATOM     32  C   UNL     1     182.454 182.413 183.107  1.00  0.00     0.004 C 
ENDBRANCH  30  31
ENDBRANCH  29  30
ENDBRANCH  28  29
ENDBRANCH  27  28
ENDBRANCH  26  27
ENDBRANCH  25  26
ENDBRANCH  24  25
ENDBRANCH  23  24
ENDBRANCH  22  23
ENDBRANCH  21  22
ENDBRANCH  20  21
ENDBRANCH  19  20
ENDBRANCH  18  19
ENDBRANCH   1  18
TORSDOF 28
ENDMDL
MODEL 4
REMARK VINA RESULT:     0.075     10.418     13.528
REMARK INTER + INTRA:          -7.583
REMARK INTER:                   0.000
REMARK INTRA:                  -7.583
REMARK UNBOUND:                -7.780
REMARK SMILES CCCCCCCCCCCCCCCCCCCCCCCCCCCCCC(=O)[O-]
REMARK SMILES IDX 16 1 17 2 18 3 19 4 20 5 21 6 22 7 23 8 24 9 25 10 26 11
REMARK SMILES IDX 27 12 28 13 29 14 30 15 31 16 32 17 15 18 14 19 13 20 12 21
REMARK SMILES IDX 11 22 10 23 9 24 8 25 7 26 6 27 5 28 4 29 3 30 2 31 1 32
REMARK H PARENT
REMARK Flexibility Score: inf
ROOT
ATOM      1  C   UNL     1     186.519 190.444 187.941  1.00  0.00     0.000 C 
ENDROOT
BRANCH   1   2
ATOM      2  C   UNL     1     185.220 189.876 188.539  1.00  0.00     0.000 C 
BRANCH   2   3
ATOM      3  C   UNL     1     184.480 188.935 187.576  1.00  0.00     0.000 C 
BRANCH   3   4
ATOM      4  C   UNL     1     183.380 188.122 188.275  1.00  0.00     0.000 C 
BRANCH   4   5
ATOM      5  C   UNL     1     183.469 188.179 189.809  1.00  0.00     0.000 C 
BRANCH   5   6
ATOM      6  C   UNL     1     183.398 186.796 190.491  1.00  0.00     0.000 C 
BRANCH   6   7
ATOM      7  C   UNL     1     183.027 185.673 189.506  1.00  0.00     0.000 C 
BRANCH   7   8
ATOM      8  C   UNL     1     183.496 184.284 189.976  1.00  0.00     0.000 C 
BRANCH   8   9
ATOM      9  C   UNL     1     184.559 184.299 191.092  1.00  0.00     0.000 C 
BRANCH   9  10
ATOM     10  C   UNL     1     185.645 183.230 190.895  1.00  0.00     0.000 C 
BRANCH  10  11
ATOM     11  C   UNL     1     185.645 182.691 189.457  1.00  0.00     0.000 C 
BRANCH  11  12
ATOM     12  C   UNL     1     187.062 182.450 188.905  1.00  0.00     0.000 C 
BRANCH  12  13
ATOM     13  C   UNL     1     187.081 181.738 187.534  1.00  0.00     0.006 C 
BRANCH  13  14
ATOM     14  C   UNL     1     188.217 182.247 186.634  1.00  0.00     0.053 C 
BRANCH  14  15
ATOM     15  C   UNL     1     187.986 181.838 185.213  1.00  0.00     0.041 C 
ATOM     16  O   UNL     1     187.456 182.645 184.400  1.00  0.00    -0.550 OA
ATOM     17  O   UNL     1     188.394 180.583 184.778  1.00  0.00    -0.550 OA
ENDBRANCH  14  15
ENDBRANCH  13  14
ENDBRANCH  12  13
ENDBRANCH  11  12
ENDBRANCH  10  11
ENDBRANCH   9  10
ENDBRANCH   8   9
ENDBRANCH   7   8
ENDBRANCH   6   7
ENDBRANCH   5   6
ENDBRANCH   4   5
ENDBRANCH   3   4
ENDBRANCH   2   3
ENDBRANCH   1   2
BRANCH   1  18
ATOM     18  C   UNL     1     187.182 189.469 186.953  1.00  0.00     0.000 C 
BRANCH  18  19
ATOM     19  C   UNL     1     188.655 189.183 187.301  1.00  0.00     0.000 C 
BRANCH  19  20
ATOM     20  C   UNL     1     189.033 189.670 188.715  1.00  0.00     0.000 C 
BRANCH  20  21
ATOM     21  C   UNL     1     189.183 188.546 189.754  1.00  0.00     0.000 C 
BRANCH  21  22
ATOM     22  C   UNL     1     188.082 188.573 190.827  1.00  0.00     0.000 C 
BRANCH  22  23
ATOM     23  C   UNL     1     187.059 187.430 190.675  1.00  0.00     0.000 C 
BRANCH  23  24
ATOM     24  C   UNL     1     187.480 186.285 189.731  1.00  0.00    -0.000 C 
BRANCH  24  25
ATOM     25  C   UNL     1     186.553 186.131 188.513  1.00  0.00    -0.000 C 
BRANCH  25  26
ATOM     26  C   UNL     1     187.349 185.761 187.252  1.00  0.00    -0.000 C 
BRANCH  26  27
ATOM     27  C   UNL     1     186.473 185.698 185.990  1.00  0.00    -0.000 C 
BRANCH  27  28
ATOM     28  C   UNL     1     184.992 185.418 186.305  1.00  0.00    -0.000 C 
BRANCH  28  29
ATOM     29  C   UNL     1     184.615 183.939 186.062  1.00  0.00    -0.000 C 
BRANCH  29  30
ATOM     30  C   UNL     1     183.141 183.618 186.373  1.00  0.00    -0.000 C 
BRANCH  30  31
ATOM     31  C   UNL     1     182.898 182.210 186.935  1.00  0.00    -0.003 C 
ATOM     32  C   UNL     1     183.691 181.131 186.196  1.00  0.00     0.004 C 
ENDBRANCH  30  31
ENDBRANCH  29  30
ENDBRANCH  28  29
ENDBRANCH  27  28
ENDBRANCH  26  27
ENDBRANCH  25  26
ENDBRANCH  24  25
ENDBRANCH  23  24
ENDBRANCH  22  23
ENDBRANCH  21  22
ENDBRANCH  20  21
ENDBRANCH  19  20
ENDBRANCH  18  19
ENDBRANCH   1  18
TORSDOF 28
ENDMDL
MODEL 5
REMARK VINA RESULT:     0.079      5.705      8.321
REMARK INTER + INTRA:          -7.573
REMARK INTER:                   0.000
REMARK INTRA:                  -7.573
REMARK UNBOUND:                -7.780
REMARK SMILES CCCCCCCCCCCCCCCCCCCCCCCCCCCCCC(=O)[O-]
REMARK SMILES IDX 16 1 17 2 18 3 19 4 20 5 21 6 22 7 23 8 24 9 25 10 26 11
REMARK SMILES IDX 27 12 28 13 29 14 30 15 31 16 32 17 15 18 14 19 13 20 12 21
REMARK SMILES IDX 11 22 10 23 9 24 8 25 7 26 6 27 5 28 4 29 3 30 2 31 1 32
REMARK H PARENT
REMARK Flexibility Score: inf
ROOT
ATOM      1  C   UNL     1     178.480 182.564 181.936  1.00  0.00     0.000 C 
ENDROOT
BRANCH   1   2
ATOM      2  C   UNL     1     178.675 181.122 182.437  1.00  0.00     0.000 C 
BRANCH   2   3
ATOM      3  C   UNL     1     177.922 180.088 181.588  1.00  0.00     0.000 C 
BRANCH   3   4
ATOM      4  C   UNL     1     176.574 179.686 182.207  1.00  0.00     0.000 C 
BRANCH   4   5
ATOM      5  C   UNL     1     175.575 179.137 181.174  1.00  0.00     0.000 C 
BRANCH   5   6
ATOM      6  C   UNL     1     175.986 179.396 179.709  1.00  0.00     0.000 C 
BRANCH   6   7
ATOM      7  C   UNL     1     174.808 179.882 178.845  1.00  0.00     0.000 C 
BRANCH   7   8
ATOM      8  C   UNL     1     174.947 181.354 178.417  1.00  0.00     0.000 C 
BRANCH   8   9
ATOM      9  C   UNL     1     176.203 182.071 178.947  1.00  0.00     0.000 C 
BRANCH   9  10
ATOM     10  C   UNL     1     175.888 183.433 179.585  1.00  0.00     0.000 C 
BRANCH  10  11
ATOM     11  C   UNL     1     174.576 183.387 180.381  1.00  0.00     0.000 C 
BRANCH  11  12
ATOM     12  C   UNL     1     174.777 182.960 181.847  1.00  0.00     0.000 C 
BRANCH  12  13
ATOM     13  C   UNL     1     173.649 182.055 182.390  1.00  0.00     0.006 C 
BRANCH  13  14
ATOM     14  C   UNL     1     172.583 181.756 181.325  1.00  0.00     0.053 C 
BRANCH  14  15
ATOM     15  C   UNL     1     172.110 180.341 181.437  1.00  0.00     0.041 C 
ATOM     16  O   UNL     1     172.201 179.729 182.537  1.00  0.00    -0.550 OA
ATOM     17  O   UNL     1     171.531 179.714 180.340  1.00  0.00    -0.550 OA
ENDBRANCH  14  15
ENDBRANCH  13  14
ENDBRANCH  12  13
ENDBRANCH  11  12
ENDBRANCH  10  11
ENDBRANCH   9  10
ENDBRANCH   8   9
ENDBRANCH   7   8
ENDBRANCH   6   7
ENDBRANCH   5   6
ENDBRANCH   4   5
ENDBRANCH   3   4
ENDBRANCH   2   3
ENDBRANCH   1   2
BRANCH   1  18
ATOM     18  C   UNL     1     179.739 183.117 181.245  1.00  0.00     0.000 C 
BRANCH  18  19
ATOM     19  C   UNL     1     179.791 182.772 179.745  1.00  0.00     0.000 C 
BRANCH  19  20
ATOM     20  C   UNL     1     181.037 181.942 179.372  1.00  0.00     0.000 C 
BRANCH  20  21
ATOM     21  C   UNL     1     180.725 180.600 178.689  1.00  0.00     0.000 C 
BRANCH  21  22
ATOM     22  C   UNL     1     179.265 180.493 178.219  1.00  0.00     0.000 C 
BRANCH  22  23
ATOM     23  C   UNL     1     179.000 179.256 177.338  1.00  0.00     0.000 C 
BRANCH  23  24
ATOM     24  C   UNL     1     177.719 179.314 176.481  1.00  0.00    -0.000 C 
BRANCH  24  25
ATOM     25  C   UNL     1     177.868 180.192 175.227  1.00  0.00    -0.000 C 
BRANCH  25  26
ATOM     26  C   UNL     1     176.983 181.445 175.317  1.00  0.00    -0.000 C 
BRANCH  26  27
ATOM     27  C   UNL     1     177.744 182.738 174.981  1.00  0.00    -0.000 C 
BRANCH  27  28
ATOM     28  C   UNL     1     178.273 183.461 176.232  1.00  0.00    -0.000 C 
BRANCH  28  29
ATOM     29  C   UNL     1     179.809 183.623 176.205  1.00  0.00    -0.000 C 
BRANCH  29  30
ATOM     30  C   UNL     1     180.490 182.872 175.046  1.00  0.00    -0.000 C 
BRANCH  30  31
ATOM     31  C   UNL     1     181.692 182.012 175.460  1.00  0.00    -0.003 C 
ATOM     32  C   UNL     1     181.565 180.556 175.007  1.00  0.00     0.004 C 
ENDBRANCH  30  31
ENDBRANCH  29  30
ENDBRANCH  28  29
ENDBRANCH  27  28
ENDBRANCH  26  27
ENDBRANCH  25  26
ENDBRANCH  24  25
ENDBRANCH  23  24
ENDBRANCH  22  23
ENDBRANCH  21  22
ENDBRANCH  20  21
ENDBRANCH  19  20
ENDBRANCH  18  19
ENDBRANCH   1  18
TORSDOF 28
ENDMDL
MODEL 6
REMARK VINA RESULT:     0.097      5.650      8.932
REMARK INTER + INTRA:          -7.526
REMARK INTER:                   0.000
REMARK INTRA:                  -7.526
REMARK UNBOUND:                -7.780
REMARK SMILES CCCCCCCCCCCCCCCCCCCCCCCCCCCCCC(=O)[O-]
REMARK SMILES IDX 16 1 17 2 18 3 19 4 20 5 21 6 22 7 23 8 24 9 25 10 26 11
REMARK SMILES IDX 27 12 28 13 29 14 30 15 31 16 32 17 15 18 14 19 13 20 12 21
REMARK SMILES IDX 11 22 10 23 9 24 8 25 7 26 6 27 5 28 4 29 3 30 2 31 1 32
REMARK H PARENT
REMARK Flexibility Score: inf
ROOT
ATOM      1  C   UNL     1     178.734 182.256 179.678  1.00  0.00     0.000 C 
ENDROOT
BRANCH   1   2
ATOM      2  C   UNL     1     179.722 181.111 179.958  1.00  0.00     0.000 C 
BRANCH   2   3
ATOM      3  C   UNL     1     179.730 180.044 178.853  1.00  0.00     0.000 C 
BRANCH   3   4
ATOM      4  C   UNL     1     180.934 180.183 177.908  1.00  0.00     0.000 C 
BRANCH   4   5
ATOM      5  C   UNL     1     182.161 180.819 178.583  1.00  0.00     0.000 C 
BRANCH   5   6
ATOM      6  C   UNL     1     182.747 182.020 177.809  1.00  0.00     0.000 C 
BRANCH   6   7
ATOM      7  C   UNL     1     183.599 182.937 178.704  1.00  0.00     0.000 C 
BRANCH   7   8
ATOM      8  C   UNL     1     182.936 183.233 180.062  1.00  0.00     0.000 C 
BRANCH   8   9
ATOM      9  C   UNL     1     181.799 184.272 180.020  1.00  0.00     0.000 C 
BRANCH   9  10
ATOM     10  C   UNL     1     182.237 185.610 179.405  1.00  0.00     0.000 C 
BRANCH  10  11
ATOM     11  C   UNL     1     181.460 185.913 178.115  1.00  0.00     0.000 C 
BRANCH  11  12
ATOM     12  C   UNL     1     180.345 184.890 177.831  1.00  0.00     0.000 C 
BRANCH  12  13
ATOM     13  C   UNL     1     180.235 184.488 176.343  1.00  0.00     0.006 C 
BRANCH  13  14
ATOM     14  C   UNL     1     179.528 183.137 176.161  1.00  0.00     0.053 C 
BRANCH  14  15
ATOM     15  C   UNL     1     178.671 183.154 174.934  1.00  0.00     0.041 C 
ATOM     16  O   UNL     1     177.421 183.006 175.033  1.00  0.00    -0.550 OA
ATOM     17  O   UNL     1     179.246 183.376 173.689  1.00  0.00    -0.550 OA
ENDBRANCH  14  15
ENDBRANCH  13  14
ENDBRANCH  12  13
ENDBRANCH  11  12
ENDBRANCH  10  11
ENDBRANCH   9  10
ENDBRANCH   8   9
ENDBRANCH   7   8
ENDBRANCH   6   7
ENDBRANCH   5   6
ENDBRANCH   4   5
ENDBRANCH   3   4
ENDBRANCH   2   3
ENDBRANCH   1   2
BRANCH   1  18
ATOM     18  C   UNL     1     177.392 182.060 180.407  1.00  0.00     0.000 C 
BRANCH  18  19
ATOM     19  C   UNL     1     176.252 182.886 179.781  1.00  0.00     0.000 C 
BRANCH  19  20
ATOM     20  C   UNL     1     176.680 183.590 178.477  1.00  0.00     0.000 C 
BRANCH  20  21
ATOM     21  C   UNL     1     176.100 185.003 178.299  1.00  0.00     0.000 C 
BRANCH  21  22
ATOM     22  C   UNL     1     176.781 185.791 177.168  1.00  0.00     0.000 C 
BRANCH  22  23
ATOM     23  C   UNL     1     177.449 187.093 177.653  1.00  0.00     0.000 C 
BRANCH  23  24
ATOM     24  C   UNL     1     177.403 187.334 179.176  1.00  0.00    -0.000 C 
BRANCH  24  25
ATOM     25  C   UNL     1     178.739 187.830 179.752  1.00  0.00    -0.000 C 
BRANCH  25  26
ATOM     26  C   UNL     1     179.121 187.052 181.021  1.00  0.00    -0.000 C 
BRANCH  26  27
ATOM     27  C   UNL     1     178.554 185.623 181.038  1.00  0.00    -0.000 C 
BRANCH  27  28
ATOM     28  C   UNL     1     177.676 185.343 182.271  1.00  0.00    -0.000 C 
BRANCH  28  29
ATOM     29  C   UNL     1     178.485 184.727 183.434  1.00  0.00    -0.000 C 
BRANCH  29  30
ATOM     30  C   UNL     1     179.576 183.742 182.974  1.00  0.00    -0.000 C 
BRANCH  30  31
ATOM     31  C   UNL     1     180.953 183.968 183.616  1.00  0.00    -0.003 C 
ATOM     32  C   UNL     1     181.402 185.429 183.559  1.00  0.00     0.004 C 
ENDBRANCH  30  31
ENDBRANCH  29  30
ENDBRANCH  28  29
ENDBRANCH  27  28
ENDBRANCH  26  27
ENDBRANCH  25  26
ENDBRANCH  24  25
ENDBRANCH  23  24
ENDBRANCH  22  23
ENDBRANCH  21  22
ENDBRANCH  20  21
ENDBRANCH  19  20
ENDBRANCH  18  19
ENDBRANCH   1  18
TORSDOF 28
ENDMDL
MODEL 7
REMARK VINA RESULT:     0.097      7.343     10.865
REMARK INTER + INTRA:          -7.524
REMARK INTER:                   0.000
REMARK INTRA:                  -7.524
REMARK UNBOUND:                -7.780
REMARK SMILES CCCCCCCCCCCCCCCCCCCCCCCCCCCCCC(=O)[O-]
REMARK SMILES IDX 16 1 17 2 18 3 19 4 20 5 21 6 22 7 23 8 24 9 25 10 26 11
REMARK SMILES IDX 27 12 28 13 29 14 30 15 31 16 32 17 15 18 14 19 13 20 12 21
REMARK SMILES IDX 11 22 10 23 9 24 8 25 7 26 6 27 5 28 4 29 3 30 2 31 1 32
REMARK H PARENT
REMARK Flexibility Score: inf
ROOT
ATOM      1  C   UNL     1     173.873 181.497 184.975  1.00  0.00     0.000 C 
ENDROOT
BRANCH   1   2
ATOM      2  C   UNL     1     172.924 180.383 184.498  1.00  0.00     0.000 C 
BRANCH   2   3
ATOM      3  C   UNL     1     172.541 179.404 185.617  1.00  0.00     0.000 C 
BRANCH   3   4
ATOM      4  C   UNL     1     172.101 178.034 185.077  1.00  0.00     0.000 C 
BRANCH   4   5
ATOM      5  C   UNL     1     172.025 177.986 183.542  1.00  0.00     0.000 C 
BRANCH   5   6
ATOM      6  C   UNL     1     172.587 176.685 182.929  1.00  0.00     0.000 C 
BRANCH   6   7
ATOM      7  C   UNL     1     173.442 176.946 181.676  1.00  0.00     0.000 C 
BRANCH   7   8
ATOM      8  C   UNL     1     173.505 178.437 181.295  1.00  0.00     0.000 C 
BRANCH   8   9
ATOM      9  C   UNL     1     172.931 178.779 179.907  1.00  0.00     0.000 C 
BRANCH   9  10
ATOM     10  C   UNL     1     172.189 180.125 179.884  1.00  0.00     0.000 C 
BRANCH  10  11
ATOM     11  C   UNL     1     171.076 180.167 180.941  1.00  0.00     0.000 C 
BRANCH  11  12
ATOM     12  C   UNL     1     170.916 181.554 181.591  1.00  0.00     0.000 C 
BRANCH  12  13
ATOM     13  C   UNL     1     171.745 182.661 180.902  1.00  0.00     0.006 C 
BRANCH  13  14
ATOM     14  C   UNL     1     171.971 183.870 181.822  1.00  0.00     0.053 C 
BRANCH  14  15
ATOM     15  C   UNL     1     172.910 184.846 181.187  1.00  0.00     0.041 C 
ATOM     16  O   UNL     1     172.697 186.086 181.287  1.00  0.00    -0.550 OA
ATOM     17  O   UNL     1     174.040 184.388 180.521  1.00  0.00    -0.550 OA
ENDBRANCH  14  15
ENDBRANCH  13  14
ENDBRANCH  12  13
ENDBRANCH  11  12
ENDBRANCH  10  11
ENDBRANCH   9  10
ENDBRANCH   8   9
ENDBRANCH   7   8
ENDBRANCH   6   7
ENDBRANCH   5   6
ENDBRANCH   4   5
ENDBRANCH   3   4
ENDBRANCH   2   3
ENDBRANCH   1   2
BRANCH   1  18
ATOM     18  C   UNL     1     174.589 182.194 183.806  1.00  0.00     0.000 C 
BRANCH  18  19
ATOM     19  C   UNL     1     174.642 181.321 182.538  1.00  0.00     0.000 C 
BRANCH  19  20
ATOM     20  C   UNL     1     175.891 181.603 181.678  1.00  0.00     0.000 C 
BRANCH  20  21
ATOM     21  C   UNL     1     175.725 181.267 180.187  1.00  0.00     0.000 C 
BRANCH  21  22
ATOM     22  C   UNL     1     176.918 180.487 179.612  1.00  0.00     0.000 C 
BRANCH  22  23
ATOM     23  C   UNL     1     176.649 178.975 179.479  1.00  0.00     0.000 C 
BRANCH  23  24
ATOM     24  C   UNL     1     177.577 178.062 180.307  1.00  0.00    -0.000 C 
BRANCH  24  25
ATOM     25  C   UNL     1     177.111 177.880 181.761  1.00  0.00    -0.000 C 
BRANCH  25  26
ATOM     26  C   UNL     1     177.988 178.686 182.731  1.00  0.00    -0.000 C 
BRANCH  26  27
ATOM     27  C   UNL     1     177.264 179.035 184.042  1.00  0.00    -0.000 C 
BRANCH  27  28
ATOM     28  C   UNL     1     175.896 178.341 184.171  1.00  0.00    -0.000 C 
BRANCH  28  29
ATOM     29  C   UNL     1     175.776 177.529 185.479  1.00  0.00    -0.000 C 
BRANCH  29  30
ATOM     30  C   UNL     1     175.381 176.057 185.259  1.00  0.00    -0.000 C 
BRANCH  30  31
ATOM     31  C   UNL     1     176.435 175.213 184.529  1.00  0.00    -0.003 C 
ATOM     32  C   UNL     1     175.930 174.652 183.199  1.00  0.00     0.004 C 
ENDBRANCH  30  31
ENDBRANCH  29  30
ENDBRANCH  28  29
ENDBRANCH  27  28
ENDBRANCH  26  27
ENDBRANCH  25  26
ENDBRANCH  24  25
ENDBRANCH  23  24
ENDBRANCH  22  23
ENDBRANCH  21  22
ENDBRANCH  20  21
ENDBRANCH  19  20
ENDBRANCH  18  19
ENDBRANCH   1  18
TORSDOF 28
ENDMDL
MODEL 8
REMARK VINA RESULT:     0.098      6.147      9.237
REMARK INTER + INTRA:          -7.523
REMARK INTER:                   0.000
REMARK INTRA:                  -7.523
REMARK UNBOUND:                -7.780
REMARK SMILES CCCCCCCCCCCCCCCCCCCCCCCCCCCCCC(=O)[O-]
REMARK SMILES IDX 16 1 17 2 18 3 19 4 20 5 21 6 22 7 23 8 24 9 25 10 26 11
REMARK SMILES IDX 27 12 28 13 29 14 30 15 31 16 32 17 15 18 14 19 13 20 12 21
REMARK SMILES IDX 11 22 10 23 9 24 8 25 7 26 6 27 5 28 4 29 3 30 2 31 1 32
REMARK H PARENT
REMARK Flexibility Score: inf
ROOT
ATOM      1  C   UNL     1     180.296 183.203 183.711  1.00  0.00     0.000 C 
ENDROOT
BRANCH   1   2
ATOM      2  C   UNL     1     180.574 184.479 182.896  1.00  0.00     0.000 C 
BRANCH   2   3
ATOM      3  C   UNL     1     181.615 184.266 181.788  1.00  0.00     0.000 C 
BRANCH   3   4
ATOM      4  C   UNL     1     182.409 182.962 181.968  1.00  0.00     0.000 C 
BRANCH   4   5
ATOM      5  C   UNL     1     182.150 181.937 180.851  1.00  0.00     0.000 C 
BRANCH   5   6
ATOM      6  C   UNL     1     181.098 182.393 179.817  1.00  0.00     0.000 C 
BRANCH   6   7
ATOM      7  C   UNL     1     179.778 181.610 179.935  1.00  0.00     0.000 C 
BRANCH   7   8
ATOM      8  C   UNL     1     178.542 182.463 179.595  1.00  0.00     0.000 C 
BRANCH   8   9
ATOM      9  C   UNL     1     178.825 183.962 179.381  1.00  0.00     0.000 C 
BRANCH   9  10
ATOM     10  C   UNL     1     178.613 184.408 177.926  1.00  0.00     0.000 C 
BRANCH  10  11
ATOM     11  C   UNL     1     179.682 185.422 177.492  1.00  0.00     0.000 C 
BRANCH  11  12
ATOM     12  C   UNL     1     180.442 186.040 178.680  1.00  0.00     0.000 C 
BRANCH  12  13
ATOM     13  C   UNL     1     181.979 185.991 178.527  1.00  0.00     0.006 C 
BRANCH  13  14
ATOM     14  C   UNL     1     182.427 184.914 177.528  1.00  0.00     0.053 C 
BRANCH  14  15
ATOM     15  C   UNL     1     183.715 184.294 177.967  1.00  0.00     0.041 C 
ATOM     16  O   UNL     1     184.108 184.425 179.159  1.00  0.00    -0.550 OA
ATOM     17  O   UNL     1     184.461 183.536 177.071  1.00  0.00    -0.550 OA
ENDBRANCH  14  15
ENDBRANCH  13  14
ENDBRANCH  12  13
ENDBRANCH  11  12
ENDBRANCH  10  11
ENDBRANCH   9  10
ENDBRANCH   8   9
ENDBRANCH   7   8
ENDBRANCH   6   7
ENDBRANCH   5   6
ENDBRANCH   4   5
ENDBRANCH   3   4
ENDBRANCH   2   3
ENDBRANCH   1   2
BRANCH   1  18
ATOM     18  C   UNL     1     178.891 182.635 183.445  1.00  0.00     0.000 C 
BRANCH  18  19
ATOM     19  C   UNL     1     177.905 183.706 182.942  1.00  0.00     0.000 C 
BRANCH  19  20
ATOM     20  C   UNL     1     176.497 183.546 183.552  1.00  0.00     0.000 C 
BRANCH  20  21
ATOM     21  C   UNL     1     175.395 184.329 182.820  1.00  0.00     0.000 C 
BRANCH  21  22
ATOM     22  C   UNL     1     175.673 184.492 181.317  1.00  0.00     0.000 C 
BRANCH  22  23
ATOM     23  C   UNL     1     175.286 185.882 180.775  1.00  0.00     0.000 C 
BRANCH  23  24
ATOM     24  C   UNL     1     176.372 186.596 179.943  1.00  0.00    -0.000 C 
BRANCH  24  25
ATOM     25  C   UNL     1     177.130 187.675 180.733  1.00  0.00    -0.000 C 
BRANCH  25  26
ATOM     26  C   UNL     1     178.352 187.082 181.452  1.00  0.00    -0.000 C 
BRANCH  26  27
ATOM     27  C   UNL     1     178.435 187.498 182.930  1.00  0.00    -0.000 C 
BRANCH  27  28
ATOM     28  C   UNL     1     177.055 187.564 183.610  1.00  0.00    -0.000 C 
BRANCH  28  29
ATOM     29  C   UNL     1     177.071 186.935 185.020  1.00  0.00    -0.000 C 
BRANCH  29  30
ATOM     30  C   UNL     1     178.447 186.383 185.436  1.00  0.00    -0.000 C 
BRANCH  30  31
ATOM     31  C   UNL     1     178.393 185.169 186.374  1.00  0.00    -0.003 C 
ATOM     32  C   UNL     1     179.759 184.812 186.964  1.00  0.00     0.004 C 
ENDBRANCH  30  31
ENDBRANCH  29  30
ENDBRANCH  28  29
ENDBRANCH  27  28
ENDBRANCH  26  27
ENDBRANCH  25  26
ENDBRANCH  24  25
ENDBRANCH  23  24
ENDBRANCH  22  23
ENDBRANCH  21  22
ENDBRANCH  20  21
ENDBRANCH  19  20
ENDBRANCH  18  19
ENDBRANCH   1  18
TORSDOF 28
ENDMDL
MODEL 9
REMARK VINA RESULT:     0.100      6.317      9.231
REMARK INTER + INTRA:          -7.517
REMARK INTER:                   0.000
REMARK INTRA:                  -7.517
REMARK UNBOUND:                -7.780
REMARK SMILES CCCCCCCCCCCCCCCCCCCCCCCCCCCCCC(=O)[O-]
REMARK SMILES IDX 16 1 17 2 18 3 19 4 20 5 21 6 22 7 23 8 24 9 25 10 26 11
REMARK SMILES IDX 27 12 28 13 29 14 30 15 31 16 32 17 15 18 14 19 13 20 12 21
REMARK SMILES IDX 11 22 10 23 9 24 8 25 7 26 6 27 5 28 4 29 3 30 2 31 1 32
REMARK H PARENT
REMARK Flexibility Score: inf
ROOT
ATOM      1  C   UNL     1     182.582 183.149 176.001  1.00  0.00     0.000 C 
ENDROOT
BRANCH   1   2
ATOM      2  C   UNL     1     182.586 182.151 177.173  1.00  0.00     0.000 C 
BRANCH   2   3
ATOM      3  C   UNL     1     183.763 182.364 178.136  1.00  0.00     0.000 C 
BRANCH   3   4
ATOM      4  C   UNL     1     184.581 183.621 177.799  1.00  0.00     0.000 C 
BRANCH   4   5
ATOM      5  C   UNL     1     186.097 183.363 177.756  1.00  0.00     0.000 C 
BRANCH   5   6
ATOM      6  C   UNL     1     186.472 181.906 177.410  1.00  0.00     0.000 C 
BRANCH   6   7
ATOM      7  C   UNL     1     186.970 181.756 175.961  1.00  0.00     0.000 C 
BRANCH   7   8
ATOM      8  C   UNL     1     185.823 181.577 174.949  1.00  0.00     0.000 C 
BRANCH   8   9
ATOM      9  C   UNL     1     185.619 182.757 173.981  1.00  0.00     0.000 C 
BRANCH   9  10
ATOM     10  C   UNL     1     186.745 183.800 174.066  1.00  0.00     0.000 C 
BRANCH  10  11
ATOM     11  C   UNL     1     186.208 185.221 173.837  1.00  0.00     0.000 C 
BRANCH  11  12
ATOM     12  C   UNL     1     185.799 185.927 175.143  1.00  0.00     0.000 C 
BRANCH  12  13
ATOM     13  C   UNL     1     184.310 186.337 175.188  1.00  0.00     0.006 C 
BRANCH  13  14
ATOM     14  C   UNL     1     183.572 185.976 173.890  1.00  0.00     0.053 C 
BRANCH  14  15
ATOM     15  C   UNL     1     182.519 186.994 173.584  1.00  0.00     0.041 C 
ATOM     16  O   UNL     1     182.825 188.060 172.981  1.00  0.00    -0.550 OA
ATOM     17  O   UNL     1     181.195 186.748 173.928  1.00  0.00    -0.550 OA
ENDBRANCH  14  15
ENDBRANCH  13  14
ENDBRANCH  12  13
ENDBRANCH  11  12
ENDBRANCH  10  11
ENDBRANCH   9  10
ENDBRANCH   8   9
ENDBRANCH   7   8
ENDBRANCH   6   7
ENDBRANCH   5   6
ENDBRANCH   4   5
ENDBRANCH   3   4
ENDBRANCH   2   3
ENDBRANCH   1   2
BRANCH   1  18
ATOM     18  C   UNL     1     181.169 183.664 175.678  1.00  0.00     0.000 C 
BRANCH  18  19
ATOM     19  C   UNL     1     180.527 184.416 176.859  1.00  0.00     0.000 C 
BRANCH  19  20
ATOM     20  C   UNL     1     181.373 185.620 177.322  1.00  0.00     0.000 C 
BRANCH  20  21
ATOM     21  C   UNL     1     181.617 185.679 178.839  1.00  0.00     0.000 C 
BRANCH  21  22
ATOM     22  C   UNL     1     180.926 184.537 179.601  1.00  0.00     0.000 C 
BRANCH  22  23
ATOM     23  C   UNL     1     181.764 183.999 180.778  1.00  0.00     0.000 C 
BRANCH  23  24
ATOM     24  C   UNL     1     183.116 184.707 181.008  1.00  0.00    -0.000 C 
BRANCH  24  25
ATOM     25  C   UNL     1     184.197 183.778 181.583  1.00  0.00    -0.000 C 
BRANCH  25  26
ATOM     26  C   UNL     1     185.605 184.338 181.327  1.00  0.00    -0.000 C 
BRANCH  26  27
ATOM     27  C   UNL     1     185.598 185.837 180.986  1.00  0.00    -0.000 C 
BRANCH  27  28
ATOM     28  C   UNL     1     186.765 186.245 180.068  1.00  0.00    -0.000 C 
BRANCH  28  29
ATOM     29  C   UNL     1     186.273 186.894 178.756  1.00  0.00    -0.000 C 
BRANCH  29  30
ATOM     30  C   UNL     1     184.793 187.319 178.792  1.00  0.00    -0.000 C 
BRANCH  30  31
ATOM     31  C   UNL     1     184.490 188.643 178.077  1.00  0.00    -0.003 C 
ATOM     32  C   UNL     1     185.743 189.313 177.511  1.00  0.00     0.004 C 
ENDBRANCH  30  31
ENDBRANCH  29  30
ENDBRANCH  28  29
ENDBRANCH  27  28
ENDBRANCH  26  27
ENDBRANCH  25  26
ENDBRANCH  24  25
ENDBRANCH  23  24
ENDBRANCH  22  23
ENDBRANCH  21  22
ENDBRANCH  20  21
ENDBRANCH  19  20
ENDBRANCH  18  19
ENDBRANCH   1  18
TORSDOF 28
ENDMDL
