MODEL 1
REMARK VINA RESULT:    -6.491      0.000      0.000
REMARK INTER + INTRA:          -6.491
REMARK INTER:                  -6.491
REMARK INTRA:                   0.000
REMARK UNBOUND:                 0.000
REMARK SMILES O=c1ccc2ccccc2o1
REMARK SMILES IDX 7 1 8 2 9 3 10 4 5 5 6 6 4 7 3 8 2 9 1 10 11 11
REMARK H PARENT
REMARK Flexibility Score: inf
ROOT
ATOM      1  C   UNL     1       9.834  19.987  -3.396  1.00  0.00     0.001 A 
ATOM      2  C   UNL     1      10.577  20.596  -4.414  1.00  0.00     0.004 A 
ATOM      3  C   UNL     1      11.578  21.520  -4.097  1.00  0.00     0.048 A 
ATOM      4  C   UNL     1      11.841  21.839  -2.761  1.00  0.00     0.138 A 
ATOM      5  C   UNL     1      11.091  21.224  -1.733  1.00  0.00     0.018 A 
ATOM      6  C   UNL     1      10.088  20.299  -2.056  1.00  0.00     0.012 A 
ATOM      7  C   UNL     1      11.376  21.563  -0.406  1.00  0.00     0.019 A 
ATOM      8  C   UNL     1      12.383  22.489  -0.138  1.00  0.00     0.094 A 
ATOM      9  C   UNL     1      13.084  23.058  -1.208  1.00  0.00     0.336 A 
ATOM     10  O   UNL     1      13.996  23.896  -0.984  1.00  0.00    -0.246 OA
ATOM     11  O   UNL     1      12.793  22.718  -2.460  1.00  0.00    -0.423 OA
ENDROOT
TORSDOF 0
ENDMDL
MODEL 2
REMARK VINA RESULT:    -6.114      1.719      3.699
REMARK INTER + INTRA:          -6.114
REMARK INTER:                  -6.114
REMARK INTRA:                   0.000
REMARK UNBOUND:                 0.000
REMARK SMILES O=c1ccc2ccccc2o1
REMARK SMILES IDX 7 1 8 2 9 3 10 4 5 5 6 6 4 7 3 8 2 9 1 10 11 11
REMARK H PARENT
REMARK Flexibility Score: inf
ROOT
ATOM      1  C   UNL     1      11.233  23.856  -0.383  1.00  0.00     0.001 A 
ATOM      2  C   UNL     1      12.095  24.368  -1.360  1.00  0.00     0.004 A 
ATOM      3  C   UNL     1      12.352  23.637  -2.524  1.00  0.00     0.048 A 
ATOM      4  C   UNL     1      11.748  22.390  -2.717  1.00  0.00     0.138 A 
ATOM      5  C   UNL     1      10.878  21.872  -1.731  1.00  0.00     0.018 A 
ATOM      6  C   UNL     1      10.624  22.610  -0.565  1.00  0.00     0.012 A 
ATOM      7  C   UNL     1      10.288  20.623  -1.950  1.00  0.00     0.019 A 
ATOM      8  C   UNL     1      10.574  19.930  -3.126  1.00  0.00     0.094 A 
ATOM      9  C   UNL     1      11.446  20.505  -4.058  1.00  0.00     0.336 A 
ATOM     10  O   UNL     1      11.715  19.894  -5.125  1.00  0.00    -0.246 OA
ATOM     11  O   UNL     1      11.993  21.695  -3.825  1.00  0.00    -0.423 OA
ENDROOT
TORSDOF 0
ENDMDL
MODEL 3
REMARK VINA RESULT:    -5.937      1.371      2.213
REMARK INTER + INTRA:          -5.937
REMARK INTER:                  -5.937
REMARK INTRA:                   0.000
REMARK UNBOUND:                 0.000
REMARK SMILES O=c1ccc2ccccc2o1
REMARK SMILES IDX 7 1 8 2 9 3 10 4 5 5 6 6 4 7 3 8 2 9 1 10 11 11
REMARK H PARENT
REMARK Flexibility Score: inf
ROOT
ATOM      1  C   UNL     1      10.626  20.510  -4.717  1.00  0.00     0.001 A 
ATOM      2  C   UNL     1       9.806  19.875  -3.778  1.00  0.00     0.004 A 
ATOM      3  C   UNL     1       9.932  20.174  -2.418  1.00  0.00     0.048 A 
ATOM      4  C   UNL     1      10.881  21.110  -1.991  1.00  0.00     0.138 A 
ATOM      5  C   UNL     1      11.710  21.751  -2.939  1.00  0.00     0.018 A 
ATOM      6  C   UNL     1      11.578  21.447  -4.302  1.00  0.00     0.012 A 
ATOM      7  C   UNL     1      12.649  22.682  -2.483  1.00  0.00     0.019 A 
ATOM      8  C   UNL     1      12.740  22.948  -1.117  1.00  0.00     0.094 A 
ATOM      9  C   UNL     1      11.886  22.274  -0.236  1.00  0.00     0.336 A 
ATOM     10  O   UNL     1      11.954  22.502   0.999  1.00  0.00    -0.246 OA
ATOM     11  O   UNL     1      11.001  21.394  -0.696  1.00  0.00    -0.423 OA
ENDROOT
TORSDOF 0
ENDMDL
MODEL 4
REMARK VINA RESULT:    -5.502      1.842      4.322
REMARK INTER + INTRA:          -5.502
REMARK INTER:                  -5.502
REMARK INTRA:                   0.000
REMARK UNBOUND:                 0.000
REMARK SMILES O=c1ccc2ccccc2o1
REMARK SMILES IDX 7 1 8 2 9 3 10 4 5 5 6 6 4 7 3 8 2 9 1 10 11 11
REMARK H PARENT
REMARK Flexibility Score: inf
ROOT
ATOM      1  C   UNL     1      13.471  23.261  -0.440  1.00  0.00     0.001 A 
ATOM      2  C   UNL     1      12.406  22.841   0.364  1.00  0.00     0.004 A 
ATOM      3  C   UNL     1      11.381  22.060  -0.177  1.00  0.00     0.048 A 
ATOM      4  C   UNL     1      11.416  21.695  -1.527  1.00  0.00     0.138 A 
ATOM      5  C   UNL     1      12.491  22.120  -2.341  1.00  0.00     0.018 A 
ATOM      6  C   UNL     1      13.516  22.903  -1.792  1.00  0.00     0.012 A 
ATOM      7  C   UNL     1      12.499  21.740  -3.687  1.00  0.00     0.019 A 
ATOM      8  C   UNL     1      11.455  20.961  -4.184  1.00  0.00     0.094 A 
ATOM      9  C   UNL     1      10.423  20.578  -3.319  1.00  0.00     0.336 A 
ATOM     10  O   UNL     1       9.472  19.875  -3.751  1.00  0.00    -0.246 OA
ATOM     11  O   UNL     1      10.439  20.953  -2.043  1.00  0.00    -0.423 OA
ENDROOT
TORSDOF 0
ENDMDL
MODEL 5
REMARK VINA RESULT:    -5.422      1.959      3.891
REMARK INTER + INTRA:          -5.422
REMARK INTER:                  -5.422
REMARK INTRA:                   0.000
REMARK UNBOUND:                 0.000
REMARK SMILES O=c1ccc2ccccc2o1
REMARK SMILES IDX 7 1 8 2 9 3 10 4 5 5 6 6 4 7 3 8 2 9 1 10 11 11
REMARK H PARENT
REMARK Flexibility Score: inf
ROOT
ATOM      1  C   UNL     1      13.642  24.974  -1.387  1.00  0.00     0.001 A 
ATOM      2  C   UNL     1      12.907  25.100  -2.571  1.00  0.00     0.004 A 
ATOM      3  C   UNL     1      11.974  24.122  -2.927  1.00  0.00     0.048 A 
ATOM      4  C   UNL     1      11.770  23.013  -2.100  1.00  0.00     0.138 A 
ATOM      5  C   UNL     1      12.512  22.884  -0.904  1.00  0.00     0.018 A 
ATOM      6  C   UNL     1      13.447  23.869  -0.552  1.00  0.00     0.012 A 
ATOM      7  C   UNL     1      12.287  21.765  -0.096  1.00  0.00     0.019 A 
ATOM      8  C   UNL     1      11.346  20.814  -0.492  1.00  0.00     0.094 A 
ATOM      9  C   UNL     1      10.649  21.008  -1.690  1.00  0.00     0.336 A 
ATOM     10  O   UNL     1       9.796  20.161  -2.063  1.00  0.00    -0.246 OA
ATOM     11  O   UNL     1      10.882  22.082  -2.440  1.00  0.00    -0.423 OA
ENDROOT
TORSDOF 0
ENDMDL
MODEL 6
REMARK VINA RESULT:    -5.347      1.520      1.959
REMARK INTER + INTRA:          -5.347
REMARK INTER:                  -5.347
REMARK INTRA:                   0.000
REMARK UNBOUND:                 0.000
REMARK SMILES O=c1ccc2ccccc2o1
REMARK SMILES IDX 7 1 8 2 9 3 10 4 5 5 6 6 4 7 3 8 2 9 1 10 11 11
REMARK H PARENT
REMARK Flexibility Score: inf
ROOT
ATOM      1  C   UNL     1      10.641  19.904  -1.331  1.00  0.00     0.001 A 
ATOM      2  C   UNL     1      10.682  19.875  -2.730  1.00  0.00     0.004 A 
ATOM      3  C   UNL     1      11.076  21.010  -3.445  1.00  0.00     0.048 A 
ATOM      4  C   UNL     1      11.431  22.180  -2.765  1.00  0.00     0.138 A 
ATOM      5  C   UNL     1      11.389  22.210  -1.353  1.00  0.00     0.018 A 
ATOM      6  C   UNL     1      10.993  21.068  -0.641  1.00  0.00     0.012 A 
ATOM      7  C   UNL     1      11.749  23.393  -0.700  1.00  0.00     0.019 A 
ATOM      8  C   UNL     1      12.134  24.500  -1.455  1.00  0.00     0.094 A 
ATOM      9  C   UNL     1      12.151  24.397  -2.851  1.00  0.00     0.336 A 
ATOM     10  O   UNL     1      12.497  25.386  -3.548  1.00  0.00    -0.246 OA
ATOM     11  O   UNL     1      11.805  23.260  -3.447  1.00  0.00    -0.423 OA
ENDROOT
TORSDOF 0
ENDMDL
MODEL 7
REMARK VINA RESULT:    -5.266      1.412      2.633
REMARK INTER + INTRA:          -5.266
REMARK INTER:                  -5.266
REMARK INTRA:                   0.000
REMARK UNBOUND:                 0.000
REMARK SMILES O=c1ccc2ccccc2o1
REMARK SMILES IDX 7 1 8 2 9 3 10 4 5 5 6 6 4 7 3 8 2 9 1 10 11 11
REMARK H PARENT
REMARK Flexibility Score: inf
ROOT
ATOM      1  C   UNL     1      10.653  20.490  -2.099  1.00  0.00     0.001 A 
ATOM      2  C   UNL     1      11.118  20.500  -0.779  1.00  0.00     0.004 A 
ATOM      3  C   UNL     1      11.862  21.584  -0.304  1.00  0.00     0.048 A 
ATOM      4  C   UNL     1      12.145  22.664  -1.147  1.00  0.00     0.138 A 
ATOM      5  C   UNL     1      11.676  22.654  -2.480  1.00  0.00     0.018 A 
ATOM      6  C   UNL     1      10.930  21.564  -2.951  1.00  0.00     0.012 A 
ATOM      7  C   UNL     1      11.973  23.748  -3.301  1.00  0.00     0.019 A 
ATOM      8  C   UNL     1      12.719  24.807  -2.784  1.00  0.00     0.094 A 
ATOM      9  C   UNL     1      13.151  24.747  -1.454  1.00  0.00     0.336 A 
ATOM     10  O   UNL     1      13.825  25.694  -0.970  1.00  0.00    -0.246 OA
ATOM     11  O   UNL     1      12.854  23.696  -0.695  1.00  0.00    -0.423 OA
ENDROOT
TORSDOF 0
ENDMDL
MODEL 8
REMARK VINA RESULT:    -4.509      2.031      3.049
REMARK INTER + INTRA:          -4.509
REMARK INTER:                  -4.509
REMARK INTRA:                   0.000
REMARK UNBOUND:                 0.000
REMARK SMILES O=c1ccc2ccccc2o1
REMARK SMILES IDX 7 1 8 2 9 3 10 4 5 5 6 6 4 7 3 8 2 9 1 10 11 11
REMARK H PARENT
REMARK Flexibility Score: inf
ROOT
ATOM      1  C   UNL     1      11.911  23.825  -4.750  1.00  0.00     0.001 A 
ATOM      2  C   UNL     1      12.161  24.998  -4.029  1.00  0.00     0.004 A 
ATOM      3  C   UNL     1      12.172  24.976  -2.631  1.00  0.00     0.048 A 
ATOM      4  C   UNL     1      11.934  23.779  -1.947  1.00  0.00     0.138 A 
ATOM      5  C   UNL     1      11.682  22.594  -2.675  1.00  0.00     0.018 A 
ATOM      6  C   UNL     1      11.672  22.623  -4.077  1.00  0.00     0.012 A 
ATOM      7  C   UNL     1      11.447  21.412  -1.964  1.00  0.00     0.019 A 
ATOM      8  C   UNL     1      11.468  21.437  -0.570  1.00  0.00     0.094 A 
ATOM      9  C   UNL     1      11.724  22.648   0.083  1.00  0.00     0.336 A 
ATOM     10  O   UNL     1      11.746  22.689   1.341  1.00  0.00    -0.246 OA
ATOM     11  O   UNL     1      11.944  23.758  -0.617  1.00  0.00    -0.423 OA
ENDROOT
TORSDOF 0
ENDMDL
MODEL 9
REMARK VINA RESULT:    -4.506      2.164      3.231
REMARK INTER + INTRA:          -4.506
REMARK INTER:                  -4.506
REMARK INTRA:                   0.000
REMARK UNBOUND:                 0.000
REMARK SMILES O=c1ccc2ccccc2o1
REMARK SMILES IDX 7 1 8 2 9 3 10 4 5 5 6 6 4 7 3 8 2 9 1 10 11 11
REMARK H PARENT
REMARK Flexibility Score: inf
ROOT
ATOM      1  C   UNL     1      12.072  25.033  -4.393  1.00  0.00     0.001 A 
ATOM      2  C   UNL     1      12.052  23.767  -4.988  1.00  0.00     0.004 A 
ATOM      3  C   UNL     1      11.928  22.620  -4.197  1.00  0.00     0.048 A 
ATOM      4  C   UNL     1      11.824  22.735  -2.807  1.00  0.00     0.138 A 
ATOM      5  C   UNL     1      11.845  24.014  -2.206  1.00  0.00     0.018 A 
ATOM      6  C   UNL     1      11.969  25.160  -3.004  1.00  0.00     0.012 A 
ATOM      7  C   UNL     1      11.739  24.099  -0.814  1.00  0.00     0.019 A 
ATOM      8  C   UNL     1      11.618  22.928  -0.065  1.00  0.00     0.094 A 
ATOM      9  C   UNL     1      11.605  21.696  -0.729  1.00  0.00     0.336 A 
ATOM     10  O   UNL     1      11.496  20.630  -0.070  1.00  0.00    -0.246 OA
ATOM     11  O   UNL     1      11.707  21.644  -2.055  1.00  0.00    -0.423 OA
ENDROOT
TORSDOF 0
ENDMDL
