MODEL 1
REMARK VINA RESULT:    -7.605      0.000      0.000
REMARK INTER + INTRA:         -15.240
REMARK INTER:                 -13.829
REMARK INTRA:                  -1.412
REMARK UNBOUND:                -1.412
REMARK SMILES CCCCCCCCCCCCCC[C@@H](C)C(=O)[O-]
REMARK SMILES IDX 9 1 10 2 11 3 12 4 13 5 14 6 15 7 16 8 17 9 18 10 19 11 8 12
REMARK SMILES IDX 7 13 6 14 5 15 4 16 3 17 2 18 1 19
REMARK H PARENT
REMARK Flexibility Score: inf
ROOT
ATOM      1  C   UNL     1      29.193  -3.414  19.751  1.00  0.00     0.000 C 
ENDROOT
BRANCH   1   2
ATOM      2  C   UNL     1      29.324  -4.333  18.525  1.00  0.00     0.000 C 
BRANCH   2   3
ATOM      3  C   UNL     1      28.050  -5.157  18.262  1.00  0.00     0.000 C 
BRANCH   3   4
ATOM      4  C   UNL     1      26.771  -4.312  18.369  1.00  0.00     0.000 C 
BRANCH   4   5
ATOM      5  C   UNL     1      25.746  -4.916  19.344  1.00  0.00     0.001 C 
BRANCH   5   6
ATOM      6  C   UNL     1      26.301  -6.098  20.165  1.00  0.00     0.009 C 
BRANCH   6   7
ATOM      7  C   UNL     1      25.562  -7.453  20.017  1.00  0.00     0.032 C 
ATOM      8  C   UNL     1      26.420  -8.649  20.458  1.00  0.00     0.014 C 
BRANCH   7   9
ATOM      9  C   UNL     1      24.207  -7.444  20.681  1.00  0.00     0.044 C 
ATOM     10  O   UNL     1      24.110  -7.707  21.909  1.00  0.00    -0.550 OA
ATOM     11  O   UNL     1      23.058  -7.126  19.963  1.00  0.00    -0.550 OA
ENDBRANCH   7   9
ENDBRANCH   6   7
ENDBRANCH   5   6
ENDBRANCH   4   5
ENDBRANCH   3   4
ENDBRANCH   2   3
ENDBRANCH   1   2
BRANCH   1  12
ATOM     12  C   UNL     1      29.316  -1.924  19.386  1.00  0.00     0.000 C 
BRANCH  12  13
ATOM     13  C   UNL     1      28.617  -1.007  20.404  1.00  0.00    -0.000 C 
BRANCH  13  14
ATOM     14  C   UNL     1      27.316  -0.399  19.860  1.00  0.00    -0.000 C 
BRANCH  14  15
ATOM     15  C   UNL     1      26.102  -1.247  20.270  1.00  0.00    -0.000 C 
BRANCH  15  16
ATOM     16  C   UNL     1      24.781  -0.711  19.696  1.00  0.00    -0.000 C 
BRANCH  16  17
ATOM     17  C   UNL     1      24.782   0.819  19.538  1.00  0.00    -0.000 C 
BRANCH  17  18
ATOM     18  C   UNL     1      23.532   1.336  18.808  1.00  0.00    -0.003 C 
ATOM     19  C   UNL     1      23.832   2.509  17.875  1.00  0.00     0.004 C 
ENDBRANCH  17  18
ENDBRANCH  16  17
ENDBRANCH  15  16
ENDBRANCH  14  15
ENDBRANCH  13  14
ENDBRANCH  12  13
ENDBRANCH   1  12
TORSDOF 14
ENDMDL
MODEL 2
REMARK VINA RESULT:    -7.490      0.665      1.361
REMARK INTER + INTRA:         -15.031
REMARK INTER:                 -13.787
REMARK INTRA:                  -1.244
REMARK UNBOUND:                -1.412
REMARK SMILES CCCCCCCCCCCCCC[C@@H](C)C(=O)[O-]
REMARK SMILES IDX 9 1 10 2 11 3 12 4 13 5 14 6 15 7 16 8 17 9 18 10 19 11 8 12
REMARK SMILES IDX 7 13 6 14 5 15 4 16 3 17 2 18 1 19
REMARK H PARENT
REMARK Flexibility Score: inf
ROOT
ATOM      1  C   UNL     1      29.499  -1.858  19.744  1.00  0.00     0.000 C 
ENDROOT
BRANCH   1   2
ATOM      2  C   UNL     1      29.711  -3.247  19.121  1.00  0.00     0.000 C 
BRANCH   2   3
ATOM      3  C   UNL     1      28.604  -4.245  19.503  1.00  0.00     0.000 C 
BRANCH   3   4
ATOM      4  C   UNL     1      27.846  -4.779  18.277  1.00  0.00     0.000 C 
BRANCH   4   5
ATOM      5  C   UNL     1      26.414  -5.228  18.619  1.00  0.00     0.001 C 
BRANCH   5   6
ATOM      6  C   UNL     1      26.314  -5.997  19.952  1.00  0.00     0.009 C 
BRANCH   6   7
ATOM      7  C   UNL     1      25.741  -7.437  19.880  1.00  0.00     0.032 C 
ATOM      8  C   UNL     1      26.732  -8.496  20.383  1.00  0.00     0.014 C 
BRANCH   7   9
ATOM      9  C   UNL     1      24.391  -7.551  20.545  1.00  0.00     0.044 C 
ATOM     10  O   UNL     1      23.417  -6.889  20.101  1.00  0.00    -0.550 OA
ATOM     11  O   UNL     1      24.196  -8.397  21.632  1.00  0.00    -0.550 OA
ENDBRANCH   7   9
ENDBRANCH   6   7
ENDBRANCH   5   6
ENDBRANCH   4   5
ENDBRANCH   3   4
ENDBRANCH   2   3
ENDBRANCH   1   2
BRANCH   1  12
ATOM     12  C   UNL     1      28.340  -1.088  19.087  1.00  0.00     0.000 C 
BRANCH  12  13
ATOM     13  C   UNL     1      27.242  -0.701  20.092  1.00  0.00    -0.000 C 
BRANCH  13  14
ATOM     14  C   UNL     1      26.083  -1.708  20.124  1.00  0.00    -0.000 C 
BRANCH  14  15
ATOM     15  C   UNL     1      24.752  -1.023  19.780  1.00  0.00    -0.000 C 
BRANCH  15  16
ATOM     16  C   UNL     1      24.869   0.508  19.723  1.00  0.00    -0.000 C 
BRANCH  16  17
ATOM     17  C   UNL     1      23.646   1.170  19.065  1.00  0.00    -0.000 C 
BRANCH  17  18
ATOM     18  C   UNL     1      24.026   2.388  18.208  1.00  0.00    -0.003 C 
ATOM     19  C   UNL     1      23.464   2.314  16.788  1.00  0.00     0.004 C 
ENDBRANCH  17  18
ENDBRANCH  16  17
ENDBRANCH  15  16
ENDBRANCH  14  15
ENDBRANCH  13  14
ENDBRANCH  12  13
ENDBRANCH   1  12
TORSDOF 14
ENDMDL
MODEL 3
REMARK VINA RESULT:    -7.339      1.412      1.617
REMARK INTER + INTRA:         -14.758
REMARK INTER:                 -13.438
REMARK INTRA:                  -1.320
REMARK UNBOUND:                -1.412
REMARK SMILES CCCCCCCCCCCCCC[C@@H](C)C(=O)[O-]
REMARK SMILES IDX 9 1 10 2 11 3 12 4 13 5 14 6 15 7 16 8 17 9 18 10 19 11 8 12
REMARK SMILES IDX 7 13 6 14 5 15 4 16 3 17 2 18 1 19
REMARK H PARENT
REMARK Flexibility Score: inf
ROOT
ATOM      1  C   UNL     1      29.644  -3.351  19.034  1.00  0.00     0.000 C 
ENDROOT
BRANCH   1   2
ATOM      2  C   UNL     1      28.708  -4.500  18.625  1.00  0.00     0.000 C 
BRANCH   2   3
ATOM      3  C   UNL     1      27.423  -4.549  19.472  1.00  0.00     0.000 C 
BRANCH   3   4
ATOM      4  C   UNL     1      26.150  -4.519  18.611  1.00  0.00     0.000 C 
BRANCH   4   5
ATOM      5  C   UNL     1      24.885  -4.858  19.418  1.00  0.00     0.001 C 
BRANCH   5   6
ATOM      6  C   UNL     1      24.517  -6.355  19.380  1.00  0.00     0.009 C 
BRANCH   6   7
ATOM      7  C   UNL     1      25.163  -7.256  20.465  1.00  0.00     0.032 C 
ATOM      8  C   UNL     1      24.133  -8.115  21.214  1.00  0.00     0.014 C 
BRANCH   7   9
ATOM      9  C   UNL     1      26.309  -8.075  19.924  1.00  0.00     0.044 C 
ATOM     10  O   UNL     1      26.765  -9.035  20.599  1.00  0.00    -0.550 OA
ATOM     11  O   UNL     1      26.860  -7.801  18.676  1.00  0.00    -0.550 OA
ENDBRANCH   7   9
ENDBRANCH   6   7
ENDBRANCH   5   6
ENDBRANCH   4   5
ENDBRANCH   3   4
ENDBRANCH   2   3
ENDBRANCH   1   2
BRANCH   1  12
ATOM     12  C   UNL     1      28.971  -2.355  19.994  1.00  0.00     0.000 C 
BRANCH  12  13
ATOM     13  C   UNL     1      28.787  -0.963  19.368  1.00  0.00    -0.000 C 
BRANCH  13  14
ATOM     14  C   UNL     1      27.467  -0.295  19.782  1.00  0.00    -0.000 C 
BRANCH  14  15
ATOM     15  C   UNL     1      26.407  -1.349  20.133  1.00  0.00    -0.000 C 
BRANCH  15  16
ATOM     16  C   UNL     1      24.973  -0.866  19.859  1.00  0.00    -0.000 C 
BRANCH  16  17
ATOM     17  C   UNL     1      24.882   0.663  19.721  1.00  0.00    -0.000 C 
BRANCH  17  18
ATOM     18  C   UNL     1      23.621   1.111  18.964  1.00  0.00    -0.003 C 
ATOM     19  C   UNL     1      23.865   2.325  18.068  1.00  0.00     0.004 C 
ENDBRANCH  17  18
ENDBRANCH  16  17
ENDBRANCH  15  16
ENDBRANCH  14  15
ENDBRANCH  13  14
ENDBRANCH  12  13
ENDBRANCH   1  12
TORSDOF 14
ENDMDL
MODEL 4
REMARK VINA RESULT:    -7.094      2.852      6.846
REMARK INTER + INTRA:         -14.312
REMARK INTER:                 -12.723
REMARK INTRA:                  -1.589
REMARK UNBOUND:                -1.412
REMARK SMILES CCCCCCCCCCCCCC[C@@H](C)C(=O)[O-]
REMARK SMILES IDX 9 1 10 2 11 3 12 4 13 5 14 6 15 7 16 8 17 9 18 10 19 11 8 12
REMARK SMILES IDX 7 13 6 14 5 15 4 16 3 17 2 18 1 19
REMARK H PARENT
REMARK Flexibility Score: inf
ROOT
ATOM      1  C   UNL     1      29.167  -4.340  18.525  1.00  0.00     0.000 C 
ENDROOT
BRANCH   1   2
ATOM      2  C   UNL     1      29.306  -3.429  19.756  1.00  0.00     0.000 C 
BRANCH   2   3
ATOM      3  C   UNL     1      29.498  -1.948  19.379  1.00  0.00     0.000 C 
BRANCH   3   4
ATOM      4  C   UNL     1      28.833  -0.996  20.386  1.00  0.00     0.000 C 
BRANCH   4   5
ATOM      5  C   UNL     1      27.376  -1.383  20.691  1.00  0.00     0.001 C 
BRANCH   5   6
ATOM      6  C   UNL     1      26.368  -0.836  19.659  1.00  0.00     0.009 C 
BRANCH   6   7
ATOM      7  C   UNL     1      25.925   0.640  19.837  1.00  0.00     0.032 C 
ATOM      8  C   UNL     1      26.947   1.639  19.274  1.00  0.00     0.014 C 
BRANCH   7   9
ATOM      9  C   UNL     1      24.531   0.889  19.316  1.00  0.00     0.044 C 
ATOM     10  O   UNL     1      23.588   0.132  19.666  1.00  0.00    -0.550 OA
ATOM     11  O   UNL     1      24.263   1.957  18.466  1.00  0.00    -0.550 OA
ENDBRANCH   7   9
ENDBRANCH   6   7
ENDBRANCH   5   6
ENDBRANCH   4   5
ENDBRANCH   3   4
ENDBRANCH   2   3
ENDBRANCH   1   2
BRANCH   1  12
ATOM     12  C   UNL     1      27.888  -5.194  18.567  1.00  0.00     0.000 C 
BRANCH  12  13
ATOM     13  C   UNL     1      26.609  -4.352  18.426  1.00  0.00    -0.000 C 
BRANCH  13  14
ATOM     14  C   UNL     1      25.669  -4.493  19.633  1.00  0.00    -0.000 C 
BRANCH  14  15
ATOM     15  C   UNL     1      24.344  -5.151  19.221  1.00  0.00    -0.000 C 
BRANCH  15  16
ATOM     16  C   UNL     1      24.378  -6.683  19.339  1.00  0.00    -0.000 C 
BRANCH  16  17
ATOM     17  C   UNL     1      24.530  -7.160  20.794  1.00  0.00    -0.000 C 
BRANCH  17  18
ATOM     18  C   UNL     1      25.293  -8.490  20.900  1.00  0.00    -0.003 C 
ATOM     19  C   UNL     1      26.656  -8.450  20.210  1.00  0.00     0.004 C 
ENDBRANCH  17  18
ENDBRANCH  16  17
ENDBRANCH  15  16
ENDBRANCH  14  15
ENDBRANCH  13  14
ENDBRANCH  12  13
ENDBRANCH   1  12
TORSDOF 14
ENDMDL
MODEL 5
REMARK VINA RESULT:    -6.845      3.027      7.172
REMARK INTER + INTRA:         -13.859
REMARK INTER:                 -12.791
REMARK INTRA:                  -1.068
REMARK UNBOUND:                -1.412
REMARK SMILES CCCCCCCCCCCCCC[C@@H](C)C(=O)[O-]
REMARK SMILES IDX 9 1 10 2 11 3 12 4 13 5 14 6 15 7 16 8 17 9 18 10 19 11 8 12
REMARK SMILES IDX 7 13 6 14 5 15 4 16 3 17 2 18 1 19
REMARK H PARENT
REMARK Flexibility Score: inf
ROOT
ATOM      1  C   UNL     1      29.072  -4.105  18.856  1.00  0.00     0.000 C 
ENDROOT
BRANCH   1   2
ATOM      2  C   UNL     1      28.357  -2.949  19.574  1.00  0.00     0.000 C 
BRANCH   2   3
ATOM      3  C   UNL     1      29.251  -1.705  19.733  1.00  0.00     0.000 C 
BRANCH   3   4
ATOM      4  C   UNL     1      28.530  -0.552  20.450  1.00  0.00     0.000 C 
BRANCH   4   5
ATOM      5  C   UNL     1      27.892   0.445  19.467  1.00  0.00     0.001 C 
BRANCH   5   6
ATOM      6  C   UNL     1      26.493   0.926  19.904  1.00  0.00     0.009 C 
BRANCH   6   7
ATOM      7  C   UNL     1      25.280   0.241  19.221  1.00  0.00     0.032 C 
ATOM      8  C   UNL     1      24.835  -1.038  19.944  1.00  0.00     0.014 C 
BRANCH   7   9
ATOM      9  C   UNL     1      24.136   1.198  18.990  1.00  0.00     0.044 C 
ATOM     10  O   UNL     1      24.353   2.313  18.446  1.00  0.00    -0.550 OA
ATOM     11  O   UNL     1      22.835   0.860  19.350  1.00  0.00    -0.550 OA
ENDBRANCH   7   9
ENDBRANCH   6   7
ENDBRANCH   5   6
ENDBRANCH   4   5
ENDBRANCH   3   4
ENDBRANCH   2   3
ENDBRANCH   1   2
BRANCH   1  12
ATOM     12  C   UNL     1      28.089  -5.137  18.277  1.00  0.00     0.000 C 
BRANCH  12  13
ATOM     13  C   UNL     1      26.624  -4.810  18.612  1.00  0.00    -0.000 C 
BRANCH  13  14
ATOM     14  C   UNL     1      26.088  -5.627  19.797  1.00  0.00    -0.000 C 
BRANCH  14  15
ATOM     15  C   UNL     1      26.772  -7.000  19.868  1.00  0.00    -0.000 C 
BRANCH  15  16
ATOM     16  C   UNL     1      25.828  -8.111  20.355  1.00  0.00    -0.000 C 
BRANCH  16  17
ATOM     17  C   UNL     1      24.356  -7.666  20.383  1.00  0.00    -0.000 C 
BRANCH  17  18
ATOM     18  C   UNL     1      23.457  -8.652  21.147  1.00  0.00    -0.003 C 
ATOM     19  C   UNL     1      23.643  -8.574  22.662  1.00  0.00     0.004 C 
ENDBRANCH  17  18
ENDBRANCH  16  17
ENDBRANCH  15  16
ENDBRANCH  14  15
ENDBRANCH  13  14
ENDBRANCH  12  13
ENDBRANCH   1  12
TORSDOF 14
ENDMDL
MODEL 6
REMARK VINA RESULT:    -6.760      2.824      7.320
REMARK INTER + INTRA:         -13.704
REMARK INTER:                 -12.925
REMARK INTRA:                  -0.779
REMARK UNBOUND:                -1.412
REMARK SMILES CCCCCCCCCCCCCC[C@@H](C)C(=O)[O-]
REMARK SMILES IDX 9 1 10 2 11 3 12 4 13 5 14 6 15 7 16 8 17 9 18 10 19 11 8 12
REMARK SMILES IDX 7 13 6 14 5 15 4 16 3 17 2 18 1 19
REMARK H PARENT
REMARK Flexibility Score: inf
ROOT
ATOM      1  C   UNL     1      27.376  -5.084  18.252  1.00  0.00     0.000 C 
ENDROOT
BRANCH   1   2
ATOM      2  C   UNL     1      28.761  -4.488  18.554  1.00  0.00     0.000 C 
BRANCH   2   3
ATOM      3  C   UNL     1      28.737  -3.501  19.735  1.00  0.00     0.000 C 
BRANCH   3   4
ATOM      4  C   UNL     1      29.627  -2.272  19.491  1.00  0.00     0.000 C 
BRANCH   4   5
ATOM      5  C   UNL     1      28.891  -0.948  19.761  1.00  0.00     0.001 C 
BRANCH   5   6
ATOM      6  C   UNL     1      27.356  -1.074  19.688  1.00  0.00     0.009 C 
BRANCH   6   7
ATOM      7  C   UNL     1      26.539   0.205  20.008  1.00  0.00     0.032 C 
ATOM      8  C   UNL     1      27.147   1.470  19.383  1.00  0.00     0.014 C 
BRANCH   7   9
ATOM      9  C   UNL     1      25.075   0.049  19.679  1.00  0.00     0.044 C 
ATOM     10  O   UNL     1      24.522  -1.075  19.804  1.00  0.00    -0.550 OA
ATOM     11  O   UNL     1      24.314   1.135  19.258  1.00  0.00    -0.550 OA
ENDBRANCH   7   9
ENDBRANCH   6   7
ENDBRANCH   5   6
ENDBRANCH   4   5
ENDBRANCH   3   4
ENDBRANCH   2   3
ENDBRANCH   1   2
BRANCH   1  12
ATOM     12  C   UNL     1      26.950  -6.138  19.288  1.00  0.00     0.000 C 
BRANCH  12  13
ATOM     13  C   UNL     1      25.723  -5.700  20.106  1.00  0.00    -0.000 C 
BRANCH  13  14
ATOM     14  C   UNL     1      24.404  -5.878  19.339  1.00  0.00    -0.000 C 
BRANCH  14  15
ATOM     15  C   UNL     1      23.640  -7.112  19.843  1.00  0.00    -0.000 C 
BRANCH  15  16
ATOM     16  C   UNL     1      24.460  -7.958  20.830  1.00  0.00    -0.000 C 
BRANCH  16  17
ATOM     17  C   UNL     1      23.623  -9.060  21.501  1.00  0.00    -0.000 C 
BRANCH  17  18
ATOM     18  C   UNL     1      23.215  -8.698  22.938  1.00  0.00    -0.003 C 
ATOM     19  C   UNL     1      22.755  -9.909  23.748  1.00  0.00     0.004 C 
ENDBRANCH  17  18
ENDBRANCH  16  17
ENDBRANCH  15  16
ENDBRANCH  14  15
ENDBRANCH  13  14
ENDBRANCH  12  13
ENDBRANCH   1  12
TORSDOF 14
ENDMDL
MODEL 7
REMARK VINA RESULT:    -6.712      2.852      7.025
REMARK INTER + INTRA:         -13.617
REMARK INTER:                 -12.401
REMARK INTRA:                  -1.217
REMARK UNBOUND:                -1.412
REMARK SMILES CCCCCCCCCCCCCC[C@@H](C)C(=O)[O-]
REMARK SMILES IDX 9 1 10 2 11 3 12 4 13 5 14 6 15 7 16 8 17 9 18 10 19 11 8 12
REMARK SMILES IDX 7 13 6 14 5 15 4 16 3 17 2 18 1 19
REMARK H PARENT
REMARK Flexibility Score: inf
ROOT
ATOM      1  C   UNL     1      28.390  -4.686  18.545  1.00  0.00     0.000 C 
ENDROOT
BRANCH   1   2
ATOM      2  C   UNL     1      28.720  -3.737  19.708  1.00  0.00     0.000 C 
BRANCH   2   3
ATOM      3  C   UNL     1      29.611  -2.558  19.278  1.00  0.00     0.000 C 
BRANCH   3   4
ATOM      4  C   UNL     1      29.062  -1.203  19.752  1.00  0.00     0.000 C 
BRANCH   4   5
ATOM      5  C   UNL     1      27.746  -1.342  20.536  1.00  0.00     0.001 C 
BRANCH   5   6
ATOM      6  C   UNL     1      26.507  -0.883  19.741  1.00  0.00     0.009 C 
BRANCH   6   7
ATOM      7  C   UNL     1      26.091   0.603  19.902  1.00  0.00     0.032 C 
ATOM      8  C   UNL     1      27.140   1.577  19.346  1.00  0.00     0.014 C 
BRANCH   7   9
ATOM      9  C   UNL     1      24.710   0.875  19.358  1.00  0.00     0.044 C 
ATOM     10  O   UNL     1      24.522   1.854  18.589  1.00  0.00    -0.550 OA
ATOM     11  O   UNL     1      23.637   0.047  19.675  1.00  0.00    -0.550 OA
ENDBRANCH   7   9
ENDBRANCH   6   7
ENDBRANCH   5   6
ENDBRANCH   4   5
ENDBRANCH   3   4
ENDBRANCH   2   3
ENDBRANCH   1   2
BRANCH   1  12
ATOM     12  C   UNL     1      26.971  -5.273  18.647  1.00  0.00     0.000 C 
BRANCH  12  13
ATOM     13  C   UNL     1      25.950  -4.259  19.192  1.00  0.00    -0.000 C 
BRANCH  13  14
ATOM     14  C   UNL     1      24.545  -4.859  19.350  1.00  0.00    -0.000 C 
BRANCH  14  15
ATOM     15  C   UNL     1      24.564  -6.373  19.094  1.00  0.00    -0.000 C 
BRANCH  15  16
ATOM     16  C   UNL     1      23.712  -7.158  20.105  1.00  0.00    -0.000 C 
BRANCH  16  17
ATOM     17  C   UNL     1      24.559  -8.060  21.018  1.00  0.00    -0.000 C 
BRANCH  17  18
ATOM     18  C   UNL     1      26.067  -7.906  20.762  1.00  0.00    -0.003 C 
ATOM     19  C   UNL     1      26.679  -9.123  20.068  1.00  0.00     0.004 C 
ENDBRANCH  17  18
ENDBRANCH  16  17
ENDBRANCH  15  16
ENDBRANCH  14  15
ENDBRANCH  13  14
ENDBRANCH  12  13
ENDBRANCH   1  12
TORSDOF 14
ENDMDL
MODEL 8
REMARK VINA RESULT:    -6.646      1.333      4.079
REMARK INTER + INTRA:         -13.497
REMARK INTER:                 -12.112
REMARK INTRA:                  -1.385
REMARK UNBOUND:                -1.412
REMARK SMILES CCCCCCCCCCCCCC[C@@H](C)C(=O)[O-]
REMARK SMILES IDX 9 1 10 2 11 3 12 4 13 5 14 6 15 7 16 8 17 9 18 10 19 11 8 12
REMARK SMILES IDX 7 13 6 14 5 15 4 16 3 17 2 18 1 19
REMARK H PARENT
REMARK Flexibility Score: inf
ROOT
ATOM      1  C   UNL     1      25.189  -0.952  19.336  1.00  0.00     0.000 C 
ENDROOT
BRANCH   1   2
ATOM      2  C   UNL     1      25.124  -1.949  20.504  1.00  0.00     0.000 C 
BRANCH   2   3
ATOM      3  C   UNL     1      25.648  -3.346  20.122  1.00  0.00     0.000 C 
BRANCH   3   4
ATOM      4  C   UNL     1      24.818  -3.999  19.006  1.00  0.00     0.000 C 
BRANCH   4   5
ATOM      5  C   UNL     1      24.403  -5.441  19.346  1.00  0.00     0.001 C 
BRANCH   5   6
ATOM      6  C   UNL     1      25.442  -6.191  20.204  1.00  0.00     0.009 C 
BRANCH   6   7
ATOM      7  C   UNL     1      25.339  -7.739  20.221  1.00  0.00     0.032 C 
ATOM      8  C   UNL     1      26.700  -8.422  20.420  1.00  0.00     0.014 C 
BRANCH   7   9
ATOM      9  C   UNL     1      24.300  -8.235  21.196  1.00  0.00     0.044 C 
ATOM     10  O   UNL     1      23.941  -7.502  22.155  1.00  0.00    -0.550 OA
ATOM     11  O   UNL     1      23.711  -9.487  21.043  1.00  0.00    -0.550 OA
ENDBRANCH   7   9
ENDBRANCH   6   7
ENDBRANCH   5   6
ENDBRANCH   4   5
ENDBRANCH   3   4
ENDBRANCH   2   3
ENDBRANCH   1   2
BRANCH   1  12
ATOM     12  C   UNL     1      25.542   0.473  19.797  1.00  0.00     0.000 C 
BRANCH  12  13
ATOM     13  C   UNL     1      27.044   0.647  20.080  1.00  0.00    -0.000 C 
BRANCH  13  14
ATOM     14  C   UNL     1      27.916  -0.339  19.287  1.00  0.00    -0.000 C 
BRANCH  14  15
ATOM     15  C   UNL     1      28.774  -1.193  20.232  1.00  0.00    -0.000 C 
BRANCH  15  16
ATOM     16  C   UNL     1      29.722  -2.142  19.480  1.00  0.00    -0.000 C 
BRANCH  16  17
ATOM     17  C   UNL     1      29.329  -3.620  19.642  1.00  0.00    -0.000 C 
BRANCH  17  18
ATOM     18  C   UNL     1      28.298  -4.073  18.596  1.00  0.00    -0.003 C 
ATOM     19  C   UNL     1      28.453  -5.542  18.205  1.00  0.00     0.004 C 
ENDBRANCH  17  18
ENDBRANCH  16  17
ENDBRANCH  15  16
ENDBRANCH  14  15
ENDBRANCH  13  14
ENDBRANCH  12  13
ENDBRANCH   1  12
TORSDOF 14
ENDMDL
MODEL 9
REMARK VINA RESULT:    -6.514      3.574      7.352
REMARK INTER + INTRA:         -13.258
REMARK INTER:                 -12.154
REMARK INTRA:                  -1.104
REMARK UNBOUND:                -1.412
REMARK SMILES CCCCCCCCCCCCCC[C@@H](C)C(=O)[O-]
REMARK SMILES IDX 9 1 10 2 11 3 12 4 13 5 14 6 15 7 16 8 17 9 18 10 19 11 8 12
REMARK SMILES IDX 7 13 6 14 5 15 4 16 3 17 2 18 1 19
REMARK H PARENT
REMARK Flexibility Score: inf
ROOT
ATOM      1  C   UNL     1      28.737  -2.291  20.045  1.00  0.00     0.000 C 
ENDROOT
BRANCH   1   2
ATOM      2  C   UNL     1      28.711  -0.806  19.648  1.00  0.00     0.000 C 
BRANCH   2   3
ATOM      3  C   UNL     1      27.283  -0.237  19.571  1.00  0.00     0.000 C 
BRANCH   3   4
ATOM      4  C   UNL     1      26.222  -1.246  20.036  1.00  0.00     0.000 C 
BRANCH   4   5
ATOM      5  C   UNL     1      24.787  -0.727  19.839  1.00  0.00     0.001 C 
BRANCH   5   6
ATOM      6  C   UNL     1      24.723   0.758  19.427  1.00  0.00     0.009 C 
BRANCH   6   7
ATOM      7  C   UNL     1      23.480   1.198  18.610  1.00  0.00     0.032 C 
ATOM      8  C   UNL     1      22.265   1.507  19.497  1.00  0.00     0.014 C 
BRANCH   7   9
ATOM      9  C   UNL     1      23.792   2.321  17.651  1.00  0.00     0.044 C 
ATOM     10  O   UNL     1      24.543   3.263  18.015  1.00  0.00    -0.550 OA
ATOM     11  O   UNL     1      23.278   2.324  16.358  1.00  0.00    -0.550 OA
ENDBRANCH   7   9
ENDBRANCH   6   7
ENDBRANCH   5   6
ENDBRANCH   4   5
ENDBRANCH   3   4
ENDBRANCH   2   3
ENDBRANCH   1   2
BRANCH   1  12
ATOM     12  C   UNL     1      29.474  -3.164  19.014  1.00  0.00     0.000 C 
BRANCH  12  13
ATOM     13  C   UNL     1      28.694  -4.440  18.654  1.00  0.00    -0.000 C 
BRANCH  13  14
ATOM     14  C   UNL     1      27.182  -4.197  18.533  1.00  0.00    -0.000 C 
BRANCH  14  15
ATOM     15  C   UNL     1      26.416  -4.962  19.622  1.00  0.00    -0.000 C 
BRANCH  15  16
ATOM     16  C   UNL     1      26.965  -6.379  19.852  1.00  0.00    -0.000 C 
BRANCH  16  17
ATOM     17  C   UNL     1      25.887  -7.465  19.687  1.00  0.00    -0.000 C 
BRANCH  17  18
ATOM     18  C   UNL     1      24.601  -7.140  20.463  1.00  0.00    -0.003 C 
ATOM     19  C   UNL     1      23.945  -8.380  21.070  1.00  0.00     0.004 C 
ENDBRANCH  17  18
ENDBRANCH  16  17
ENDBRANCH  15  16
ENDBRANCH  14  15
ENDBRANCH  13  14
ENDBRANCH  12  13
ENDBRANCH   1  12
TORSDOF 14
ENDMDL
