MODEL 1
REMARK VINA RESULT:    -3.913      0.000      0.000
REMARK INTER + INTRA:          -6.047
REMARK INTER:                  -5.744
REMARK INTRA:                  -0.303
REMARK UNBOUND:                -0.303
REMARK SMILES O=C([O-])CCCCCCCC(=O)[O-]
REMARK SMILES IDX 7 1 6 2 5 3 4 4 2 5 1 6 3 7 8 8 9 9 10 10 11 11 12 12 13 13
REMARK H PARENT
REMARK Flexibility Score: inf
ROOT
ATOM      1  C   UNL     1       7.870  -5.100  -7.356  1.00  0.00     0.000 C 
ENDROOT
BRANCH   1   2
ATOM      2  C   UNL     1       8.884  -6.033  -6.680  1.00  0.00     0.000 C 
BRANCH   2   3
ATOM      3  C   UNL     1      10.316  -5.506  -6.849  1.00  0.00     0.006 C 
BRANCH   3   4
ATOM      4  C   UNL     1      11.206  -5.845  -5.645  1.00  0.00     0.053 C 
BRANCH   4   5
ATOM      5  C   UNL     1      11.011  -4.875  -4.521  1.00  0.00     0.041 C 
ATOM      6  O   UNL     1      11.235  -3.648  -4.694  1.00  0.00    -0.550 OA
ATOM      7  O   UNL     1      10.614  -5.331  -3.270  1.00  0.00    -0.550 OA
ENDBRANCH   4   5
ENDBRANCH   3   4
ENDBRANCH   2   3
ENDBRANCH   1   2
BRANCH   1   8
ATOM      8  C   UNL     1       8.107  -4.958  -8.870  1.00  0.00     0.000 C 
BRANCH   8   9
ATOM      9  C   UNL     1       6.994  -4.176  -9.599  1.00  0.00     0.006 C 
BRANCH   9  10
ATOM     10  C   UNL     1       5.715  -4.070  -8.759  1.00  0.00     0.053 C 
BRANCH  10  11
ATOM     11  C   UNL     1       4.593  -3.515  -9.580  1.00  0.00     0.041 C 
ATOM     12  O   UNL     1       4.703  -2.385 -10.123  1.00  0.00    -0.550 OA
ATOM     13  O   UNL     1       3.405  -4.226  -9.704  1.00  0.00    -0.550 OA
ENDBRANCH  10  11
ENDBRANCH   9  10
ENDBRANCH   8   9
ENDBRANCH   1   8
TORSDOF 8
ENDMDL
MODEL 2
REMARK VINA RESULT:    -3.782      0.775      1.534
REMARK INTER + INTRA:          -5.854
REMARK INTER:                  -5.513
REMARK INTRA:                  -0.341
REMARK UNBOUND:                -0.303
REMARK SMILES O=C([O-])CCCCCCCC(=O)[O-]
REMARK SMILES IDX 7 1 6 2 5 3 4 4 2 5 1 6 3 7 8 8 9 9 10 10 11 11 12 12 13 13
REMARK H PARENT
REMARK Flexibility Score: inf
ROOT
ATOM      1  C   UNL     1       8.037  -5.110  -7.889  1.00  0.00     0.000 C 
ENDROOT
BRANCH   1   2
ATOM      2  C   UNL     1       8.889  -6.385  -7.816  1.00  0.00     0.000 C 
BRANCH   2   3
ATOM      3  C   UNL     1       9.036  -6.868  -6.366  1.00  0.00     0.006 C 
BRANCH   3   4
ATOM      4  C   UNL     1      10.477  -6.737  -5.854  1.00  0.00     0.053 C 
BRANCH   4   5
ATOM      5  C   UNL     1      10.652  -5.527  -4.990  1.00  0.00     0.041 C 
ATOM      6  O   UNL     1      10.651  -5.636  -3.735  1.00  0.00    -0.550 OA
ATOM      7  O   UNL     1      10.782  -4.271  -5.570  1.00  0.00    -0.550 OA
ENDBRANCH   4   5
ENDBRANCH   3   4
ENDBRANCH   2   3
ENDBRANCH   1   2
BRANCH   1   8
ATOM      8  C   UNL     1       8.219  -4.344  -9.211  1.00  0.00     0.000 C 
BRANCH   8   9
ATOM      9  C   UNL     1       6.891  -4.010  -9.920  1.00  0.00     0.006 C 
BRANCH   9  10
ATOM     10  C   UNL     1       5.686  -4.124  -8.977  1.00  0.00     0.053 C 
BRANCH  10  11
ATOM     11  C   UNL     1       4.500  -3.416  -9.554  1.00  0.00     0.041 C 
ATOM     12  O   UNL     1       3.371  -3.975  -9.565  1.00  0.00    -0.550 OA
ATOM     13  O   UNL     1       4.652  -2.158 -10.125  1.00  0.00    -0.550 OA
ENDBRANCH  10  11
ENDBRANCH   9  10
ENDBRANCH   8   9
ENDBRANCH   1   8
TORSDOF 8
ENDMDL
MODEL 3
REMARK VINA RESULT:    -3.768      0.308      6.942
REMARK INTER + INTRA:          -5.834
REMARK INTER:                  -5.575
REMARK INTRA:                  -0.260
REMARK UNBOUND:                -0.303
REMARK SMILES O=C([O-])CCCCCCCC(=O)[O-]
REMARK SMILES IDX 7 1 6 2 5 3 4 4 2 5 1 6 3 7 8 8 9 9 10 10 11 11 12 12 13 13
REMARK H PARENT
REMARK Flexibility Score: inf
ROOT
ATOM      1  C   UNL     1       7.911  -5.080  -7.702  1.00  0.00     0.000 C 
ENDROOT
BRANCH   1   2
ATOM      2  C   UNL     1       8.248  -4.609  -9.123  1.00  0.00     0.000 C 
BRANCH   2   3
ATOM      3  C   UNL     1       7.072  -3.843  -9.745  1.00  0.00     0.006 C 
BRANCH   3   4
ATOM      4  C   UNL     1       5.790  -3.973  -8.910  1.00  0.00     0.053 C 
BRANCH   4   5
ATOM      5  C   UNL     1       4.596  -3.441  -9.641  1.00  0.00     0.041 C 
ATOM      6  O   UNL     1       4.613  -2.279 -10.125  1.00  0.00    -0.550 OA
ATOM      7  O   UNL     1       3.450  -4.218  -9.758  1.00  0.00    -0.550 OA
ENDBRANCH   4   5
ENDBRANCH   3   4
ENDBRANCH   2   3
ENDBRANCH   1   2
BRANCH   1   8
ATOM      8  C   UNL     1       8.902  -6.129  -7.169  1.00  0.00     0.000 C 
BRANCH   8   9
ATOM      9  C   UNL     1      10.269  -5.539  -6.764  1.00  0.00     0.006 C 
BRANCH   9  10
ATOM     10  C   UNL     1      10.784  -6.124  -5.442  1.00  0.00     0.053 C 
BRANCH  10  11
ATOM     11  C   UNL     1      10.925  -5.048  -4.412  1.00  0.00     0.041 C 
ATOM     12  O   UNL     1      10.836  -5.326  -3.187  1.00  0.00    -0.550 OA
ATOM     13  O   UNL     1      11.106  -3.728  -4.807  1.00  0.00    -0.550 OA
ENDBRANCH  10  11
ENDBRANCH   9  10
ENDBRANCH   8   9
ENDBRANCH   1   8
TORSDOF 8
ENDMDL
MODEL 4
REMARK VINA RESULT:    -3.170     13.870     15.069
REMARK INTER + INTRA:          -4.956
REMARK INTER:                  -4.250
REMARK INTRA:                  -0.707
REMARK UNBOUND:                -0.303
REMARK SMILES O=C([O-])CCCCCCCC(=O)[O-]
REMARK SMILES IDX 7 1 6 2 5 3 4 4 2 5 1 6 3 7 8 8 9 9 10 10 11 11 12 12 13 13
REMARK H PARENT
REMARK Flexibility Score: inf
ROOT
ATOM      1  C   UNL     1      -7.199  -4.018  -4.883  1.00  0.00     0.000 C 
ENDROOT
BRANCH   1   2
ATOM      2  C   UNL     1      -7.401  -5.463  -5.361  1.00  0.00     0.000 C 
BRANCH   2   3
ATOM      3  C   UNL     1      -6.053  -6.174  -5.551  1.00  0.00     0.006 C 
BRANCH   3   4
ATOM      4  C   UNL     1      -5.326  -5.709  -6.819  1.00  0.00     0.053 C 
BRANCH   4   5
ATOM      5  C   UNL     1      -5.519  -6.668  -7.954  1.00  0.00     0.041 C 
ATOM      6  O   UNL     1      -5.041  -7.831  -7.890  1.00  0.00    -0.550 OA
ATOM      7  O   UNL     1      -6.198  -6.265  -9.097  1.00  0.00    -0.550 OA
ENDBRANCH   4   5
ENDBRANCH   3   4
ENDBRANCH   2   3
ENDBRANCH   1   2
BRANCH   1   8
ATOM      8  C   UNL     1      -8.058  -3.006  -5.659  1.00  0.00     0.000 C 
BRANCH   8   9
ATOM      9  C   UNL     1      -7.303  -2.306  -6.808  1.00  0.00     0.006 C 
BRANCH   9  10
ATOM     10  C   UNL     1      -7.497  -3.023  -8.151  1.00  0.00     0.053 C 
BRANCH  10  11
ATOM     11  C   UNL     1      -6.515  -2.518  -9.161  1.00  0.00     0.041 C 
ATOM     12  O   UNL     1      -5.332  -2.952  -9.168  1.00  0.00    -0.550 OA
ATOM     13  O   UNL     1      -6.892  -1.532 -10.065  1.00  0.00    -0.550 OA
ENDBRANCH  10  11
ENDBRANCH   9  10
ENDBRANCH   8   9
ENDBRANCH   1   8
TORSDOF 8
ENDMDL
MODEL 5
REMARK VINA RESULT:    -3.158     13.708     15.291
REMARK INTER + INTRA:          -4.938
REMARK INTER:                  -4.269
REMARK INTRA:                  -0.669
REMARK UNBOUND:                -0.303
REMARK SMILES O=C([O-])CCCCCCCC(=O)[O-]
REMARK SMILES IDX 7 1 6 2 5 3 4 4 2 5 1 6 3 7 8 8 9 9 10 10 11 11 12 12 13 13
REMARK H PARENT
REMARK Flexibility Score: inf
ROOT
ATOM      1  C   UNL     1      -7.005  -5.616  -5.368  1.00  0.00     0.000 C 
ENDROOT
BRANCH   1   2
ATOM      2  C   UNL     1      -7.460  -4.161  -5.189  1.00  0.00     0.000 C 
BRANCH   2   3
ATOM      3  C   UNL     1      -7.933  -3.564  -6.522  1.00  0.00     0.006 C 
BRANCH   3   4
ATOM      4  C   UNL     1      -7.099  -2.346  -6.941  1.00  0.00     0.053 C 
BRANCH   4   5
ATOM      5  C   UNL     1      -6.571  -2.486  -8.335  1.00  0.00     0.041 C 
ATOM      6  O   UNL     1      -7.086  -1.830  -9.278  1.00  0.00    -0.550 OA
ATOM      7  O   UNL     1      -5.531  -3.369  -8.599  1.00  0.00    -0.550 OA
ENDBRANCH   4   5
ENDBRANCH   3   4
ENDBRANCH   2   3
ENDBRANCH   1   2
BRANCH   1   8
ATOM      8  C   UNL     1      -5.474  -5.769  -5.360  1.00  0.00     0.000 C 
BRANCH   8   9
ATOM      9  C   UNL     1      -4.894  -6.258  -6.703  1.00  0.00     0.006 C 
BRANCH   9  10
ATOM     10  C   UNL     1      -5.740  -7.376  -7.327  1.00  0.00     0.053 C 
BRANCH  10  11
ATOM     11  C   UNL     1      -6.178  -6.995  -8.706  1.00  0.00     0.041 C 
ATOM     12  O   UNL     1      -5.536  -7.400  -9.710  1.00  0.00    -0.550 OA
ATOM     13  O   UNL     1      -7.268  -6.151  -8.880  1.00  0.00    -0.550 OA
ENDBRANCH  10  11
ENDBRANCH   9  10
ENDBRANCH   8   9
ENDBRANCH   1   8
TORSDOF 8
ENDMDL
MODEL 6
REMARK VINA RESULT:    -3.116     13.550     15.551
REMARK INTER + INTRA:          -4.876
REMARK INTER:                  -4.397
REMARK INTRA:                  -0.479
REMARK UNBOUND:                -0.303
REMARK SMILES O=C([O-])CCCCCCCC(=O)[O-]
REMARK SMILES IDX 7 1 6 2 5 3 4 4 2 5 1 6 3 7 8 8 9 9 10 10 11 11 12 12 13 13
REMARK H PARENT
REMARK Flexibility Score: inf
ROOT
ATOM      1  C   UNL     1      -7.123  -4.060  -5.470  1.00  0.00     0.000 C 
ENDROOT
BRANCH   1   2
ATOM      2  C   UNL     1      -7.983  -2.834  -5.807  1.00  0.00     0.000 C 
BRANCH   2   3
ATOM      3  C   UNL     1      -7.452  -2.115  -7.055  1.00  0.00     0.006 C 
BRANCH   3   4
ATOM      4  C   UNL     1      -6.559  -3.023  -7.912  1.00  0.00     0.053 C 
BRANCH   4   5
ATOM      5  C   UNL     1      -6.269  -2.415  -9.250  1.00  0.00     0.041 C 
ATOM      6  O   UNL     1      -7.130  -1.695  -9.820  1.00  0.00    -0.550 OA
ATOM      7  O   UNL     1      -5.059  -2.672  -9.882  1.00  0.00    -0.550 OA
ENDBRANCH   4   5
ENDBRANCH   3   4
ENDBRANCH   2   3
ENDBRANCH   1   2
BRANCH   1   8
ATOM      8  C   UNL     1      -7.949  -5.352  -5.340  1.00  0.00     0.000 C 
BRANCH   8   9
ATOM      9  C   UNL     1      -7.573  -6.433  -6.374  1.00  0.00     0.006 C 
BRANCH   9  10
ATOM     10  C   UNL     1      -6.345  -7.245  -5.944  1.00  0.00     0.053 C 
BRANCH  10  11
ATOM     11  C   UNL     1      -5.153  -6.870  -6.768  1.00  0.00     0.041 C 
ATOM     12  O   UNL     1      -4.981  -7.383  -7.905  1.00  0.00    -0.550 OA
ATOM     13  O   UNL     1      -4.206  -5.990  -6.259  1.00  0.00    -0.550 OA
ENDBRANCH  10  11
ENDBRANCH   9  10
ENDBRANCH   8   9
ENDBRANCH   1   8
TORSDOF 8
ENDMDL
MODEL 7
REMARK VINA RESULT:    -3.034     14.113     15.291
REMARK INTER + INTRA:          -4.757
REMARK INTER:                  -4.068
REMARK INTRA:                  -0.688
REMARK UNBOUND:                -0.303
REMARK SMILES O=C([O-])CCCCCCCC(=O)[O-]
REMARK SMILES IDX 7 1 6 2 5 3 4 4 2 5 1 6 3 7 8 8 9 9 10 10 11 11 12 12 13 13
REMARK H PARENT
REMARK Flexibility Score: inf
ROOT
ATOM      1  C   UNL     1      -6.187  -5.104  -5.245  1.00  0.00     0.000 C 
ENDROOT
BRANCH   1   2
ATOM      2  C   UNL     1      -6.422  -6.607  -5.444  1.00  0.00     0.000 C 
BRANCH   2   3
ATOM      3  C   UNL     1      -5.614  -7.139  -6.636  1.00  0.00     0.006 C 
BRANCH   3   4
ATOM      4  C   UNL     1      -5.345  -6.052  -7.686  1.00  0.00     0.053 C 
BRANCH   4   5
ATOM      5  C   UNL     1      -6.111  -6.298  -8.949  1.00  0.00     0.041 C 
ATOM      6  O   UNL     1      -5.679  -7.116  -9.804  1.00  0.00    -0.550 OA
ATOM      7  O   UNL     1      -7.286  -5.600  -9.198  1.00  0.00    -0.550 OA
ENDBRANCH   4   5
ENDBRANCH   3   4
ENDBRANCH   2   3
ENDBRANCH   1   2
BRANCH   1   8
ATOM      8  C   UNL     1      -7.490  -4.321  -5.005  1.00  0.00     0.000 C 
BRANCH   8   9
ATOM      9  C   UNL     1      -8.069  -3.677  -6.282  1.00  0.00     0.006 C 
BRANCH   9  10
ATOM     10  C   UNL     1      -7.508  -2.269  -6.525  1.00  0.00     0.053 C 
BRANCH  10  11
ATOM     11  C   UNL     1      -7.056  -2.124  -7.945  1.00  0.00     0.041 C 
ATOM     12  O   UNL     1      -5.989  -2.671  -8.330  1.00  0.00    -0.550 OA
ATOM     13  O   UNL     1      -7.787  -1.341  -8.830  1.00  0.00    -0.550 OA
ENDBRANCH  10  11
ENDBRANCH   9  10
ENDBRANCH   8   9
ENDBRANCH   1   8
TORSDOF 8
ENDMDL
MODEL 8
REMARK VINA RESULT:    -2.961     13.383     15.320
REMARK INTER + INTRA:          -4.649
REMARK INTER:                  -4.114
REMARK INTRA:                  -0.536
REMARK UNBOUND:                -0.303
REMARK SMILES O=C([O-])CCCCCCCC(=O)[O-]
REMARK SMILES IDX 7 1 6 2 5 3 4 4 2 5 1 6 3 7 8 8 9 9 10 10 11 11 12 12 13 13
REMARK H PARENT
REMARK Flexibility Score: inf
ROOT
ATOM      1  C   UNL     1      -7.918  -2.910  -5.537  1.00  0.00     0.000 C 
ENDROOT
BRANCH   1   2
ATOM      2  C   UNL     1      -7.811  -1.903  -6.690  1.00  0.00     0.000 C 
BRANCH   2   3
ATOM      3  C   UNL     1      -7.797  -2.620  -8.048  1.00  0.00     0.006 C 
BRANCH   3   4
ATOM      4  C   UNL     1      -6.870  -1.931  -9.058  1.00  0.00     0.053 C 
BRANCH   4   5
ATOM      5  C   UNL     1      -5.676  -2.776  -9.382  1.00  0.00     0.041 C 
ATOM      6  O   UNL     1      -4.741  -2.311 -10.085  1.00  0.00    -0.550 OA
ATOM      7  O   UNL     1      -5.612  -4.090  -8.935  1.00  0.00    -0.550 OA
ENDBRANCH   4   5
ENDBRANCH   3   4
ENDBRANCH   2   3
ENDBRANCH   1   2
BRANCH   1   8
ATOM      8  C   UNL     1      -7.702  -4.364  -5.990  1.00  0.00     0.000 C 
BRANCH   8   9
ATOM      9  C   UNL     1      -6.450  -5.024  -5.377  1.00  0.00     0.006 C 
BRANCH   9  10
ATOM     10  C   UNL     1      -6.285  -6.482  -5.825  1.00  0.00     0.053 C 
BRANCH  10  11
ATOM     11  C   UNL     1      -5.053  -6.638  -6.660  1.00  0.00     0.041 C 
ATOM     12  O   UNL     1      -3.970  -6.108  -6.298  1.00  0.00    -0.550 OA
ATOM     13  O   UNL     1      -5.113  -7.328  -7.865  1.00  0.00    -0.550 OA
ENDBRANCH  10  11
ENDBRANCH   9  10
ENDBRANCH   8   9
ENDBRANCH   1   8
TORSDOF 8
ENDMDL
MODEL 9
REMARK VINA RESULT:    -2.900     14.297     15.686
REMARK INTER + INTRA:          -4.560
REMARK INTER:                  -3.681
REMARK INTRA:                  -0.878
REMARK UNBOUND:                -0.303
REMARK SMILES O=C([O-])CCCCCCCC(=O)[O-]
REMARK SMILES IDX 7 1 6 2 5 3 4 4 2 5 1 6 3 7 8 8 9 9 10 10 11 11 12 12 13 13
REMARK H PARENT
REMARK Flexibility Score: inf
ROOT
ATOM      1  C   UNL     1      -7.026  -2.437  -8.182  1.00  0.00     0.000 C 
ENDROOT
BRANCH   1   2
ATOM      2  C   UNL     1      -5.816  -3.286  -8.595  1.00  0.00     0.000 C 
BRANCH   2   3
ATOM      3  C   UNL     1      -6.188  -4.271  -9.711  1.00  0.00     0.006 C 
BRANCH   3   4
ATOM      4  C   UNL     1      -7.312  -5.228  -9.289  1.00  0.00     0.053 C 
BRANCH   4   5
ATOM      5  C   UNL     1      -6.859  -6.655  -9.295  1.00  0.00     0.041 C 
ATOM      6  O   UNL     1      -7.688  -7.584  -9.484  1.00  0.00    -0.550 OA
ATOM      7  O   UNL     1      -5.525  -6.962  -9.058  1.00  0.00    -0.550 OA
ENDBRANCH   4   5
ENDBRANCH   3   4
ENDBRANCH   2   3
ENDBRANCH   1   2
BRANCH   1   8
ATOM      8  C   UNL     1      -7.177  -2.312  -6.656  1.00  0.00     0.000 C 
BRANCH   8   9
ATOM      9  C   UNL     1      -7.868  -3.527  -6.002  1.00  0.00     0.006 C 
BRANCH   9  10
ATOM     10  C   UNL     1      -6.934  -4.277  -5.043  1.00  0.00     0.053 C 
BRANCH  10  11
ATOM     11  C   UNL     1      -6.518  -5.587  -5.635  1.00  0.00     0.041 C 
ATOM     12  O   UNL     1      -5.328  -5.766  -6.007  1.00  0.00    -0.550 OA
ATOM     13  O   UNL     1      -7.456  -6.595  -5.823  1.00  0.00    -0.550 OA
ENDBRANCH  10  11
ENDBRANCH   9  10
ENDBRANCH   8   9
ENDBRANCH   1   8
TORSDOF 8
ENDMDL
