MODEL 1
REMARK VINA RESULT:    -6.409      0.000      0.000
REMARK INTER + INTRA:          -8.044
REMARK INTER:                  -7.721
REMARK INTRA:                  -0.323
REMARK UNBOUND:                -0.323
REMARK SMILES O=c1c(O)c(-c2ccc(O)c(O)c2)oc2cc(O)cc(O)c12
REMARK SMILES IDX 5 1 3 2 2 3 1 4 22 5 20 6 19 7 17 8 16 9 15 10 14 11 6 12
REMARK SMILES IDX 7 13 8 14 9 15 13 16 11 17 10 18 12 20 4 22 21 24 18 26
REMARK H PARENT 10 19 12 21 4 23 21 25 18 27
REMARK Flexibility Score: inf
ROOT
ATOM      1  C   UNL     1      29.204 -22.207 -32.264  1.00  0.00     0.180 A 
ATOM      2  C   UNL     1      30.153 -21.618 -33.117  1.00  0.00     0.208 A 
ATOM      3  C   UNL     1      29.852 -21.487 -34.482  1.00  0.00     0.238 A 
ATOM      4  O   UNL     1      30.726 -21.009 -35.250  1.00  0.00    -0.285 OA
ATOM      5  C   UNL     1      28.601 -21.932 -34.974  1.00  0.00     0.111 A 
ATOM      6  C   UNL     1      28.175 -21.813 -36.331  1.00  0.00     0.134 A 
ATOM      7  C   UNL     1      26.970 -22.405 -36.731  1.00  0.00     0.093 A 
ATOM      8  C   UNL     1      26.147 -23.053 -35.813  1.00  0.00     0.123 A 
ATOM      9  C   UNL     1      26.525 -23.124 -34.471  1.00  0.00     0.094 A 
ATOM     10  C   UNL     1      27.738 -22.575 -34.049  1.00  0.00     0.146 A 
ATOM     11  O   UNL     1      28.066 -22.674 -32.766  1.00  0.00    -0.452 OA
ENDROOT
BRANCH   1  12
ATOM     12  C   UNL     1      29.437 -22.357 -30.809  1.00  0.00     0.025 A 
ATOM     13  C   UNL     1      30.037 -23.514 -30.280  1.00  0.00     0.016 A 
ATOM     14  C   UNL     1      30.269 -23.623 -28.905  1.00  0.00     0.051 A 
ATOM     15  C   UNL     1      29.919 -22.575 -28.045  1.00  0.00     0.157 A 
ATOM     16  C   UNL     1      29.107 -21.301 -29.943  1.00  0.00     0.062 A 
ATOM     17  C   UNL     1      29.340 -21.411 -28.565  1.00  0.00     0.158 A 
BRANCH  15  18
ATOM     18  O   UNL     1      30.148 -22.681 -26.674  1.00  0.00    -0.504 OA
ATOM     19  H   UNL     1      30.024 -23.558 -26.181  1.00  0.00     0.293 HD
ENDBRANCH  15  18
BRANCH  17  20
ATOM     20  O   UNL     1      29.000 -20.366 -27.706  1.00  0.00    -0.504 OA
ATOM     21  H   UNL     1      29.457 -20.247 -26.810  1.00  0.00     0.293 HD
ENDBRANCH  17  20
ENDBRANCH   1  12
BRANCH   2  22
ATOM     22  O   UNL     1      31.390 -21.206 -32.615  1.00  0.00    -0.502 OA
ATOM     23  H   UNL     1      31.475 -20.602 -31.807  1.00  0.00     0.293 HD
ENDBRANCH   2  22
BRANCH   6  24
ATOM     24  O   UNL     1      28.878 -21.105 -37.310  1.00  0.00    -0.507 OA
ATOM     25  H   UNL     1      29.856 -21.233 -37.520  1.00  0.00     0.293 HD
ENDBRANCH   6  24
BRANCH   8  26
ATOM     26  O   UNL     1      24.948 -23.618 -36.243  1.00  0.00    -0.508 OA
ATOM     27  H   UNL     1      24.583 -24.468 -35.830  1.00  0.00     0.293 HD
ENDBRANCH   8  26
TORSDOF 6
ENDMDL
MODEL 2
REMARK VINA RESULT:    -6.366      1.496      6.899
REMARK INTER + INTRA:          -7.991
REMARK INTER:                  -7.800
REMARK INTRA:                  -0.191
REMARK UNBOUND:                -0.323
REMARK SMILES O=c1c(O)c(-c2ccc(O)c(O)c2)oc2cc(O)cc(O)c12
REMARK SMILES IDX 5 1 3 2 2 3 1 4 22 5 20 6 19 7 17 8 16 9 15 10 14 11 6 12
REMARK SMILES IDX 7 13 8 14 9 15 13 16 11 17 10 18 12 20 4 22 21 24 18 26
REMARK H PARENT 10 19 12 21 4 23 21 25 18 27
REMARK Flexibility Score: inf
ROOT
ATOM      1  C   UNL     1      29.107 -22.653 -32.827  1.00  0.00     0.180 A 
ATOM      2  C   UNL     1      30.240 -23.483 -32.760  1.00  0.00     0.208 A 
ATOM      3  C   UNL     1      30.945 -23.577 -31.550  1.00  0.00     0.238 A 
ATOM      4  O   UNL     1      31.988 -24.278 -31.512  1.00  0.00    -0.285 OA
ATOM      5  C   UNL     1      30.499 -22.854 -30.417  1.00  0.00     0.111 A 
ATOM      6  C   UNL     1      31.113 -22.906 -29.130  1.00  0.00     0.134 A 
ATOM      7  C   UNL     1      30.667 -22.048 -28.116  1.00  0.00     0.093 A 
ATOM      8  C   UNL     1      29.589 -21.189 -28.323  1.00  0.00     0.123 A 
ATOM      9  C   UNL     1      28.943 -21.173 -29.560  1.00  0.00     0.094 A 
ATOM     10  C   UNL     1      29.388 -21.991 -30.602  1.00  0.00     0.146 A 
ATOM     11  O   UNL     1      28.753 -21.937 -31.766  1.00  0.00    -0.452 OA
ENDROOT
BRANCH   1  12
ATOM     12  C   UNL     1      28.298 -22.522 -34.060  1.00  0.00     0.025 A 
ATOM     13  C   UNL     1      26.976 -22.997 -34.121  1.00  0.00     0.016 A 
ATOM     14  C   UNL     1      26.222 -22.840 -35.288  1.00  0.00     0.051 A 
ATOM     15  C   UNL     1      26.774 -22.197 -36.404  1.00  0.00     0.157 A 
ATOM     16  C   UNL     1      28.838 -21.859 -35.174  1.00  0.00     0.062 A 
ATOM     17  C   UNL     1      28.083 -21.702 -36.345  1.00  0.00     0.158 A 
BRANCH  15  18
ATOM     18  O   UNL     1      26.026 -22.040 -37.569  1.00  0.00    -0.504 OA
ATOM     19  H   UNL     1      25.279 -22.682 -37.811  1.00  0.00     0.293 HD
ENDBRANCH  15  18
BRANCH  17  20
ATOM     20  O   UNL     1      28.626 -21.055 -37.455  1.00  0.00    -0.504 OA
ATOM     21  H   UNL     1      29.023 -21.574 -38.229  1.00  0.00     0.293 HD
ENDBRANCH  17  20
ENDBRANCH   1  12
BRANCH   2  22
ATOM     22  O   UNL     1      30.675 -24.171 -33.896  1.00  0.00    -0.502 OA
ATOM     23  H   UNL     1      30.033 -24.575 -34.566  1.00  0.00     0.293 HD
ENDBRANCH   2  22
BRANCH   6  24
ATOM     24  O   UNL     1      32.138 -23.794 -28.789  1.00  0.00    -0.507 OA
ATOM     25  H   UNL     1      32.119 -24.416 -27.996  1.00  0.00     0.293 HD
ENDBRANCH   6  24
BRANCH   8  26
ATOM     26  O   UNL     1      29.162 -20.361 -27.288  1.00  0.00    -0.508 OA
ATOM     27  H   UNL     1      29.794 -19.717 -26.828  1.00  0.00     0.293 HD
ENDBRANCH   8  26
TORSDOF 6
ENDMDL
MODEL 3
REMARK VINA RESULT:    -6.334      1.518      2.763
REMARK INTER + INTRA:          -7.953
REMARK INTER:                  -7.631
REMARK INTRA:                  -0.322
REMARK UNBOUND:                -0.323
REMARK SMILES O=c1c(O)c(-c2ccc(O)c(O)c2)oc2cc(O)cc(O)c12
REMARK SMILES IDX 5 1 3 2 2 3 1 4 22 5 20 6 19 7 17 8 16 9 15 10 14 11 6 12
REMARK SMILES IDX 7 13 8 14 9 15 13 16 11 17 10 18 12 20 4 22 21 24 18 26
REMARK H PARENT 10 19 12 21 4 23 21 25 18 27
REMARK Flexibility Score: inf
ROOT
ATOM      1  C   UNL     1      29.264 -22.760 -32.580  1.00  0.00     0.180 A 
ATOM      2  C   UNL     1      28.495 -23.884 -32.926  1.00  0.00     0.208 A 
ATOM      3  C   UNL     1      28.078 -24.040 -34.258  1.00  0.00     0.238 A 
ATOM      4  O   UNL     1      27.345 -25.019 -34.550  1.00  0.00    -0.285 OA
ATOM      5  C   UNL     1      28.449 -23.079 -35.229  1.00  0.00     0.111 A 
ATOM      6  C   UNL     1      28.115 -23.157 -36.615  1.00  0.00     0.134 A 
ATOM      7  C   UNL     1      28.422 -22.084 -37.461  1.00  0.00     0.093 A 
ATOM      8  C   UNL     1      29.107 -20.966 -36.987  1.00  0.00     0.123 A 
ATOM      9  C   UNL     1      29.491 -20.906 -35.646  1.00  0.00     0.094 A 
ATOM     10  C   UNL     1      29.167 -21.944 -34.770  1.00  0.00     0.146 A 
ATOM     11  O   UNL     1      29.540 -21.842 -33.500  1.00  0.00    -0.452 OA
ENDROOT
BRANCH   1  12
ATOM     12  C   UNL     1      29.763 -22.539 -31.203  1.00  0.00     0.025 A 
ATOM     13  C   UNL     1      30.935 -23.162 -30.741  1.00  0.00     0.016 A 
ATOM     14  C   UNL     1      31.400 -22.921 -29.444  1.00  0.00     0.051 A 
ATOM     15  C   UNL     1      30.708 -22.044 -28.599  1.00  0.00     0.157 A 
ATOM     16  C   UNL     1      29.085 -21.645 -30.357  1.00  0.00     0.062 A 
ATOM     17  C   UNL     1      29.551 -21.402 -29.057  1.00  0.00     0.158 A 
BRANCH  15  18
ATOM     18  O   UNL     1      31.168 -21.802 -27.306  1.00  0.00    -0.504 OA
ATOM     19  H   UNL     1      31.135 -22.517 -26.588  1.00  0.00     0.293 HD
ENDBRANCH  15  18
BRANCH  17  20
ATOM     20  O   UNL     1      28.869 -20.524 -28.215  1.00  0.00    -0.504 OA
ATOM     21  H   UNL     1      29.302 -20.148 -27.380  1.00  0.00     0.293 HD
ENDBRANCH  17  20
ENDBRANCH   1  12
BRANCH   2  22
ATOM     22  O   UNL     1      28.122 -24.809 -31.947  1.00  0.00    -0.502 OA
ATOM     23  H   UNL     1      28.712 -25.030 -31.155  1.00  0.00     0.293 HD
ENDBRANCH   2  22
BRANCH   6  24
ATOM     24  O   UNL     1      27.512 -24.269 -37.210  1.00  0.00    -0.507 OA
ATOM     25  H   UNL     1      27.648 -24.551 -38.169  1.00  0.00     0.293 HD
ENDBRANCH   6  24
BRANCH   8  26
ATOM     26  O   UNL     1      29.410 -19.924 -37.860  1.00  0.00    -0.508 OA
ATOM     27  H   UNL     1      29.988 -19.143 -37.574  1.00  0.00     0.293 HD
ENDBRANCH   8  26
TORSDOF 6
ENDMDL
MODEL 4
REMARK VINA RESULT:    -6.048      1.937      6.874
REMARK INTER + INTRA:          -7.608
REMARK INTER:                  -7.432
REMARK INTRA:                  -0.176
REMARK UNBOUND:                -0.323
REMARK SMILES O=c1c(O)c(-c2ccc(O)c(O)c2)oc2cc(O)cc(O)c12
REMARK SMILES IDX 5 1 3 2 2 3 1 4 22 5 20 6 19 7 17 8 16 9 15 10 14 11 6 12
REMARK SMILES IDX 7 13 8 14 9 15 13 16 11 17 10 18 12 20 4 22 21 24 18 26
REMARK H PARENT 10 19 12 21 4 23 21 25 18 27
REMARK Flexibility Score: inf
ROOT
ATOM      1  C   UNL     1      28.424 -22.320 -31.591  1.00  0.00     0.180 A 
ATOM      2  C   UNL     1      28.774 -21.286 -30.707  1.00  0.00     0.208 A 
ATOM      3  C   UNL     1      28.882 -21.569 -29.336  1.00  0.00     0.238 A 
ATOM      4  O   UNL     1      29.142 -20.628 -28.543  1.00  0.00    -0.285 OA
ATOM      5  C   UNL     1      28.653 -22.886 -28.869  1.00  0.00     0.111 A 
ATOM      6  C   UNL     1      28.772 -23.295 -27.507  1.00  0.00     0.134 A 
ATOM      7  C   UNL     1      28.395 -24.592 -27.139  1.00  0.00     0.093 A 
ATOM      8  C   UNL     1      27.966 -25.515 -28.092  1.00  0.00     0.123 A 
ATOM      9  C   UNL     1      27.902 -25.143 -29.436  1.00  0.00     0.094 A 
ATOM     10  C   UNL     1      28.237 -23.845 -29.829  1.00  0.00     0.146 A 
ATOM     11  O   UNL     1      28.152 -23.530 -31.115  1.00  0.00    -0.452 OA
ENDROOT
BRANCH   1  12
ATOM     12  C   UNL     1      28.316 -22.105 -33.053  1.00  0.00     0.025 A 
ATOM     13  C   UNL     1      29.432 -21.728 -33.821  1.00  0.00     0.016 A 
ATOM     14  C   UNL     1      29.312 -21.553 -35.203  1.00  0.00     0.051 A 
ATOM     15  C   UNL     1      28.081 -21.767 -35.837  1.00  0.00     0.157 A 
ATOM     16  C   UNL     1      27.090 -22.338 -33.698  1.00  0.00     0.062 A 
ATOM     17  C   UNL     1      26.969 -22.163 -35.084  1.00  0.00     0.158 A 
BRANCH  15  18
ATOM     18  O   UNL     1      27.958 -21.593 -37.214  1.00  0.00    -0.504 OA
ATOM     19  H   UNL     1      27.848 -22.382 -37.841  1.00  0.00     0.293 HD
ENDBRANCH  15  18
BRANCH  17  20
ATOM     20  O   UNL     1      25.747 -22.382 -35.719  1.00  0.00    -0.504 OA
ATOM     21  H   UNL     1      25.250 -23.259 -35.623  1.00  0.00     0.293 HD
ENDBRANCH  17  20
ENDBRANCH   1  12
BRANCH   2  22
ATOM     22  O   UNL     1      28.975 -19.988 -31.186  1.00  0.00    -0.502 OA
ATOM     23  H   UNL     1      29.203 -19.213 -30.577  1.00  0.00     0.293 HD
ENDBRANCH   2  22
BRANCH   6  24
ATOM     24  O   UNL     1      29.278 -22.480 -26.489  1.00  0.00    -0.507 OA
ATOM     25  H   UNL     1      28.821 -21.654 -26.134  1.00  0.00     0.293 HD
ENDBRANCH   6  24
BRANCH   8  26
ATOM     26  O   UNL     1      27.614 -26.802 -27.694  1.00  0.00    -0.508 OA
ATOM     27  H   UNL     1      27.767 -27.125 -26.745  1.00  0.00     0.293 HD
ENDBRANCH   8  26
TORSDOF 6
ENDMDL
MODEL 5
REMARK VINA RESULT:    -6.027      1.732      7.127
REMARK INTER + INTRA:          -7.584
REMARK INTER:                  -7.514
REMARK INTRA:                  -0.070
REMARK UNBOUND:                -0.323
REMARK SMILES O=c1c(O)c(-c2ccc(O)c(O)c2)oc2cc(O)cc(O)c12
REMARK SMILES IDX 5 1 3 2 2 3 1 4 22 5 20 6 19 7 17 8 16 9 15 10 14 11 6 12
REMARK SMILES IDX 7 13 8 14 9 15 13 16 11 17 10 18 12 20 4 22 21 24 18 26
REMARK H PARENT 10 19 12 21 4 23 21 25 18 27
REMARK Flexibility Score: inf
ROOT
ATOM      1  C   UNL     1      28.550 -22.633 -32.466  1.00  0.00     0.180 A 
ATOM      2  C   UNL     1      28.093 -23.924 -32.148  1.00  0.00     0.208 A 
ATOM      3  C   UNL     1      27.986 -24.294 -30.798  1.00  0.00     0.238 A 
ATOM      4  O   UNL     1      27.629 -25.468 -30.521  1.00  0.00    -0.285 OA
ATOM      5  C   UNL     1      28.321 -23.365 -29.784  1.00  0.00     0.111 A 
ATOM      6  C   UNL     1      28.212 -23.620 -28.384  1.00  0.00     0.134 A 
ATOM      7  C   UNL     1      28.695 -22.674 -27.470  1.00  0.00     0.093 A 
ATOM      8  C   UNL     1      29.221 -21.458 -27.903  1.00  0.00     0.123 A 
ATOM      9  C   UNL     1      29.277 -21.174 -29.268  1.00  0.00     0.094 A 
ATOM     10  C   UNL     1      28.837 -22.112 -30.205  1.00  0.00     0.146 A 
ATOM     11  O   UNL     1      28.919 -21.807 -31.494  1.00  0.00    -0.452 OA
ENDROOT
BRANCH   1  12
ATOM     12  C   UNL     1      28.666 -22.161 -33.866  1.00  0.00     0.025 A 
ATOM     13  C   UNL     1      29.897 -21.732 -34.393  1.00  0.00     0.016 A 
ATOM     14  C   UNL     1      29.987 -21.312 -35.724  1.00  0.00     0.051 A 
ATOM     15  C   UNL     1      28.854 -21.329 -36.547  1.00  0.00     0.157 A 
ATOM     16  C   UNL     1      27.538 -22.195 -34.702  1.00  0.00     0.062 A 
ATOM     17  C   UNL     1      27.628 -21.774 -36.037  1.00  0.00     0.158 A 
BRANCH  15  18
ATOM     18  O   UNL     1      28.940 -20.910 -37.874  1.00  0.00    -0.504 OA
ATOM     19  H   UNL     1      28.170 -20.436 -38.332  1.00  0.00     0.293 HD
ENDBRANCH  15  18
BRANCH  17  20
ATOM     20  O   UNL     1      26.504 -21.796 -36.862  1.00  0.00    -0.504 OA
ATOM     21  H   UNL     1      26.190 -22.650 -37.305  1.00  0.00     0.293 HD
ENDBRANCH  17  20
ENDBRANCH   1  12
BRANCH   2  22
ATOM     22  O   UNL     1      27.789 -24.833 -33.165  1.00  0.00    -0.502 OA
ATOM     23  H   UNL     1      27.407 -24.543 -34.057  1.00  0.00     0.293 HD
ENDBRANCH   2  22
BRANCH   6  24
ATOM     24  O   UNL     1      27.618 -24.764 -27.843  1.00  0.00    -0.507 OA
ATOM     25  H   UNL     1      28.102 -25.459 -27.297  1.00  0.00     0.293 HD
ENDBRANCH   6  24
BRANCH   8  26
ATOM     26  O   UNL     1      29.678 -20.534 -26.966  1.00  0.00    -0.508 OA
ATOM     27  H   UNL     1      29.605 -20.708 -25.970  1.00  0.00     0.293 HD
ENDBRANCH   8  26
TORSDOF 6
ENDMDL
MODEL 6
REMARK VINA RESULT:    -5.892      1.434      1.966
REMARK INTER + INTRA:          -7.421
REMARK INTER:                  -7.102
REMARK INTRA:                  -0.318
REMARK UNBOUND:                -0.323
REMARK SMILES O=c1c(O)c(-c2ccc(O)c(O)c2)oc2cc(O)cc(O)c12
REMARK SMILES IDX 5 1 3 2 2 3 1 4 22 5 20 6 19 7 17 8 16 9 15 10 14 11 6 12
REMARK SMILES IDX 7 13 8 14 9 15 13 16 11 17 10 18 12 20 4 22 21 24 18 26
REMARK H PARENT 10 19 12 21 4 23 21 25 18 27
REMARK Flexibility Score: inf
ROOT
ATOM      1  C   UNL     1      28.459 -22.774 -33.139  1.00  0.00     0.180 A 
ATOM      2  C   UNL     1      28.815 -22.026 -34.275  1.00  0.00     0.208 A 
ATOM      3  C   UNL     1      28.076 -22.192 -35.457  1.00  0.00     0.238 A 
ATOM      4  O   UNL     1      28.433 -21.561 -36.485  1.00  0.00    -0.285 OA
ATOM      5  C   UNL     1      26.983 -23.091 -35.484  1.00  0.00     0.111 A 
ATOM      6  C   UNL     1      26.141 -23.308 -36.616  1.00  0.00     0.134 A 
ATOM      7  C   UNL     1      25.169 -24.316 -36.571  1.00  0.00     0.093 A 
ATOM      8  C   UNL     1      24.966 -25.069 -35.416  1.00  0.00     0.123 A 
ATOM      9  C   UNL     1      25.744 -24.824 -34.283  1.00  0.00     0.094 A 
ATOM     10  C   UNL     1      26.745 -23.850 -34.310  1.00  0.00     0.146 A 
ATOM     11  O   UNL     1      27.470 -23.657 -33.215  1.00  0.00    -0.452 OA
ENDROOT
BRANCH   1  12
ATOM     12  C   UNL     1      29.174 -22.636 -31.848  1.00  0.00     0.025 A 
ATOM     13  C   UNL     1      30.344 -23.367 -31.578  1.00  0.00     0.016 A 
ATOM     14  C   UNL     1      31.015 -23.203 -30.363  1.00  0.00     0.051 A 
ATOM     15  C   UNL     1      30.534 -22.297 -29.408  1.00  0.00     0.157 A 
ATOM     16  C   UNL     1      28.709 -21.714 -30.896  1.00  0.00     0.062 A 
ATOM     17  C   UNL     1      29.381 -21.549 -29.677  1.00  0.00     0.158 A 
BRANCH  15  18
ATOM     18  O   UNL     1      31.200 -22.131 -28.195  1.00  0.00    -0.504 OA
ATOM     19  H   UNL     1      31.020 -22.739 -27.404  1.00  0.00     0.293 HD
ENDBRANCH  15  18
BRANCH  17  20
ATOM     20  O   UNL     1      28.910 -20.643 -28.727  1.00  0.00    -0.504 OA
ATOM     21  H   UNL     1      28.170 -19.985 -28.944  1.00  0.00     0.293 HD
ENDBRANCH  17  20
ENDBRANCH   1  12
BRANCH   2  22
ATOM     22  O   UNL     1      29.911 -21.161 -34.232  1.00  0.00    -0.502 OA
ATOM     23  H   UNL     1      30.626 -21.153 -34.950  1.00  0.00     0.293 HD
ENDBRANCH   2  22
BRANCH   6  24
ATOM     24  O   UNL     1      26.198 -22.549 -37.789  1.00  0.00    -0.507 OA
ATOM     25  H   UNL     1      25.403 -22.115 -38.232  1.00  0.00     0.293 HD
ENDBRANCH   6  24
BRANCH   8  26
ATOM     26  O   UNL     1      23.981 -26.053 -35.402  1.00  0.00    -0.508 OA
ATOM     27  H   UNL     1      23.349 -26.161 -34.616  1.00  0.00     0.293 HD
ENDBRANCH   8  26
TORSDOF 6
ENDMDL
MODEL 7
REMARK VINA RESULT:    -5.863      3.665      7.265
REMARK INTER + INTRA:          -7.386
REMARK INTER:                  -7.275
REMARK INTRA:                  -0.111
REMARK UNBOUND:                -0.323
REMARK SMILES O=c1c(O)c(-c2ccc(O)c(O)c2)oc2cc(O)cc(O)c12
REMARK SMILES IDX 5 1 3 2 2 3 1 4 22 5 20 6 19 7 17 8 16 9 15 10 14 11 6 12
REMARK SMILES IDX 7 13 8 14 9 15 13 16 11 17 10 18 12 20 4 22 21 24 18 26
REMARK H PARENT 10 19 12 21 4 23 21 25 18 27
REMARK Flexibility Score: inf
ROOT
ATOM      1  C   UNL     1      26.844 -24.815 -35.762  1.00  0.00     0.180 A 
ATOM      2  C   UNL     1      27.567 -24.966 -34.566  1.00  0.00     0.208 A 
ATOM      3  C   UNL     1      28.535 -24.005 -34.230  1.00  0.00     0.238 A 
ATOM      4  O   UNL     1      29.216 -24.175 -33.186  1.00  0.00    -0.285 OA
ATOM      5  C   UNL     1      28.755 -22.899 -35.085  1.00  0.00     0.111 A 
ATOM      6  C   UNL     1      29.683 -21.846 -34.824  1.00  0.00     0.134 A 
ATOM      7  C   UNL     1      29.913 -20.870 -35.801  1.00  0.00     0.093 A 
ATOM      8  C   UNL     1      29.204 -20.871 -37.002  1.00  0.00     0.123 A 
ATOM      9  C   UNL     1      28.252 -21.863 -37.243  1.00  0.00     0.094 A 
ATOM     10  C   UNL     1      28.026 -22.871 -36.302  1.00  0.00     0.146 A 
ATOM     11  O   UNL     1      27.120 -23.802 -36.575  1.00  0.00    -0.452 OA
ENDROOT
BRANCH   1  12
ATOM     12  C   UNL     1      25.790 -25.772 -36.172  1.00  0.00     0.025 A 
ATOM     13  C   UNL     1      26.079 -27.132 -36.383  1.00  0.00     0.016 A 
ATOM     14  C   UNL     1      25.064 -28.021 -36.747  1.00  0.00     0.051 A 
ATOM     15  C   UNL     1      23.746 -27.568 -36.892  1.00  0.00     0.157 A 
ATOM     16  C   UNL     1      24.464 -25.327 -36.299  1.00  0.00     0.062 A 
ATOM     17  C   UNL     1      23.445 -26.219 -36.664  1.00  0.00     0.158 A 
BRANCH  15  18
ATOM     18  O   UNL     1      22.732 -28.451 -37.255  1.00  0.00    -0.504 OA
ATOM     19  H   UNL     1      22.852 -29.455 -37.184  1.00  0.00     0.293 HD
ENDBRANCH  15  18
BRANCH  17  20
ATOM     20  O   UNL     1      22.131 -25.772 -36.802  1.00  0.00    -0.504 OA
ATOM     21  H   UNL     1      21.739 -25.080 -36.175  1.00  0.00     0.293 HD
ENDBRANCH  17  20
ENDBRANCH   1  12
BRANCH   2  22
ATOM     22  O   UNL     1      27.348 -26.077 -33.748  1.00  0.00    -0.502 OA
ATOM     23  H   UNL     1      26.421 -26.369 -33.463  1.00  0.00     0.293 HD
ENDBRANCH   2  22
BRANCH   6  24
ATOM     24  O   UNL     1      30.376 -21.698 -33.619  1.00  0.00    -0.507 OA
ATOM     25  H   UNL     1      30.185 -20.987 -32.929  1.00  0.00     0.293 HD
ENDBRANCH   6  24
BRANCH   8  26
ATOM     26  O   UNL     1      29.448 -19.877 -37.945  1.00  0.00    -0.508 OA
ATOM     27  H   UNL     1      30.295 -19.869 -38.502  1.00  0.00     0.293 HD
ENDBRANCH   8  26
TORSDOF 6
ENDMDL
MODEL 8
REMARK VINA RESULT:    -5.829      2.124      3.544
REMARK INTER + INTRA:          -7.345
REMARK INTER:                  -7.020
REMARK INTRA:                  -0.324
REMARK UNBOUND:                -0.323
REMARK SMILES O=c1c(O)c(-c2ccc(O)c(O)c2)oc2cc(O)cc(O)c12
REMARK SMILES IDX 5 1 3 2 2 3 1 4 22 5 20 6 19 7 17 8 16 9 15 10 14 11 6 12
REMARK SMILES IDX 7 13 8 14 9 15 13 16 11 17 10 18 12 20 4 22 21 24 18 26
REMARK H PARENT 10 19 12 21 4 23 21 25 18 27
REMARK Flexibility Score: inf
ROOT
ATOM      1  C   UNL     1      29.378 -22.204 -29.236  1.00  0.00     0.180 A 
ATOM      2  C   UNL     1      30.651 -22.532 -29.732  1.00  0.00     0.208 A 
ATOM      3  C   UNL     1      30.826 -22.675 -31.118  1.00  0.00     0.238 A 
ATOM      4  O   UNL     1      31.954 -23.022 -31.552  1.00  0.00    -0.285 OA
ATOM      5  C   UNL     1      29.729 -22.473 -31.990  1.00  0.00     0.111 A 
ATOM      6  C   UNL     1      29.801 -22.553 -33.414  1.00  0.00     0.134 A 
ATOM      7  C   UNL     1      28.626 -22.464 -34.171  1.00  0.00     0.093 A 
ATOM      8  C   UNL     1      27.393 -22.233 -33.562  1.00  0.00     0.123 A 
ATOM      9  C   UNL     1      27.320 -22.093 -32.175  1.00  0.00     0.094 A 
ATOM     10  C   UNL     1      28.470 -22.213 -31.391  1.00  0.00     0.146 A 
ATOM     11  O   UNL     1      28.355 -22.085 -30.075  1.00  0.00    -0.452 OA
ENDROOT
BRANCH   1  12
ATOM     12  C   UNL     1      29.121 -22.011 -27.790  1.00  0.00     0.025 A 
ATOM     13  C   UNL     1      29.182 -20.736 -27.200  1.00  0.00     0.016 A 
ATOM     14  C   UNL     1      28.912 -20.574 -25.838  1.00  0.00     0.051 A 
ATOM     15  C   UNL     1      28.566 -21.680 -25.051  1.00  0.00     0.157 A 
ATOM     16  C   UNL     1      28.753 -23.113 -27.000  1.00  0.00     0.062 A 
ATOM     17  C   UNL     1      28.483 -22.951 -25.634  1.00  0.00     0.158 A 
BRANCH  15  18
ATOM     18  O   UNL     1      28.298 -21.523 -23.692  1.00  0.00    -0.504 OA
ATOM     19  H   UNL     1      27.480 -21.019 -23.367  1.00  0.00     0.293 HD
ENDBRANCH  15  18
BRANCH  17  20
ATOM     20  O   UNL     1      28.130 -24.048 -24.849  1.00  0.00    -0.504 OA
ATOM     21  H   UNL     1      28.614 -24.258 -23.984  1.00  0.00     0.293 HD
ENDBRANCH  17  20
ENDBRANCH   1  12
BRANCH   2  22
ATOM     22  O   UNL     1      31.715 -22.748 -28.852  1.00  0.00    -0.502 OA
ATOM     23  H   UNL     1      31.949 -23.667 -28.497  1.00  0.00     0.293 HD
ENDBRANCH   2  22
BRANCH   6  24
ATOM     24  O   UNL     1      30.995 -22.691 -34.128  1.00  0.00    -0.507 OA
ATOM     25  H   UNL     1      31.782 -22.065 -34.057  1.00  0.00     0.293 HD
ENDBRANCH   6  24
BRANCH   8  26
ATOM     26  O   UNL     1      26.247 -22.134 -34.347  1.00  0.00    -0.508 OA
ATOM     27  H   UNL     1      25.345 -21.907 -33.944  1.00  0.00     0.293 HD
ENDBRANCH   8  26
TORSDOF 6
ENDMDL
MODEL 9
REMARK VINA RESULT:    -5.789      1.504      3.048
REMARK INTER + INTRA:          -7.297
REMARK INTER:                  -7.032
REMARK INTRA:                  -0.265
REMARK UNBOUND:                -0.323
REMARK SMILES O=c1c(O)c(-c2ccc(O)c(O)c2)oc2cc(O)cc(O)c12
REMARK SMILES IDX 5 1 3 2 2 3 1 4 22 5 20 6 19 7 17 8 16 9 15 10 14 11 6 12
REMARK SMILES IDX 7 13 8 14 9 15 13 16 11 17 10 18 12 20 4 22 21 24 18 26
REMARK H PARENT 10 19 12 21 4 23 21 25 18 27
REMARK Flexibility Score: inf
ROOT
ATOM      1  C   UNL     1      28.997 -22.400 -30.962  1.00  0.00     0.180 A 
ATOM      2  C   UNL     1      27.748 -23.044 -31.003  1.00  0.00     0.208 A 
ATOM      3  C   UNL     1      27.082 -23.158 -32.234  1.00  0.00     0.238 A 
ATOM      4  O   UNL     1      25.941 -23.687 -32.255  1.00  0.00    -0.285 OA
ATOM      5  C   UNL     1      27.680 -22.643 -33.409  1.00  0.00     0.111 A 
ATOM      6  C   UNL     1      27.112 -22.738 -34.715  1.00  0.00     0.134 A 
ATOM      7  C   UNL     1      27.728 -22.077 -35.786  1.00  0.00     0.093 A 
ATOM      8  C   UNL     1      28.923 -21.381 -35.611  1.00  0.00     0.123 A 
ATOM      9  C   UNL     1      29.518 -21.332 -34.349  1.00  0.00     0.094 A 
ATOM     10  C   UNL     1      28.908 -21.950 -33.255  1.00  0.00     0.146 A 
ATOM     11  O   UNL     1      29.501 -21.869 -32.070  1.00  0.00    -0.452 OA
ENDROOT
BRANCH   1  12
ATOM     12  C   UNL     1      29.772 -22.263 -29.707  1.00  0.00     0.025 A 
ATOM     13  C   UNL     1      30.912 -23.049 -29.462  1.00  0.00     0.016 A 
ATOM     14  C   UNL     1      31.642 -22.885 -28.281  1.00  0.00     0.051 A 
ATOM     15  C   UNL     1      31.251 -21.927 -27.336  1.00  0.00     0.157 A 
ATOM     16  C   UNL     1      29.398 -21.290 -28.766  1.00  0.00     0.062 A 
ATOM     17  C   UNL     1      30.129 -21.126 -27.581  1.00  0.00     0.158 A 
BRANCH  15  18
ATOM     18  O   UNL     1      31.976 -21.763 -26.157  1.00  0.00    -0.504 OA
ATOM     19  H   UNL     1      32.420 -22.547 -25.693  1.00  0.00     0.293 HD
ENDBRANCH  15  18
BRANCH  17  20
ATOM     20  O   UNL     1      29.747 -20.168 -26.642  1.00  0.00    -0.504 OA
ATOM     21  H   UNL     1      29.108 -20.391 -25.888  1.00  0.00     0.293 HD
ENDBRANCH  17  20
ENDBRANCH   1  12
BRANCH   2  22
ATOM     22  O   UNL     1      27.167 -23.527 -29.828  1.00  0.00    -0.502 OA
ATOM     23  H   UNL     1      27.362 -23.125 -28.919  1.00  0.00     0.293 HD
ENDBRANCH   2  22
BRANCH   6  24
ATOM     24  O   UNL     1      25.970 -23.486 -35.017  1.00  0.00    -0.507 OA
ATOM     25  H   UNL     1      25.872 -24.476 -34.853  1.00  0.00     0.293 HD
ENDBRANCH   6  24
BRANCH   8  26
ATOM     26  O   UNL     1      29.516 -20.749 -36.701  1.00  0.00    -0.508 OA
ATOM     27  H   UNL     1      29.703 -19.753 -36.700  1.00  0.00     0.293 HD
ENDBRANCH   8  26
TORSDOF 6
ENDMDL
