MODEL 1
REMARK VINA RESULT:    -5.041      0.000      0.000
REMARK INTER + INTRA:         -11.965
REMARK INTER:                  -9.755
REMARK INTRA:                  -2.209
REMARK UNBOUND:                -2.209
REMARK SMILES CCCCCCCCCCCCCCCCCC(=O)[O-]
REMARK SMILES IDX 10 1 11 2 12 3 13 4 14 5 15 6 16 7 17 8 18 9 19 10 20 11
REMARK SMILES IDX 9 12 8 13 7 14 6 15 5 16 4 17 3 18 2 19 1 20
REMARK H PARENT
REMARK Flexibility Score: inf
ROOT
ATOM      1  C   UNL     1      17.403 -45.298 -22.312  1.00  0.00     0.000 C 
ENDROOT
BRANCH   1   2
ATOM      2  C   UNL     1      17.951 -44.191 -21.398  1.00  0.00     0.000 C 
BRANCH   2   3
ATOM      3  C   UNL     1      19.446 -43.913 -21.636  1.00  0.00     0.000 C 
BRANCH   3   4
ATOM      4  C   UNL     1      19.699 -42.512 -22.215  1.00  0.00     0.000 C 
BRANCH   4   5
ATOM      5  C   UNL     1      19.906 -42.532 -23.739  1.00  0.00     0.000 C 
BRANCH   5   6
ATOM      6  C   UNL     1      18.874 -41.672 -24.486  1.00  0.00     0.000 C 
BRANCH   6   7
ATOM      7  C   UNL     1      17.694 -41.256 -23.591  1.00  0.00     0.006 C 
BRANCH   7   8
ATOM      8  C   UNL     1      16.377 -41.913 -24.026  1.00  0.00     0.053 C 
BRANCH   8   9
ATOM      9  C   UNL     1      15.374 -41.937 -22.915  1.00  0.00     0.041 C 
ATOM     10  O   UNL     1      14.203 -42.348 -23.126  1.00  0.00    -0.550 OA
ATOM     11  O   UNL     1      15.743 -41.536 -21.636  1.00  0.00    -0.550 OA
ENDBRANCH   8   9
ENDBRANCH   7   8
ENDBRANCH   6   7
ENDBRANCH   5   6
ENDBRANCH   4   5
ENDBRANCH   3   4
ENDBRANCH   2   3
ENDBRANCH   1   2
BRANCH   1  12
ATOM     12  C   UNL     1      18.500 -46.252 -22.806  1.00  0.00     0.000 C 
BRANCH  12  13
ATOM     13  C   UNL     1      18.535 -46.301 -24.341  1.00  0.00    -0.000 C 
BRANCH  13  14
ATOM     14  C   UNL     1      17.681 -45.198 -24.986  1.00  0.00    -0.000 C 
BRANCH  14  15
ATOM     15  C   UNL     1      18.172 -44.815 -26.393  1.00  0.00    -0.000 C 
BRANCH  15  16
ATOM     16  C   UNL     1      18.036 -45.965 -27.408  1.00  0.00    -0.000 C 
BRANCH  16  17
ATOM     17  C   UNL     1      17.331 -45.588 -28.724  1.00  0.00    -0.000 C 
BRANCH  17  18
ATOM     18  C   UNL     1      17.233 -46.761 -29.709  1.00  0.00    -0.000 C 
BRANCH  18  19
ATOM     19  C   UNL     1      18.312 -46.659 -30.794  1.00  0.00    -0.003 C 
ATOM     20  C   UNL     1      18.964 -48.013 -31.052  1.00  0.00     0.004 C 
ENDBRANCH  18  19
ENDBRANCH  17  18
ENDBRANCH  16  17
ENDBRANCH  15  16
ENDBRANCH  14  15
ENDBRANCH  13  14
ENDBRANCH  12  13
ENDBRANCH   1  12
TORSDOF 16
ENDMDL
MODEL 2
REMARK VINA RESULT:    -5.006      2.623      4.639
REMARK INTER + INTRA:         -11.898
REMARK INTER:                  -8.788
REMARK INTRA:                  -3.111
REMARK UNBOUND:                -2.209
REMARK SMILES CCCCCCCCCCCCCCCCCC(=O)[O-]
REMARK SMILES IDX 10 1 11 2 12 3 13 4 14 5 15 6 16 7 17 8 18 9 19 10 20 11
REMARK SMILES IDX 9 12 8 13 7 14 6 15 5 16 4 17 3 18 2 19 1 20
REMARK H PARENT
REMARK Flexibility Score: inf
ROOT
ATOM      1  C   UNL     1      18.869 -43.122 -25.007  1.00  0.00     0.000 C 
ENDROOT
BRANCH   1   2
ATOM      2  C   UNL     1      20.234 -42.430 -24.872  1.00  0.00     0.000 C 
BRANCH   2   3
ATOM      3  C   UNL     1      20.548 -42.021 -23.421  1.00  0.00     0.000 C 
BRANCH   3   4
ATOM      4  C   UNL     1      19.432 -42.416 -22.444  1.00  0.00     0.000 C 
BRANCH   4   5
ATOM      5  C   UNL     1      19.371 -41.494 -21.213  1.00  0.00     0.000 C 
BRANCH   5   6
ATOM      6  C   UNL     1      18.179 -41.812 -20.296  1.00  0.00     0.000 C 
BRANCH   6   7
ATOM      7  C   UNL     1      17.079 -42.613 -21.015  1.00  0.00     0.006 C 
BRANCH   7   8
ATOM      8  C   UNL     1      15.848 -41.752 -21.332  1.00  0.00     0.053 C 
BRANCH   8   9
ATOM      9  C   UNL     1      15.521 -41.768 -22.793  1.00  0.00     0.041 C 
ATOM     10  O   UNL     1      16.297 -41.224 -23.622  1.00  0.00    -0.550 OA
ATOM     11  O   UNL     1      14.376 -42.413 -23.243  1.00  0.00    -0.550 OA
ENDBRANCH   8   9
ENDBRANCH   7   8
ENDBRANCH   6   7
ENDBRANCH   5   6
ENDBRANCH   4   5
ENDBRANCH   3   4
ENDBRANCH   2   3
ENDBRANCH   1   2
BRANCH   1  12
ATOM     12  C   UNL     1      18.951 -44.442 -25.788  1.00  0.00     0.000 C 
BRANCH  12  13
ATOM     13  C   UNL     1      17.986 -45.485 -25.205  1.00  0.00    -0.000 C 
BRANCH  13  14
ATOM     14  C   UNL     1      17.103 -44.912 -24.086  1.00  0.00    -0.000 C 
BRANCH  14  15
ATOM     15  C   UNL     1      17.064 -45.816 -22.841  1.00  0.00    -0.000 C 
BRANCH  15  16
ATOM     16  C   UNL     1      17.940 -47.074 -22.987  1.00  0.00    -0.000 C 
BRANCH  16  17
ATOM     17  C   UNL     1      19.097 -47.178 -21.977  1.00  0.00    -0.000 C 
BRANCH  17  18
ATOM     18  C   UNL     1      19.643 -45.809 -21.547  1.00  0.00    -0.000 C 
BRANCH  18  19
ATOM     19  C   UNL     1      21.140 -45.692 -21.863  1.00  0.00    -0.003 C 
ATOM     20  C   UNL     1      21.390 -45.731 -23.367  1.00  0.00     0.004 C 
ENDBRANCH  18  19
ENDBRANCH  17  18
ENDBRANCH  16  17
ENDBRANCH  15  16
ENDBRANCH  14  15
ENDBRANCH  13  14
ENDBRANCH  12  13
ENDBRANCH   1  12
TORSDOF 16
ENDMDL
MODEL 3
REMARK VINA RESULT:    -4.953      1.717      2.789
REMARK INTER + INTRA:         -11.795
REMARK INTER:                  -9.659
REMARK INTRA:                  -2.135
REMARK UNBOUND:                -2.209
REMARK SMILES CCCCCCCCCCCCCCCCCC(=O)[O-]
REMARK SMILES IDX 10 1 11 2 12 3 13 4 14 5 15 6 16 7 17 8 18 9 19 10 20 11
REMARK SMILES IDX 9 12 8 13 7 14 6 15 5 16 4 17 3 18 2 19 1 20
REMARK H PARENT
REMARK Flexibility Score: inf
ROOT
ATOM      1  C   UNL     1      17.188 -46.310 -21.934  1.00  0.00     0.000 C 
ENDROOT
BRANCH   1   2
ATOM      2  C   UNL     1      17.196 -44.773 -21.926  1.00  0.00     0.000 C 
BRANCH   2   3
ATOM      3  C   UNL     1      16.234 -44.171 -22.965  1.00  0.00     0.000 C 
BRANCH   3   4
ATOM      4  C   UNL     1      15.823 -42.731 -22.621  1.00  0.00     0.000 C 
BRANCH   4   5
ATOM      5  C   UNL     1      16.344 -41.708 -23.646  1.00  0.00     0.000 C 
BRANCH   5   6
ATOM      6  C   UNL     1      17.491 -42.265 -24.504  1.00  0.00     0.000 C 
BRANCH   6   7
ATOM      7  C   UNL     1      18.804 -41.485 -24.313  1.00  0.00     0.006 C 
BRANCH   7   8
ATOM      8  C   UNL     1      19.974 -42.405 -23.937  1.00  0.00     0.053 C 
BRANCH   8   9
ATOM      9  C   UNL     1      20.114 -42.545 -22.452  1.00  0.00     0.041 C 
ATOM     10  O   UNL     1      21.007 -43.289 -21.967  1.00  0.00    -0.550 OA
ATOM     11  O   UNL     1      19.280 -41.827 -21.603  1.00  0.00    -0.550 OA
ENDBRANCH   8   9
ENDBRANCH   7   8
ENDBRANCH   6   7
ENDBRANCH   5   6
ENDBRANCH   4   5
ENDBRANCH   3   4
ENDBRANCH   2   3
ENDBRANCH   1   2
BRANCH   1  12
ATOM     12  C   UNL     1      17.677 -46.896 -23.266  1.00  0.00     0.000 C 
BRANCH  12  13
ATOM     13  C   UNL     1      19.141 -46.512 -23.530  1.00  0.00    -0.000 C 
BRANCH  13  14
ATOM     14  C   UNL     1      19.326 -45.779 -24.867  1.00  0.00    -0.000 C 
BRANCH  14  15
ATOM     15  C   UNL     1      18.033 -45.730 -25.700  1.00  0.00    -0.000 C 
BRANCH  15  16
ATOM     16  C   UNL     1      18.187 -44.913 -26.996  1.00  0.00    -0.000 C 
BRANCH  16  17
ATOM     17  C   UNL     1      17.348 -45.420 -28.184  1.00  0.00    -0.000 C 
BRANCH  17  18
ATOM     18  C   UNL     1      17.940 -46.673 -28.845  1.00  0.00    -0.000 C 
BRANCH  18  19
ATOM     19  C   UNL     1      18.845 -46.296 -30.025  1.00  0.00    -0.003 C 
ATOM     20  C   UNL     1      19.148 -47.510 -30.897  1.00  0.00     0.004 C 
ENDBRANCH  18  19
ENDBRANCH  17  18
ENDBRANCH  16  17
ENDBRANCH  15  16
ENDBRANCH  14  15
ENDBRANCH  13  14
ENDBRANCH  12  13
ENDBRANCH   1  12
TORSDOF 16
ENDMDL
MODEL 4
REMARK VINA RESULT:    -4.952      3.152      6.496
REMARK INTER + INTRA:         -11.793
REMARK INTER:                  -9.217
REMARK INTRA:                  -2.576
REMARK UNBOUND:                -2.209
REMARK SMILES CCCCCCCCCCCCCCCCCC(=O)[O-]
REMARK SMILES IDX 10 1 11 2 12 3 13 4 14 5 15 6 16 7 17 8 18 9 19 10 20 11
REMARK SMILES IDX 9 12 8 13 7 14 6 15 5 16 4 17 3 18 2 19 1 20
REMARK H PARENT
REMARK Flexibility Score: inf
ROOT
ATOM      1  C   UNL     1      19.784 -45.925 -21.595  1.00  0.00     0.000 C 
ENDROOT
BRANCH   1   2
ATOM      2  C   UNL     1      18.458 -46.480 -22.138  1.00  0.00     0.000 C 
BRANCH   2   3
ATOM      3  C   UNL     1      17.318 -45.447 -22.083  1.00  0.00     0.000 C 
BRANCH   3   4
ATOM      4  C   UNL     1      16.847 -45.016 -23.480  1.00  0.00     0.000 C 
BRANCH   4   5
ATOM      5  C   UNL     1      17.639 -45.701 -24.607  1.00  0.00     0.000 C 
BRANCH   5   6
ATOM      6  C   UNL     1      17.725 -44.838 -25.876  1.00  0.00     0.000 C 
BRANCH   6   7
ATOM      7  C   UNL     1      18.258 -45.622 -27.088  1.00  0.00     0.006 C 
BRANCH   7   8
ATOM      8  C   UNL     1      17.350 -45.475 -28.317  1.00  0.00     0.053 C 
BRANCH   8   9
ATOM      9  C   UNL     1      17.734 -46.427 -29.407  1.00  0.00     0.041 C 
ATOM     10  O   UNL     1      16.895 -47.256 -29.849  1.00  0.00    -0.550 OA
ATOM     11  O   UNL     1      19.008 -46.377 -29.959  1.00  0.00    -0.550 OA
ENDBRANCH   8   9
ENDBRANCH   7   8
ENDBRANCH   6   7
ENDBRANCH   5   6
ENDBRANCH   4   5
ENDBRANCH   3   4
ENDBRANCH   2   3
ENDBRANCH   1   2
BRANCH   1  12
ATOM     12  C   UNL     1      19.853 -44.393 -21.658  1.00  0.00     0.000 C 
BRANCH  12  13
ATOM     13  C   UNL     1      20.500 -43.925 -22.970  1.00  0.00    -0.000 C 
BRANCH  13  14
ATOM     14  C   UNL     1      20.360 -42.411 -23.190  1.00  0.00    -0.000 C 
BRANCH  14  15
ATOM     15  C   UNL     1      19.755 -42.065 -24.562  1.00  0.00    -0.000 C 
BRANCH  15  16
ATOM     16  C   UNL     1      18.333 -41.485 -24.460  1.00  0.00    -0.000 C 
BRANCH  16  17
ATOM     17  C   UNL     1      17.799 -41.328 -23.024  1.00  0.00    -0.000 C 
BRANCH  17  18
ATOM     18  C   UNL     1      16.266 -41.346 -22.948  1.00  0.00    -0.000 C 
BRANCH  18  19
ATOM     19  C   UNL     1      15.790 -41.902 -21.600  1.00  0.00    -0.003 C 
ATOM     20  C   UNL     1      16.948 -42.030 -20.616  1.00  0.00     0.004 C 
ENDBRANCH  18  19
ENDBRANCH  17  18
ENDBRANCH  16  17
ENDBRANCH  15  16
ENDBRANCH  14  15
ENDBRANCH  13  14
ENDBRANCH  12  13
ENDBRANCH   1  12
TORSDOF 16
ENDMDL
MODEL 5
REMARK VINA RESULT:    -4.940      3.823      7.533
REMARK INTER + INTRA:         -11.770
REMARK INTER:                  -9.634
REMARK INTRA:                  -2.136
REMARK UNBOUND:                -2.209
REMARK SMILES CCCCCCCCCCCCCCCCCC(=O)[O-]
REMARK SMILES IDX 10 1 11 2 12 3 13 4 14 5 15 6 16 7 17 8 18 9 19 10 20 11
REMARK SMILES IDX 9 12 8 13 7 14 6 15 5 16 4 17 3 18 2 19 1 20
REMARK H PARENT
REMARK Flexibility Score: inf
ROOT
ATOM      1  C   UNL     1      18.412 -45.741 -22.860  1.00  0.00     0.000 C 
ENDROOT
BRANCH   1   2
ATOM      2  C   UNL     1      17.647 -45.444 -24.159  1.00  0.00     0.000 C 
BRANCH   2   3
ATOM      3  C   UNL     1      18.565 -45.427 -25.395  1.00  0.00     0.000 C 
BRANCH   3   4
ATOM      4  C   UNL     1      17.816 -45.036 -26.678  1.00  0.00     0.000 C 
BRANCH   4   5
ATOM      5  C   UNL     1      18.065 -46.025 -27.831  1.00  0.00     0.000 C 
BRANCH   5   6
ATOM      6  C   UNL     1      17.231 -45.697 -29.079  1.00  0.00     0.000 C 
BRANCH   6   7
ATOM      7  C   UNL     1      17.199 -46.858 -30.088  1.00  0.00     0.006 C 
BRANCH   7   8
ATOM      8  C   UNL     1      18.564 -47.546 -30.222  1.00  0.00     0.053 C 
BRANCH   8   9
ATOM      9  C   UNL     1      18.950 -47.738 -31.657  1.00  0.00     0.041 C 
ATOM     10  O   UNL     1      19.566 -48.777 -32.014  1.00  0.00    -0.550 OA
ATOM     11  O   UNL     1      18.599 -46.786 -32.606  1.00  0.00    -0.550 OA
ENDBRANCH   8   9
ENDBRANCH   7   8
ENDBRANCH   6   7
ENDBRANCH   5   6
ENDBRANCH   4   5
ENDBRANCH   3   4
ENDBRANCH   2   3
ENDBRANCH   1   2
BRANCH   1  12
ATOM     12  C   UNL     1      18.311 -44.599 -21.840  1.00  0.00     0.000 C 
BRANCH  12  13
ATOM     13  C   UNL     1      19.666 -43.899 -21.662  1.00  0.00    -0.000 C 
BRANCH  13  14
ATOM     14  C   UNL     1      19.639 -42.434 -22.125  1.00  0.00    -0.000 C 
BRANCH  14  15
ATOM     15  C   UNL     1      19.924 -42.284 -23.631  1.00  0.00    -0.000 C 
BRANCH  15  16
ATOM     16  C   UNL     1      18.718 -41.736 -24.416  1.00  0.00    -0.000 C 
BRANCH  16  17
ATOM     17  C   UNL     1      17.534 -41.275 -23.546  1.00  0.00    -0.000 C 
BRANCH  17  18
ATOM     18  C   UNL     1      16.269 -42.118 -23.758  1.00  0.00    -0.000 C 
BRANCH  18  19
ATOM     19  C   UNL     1      15.319 -41.994 -22.561  1.00  0.00    -0.003 C 
ATOM     20  C   UNL     1      16.083 -41.649 -21.285  1.00  0.00     0.004 C 
ENDBRANCH  18  19
ENDBRANCH  17  18
ENDBRANCH  16  17
ENDBRANCH  15  16
ENDBRANCH  14  15
ENDBRANCH  13  14
ENDBRANCH  12  13
ENDBRANCH   1  12
TORSDOF 16
ENDMDL
MODEL 6
REMARK VINA RESULT:    -4.937      3.499      5.431
REMARK INTER + INTRA:         -11.763
REMARK INTER:                  -9.272
REMARK INTRA:                  -2.492
REMARK UNBOUND:                -2.209
REMARK SMILES CCCCCCCCCCCCCCCCCC(=O)[O-]
REMARK SMILES IDX 10 1 11 2 12 3 13 4 14 5 15 6 16 7 17 8 18 9 19 10 20 11
REMARK SMILES IDX 9 12 8 13 7 14 6 15 5 16 4 17 3 18 2 19 1 20
REMARK H PARENT
REMARK Flexibility Score: inf
ROOT
ATOM      1  C   UNL     1      17.248 -42.215 -24.269  1.00  0.00     0.000 C 
ENDROOT
BRANCH   1   2
ATOM      2  C   UNL     1      16.378 -41.263 -23.434  1.00  0.00     0.000 C 
BRANCH   2   3
ATOM      3  C   UNL     1      15.507 -42.007 -22.405  1.00  0.00     0.000 C 
BRANCH   3   4
ATOM      4  C   UNL     1      15.861 -41.635 -20.957  1.00  0.00     0.000 C 
BRANCH   4   5
ATOM      5  C   UNL     1      17.127 -42.351 -20.456  1.00  0.00     0.000 C 
BRANCH   5   6
ATOM      6  C   UNL     1      18.350 -41.421 -20.406  1.00  0.00     0.000 C 
BRANCH   6   7
ATOM      7  C   UNL     1      19.531 -41.955 -21.234  1.00  0.00     0.006 C 
BRANCH   7   8
ATOM      8  C   UNL     1      19.436 -43.469 -21.468  1.00  0.00     0.053 C 
BRANCH   8   9
ATOM      9  C   UNL     1      20.785 -44.082 -21.687  1.00  0.00     0.041 C 
ATOM     10  O   UNL     1      20.939 -45.328 -21.585  1.00  0.00    -0.550 OA
ATOM     11  O   UNL     1      21.865 -43.281 -22.037  1.00  0.00    -0.550 OA
ENDBRANCH   8   9
ENDBRANCH   7   8
ENDBRANCH   6   7
ENDBRANCH   5   6
ENDBRANCH   4   5
ENDBRANCH   3   4
ENDBRANCH   2   3
ENDBRANCH   1   2
BRANCH   1  12
ATOM     12  C   UNL     1      18.640 -41.638 -24.563  1.00  0.00     0.000 C 
BRANCH  12  13
ATOM     13  C   UNL     1      19.597 -42.735 -25.053  1.00  0.00    -0.000 C 
BRANCH  13  14
ATOM     14  C   UNL     1      18.856 -43.988 -25.544  1.00  0.00    -0.000 C 
BRANCH  14  15
ATOM     15  C   UNL     1      19.165 -45.232 -24.692  1.00  0.00    -0.000 C 
BRANCH  15  16
ATOM     16  C   UNL     1      17.928 -46.115 -24.450  1.00  0.00    -0.000 C 
BRANCH  16  17
ATOM     17  C   UNL     1      17.022 -45.658 -23.292  1.00  0.00    -0.000 C 
BRANCH  17  18
ATOM     18  C   UNL     1      17.429 -46.259 -21.939  1.00  0.00    -0.000 C 
BRANCH  18  19
ATOM     19  C   UNL     1      17.008 -47.731 -21.844  1.00  0.00    -0.003 C 
ATOM     20  C   UNL     1      15.503 -47.861 -21.634  1.00  0.00     0.004 C 
ENDBRANCH  18  19
ENDBRANCH  17  18
ENDBRANCH  16  17
ENDBRANCH  15  16
ENDBRANCH  14  15
ENDBRANCH  13  14
ENDBRANCH  12  13
ENDBRANCH   1  12
TORSDOF 16
ENDMDL
MODEL 7
REMARK VINA RESULT:    -4.910      2.212      3.649
REMARK INTER + INTRA:         -11.712
REMARK INTER:                 -10.094
REMARK INTRA:                  -1.618
REMARK UNBOUND:                -2.209
REMARK SMILES CCCCCCCCCCCCCCCCCC(=O)[O-]
REMARK SMILES IDX 10 1 11 2 12 3 13 4 14 5 15 6 16 7 17 8 18 9 19 10 20 11
REMARK SMILES IDX 9 12 8 13 7 14 6 15 5 16 4 17 3 18 2 19 1 20
REMARK H PARENT
REMARK Flexibility Score: inf
ROOT
ATOM      1  C   UNL     1      19.836 -42.718 -24.480  1.00  0.00     0.000 C 
ENDROOT
BRANCH   1   2
ATOM      2  C   UNL     1      18.754 -41.689 -24.842  1.00  0.00     0.000 C 
BRANCH   2   3
ATOM      3  C   UNL     1      17.892 -41.287 -23.631  1.00  0.00     0.000 C 
BRANCH   3   4
ATOM      4  C   UNL     1      16.444 -41.788 -23.747  1.00  0.00     0.000 C 
BRANCH   4   5
ATOM      5  C   UNL     1      16.133 -42.926 -22.761  1.00  0.00     0.000 C 
BRANCH   5   6
ATOM      6  C   UNL     1      17.290 -43.194 -21.785  1.00  0.00     0.000 C 
BRANCH   6   7
ATOM      7  C   UNL     1      17.617 -44.692 -21.655  1.00  0.00     0.006 C 
BRANCH   7   8
ATOM      8  C   UNL     1      16.775 -45.553 -22.606  1.00  0.00     0.053 C 
BRANCH   8   9
ATOM      9  C   UNL     1      16.791 -46.996 -22.208  1.00  0.00     0.041 C 
ATOM     10  O   UNL     1      15.715 -47.591 -21.934  1.00  0.00    -0.550 OA
ATOM     11  O   UNL     1      17.991 -47.696 -22.173  1.00  0.00    -0.550 OA
ENDBRANCH   8   9
ENDBRANCH   7   8
ENDBRANCH   6   7
ENDBRANCH   5   6
ENDBRANCH   4   5
ENDBRANCH   3   4
ENDBRANCH   2   3
ENDBRANCH   1   2
BRANCH   1  12
ATOM     12  C   UNL     1      19.681 -44.035 -25.255  1.00  0.00     0.000 C 
BRANCH  12  13
ATOM     13  C   UNL     1      18.228 -44.235 -25.712  1.00  0.00    -0.000 C 
BRANCH  13  14
ATOM     14  C   UNL     1      18.014 -45.579 -26.425  1.00  0.00    -0.000 C 
BRANCH  14  15
ATOM     15  C   UNL     1      17.621 -45.408 -27.904  1.00  0.00    -0.000 C 
BRANCH  15  16
ATOM     16  C   UNL     1      17.700 -46.724 -28.699  1.00  0.00    -0.000 C 
BRANCH  16  17
ATOM     17  C   UNL     1      17.930 -46.554 -30.212  1.00  0.00    -0.000 C 
BRANCH  17  18
ATOM     18  C   UNL     1      19.015 -47.489 -30.762  1.00  0.00    -0.000 C 
BRANCH  18  19
ATOM     19  C   UNL     1      19.187 -47.301 -32.275  1.00  0.00    -0.003 C 
ATOM     20  C   UNL     1      20.061 -48.400 -32.871  1.00  0.00     0.004 C 
ENDBRANCH  18  19
ENDBRANCH  17  18
ENDBRANCH  16  17
ENDBRANCH  15  16
ENDBRANCH  14  15
ENDBRANCH  13  14
ENDBRANCH  12  13
ENDBRANCH   1  12
TORSDOF 16
ENDMDL
MODEL 8
REMARK VINA RESULT:    -4.881      3.625      6.832
REMARK INTER + INTRA:         -11.656
REMARK INTER:                  -9.239
REMARK INTRA:                  -2.418
REMARK UNBOUND:                -2.209
REMARK SMILES CCCCCCCCCCCCCCCCCC(=O)[O-]
REMARK SMILES IDX 10 1 11 2 12 3 13 4 14 5 15 6 16 7 17 8 18 9 19 10 20 11
REMARK SMILES IDX 9 12 8 13 7 14 6 15 5 16 4 17 3 18 2 19 1 20
REMARK H PARENT
REMARK Flexibility Score: inf
ROOT
ATOM      1  C   UNL     1      18.017 -46.875 -23.178  1.00  0.00     0.000 C 
ENDROOT
BRANCH   1   2
ATOM      2  C   UNL     1      19.333 -46.231 -23.643  1.00  0.00     0.000 C 
BRANCH   2   3
ATOM      3  C   UNL     1      19.287 -45.788 -25.116  1.00  0.00     0.000 C 
BRANCH   3   4
ATOM      4  C   UNL     1      17.871 -45.399 -25.570  1.00  0.00     0.000 C 
BRANCH   4   5
ATOM      5  C   UNL     1      17.816 -45.002 -27.055  1.00  0.00     0.000 C 
BRANCH   5   6
ATOM      6  C   UNL     1      17.993 -46.206 -27.994  1.00  0.00     0.000 C 
BRANCH   6   7
ATOM      7  C   UNL     1      17.939 -45.809 -29.479  1.00  0.00     0.006 C 
BRANCH   7   8
ATOM      8  C   UNL     1      19.149 -46.335 -30.264  1.00  0.00     0.053 C 
BRANCH   8   9
ATOM      9  C   UNL     1      18.791 -47.519 -31.107  1.00  0.00     0.041 C 
ATOM     10  O   UNL     1      18.109 -48.460 -30.622  1.00  0.00    -0.550 OA
ATOM     11  O   UNL     1      19.181 -47.569 -32.440  1.00  0.00    -0.550 OA
ENDBRANCH   8   9
ENDBRANCH   7   8
ENDBRANCH   6   7
ENDBRANCH   5   6
ENDBRANCH   4   5
ENDBRANCH   3   4
ENDBRANCH   2   3
ENDBRANCH   1   2
BRANCH   1  12
ATOM     12  C   UNL     1      17.353 -46.100 -22.032  1.00  0.00     0.000 C 
BRANCH  12  13
ATOM     13  C   UNL     1      18.188 -44.871 -21.643  1.00  0.00    -0.000 C 
BRANCH  13  14
ATOM     14  C   UNL     1      17.360 -43.577 -21.624  1.00  0.00    -0.000 C 
BRANCH  14  15
ATOM     15  C   UNL     1      16.321 -43.523 -22.758  1.00  0.00    -0.000 C 
BRANCH  15  16
ATOM     16  C   UNL     1      16.668 -42.482 -23.838  1.00  0.00    -0.000 C 
BRANCH  16  17
ATOM     17  C   UNL     1      17.910 -41.624 -23.536  1.00  0.00    -0.000 C 
BRANCH  17  18
ATOM     18  C   UNL     1      18.741 -41.310 -24.788  1.00  0.00    -0.000 C 
BRANCH  18  19
ATOM     19  C   UNL     1      20.022 -42.152 -24.822  1.00  0.00    -0.003 C 
ATOM     20  C   UNL     1      20.499 -42.487 -23.412  1.00  0.00     0.004 C 
ENDBRANCH  18  19
ENDBRANCH  17  18
ENDBRANCH  16  17
ENDBRANCH  15  16
ENDBRANCH  14  15
ENDBRANCH  13  14
ENDBRANCH  12  13
ENDBRANCH   1  12
TORSDOF 16
ENDMDL
MODEL 9
REMARK VINA RESULT:    -4.879      1.352      2.387
REMARK INTER + INTRA:         -11.652
REMARK INTER:                  -9.164
REMARK INTRA:                  -2.488
REMARK UNBOUND:                -2.209
REMARK SMILES CCCCCCCCCCCCCCCCCC(=O)[O-]
REMARK SMILES IDX 10 1 11 2 12 3 13 4 14 5 15 6 16 7 17 8 18 9 19 10 20 11
REMARK SMILES IDX 9 12 8 13 7 14 6 15 5 16 4 17 3 18 2 19 1 20
REMARK H PARENT
REMARK Flexibility Score: inf
ROOT
ATOM      1  C   UNL     1      19.763 -43.279 -21.566  1.00  0.00     0.000 C 
ENDROOT
BRANCH   1   2
ATOM      2  C   UNL     1      20.328 -42.246 -22.554  1.00  0.00     0.000 C 
BRANCH   2   3
ATOM      3  C   UNL     1      20.547 -42.830 -23.960  1.00  0.00     0.000 C 
BRANCH   3   4
ATOM      4  C   UNL     1      19.705 -42.120 -25.031  1.00  0.00     0.000 C 
BRANCH   4   5
ATOM      5  C   UNL     1      18.559 -41.290 -24.425  1.00  0.00     0.000 C 
BRANCH   5   6
ATOM      6  C   UNL     1      17.263 -42.101 -24.269  1.00  0.00     0.000 C 
BRANCH   6   7
ATOM      7  C   UNL     1      16.315 -41.499 -23.216  1.00  0.00     0.006 C 
BRANCH   7   8
ATOM      8  C   UNL     1      16.150 -42.414 -21.995  1.00  0.00     0.053 C 
BRANCH   8   9
ATOM      9  C   UNL     1      16.225 -41.646 -20.712  1.00  0.00     0.041 C 
ATOM     10  O   UNL     1      15.232 -41.603 -19.940  1.00  0.00    -0.550 OA
ATOM     11  O   UNL     1      17.404 -41.004 -20.352  1.00  0.00    -0.550 OA
ENDBRANCH   8   9
ENDBRANCH   7   8
ENDBRANCH   6   7
ENDBRANCH   5   6
ENDBRANCH   4   5
ENDBRANCH   3   4
ENDBRANCH   2   3
ENDBRANCH   1   2
BRANCH   1  12
ATOM     12  C   UNL     1      19.756 -44.702 -22.141  1.00  0.00     0.000 C 
BRANCH  12  13
ATOM     13  C   UNL     1      18.338 -45.293 -22.127  1.00  0.00    -0.000 C 
BRANCH  13  14
ATOM     14  C   UNL     1      18.130 -46.353 -23.219  1.00  0.00    -0.000 C 
BRANCH  14  15
ATOM     15  C   UNL     1      17.520 -45.767 -24.505  1.00  0.00    -0.000 C 
BRANCH  15  16
ATOM     16  C   UNL     1      18.505 -45.766 -25.688  1.00  0.00    -0.000 C 
BRANCH  16  17
ATOM     17  C   UNL     1      18.121 -44.831 -26.850  1.00  0.00    -0.000 C 
BRANCH  17  18
ATOM     18  C   UNL     1      17.281 -45.528 -27.929  1.00  0.00    -0.000 C 
BRANCH  18  19
ATOM     19  C   UNL     1      18.162 -46.396 -28.836  1.00  0.00    -0.003 C 
ATOM     20  C   UNL     1      17.360 -47.534 -29.459  1.00  0.00     0.004 C 
ENDBRANCH  18  19
ENDBRANCH  17  18
ENDBRANCH  16  17
ENDBRANCH  15  16
ENDBRANCH  14  15
ENDBRANCH  13  14
ENDBRANCH  12  13
ENDBRANCH   1  12
TORSDOF 16
ENDMDL
