MODEL 1
REMARK VINA RESULT:    -4.052      0.000      0.000
REMARK INTER + INTRA:          -6.678
REMARK INTER:                  -6.185
REMARK INTRA:                  -0.493
REMARK UNBOUND:                -0.493
REMARK SMILES O=C([O-])CCCCCCCCC(=O)[O-]
REMARK SMILES IDX 7 1 6 2 5 3 4 4 2 5 1 6 3 7 8 8 9 9 10 10 11 11 12 12 13 13
REMARK SMILES IDX 14 14
REMARK H PARENT
REMARK Flexibility Score: inf
ROOT
ATOM      1  C   UNL     1       6.780 -19.865 -36.819  1.00  0.00     0.000 C 
ENDROOT
BRANCH   1   2
ATOM      2  C   UNL     1       5.667 -18.818 -36.664  1.00  0.00     0.000 C 
BRANCH   2   3
ATOM      3  C   UNL     1       6.065 -17.742 -35.643  1.00  0.00     0.006 C 
BRANCH   3   4
ATOM      4  C   UNL     1       4.844 -17.086 -34.984  1.00  0.00     0.053 C 
BRANCH   4   5
ATOM      5  C   UNL     1       5.133 -16.670 -33.573  1.00  0.00     0.041 C 
ATOM      6  O   UNL     1       5.010 -17.495 -32.630  1.00  0.00    -0.550 OA
ATOM      7  O   UNL     1       5.505 -15.361 -33.297  1.00  0.00    -0.550 OA
ENDBRANCH   4   5
ENDBRANCH   3   4
ENDBRANCH   2   3
ENDBRANCH   1   2
BRANCH   1   8
ATOM      8  C   UNL     1       6.239 -21.304 -36.822  1.00  0.00     0.000 C 
BRANCH   8   9
ATOM      9  C   UNL     1       7.314 -22.342 -36.454  1.00  0.00     0.000 C 
BRANCH   9  10
ATOM     10  C   UNL     1       7.962 -22.067 -35.085  1.00  0.00     0.006 C 
BRANCH  10  11
ATOM     11  C   UNL     1       9.458 -22.413 -35.015  1.00  0.00     0.053 C 
BRANCH  11  12
ATOM     12  C   UNL     1      10.246 -21.706 -36.073  1.00  0.00     0.041 C 
ATOM     13  O   UNL     1      10.305 -20.448 -36.087  1.00  0.00    -0.550 OA
ATOM     14  O   UNL     1      10.944 -22.438 -37.026  1.00  0.00    -0.550 OA
ENDBRANCH  11  12
ENDBRANCH  10  11
ENDBRANCH   9  10
ENDBRANCH   8   9
ENDBRANCH   1   8
TORSDOF 9
ENDMDL
MODEL 2
REMARK VINA RESULT:    -4.041     12.000     13.251
REMARK INTER + INTRA:          -6.661
REMARK INTER:                  -5.925
REMARK INTRA:                  -0.736
REMARK UNBOUND:                -0.493
REMARK SMILES O=C([O-])CCCCCCCCC(=O)[O-]
REMARK SMILES IDX 7 1 6 2 5 3 4 4 2 5 1 6 3 7 8 8 9 9 10 10 11 11 12 12 13 13
REMARK SMILES IDX 14 14
REMARK H PARENT
REMARK Flexibility Score: inf
ROOT
ATOM      1  C   UNL     1      10.037 -11.261 -45.382  1.00  0.00     0.000 C 
ENDROOT
BRANCH   1   2
ATOM      2  C   UNL     1      10.586 -11.201 -43.949  1.00  0.00     0.000 C 
BRANCH   2   3
ATOM      3  C   UNL     1      11.835 -10.309 -43.877  1.00  0.00     0.006 C 
BRANCH   3   4
ATOM      4  C   UNL     1      11.529  -8.849 -44.236  1.00  0.00     0.053 C 
BRANCH   4   5
ATOM      5  C   UNL     1      10.533  -8.243 -43.295  1.00  0.00     0.041 C 
ATOM      6  O   UNL     1      10.776  -8.192 -42.061  1.00  0.00    -0.550 OA
ATOM      7  O   UNL     1       9.322  -7.764 -43.778  1.00  0.00    -0.550 OA
ENDBRANCH   4   5
ENDBRANCH   3   4
ENDBRANCH   2   3
ENDBRANCH   1   2
BRANCH   1   8
ATOM      8  C   UNL     1       8.587 -10.760 -45.478  1.00  0.00     0.000 C 
BRANCH   8   9
ATOM      9  C   UNL     1       7.884 -11.223 -46.766  1.00  0.00     0.000 C 
BRANCH   9  10
ATOM     10  C   UNL     1       7.690 -12.749 -46.821  1.00  0.00     0.006 C 
BRANCH  10  11
ATOM     11  C   UNL     1       6.798 -13.312 -45.702  1.00  0.00     0.053 C 
BRANCH  11  12
ATOM     12  C   UNL     1       7.522 -14.316 -44.861  1.00  0.00     0.041 C 
ATOM     13  O   UNL     1       6.904 -14.972 -43.981  1.00  0.00    -0.550 OA
ATOM     14  O   UNL     1       8.875 -14.552 -45.070  1.00  0.00    -0.550 OA
ENDBRANCH  11  12
ENDBRANCH  10  11
ENDBRANCH   9  10
ENDBRANCH   8   9
ENDBRANCH   1   8
TORSDOF 9
ENDMDL
MODEL 3
REMARK VINA RESULT:    -3.995      1.233      6.344
REMARK INTER + INTRA:          -6.591
REMARK INTER:                  -6.187
REMARK INTRA:                  -0.403
REMARK UNBOUND:                -0.493
REMARK SMILES O=C([O-])CCCCCCCCC(=O)[O-]
REMARK SMILES IDX 7 1 6 2 5 3 4 4 2 5 1 6 3 7 8 8 9 9 10 10 11 11 12 12 13 13
REMARK SMILES IDX 14 14
REMARK H PARENT
REMARK Flexibility Score: inf
ROOT
ATOM      1  C   UNL     1       5.972 -20.166 -37.411  1.00  0.00     0.000 C 
ENDROOT
BRANCH   1   2
ATOM      2  C   UNL     1       6.081 -21.634 -36.973  1.00  0.00     0.000 C 
BRANCH   2   3
ATOM      3  C   UNL     1       7.550 -22.050 -36.804  1.00  0.00     0.006 C 
BRANCH   3   4
ATOM      4  C   UNL     1       7.883 -22.438 -35.358  1.00  0.00     0.053 C 
BRANCH   4   5
ATOM      5  C   UNL     1       9.283 -22.053 -34.988  1.00  0.00     0.041 C 
ATOM      6  O   UNL     1      10.063 -22.901 -34.481  1.00  0.00    -0.550 OA
ATOM      7  O   UNL     1       9.716 -20.746 -35.173  1.00  0.00    -0.550 OA
ENDBRANCH   4   5
ENDBRANCH   3   4
ENDBRANCH   2   3
ENDBRANCH   1   2
BRANCH   1   8
ATOM      8  C   UNL     1       6.403 -19.188 -36.306  1.00  0.00     0.000 C 
BRANCH   8   9
ATOM      9  C   UNL     1       6.036 -17.729 -36.632  1.00  0.00     0.000 C 
BRANCH   9  10
ATOM     10  C   UNL     1       4.907 -17.186 -35.738  1.00  0.00     0.006 C 
BRANCH  10  11
ATOM     11  C   UNL     1       5.260 -17.128 -34.243  1.00  0.00     0.053 C 
BRANCH  11  12
ATOM     12  C   UNL     1       5.271 -15.723 -33.725  1.00  0.00     0.041 C 
ATOM     13  O   UNL     1       5.739 -14.791 -34.430  1.00  0.00    -0.550 OA
ATOM     14  O   UNL     1       4.736 -15.438 -32.475  1.00  0.00    -0.550 OA
ENDBRANCH  11  12
ENDBRANCH  10  11
ENDBRANCH   9  10
ENDBRANCH   8   9
ENDBRANCH   1   8
TORSDOF 9
ENDMDL
MODEL 4
REMARK VINA RESULT:    -3.979     12.305     13.637
REMARK INTER + INTRA:          -6.565
REMARK INTER:                  -5.637
REMARK INTRA:                  -0.929
REMARK UNBOUND:                -0.493
REMARK SMILES O=C([O-])CCCCCCCCC(=O)[O-]
REMARK SMILES IDX 7 1 6 2 5 3 4 4 2 5 1 6 3 7 8 8 9 9 10 10 11 11 12 12 13 13
REMARK SMILES IDX 14 14
REMARK H PARENT
REMARK Flexibility Score: inf
ROOT
ATOM      1  C   UNL     1      11.499 -13.954 -43.412  1.00  0.00     0.000 C 
ENDROOT
BRANCH   1   2
ATOM      2  C   UNL     1      10.135 -13.493 -43.944  1.00  0.00     0.000 C 
BRANCH   2   3
ATOM      3  C   UNL     1      10.086 -13.576 -45.477  1.00  0.00     0.006 C 
BRANCH   3   4
ATOM      4  C   UNL     1       9.789 -12.217 -46.124  1.00  0.00     0.053 C 
BRANCH   4   5
ATOM      5  C   UNL     1       8.422 -11.719 -45.766  1.00  0.00     0.041 C 
ATOM      6  O   UNL     1       8.255 -10.525 -45.404  1.00  0.00    -0.550 OA
ATOM      7  O   UNL     1       7.336 -12.585 -45.801  1.00  0.00    -0.550 OA
ENDBRANCH   4   5
ENDBRANCH   3   4
ENDBRANCH   2   3
ENDBRANCH   1   2
BRANCH   1   8
ATOM      8  C   UNL     1      12.662 -13.113 -43.963  1.00  0.00     0.000 C 
BRANCH   8   9
ATOM      9  C   UNL     1      12.852 -11.792 -43.198  1.00  0.00     0.000 C 
BRANCH   9  10
ATOM     10  C   UNL     1      12.348 -10.569 -43.987  1.00  0.00     0.006 C 
BRANCH  10  11
ATOM     11  C   UNL     1      11.068  -9.936 -43.417  1.00  0.00     0.053 C 
BRANCH  11  12
ATOM     12  C   UNL     1      10.858  -8.544 -43.929  1.00  0.00     0.041 C 
ATOM     13  O   UNL     1      10.079  -7.758 -43.328  1.00  0.00    -0.550 OA
ATOM     14  O   UNL     1      11.547  -8.105 -45.052  1.00  0.00    -0.550 OA
ENDBRANCH  11  12
ENDBRANCH  10  11
ENDBRANCH   9  10
ENDBRANCH   8   9
ENDBRANCH   1   8
TORSDOF 9
ENDMDL
MODEL 5
REMARK VINA RESULT:    -3.974     13.100     13.861
REMARK INTER + INTRA:          -6.558
REMARK INTER:                  -6.039
REMARK INTRA:                  -0.519
REMARK UNBOUND:                -0.493
REMARK SMILES O=C([O-])CCCCCCCCC(=O)[O-]
REMARK SMILES IDX 7 1 6 2 5 3 4 4 2 5 1 6 3 7 8 8 9 9 10 10 11 11 12 12 13 13
REMARK SMILES IDX 14 14
REMARK H PARENT
REMARK Flexibility Score: inf
ROOT
ATOM      1  C   UNL     1      12.596 -11.886 -43.173  1.00  0.00     0.000 C 
ENDROOT
BRANCH   1   2
ATOM      2  C   UNL     1      11.102 -11.858 -43.527  1.00  0.00     0.000 C 
BRANCH   2   3
ATOM      3  C   UNL     1      10.870 -11.159 -44.875  1.00  0.00     0.006 C 
BRANCH   3   4
ATOM      4  C   UNL     1      10.005  -9.899 -44.736  1.00  0.00     0.053 C 
BRANCH   4   5
ATOM      5  C   UNL     1      10.837  -8.686 -44.447  1.00  0.00     0.041 C 
ATOM      6  O   UNL     1      10.306  -7.655 -43.958  1.00  0.00    -0.550 OA
ATOM      7  O   UNL     1      12.192  -8.684 -44.750  1.00  0.00    -0.550 OA
ENDBRANCH   4   5
ENDBRANCH   3   4
ENDBRANCH   2   3
ENDBRANCH   1   2
BRANCH   1   8
ATOM      8  C   UNL     1      13.287 -13.179 -43.635  1.00  0.00     0.000 C 
BRANCH   8   9
ATOM      9  C   UNL     1      14.587 -12.910 -44.413  1.00  0.00     0.000 C 
BRANCH   9  10
ATOM     10  C   UNL     1      15.250 -11.578 -44.020  1.00  0.00     0.006 C 
BRANCH  10  11
ATOM     11  C   UNL     1      16.219 -11.683 -42.830  1.00  0.00     0.053 C 
BRANCH  11  12
ATOM     12  C   UNL     1      17.590 -12.102 -43.261  1.00  0.00     0.041 C 
ATOM     13  O   UNL     1      18.371 -12.655 -42.442  1.00  0.00    -0.550 OA
ATOM     14  O   UNL     1      17.995 -11.911 -44.576  1.00  0.00    -0.550 OA
ENDBRANCH  11  12
ENDBRANCH  10  11
ENDBRANCH   9  10
ENDBRANCH   8   9
ENDBRANCH   1   8
TORSDOF 9
ENDMDL
MODEL 6
REMARK VINA RESULT:    -3.973     12.212     13.870
REMARK INTER + INTRA:          -6.557
REMARK INTER:                  -6.033
REMARK INTRA:                  -0.524
REMARK UNBOUND:                -0.493
REMARK SMILES O=C([O-])CCCCCCCCC(=O)[O-]
REMARK SMILES IDX 7 1 6 2 5 3 4 4 2 5 1 6 3 7 8 8 9 9 10 10 11 11 12 12 13 13
REMARK SMILES IDX 14 14
REMARK H PARENT
REMARK Flexibility Score: inf
ROOT
ATOM      1  C   UNL     1       8.302 -10.874 -45.466  1.00  0.00     0.000 C 
ENDROOT
BRANCH   1   2
ATOM      2  C   UNL     1       7.566 -11.550 -46.632  1.00  0.00     0.000 C 
BRANCH   2   3
ATOM      3  C   UNL     1       7.822 -13.065 -46.638  1.00  0.00     0.006 C 
BRANCH   3   4
ATOM      4  C   UNL     1       7.263 -13.755 -45.387  1.00  0.00     0.053 C 
BRANCH   4   5
ATOM      5  C   UNL     1       5.867 -14.253 -45.606  1.00  0.00     0.041 C 
ATOM      6  O   UNL     1       4.887 -13.625 -45.127  1.00  0.00    -0.550 OA
ATOM      7  O   UNL     1       5.651 -15.430 -46.311  1.00  0.00    -0.550 OA
ENDBRANCH   4   5
ENDBRANCH   3   4
ENDBRANCH   2   3
ENDBRANCH   1   2
BRANCH   1   8
ATOM      8  C   UNL     1       9.830 -10.943 -45.615  1.00  0.00     0.000 C 
BRANCH   8   9
ATOM      9  C   UNL     1      10.555 -11.007 -44.259  1.00  0.00     0.000 C 
BRANCH   9  10
ATOM     10  C   UNL     1      11.534  -9.837 -44.051  1.00  0.00     0.006 C 
BRANCH  10  11
ATOM     11  C   UNL     1      10.925  -8.451 -44.317  1.00  0.00     0.053 C 
BRANCH  11  12
ATOM     12  C   UNL     1      10.236  -7.901 -43.106  1.00  0.00     0.041 C 
ATOM     13  O   UNL     1       9.383  -6.983 -43.224  1.00  0.00    -0.550 OA
ATOM     14  O   UNL     1      10.515  -8.425 -41.850  1.00  0.00    -0.550 OA
ENDBRANCH  11  12
ENDBRANCH  10  11
ENDBRANCH   9  10
ENDBRANCH   8   9
ENDBRANCH   1   8
TORSDOF 9
ENDMDL
MODEL 7
REMARK VINA RESULT:    -3.950     13.132     15.271
REMARK INTER + INTRA:          -6.522
REMARK INTER:                  -6.312
REMARK INTRA:                  -0.210
REMARK UNBOUND:                -0.493
REMARK SMILES O=C([O-])CCCCCCCCC(=O)[O-]
REMARK SMILES IDX 7 1 6 2 5 3 4 4 2 5 1 6 3 7 8 8 9 9 10 10 11 11 12 12 13 13
REMARK SMILES IDX 14 14
REMARK H PARENT
REMARK Flexibility Score: inf
ROOT
ATOM      1  C   UNL     1      13.039 -11.134 -44.218  1.00  0.00     0.000 C 
ENDROOT
BRANCH   1   2
ATOM      2  C   UNL     1      14.119 -11.910 -43.450  1.00  0.00     0.000 C 
BRANCH   2   3
ATOM      3  C   UNL     1      15.512 -11.639 -44.039  1.00  0.00     0.006 C 
BRANCH   3   4
ATOM      4  C   UNL     1      16.621 -11.753 -42.984  1.00  0.00     0.053 C 
BRANCH   4   5
ATOM      5  C   UNL     1      17.923 -12.179 -43.593  1.00  0.00     0.041 C 
ATOM      6  O   UNL     1      17.949 -13.087 -44.464  1.00  0.00    -0.550 OA
ATOM      7  O   UNL     1      19.111 -11.596 -43.171  1.00  0.00    -0.550 OA
ENDBRANCH   4   5
ENDBRANCH   3   4
ENDBRANCH   2   3
ENDBRANCH   1   2
BRANCH   1   8
ATOM      8  C   UNL     1      11.654 -11.245 -43.560  1.00  0.00     0.000 C 
BRANCH   8   9
ATOM      9  C   UNL     1      10.506 -11.188 -44.584  1.00  0.00     0.000 C 
BRANCH   9  10
ATOM     10  C   UNL     1       9.782  -9.830 -44.590  1.00  0.00     0.006 C 
BRANCH  10  11
ATOM     11  C   UNL     1      10.680  -8.636 -44.230  1.00  0.00     0.053 C 
BRANCH  11  12
ATOM     12  C   UNL     1      10.161  -7.883 -43.044  1.00  0.00     0.041 C 
ATOM     13  O   UNL     1       9.410  -6.886 -43.204  1.00  0.00    -0.550 OA
ATOM     14  O   UNL     1      10.483  -8.304 -41.759  1.00  0.00    -0.550 OA
ENDBRANCH  11  12
ENDBRANCH  10  11
ENDBRANCH   9  10
ENDBRANCH   8   9
ENDBRANCH   1   8
TORSDOF 9
ENDMDL
MODEL 8
REMARK VINA RESULT:    -3.938     12.660     14.424
REMARK INTER + INTRA:          -6.503
REMARK INTER:                  -6.014
REMARK INTRA:                  -0.489
REMARK UNBOUND:                -0.493
REMARK SMILES O=C([O-])CCCCCCCCC(=O)[O-]
REMARK SMILES IDX 7 1 6 2 5 3 4 4 2 5 1 6 3 7 8 8 9 9 10 10 11 11 12 12 13 13
REMARK SMILES IDX 14 14
REMARK H PARENT
REMARK Flexibility Score: inf
ROOT
ATOM      1  C   UNL     1      11.117 -11.740 -43.384  1.00  0.00     0.000 C 
ENDROOT
BRANCH   1   2
ATOM      2  C   UNL     1      12.557 -12.258 -43.256  1.00  0.00     0.000 C 
BRANCH   2   3
ATOM      3  C   UNL     1      13.545 -11.314 -43.957  1.00  0.00     0.006 C 
BRANCH   3   4
ATOM      4  C   UNL     1      14.724 -12.067 -44.585  1.00  0.00     0.053 C 
BRANCH   4   5
ATOM      5  C   UNL     1      15.993 -11.852 -43.817  1.00  0.00     0.041 C 
ATOM      6  O   UNL     1      15.953 -11.590 -42.586  1.00  0.00    -0.550 OA
ATOM      7  O   UNL     1      17.218 -11.908 -44.468  1.00  0.00    -0.550 OA
ENDBRANCH   4   5
ENDBRANCH   3   4
ENDBRANCH   2   3
ENDBRANCH   1   2
BRANCH   1   8
ATOM      8  C   UNL     1      11.038 -10.205 -43.357  1.00  0.00     0.000 C 
BRANCH   8   9
ATOM      9  C   UNL     1      10.268  -9.631 -44.559  1.00  0.00     0.000 C 
BRANCH   9  10
ATOM     10  C   UNL     1       9.719 -10.725 -45.492  1.00  0.00     0.006 C 
BRANCH  10  11
ATOM     11  C   UNL     1       8.196 -10.677 -45.692  1.00  0.00     0.053 C 
BRANCH  11  12
ATOM     12  C   UNL     1       7.652 -11.989 -46.169  1.00  0.00     0.041 C 
ATOM     13  O   UNL     1       6.519 -12.383 -45.787  1.00  0.00    -0.550 OA
ATOM     14  O   UNL     1       8.385 -12.760 -47.063  1.00  0.00    -0.550 OA
ENDBRANCH  11  12
ENDBRANCH  10  11
ENDBRANCH   9  10
ENDBRANCH   8   9
ENDBRANCH   1   8
TORSDOF 9
ENDMDL
MODEL 9
REMARK VINA RESULT:    -3.896     13.010     14.764
REMARK INTER + INTRA:          -6.439
REMARK INTER:                  -5.842
REMARK INTRA:                  -0.597
REMARK UNBOUND:                -0.493
REMARK SMILES O=C([O-])CCCCCCCCC(=O)[O-]
REMARK SMILES IDX 7 1 6 2 5 3 4 4 2 5 1 6 3 7 8 8 9 9 10 10 11 11 12 12 13 13
REMARK SMILES IDX 14 14
REMARK H PARENT
REMARK Flexibility Score: inf
ROOT
ATOM      1  C   UNL     1      13.303 -13.513 -43.768  1.00  0.00     0.000 C 
ENDROOT
BRANCH   1   2
ATOM      2  C   UNL     1      13.981 -13.332 -45.134  1.00  0.00     0.000 C 
BRANCH   2   3
ATOM      3  C   UNL     1      15.507 -13.254 -44.984  1.00  0.00     0.006 C 
BRANCH   3   4
ATOM      4  C   UNL     1      15.996 -11.820 -44.742  1.00  0.00     0.053 C 
BRANCH   4   5
ATOM      5  C   UNL     1      16.728 -11.695 -43.440  1.00  0.00     0.041 C 
ATOM      6  O   UNL     1      16.091 -11.585 -42.361  1.00  0.00    -0.550 OA
ATOM      7  O   UNL     1      18.117 -11.669 -43.424  1.00  0.00    -0.550 OA
ENDBRANCH   4   5
ENDBRANCH   3   4
ENDBRANCH   2   3
ENDBRANCH   1   2
BRANCH   1   8
ATOM      8  C   UNL     1      12.679 -12.211 -43.242  1.00  0.00     0.000 C 
BRANCH   8   9
ATOM      9  C   UNL     1      11.183 -12.091 -43.581  1.00  0.00     0.000 C 
BRANCH   9  10
ATOM     10  C   UNL     1      10.926 -11.265 -44.855  1.00  0.00     0.006 C 
BRANCH  10  11
ATOM     11  C   UNL     1      10.064 -10.012 -44.630  1.00  0.00     0.053 C 
BRANCH  11  12
ATOM     12  C   UNL     1      10.900  -8.788 -44.417  1.00  0.00     0.041 C 
ATOM     13  O   UNL     1      12.141  -8.822 -44.628  1.00  0.00    -0.550 OA
ATOM     14  O   UNL     1      10.302  -7.600 -44.016  1.00  0.00    -0.550 OA
ENDBRANCH  11  12
ENDBRANCH  10  11
ENDBRANCH   9  10
ENDBRANCH   8   9
ENDBRANCH   1   8
TORSDOF 9
ENDMDL
