MODEL 1
REMARK VINA RESULT:    -2.922      0.000      0.000
REMARK INTER + INTRA:          -4.176
REMARK INTER:                  -3.947
REMARK INTRA:                  -0.229
REMARK UNBOUND:                -0.229
REMARK SMILES CCCCCCCC(=O)[O-]
REMARK SMILES IDX 5 1 6 2 7 3 8 4 9 5 10 6 4 7 3 8 2 9 1 10
REMARK H PARENT
REMARK Flexibility Score: inf
ROOT
ATOM      1  C   UNL     1      -4.900  20.117  15.985  1.00  0.00     0.000 C 
ENDROOT
BRANCH   1   2
ATOM      2  C   UNL     1      -3.383  19.891  15.900  1.00  0.00     0.006 C 
BRANCH   2   3
ATOM      3  C   UNL     1      -2.692  20.071  17.258  1.00  0.00     0.053 C 
BRANCH   3   4
ATOM      4  C   UNL     1      -1.500  20.973  17.160  1.00  0.00     0.041 C 
ATOM      5  O   UNL     1      -1.104  21.611  18.171  1.00  0.00    -0.550 OA
ATOM      6  O   UNL     1      -0.806  21.083  15.962  1.00  0.00    -0.550 OA
ENDBRANCH   3   4
ENDBRANCH   2   3
ENDBRANCH   1   2
BRANCH   1   7
ATOM      7  C   UNL     1      -5.412  20.879  14.758  1.00  0.00     0.000 C 
BRANCH   7   8
ATOM      8  C   UNL     1      -6.927  21.104  14.841  1.00  0.00    -0.000 C 
BRANCH   8   9
ATOM      9  C   UNL     1      -7.478  20.646  16.195  1.00  0.00    -0.003 C 
ATOM     10  C   UNL     1      -8.205  21.784  16.907  1.00  0.00     0.004 C 
ENDBRANCH   8   9
ENDBRANCH   7   8
ENDBRANCH   1   7
TORSDOF 6
ENDMDL
MODEL 2
REMARK VINA RESULT:    -2.733      3.724      5.461
REMARK INTER + INTRA:          -3.921
REMARK INTER:                  -3.614
REMARK INTRA:                  -0.308
REMARK UNBOUND:                -0.229
REMARK SMILES CCCCCCCC(=O)[O-]
REMARK SMILES IDX 5 1 6 2 7 3 8 4 9 5 10 6 4 7 3 8 2 9 1 10
REMARK H PARENT
REMARK Flexibility Score: inf
ROOT
ATOM      1  C   UNL     1      -8.731  22.149  17.179  1.00  0.00     0.000 C 
ENDROOT
BRANCH   1   2
ATOM      2  C   UNL     1      -8.679  22.603  18.645  1.00  0.00     0.006 C 
BRANCH   2   3
ATOM      3  C   UNL     1      -8.915  21.443  19.622  1.00  0.00     0.053 C 
BRANCH   3   4
ATOM      4  C   UNL     1      -7.728  21.211  20.507  1.00  0.00     0.041 C 
ATOM      5  O   UNL     1      -7.846  21.297  21.757  1.00  0.00    -0.550 OA
ATOM      6  O   UNL     1      -6.502  20.868  19.952  1.00  0.00    -0.550 OA
ENDBRANCH   3   4
ENDBRANCH   2   3
ENDBRANCH   1   2
BRANCH   1   7
ATOM      7  C   UNL     1      -8.606  20.625  17.070  1.00  0.00     0.000 C 
BRANCH   7   8
ATOM      8  C   UNL     1      -8.046  20.214  15.703  1.00  0.00    -0.000 C 
BRANCH   8   9
ATOM      9  C   UNL     1      -7.204  21.339  15.092  1.00  0.00    -0.003 C 
ATOM     10  C   UNL     1      -5.867  20.811  14.580  1.00  0.00     0.004 C 
ENDBRANCH   8   9
ENDBRANCH   7   8
ENDBRANCH   1   7
TORSDOF 6
ENDMDL
MODEL 3
REMARK VINA RESULT:    -2.645      4.402      6.083
REMARK INTER + INTRA:          -3.803
REMARK INTER:                  -3.532
REMARK INTRA:                  -0.271
REMARK UNBOUND:                -0.229
REMARK SMILES CCCCCCCC(=O)[O-]
REMARK SMILES IDX 5 1 6 2 7 3 8 4 9 5 10 6 4 7 3 8 2 9 1 10
REMARK H PARENT
REMARK Flexibility Score: inf
ROOT
ATOM      1  C   UNL     1      -8.713  22.767  18.809  1.00  0.00     0.000 C 
ENDROOT
BRANCH   1   2
ATOM      2  C   UNL     1      -9.125  21.548  19.647  1.00  0.00     0.006 C 
BRANCH   2   3
ATOM      3  C   UNL     1      -8.929  21.784  21.151  1.00  0.00     0.053 C 
BRANCH   3   4
ATOM      4  C   UNL     1      -7.811  20.954  21.703  1.00  0.00     0.041 C 
ATOM      5  O   UNL     1      -7.059  20.307  20.928  1.00  0.00    -0.550 OA
ATOM      6  O   UNL     1      -7.578  20.922  23.072  1.00  0.00    -0.550 OA
ENDBRANCH   3   4
ENDBRANCH   2   3
ENDBRANCH   1   2
BRANCH   1   7
ATOM      7  C   UNL     1      -8.524  22.384  17.337  1.00  0.00     0.000 C 
BRANCH   7   8
ATOM      8  C   UNL     1      -8.120  20.912  17.197  1.00  0.00    -0.000 C 
BRANCH   8   9
ATOM      9  C   UNL     1      -8.118  20.480  15.727  1.00  0.00    -0.003 C 
ATOM     10  C   UNL     1      -6.962  21.123  14.965  1.00  0.00     0.004 C 
ENDBRANCH   8   9
ENDBRANCH   7   8
ENDBRANCH   1   7
TORSDOF 6
ENDMDL
MODEL 4
REMARK VINA RESULT:    -2.430     10.689     13.852
REMARK INTER + INTRA:          -3.512
REMARK INTER:                  -3.220
REMARK INTRA:                  -0.292
REMARK UNBOUND:                -0.229
REMARK SMILES CCCCCCCC(=O)[O-]
REMARK SMILES IDX 5 1 6 2 7 3 8 4 9 5 10 6 4 7 3 8 2 9 1 10
REMARK H PARENT
REMARK Flexibility Score: inf
ROOT
ATOM      1  C   UNL     1       8.953  21.116  13.419  1.00  0.00     0.000 C 
ENDROOT
BRANCH   1   2
ATOM      2  C   UNL     1       8.049  20.004  13.971  1.00  0.00     0.006 C 
BRANCH   2   3
ATOM      3  C   UNL     1       7.529  20.324  15.379  1.00  0.00     0.053 C 
BRANCH   3   4
ATOM      4  C   UNL     1       6.112  20.810  15.351  1.00  0.00     0.041 C 
ATOM      5  O   UNL     1       5.390  20.599  14.341  1.00  0.00    -0.550 OA
ATOM      6  O   UNL     1       5.579  21.465  16.453  1.00  0.00    -0.550 OA
ENDBRANCH   3   4
ENDBRANCH   2   3
ENDBRANCH   1   2
BRANCH   1   7
ATOM      7  C   UNL     1      10.091  21.435  14.394  1.00  0.00     0.000 C 
BRANCH   7   8
ATOM      8  C   UNL     1      11.112  22.387  13.760  1.00  0.00    -0.000 C 
BRANCH   8   9
ATOM      9  C   UNL     1      10.780  22.647  12.287  1.00  0.00    -0.003 C 
ATOM     10  C   UNL     1      10.893  24.131  11.950  1.00  0.00     0.004 C 
ENDBRANCH   8   9
ENDBRANCH   7   8
ENDBRANCH   1   7
TORSDOF 6
ENDMDL
MODEL 5
REMARK VINA RESULT:    -2.412      4.399      6.404
REMARK INTER + INTRA:          -3.488
REMARK INTER:                  -3.179
REMARK INTRA:                  -0.308
REMARK UNBOUND:                -0.229
REMARK SMILES CCCCCCCC(=O)[O-]
REMARK SMILES IDX 5 1 6 2 7 3 8 4 9 5 10 6 4 7 3 8 2 9 1 10
REMARK H PARENT
REMARK Flexibility Score: inf
ROOT
ATOM      1  C   UNL     1      -8.411  22.957  19.248  1.00  0.00     0.000 C 
ENDROOT
BRANCH   1   2
ATOM      2  C   UNL     1      -9.009  22.852  17.837  1.00  0.00     0.006 C 
BRANCH   2   3
ATOM      3  C   UNL     1      -9.046  21.405  17.328  1.00  0.00     0.053 C 
BRANCH   3   4
ATOM      4  C   UNL     1      -7.714  20.967  16.800  1.00  0.00     0.041 C 
ATOM      5  O   UNL     1      -7.355  21.293  15.638  1.00  0.00    -0.550 OA
ATOM      6  O   UNL     1      -6.856  20.227  17.603  1.00  0.00    -0.550 OA
ENDBRANCH   3   4
ENDBRANCH   2   3
ENDBRANCH   1   2
BRANCH   1   7
ATOM      7  C   UNL     1      -9.124  22.009  20.219  1.00  0.00     0.000 C 
BRANCH   7   8
ATOM      8  C   UNL     1      -8.115  21.158  21.000  1.00  0.00    -0.000 C 
BRANCH   8   9
ATOM      9  C   UNL     1      -8.480  21.098  22.487  1.00  0.00    -0.003 C 
ATOM     10  C   UNL     1      -7.406  20.367  23.289  1.00  0.00     0.004 C 
ENDBRANCH   8   9
ENDBRANCH   7   8
ENDBRANCH   1   7
TORSDOF 6
ENDMDL
MODEL 6
REMARK VINA RESULT:    -2.380     11.710     14.331
REMARK INTER + INTRA:          -3.444
REMARK INTER:                  -3.242
REMARK INTRA:                  -0.202
REMARK UNBOUND:                -0.229
REMARK SMILES CCCCCCCC(=O)[O-]
REMARK SMILES IDX 5 1 6 2 7 3 8 4 9 5 10 6 4 7 3 8 2 9 1 10
REMARK H PARENT
REMARK Flexibility Score: inf
ROOT
ATOM      1  C   UNL     1       9.226  21.172  12.930  1.00  0.00     0.000 C 
ENDROOT
BRANCH   1   2
ATOM      2  C   UNL     1      10.662  21.552  12.543  1.00  0.00     0.006 C 
BRANCH   2   3
ATOM      3  C   UNL     1      11.036  22.965  13.012  1.00  0.00     0.053 C 
BRANCH   3   4
ATOM      4  C   UNL     1      11.065  23.939  11.874  1.00  0.00     0.041 C 
ATOM      5  O   UNL     1      11.102  23.524  10.686  1.00  0.00    -0.550 OA
ATOM      6  O   UNL     1      11.017  25.304  12.125  1.00  0.00    -0.550 OA
ENDBRANCH   3   4
ENDBRANCH   2   3
ENDBRANCH   1   2
BRANCH   1   7
ATOM      7  C   UNL     1       9.125  20.852  14.426  1.00  0.00     0.000 C 
BRANCH   7   8
ATOM      8  C   UNL     1       7.977  19.876  14.706  1.00  0.00    -0.000 C 
BRANCH   8   9
ATOM      9  C   UNL     1       6.988  20.466  15.716  1.00  0.00    -0.003 C 
ATOM     10  C   UNL     1       5.688  20.885  15.035  1.00  0.00     0.004 C 
ENDBRANCH   8   9
ENDBRANCH   7   8
ENDBRANCH   1   7
TORSDOF 6
ENDMDL
MODEL 7
REMARK VINA RESULT:    -2.329     10.443     13.652
REMARK INTER + INTRA:          -3.375
REMARK INTER:                  -2.991
REMARK INTRA:                  -0.384
REMARK UNBOUND:                -0.229
REMARK SMILES CCCCCCCC(=O)[O-]
REMARK SMILES IDX 5 1 6 2 7 3 8 4 9 5 10 6 4 7 3 8 2 9 1 10
REMARK H PARENT
REMARK Flexibility Score: inf
ROOT
ATOM      1  C   UNL     1       8.903  20.816  13.608  1.00  0.00     0.000 C 
ENDROOT
BRANCH   1   2
ATOM      2  C   UNL     1       7.844  19.893  14.228  1.00  0.00     0.006 C 
BRANCH   2   3
ATOM      3  C   UNL     1       7.295  20.445  15.550  1.00  0.00     0.053 C 
BRANCH   3   4
ATOM      4  C   UNL     1       5.868  20.882  15.420  1.00  0.00     0.041 C 
ATOM      5  O   UNL     1       5.262  21.368  16.411  1.00  0.00    -0.550 OA
ATOM      6  O   UNL     1       5.218  20.785  14.197  1.00  0.00    -0.550 OA
ENDBRANCH   3   4
ENDBRANCH   2   3
ENDBRANCH   1   2
BRANCH   1   7
ATOM      7  C   UNL     1      10.298  20.187  13.692  1.00  0.00     0.000 C 
BRANCH   7   8
ATOM      8  C   UNL     1      11.124  20.825  14.816  1.00  0.00    -0.000 C 
BRANCH   8   9
ATOM      9  C   UNL     1      10.999  22.352  14.792  1.00  0.00    -0.003 C 
ATOM     10  C   UNL     1      11.095  22.935  16.200  1.00  0.00     0.004 C 
ENDBRANCH   8   9
ENDBRANCH   7   8
ENDBRANCH   1   7
TORSDOF 6
ENDMDL
MODEL 8
REMARK VINA RESULT:    -2.298      3.479      5.139
REMARK INTER + INTRA:          -3.334
REMARK INTER:                  -2.928
REMARK INTRA:                  -0.406
REMARK UNBOUND:                -0.229
REMARK SMILES CCCCCCCC(=O)[O-]
REMARK SMILES IDX 5 1 6 2 7 3 8 4 9 5 10 6 4 7 3 8 2 9 1 10
REMARK H PARENT
REMARK Flexibility Score: inf
ROOT
ATOM      1  C   UNL     1      -8.952  20.465  18.167  1.00  0.00     0.000 C 
ENDROOT
BRANCH   1   2
ATOM      2  C   UNL     1      -8.280  19.915  16.900  1.00  0.00     0.006 C 
BRANCH   2   3
ATOM      3  C   UNL     1      -6.872  20.491  16.693  1.00  0.00     0.053 C 
BRANCH   3   4
ATOM      4  C   UNL     1      -6.635  20.878  15.265  1.00  0.00     0.041 C 
ATOM      5  O   UNL     1      -7.588  21.289  14.553  1.00  0.00    -0.550 OA
ATOM      6  O   UNL     1      -5.354  20.816  14.731  1.00  0.00    -0.550 OA
ENDBRANCH   3   4
ENDBRANCH   2   3
ENDBRANCH   1   2
BRANCH   1   7
ATOM      7  C   UNL     1      -9.042  21.994  18.123  1.00  0.00     0.000 C 
BRANCH   7   8
ATOM      8  C   UNL     1      -8.539  22.615  19.432  1.00  0.00    -0.000 C 
BRANCH   8   9
ATOM      9  C   UNL     1      -7.828  21.570  20.298  1.00  0.00    -0.003 C 
ATOM     10  C   UNL     1      -8.485  21.452  21.671  1.00  0.00     0.004 C 
ENDBRANCH   8   9
ENDBRANCH   7   8
ENDBRANCH   1   7
TORSDOF 6
ENDMDL
MODEL 9
REMARK VINA RESULT:    -2.193      3.580      5.549
REMARK INTER + INTRA:          -3.192
REMARK INTER:                  -2.938
REMARK INTRA:                  -0.254
REMARK UNBOUND:                -0.229
REMARK SMILES CCCCCCCC(=O)[O-]
REMARK SMILES IDX 5 1 6 2 7 3 8 4 9 5 10 6 4 7 3 8 2 9 1 10
REMARK H PARENT
REMARK Flexibility Score: inf
ROOT
ATOM      1  C   UNL     1      -5.339  20.778  14.913  1.00  0.00     0.000 C 
ENDROOT
BRANCH   1   2
ATOM      2  C   UNL     1      -6.387  20.428  15.979  1.00  0.00     0.006 C 
BRANCH   2   3
ATOM      3  C   UNL     1      -7.730  21.125  15.724  1.00  0.00     0.053 C 
BRANCH   3   4
ATOM      4  C   UNL     1      -8.475  21.381  16.999  1.00  0.00     0.041 C 
ATOM      5  O   UNL     1      -8.977  20.422  17.642  1.00  0.00    -0.550 OA
ATOM      6  O   UNL     1      -8.585  22.674  17.493  1.00  0.00    -0.550 OA
ENDBRANCH   3   4
ENDBRANCH   2   3
ENDBRANCH   1   2
BRANCH   1   7
ATOM      7  C   UNL     1      -3.975  20.173  15.264  1.00  0.00     0.000 C 
BRANCH   7   8
ATOM      8  C   UNL     1      -3.871  19.877  16.765  1.00  0.00    -0.000 C 
BRANCH   8   9
ATOM      9  C   UNL     1      -2.409  19.875  17.225  1.00  0.00    -0.003 C 
ATOM     10  C   UNL     1      -1.565  20.827  16.382  1.00  0.00     0.004 C 
ENDBRANCH   8   9
ENDBRANCH   7   8
ENDBRANCH   1   7
TORSDOF 6
ENDMDL
