MODEL 1
REMARK VINA RESULT:    -3.310      0.000      0.000
REMARK INTER + INTRA:          -4.635
REMARK INTER:                  -4.277
REMARK INTRA:                  -0.358
REMARK UNBOUND:                -0.358
REMARK SMILES CCCCCCC(=O)[O-]
REMARK SMILES IDX 5 1 6 2 7 3 8 4 9 5 4 6 3 7 2 8 1 9
REMARK H PARENT
REMARK Flexibility Score: inf
ROOT
ATOM      1  C   UNL     1      35.982  24.279 223.012  1.00  0.00     0.006 C 
ENDROOT
BRANCH   1   2
ATOM      2  C   UNL     1      37.400  24.784 223.306  1.00  0.00     0.053 C 
BRANCH   2   3
ATOM      3  C   UNL     1      38.371  23.645 223.298  1.00  0.00     0.041 C 
ATOM      4  O   UNL     1      38.202  22.664 224.069  1.00  0.00    -0.550 OA
ATOM      5  O   UNL     1      39.434  23.644 222.405  1.00  0.00    -0.550 OA
ENDBRANCH   2   3
ENDBRANCH   1   2
BRANCH   1   6
ATOM      6  C   UNL     1      35.862  23.618 221.628  1.00  0.00     0.000 C 
BRANCH   6   7
ATOM      7  C   UNL     1      35.894  24.643 220.480  1.00  0.00    -0.000 C 
BRANCH   7   8
ATOM      8  C   UNL     1      36.527  24.073 219.202  1.00  0.00    -0.003 C 
ATOM      9  C   UNL     1      37.611  23.035 219.488  1.00  0.00     0.004 C 
ENDBRANCH   7   8
ENDBRANCH   6   7
ENDBRANCH   1   6
TORSDOF 5
ENDMDL
MODEL 2
REMARK VINA RESULT:    -3.304      1.544      1.622
REMARK INTER + INTRA:          -4.627
REMARK INTER:                  -4.390
REMARK INTRA:                  -0.237
REMARK UNBOUND:                -0.358
REMARK SMILES CCCCCCC(=O)[O-]
REMARK SMILES IDX 5 1 6 2 7 3 8 4 9 5 4 6 3 7 2 8 1 9
REMARK H PARENT
REMARK Flexibility Score: inf
ROOT
ATOM      1  C   UNL     1      36.502  23.946 223.448  1.00  0.00     0.006 C 
ENDROOT
BRANCH   1   2
ATOM      2  C   UNL     1      36.948  25.414 223.437  1.00  0.00     0.053 C 
BRANCH   2   3
ATOM      3  C   UNL     1      38.319  25.546 224.020  1.00  0.00     0.041 C 
ATOM      4  O   UNL     1      38.526  26.334 224.981  1.00  0.00    -0.550 OA
ATOM      5  O   UNL     1      39.358  24.762 223.537  1.00  0.00    -0.550 OA
ENDBRANCH   2   3
ENDBRANCH   1   2
BRANCH   1   6
ATOM      6  C   UNL     1      36.479  23.323 222.042  1.00  0.00     0.000 C 
BRANCH   6   7
ATOM      7  C   UNL     1      35.725  24.194 221.022  1.00  0.00    -0.000 C 
BRANCH   7   8
ATOM      8  C   UNL     1      36.328  24.104 219.612  1.00  0.00    -0.003 C 
ATOM      9  C   UNL     1      37.538  23.174 219.543  1.00  0.00     0.004 C 
ENDBRANCH   7   8
ENDBRANCH   6   7
ENDBRANCH   1   6
TORSDOF 5
ENDMDL
MODEL 3
REMARK VINA RESULT:    -3.275      1.996      2.161
REMARK INTER + INTRA:          -4.590
REMARK INTER:                  -4.378
REMARK INTRA:                  -0.212
REMARK UNBOUND:                -0.358
REMARK SMILES CCCCCCC(=O)[O-]
REMARK SMILES IDX 5 1 6 2 7 3 8 4 9 5 4 6 3 7 2 8 1 9
REMARK H PARENT
REMARK Flexibility Score: inf
ROOT
ATOM      1  C   UNL     1      36.736  23.006 223.375  1.00  0.00     0.006 C 
ENDROOT
BRANCH   1   2
ATOM      2  C   UNL     1      37.453  23.794 224.480  1.00  0.00     0.053 C 
BRANCH   2   3
ATOM      3  C   UNL     1      36.958  25.205 224.518  1.00  0.00     0.041 C 
ATOM      4  O   UNL     1      35.783  25.454 224.898  1.00  0.00    -0.550 OA
ATOM      5  O   UNL     1      37.809  26.250 224.182  1.00  0.00    -0.550 OA
ENDBRANCH   2   3
ENDBRANCH   1   2
BRANCH   1   6
ATOM      6  C   UNL     1      36.964  23.605 221.977  1.00  0.00     0.000 C 
BRANCH   6   7
ATOM      7  C   UNL     1      35.647  23.972 221.271  1.00  0.00    -0.000 C 
BRANCH   7   8
ATOM      8  C   UNL     1      35.867  24.438 219.823  1.00  0.00    -0.003 C 
ATOM      9  C   UNL     1      36.797  23.516 219.037  1.00  0.00     0.004 C 
ENDBRANCH   7   8
ENDBRANCH   6   7
ENDBRANCH   1   6
TORSDOF 5
ENDMDL
MODEL 4
REMARK VINA RESULT:    -3.258      2.657      4.366
REMARK INTER + INTRA:          -4.568
REMARK INTER:                  -4.330
REMARK INTRA:                  -0.238
REMARK UNBOUND:                -0.358
REMARK SMILES CCCCCCC(=O)[O-]
REMARK SMILES IDX 5 1 6 2 7 3 8 4 9 5 4 6 3 7 2 8 1 9
REMARK H PARENT
REMARK Flexibility Score: inf
ROOT
ATOM      1  C   UNL     1      35.746  23.824 222.425  1.00  0.00     0.006 C 
ENDROOT
BRANCH   1   2
ATOM      2  C   UNL     1      36.646  23.814 221.182  1.00  0.00     0.053 C 
BRANCH   2   3
ATOM      3  C   UNL     1      35.848  24.137 219.958  1.00  0.00     0.041 C 
ATOM      4  O   UNL     1      36.431  24.408 218.876  1.00  0.00    -0.550 OA
ATOM      5  O   UNL     1      34.461  24.089 220.001  1.00  0.00    -0.550 OA
ENDBRANCH   2   3
ENDBRANCH   1   2
BRANCH   1   6
ATOM      6  C   UNL     1      36.516  24.166 223.712  1.00  0.00     0.000 C 
BRANCH   6   7
ATOM      7  C   UNL     1      37.993  23.741 223.646  1.00  0.00    -0.000 C 
BRANCH   7   8
ATOM      8  C   UNL     1      38.953  24.916 223.888  1.00  0.00    -0.003 C 
ATOM      9  C   UNL     1      38.243  26.165 224.411  1.00  0.00     0.004 C 
ENDBRANCH   7   8
ENDBRANCH   6   7
ENDBRANCH   1   6
TORSDOF 5
ENDMDL
MODEL 5
REMARK VINA RESULT:    -3.198      1.978      3.744
REMARK INTER + INTRA:          -4.490
REMARK INTER:                  -4.112
REMARK INTRA:                  -0.378
REMARK UNBOUND:                -0.358
REMARK SMILES CCCCCCC(=O)[O-]
REMARK SMILES IDX 5 1 6 2 7 3 8 4 9 5 4 6 3 7 2 8 1 9
REMARK H PARENT
REMARK Flexibility Score: inf
ROOT
ATOM      1  C   UNL     1      36.403  24.065 223.415  1.00  0.00     0.006 C 
ENDROOT
BRANCH   1   2
ATOM      2  C   UNL     1      35.509  23.908 222.178  1.00  0.00     0.053 C 
BRANCH   2   3
ATOM      3  C   UNL     1      36.323  24.024 220.928  1.00  0.00     0.041 C 
ATOM      4  O   UNL     1      35.902  24.713 219.961  1.00  0.00    -0.550 OA
ATOM      5  O   UNL     1      37.567  23.414 220.850  1.00  0.00    -0.550 OA
ENDBRANCH   2   3
ENDBRANCH   1   2
BRANCH   1   6
ATOM      6  C   UNL     1      36.912  25.504 223.600  1.00  0.00     0.000 C 
BRANCH   6   7
ATOM      7  C   UNL     1      38.405  25.559 223.969  1.00  0.00    -0.000 C 
BRANCH   7   8
ATOM      8  C   UNL     1      39.063  24.170 223.965  1.00  0.00    -0.003 C 
ATOM      9  C   UNL     1      40.280  24.092 223.045  1.00  0.00     0.004 C 
ENDBRANCH   7   8
ENDBRANCH   6   7
ENDBRANCH   1   6
TORSDOF 5
ENDMDL
MODEL 6
REMARK VINA RESULT:    -3.123      2.624      4.153
REMARK INTER + INTRA:          -4.393
REMARK INTER:                  -4.231
REMARK INTRA:                  -0.162
REMARK UNBOUND:                -0.358
REMARK SMILES CCCCCCC(=O)[O-]
REMARK SMILES IDX 5 1 6 2 7 3 8 4 9 5 4 6 3 7 2 8 1 9
REMARK H PARENT
REMARK Flexibility Score: inf
ROOT
ATOM      1  C   UNL     1      36.976  23.380 222.584  1.00  0.00     0.006 C 
ENDROOT
BRANCH   1   2
ATOM      2  C   UNL     1      36.114  24.394 221.820  1.00  0.00     0.053 C 
BRANCH   2   3
ATOM      3  C   UNL     1      36.116  24.082 220.357  1.00  0.00     0.041 C 
ATOM      4  O   UNL     1      35.066  24.231 219.677  1.00  0.00    -0.550 OA
ATOM      5  O   UNL     1      37.288  23.675 219.735  1.00  0.00    -0.550 OA
ENDBRANCH   2   3
ENDBRANCH   1   2
BRANCH   1   6
ATOM      6  C   UNL     1      38.240  24.013 223.190  1.00  0.00     0.000 C 
BRANCH   6   7
ATOM      7  C   UNL     1      39.521  23.607 222.439  1.00  0.00    -0.000 C 
BRANCH   7   8
ATOM      8  C   UNL     1      40.770  23.669 223.332  1.00  0.00    -0.003 C 
ATOM      9  C   UNL     1      41.670  22.445 223.179  1.00  0.00     0.004 C 
ENDBRANCH   7   8
ENDBRANCH   6   7
ENDBRANCH   1   6
TORSDOF 5
ENDMDL
MODEL 7
REMARK VINA RESULT:    -3.087      1.405      1.949
REMARK INTER + INTRA:          -4.347
REMARK INTER:                  -4.169
REMARK INTRA:                  -0.178
REMARK UNBOUND:                -0.358
REMARK SMILES CCCCCCC(=O)[O-]
REMARK SMILES IDX 5 1 6 2 7 3 8 4 9 5 4 6 3 7 2 8 1 9
REMARK H PARENT
REMARK Flexibility Score: inf
ROOT
ATOM      1  C   UNL     1      36.354  23.853 223.647  1.00  0.00     0.006 C 
ENDROOT
BRANCH   1   2
ATOM      2  C   UNL     1      37.009  22.504 223.973  1.00  0.00     0.053 C 
BRANCH   2   3
ATOM      3  C   UNL     1      38.304  22.714 224.692  1.00  0.00     0.041 C 
ATOM      4  O   UNL     1      39.330  22.068 224.349  1.00  0.00    -0.550 OA
ATOM      5  O   UNL     1      38.392  23.658 225.706  1.00  0.00    -0.550 OA
ENDBRANCH   2   3
ENDBRANCH   1   2
BRANCH   1   6
ATOM      6  C   UNL     1      35.883  23.946 222.186  1.00  0.00     0.000 C 
BRANCH   6   7
ATOM      7  C   UNL     1      36.987  23.565 221.185  1.00  0.00    -0.000 C 
BRANCH   7   8
ATOM      8  C   UNL     1      36.622  23.937 219.739  1.00  0.00    -0.003 C 
ATOM      9  C   UNL     1      35.133  24.226 219.559  1.00  0.00     0.004 C 
ENDBRANCH   7   8
ENDBRANCH   6   7
ENDBRANCH   1   6
TORSDOF 5
ENDMDL
MODEL 8
REMARK VINA RESULT:    -3.054      1.852      2.646
REMARK INTER + INTRA:          -4.304
REMARK INTER:                  -4.046
REMARK INTRA:                  -0.258
REMARK UNBOUND:                -0.358
REMARK SMILES CCCCCCC(=O)[O-]
REMARK SMILES IDX 5 1 6 2 7 3 8 4 9 5 4 6 3 7 2 8 1 9
REMARK H PARENT
REMARK Flexibility Score: inf
ROOT
ATOM      1  C   UNL     1      39.037  24.677 223.342  1.00  0.00     0.006 C 
ENDROOT
BRANCH   1   2
ATOM      2  C   UNL     1      39.785  23.584 222.568  1.00  0.00     0.053 C 
BRANCH   2   3
ATOM      3  C   UNL     1      41.094  23.282 223.227  1.00  0.00     0.041 C 
ATOM      4  O   UNL     1      41.493  23.983 224.194  1.00  0.00    -0.550 OA
ATOM      5  O   UNL     1      41.849  22.195 222.806  1.00  0.00    -0.550 OA
ENDBRANCH   2   3
ENDBRANCH   1   2
BRANCH   1   6
ATOM      6  C   UNL     1      37.521  24.427 223.406  1.00  0.00     0.000 C 
BRANCH   6   7
ATOM      7  C   UNL     1      37.050  23.390 222.371  1.00  0.00    -0.000 C 
BRANCH   7   8
ATOM      8  C   UNL     1      36.416  24.042 221.133  1.00  0.00    -0.003 C 
ATOM      9  C   UNL     1      37.081  23.608 219.828  1.00  0.00     0.004 C 
ENDBRANCH   7   8
ENDBRANCH   6   7
ENDBRANCH   1   6
TORSDOF 5
ENDMDL
MODEL 9
REMARK VINA RESULT:    -2.918      2.694      4.555
REMARK INTER + INTRA:          -4.129
REMARK INTER:                  -3.970
REMARK INTRA:                  -0.159
REMARK UNBOUND:                -0.358
REMARK SMILES CCCCCCC(=O)[O-]
REMARK SMILES IDX 5 1 6 2 7 3 8 4 9 5 4 6 3 7 2 8 1 9
REMARK H PARENT
REMARK Flexibility Score: inf
ROOT
ATOM      1  C   UNL     1      38.644  24.268 223.417  1.00  0.00     0.006 C 
ENDROOT
BRANCH   1   2
ATOM      2  C   UNL     1      37.510  23.620 222.612  1.00  0.00     0.053 C 
BRANCH   2   3
ATOM      3  C   UNL     1      36.184  24.155 223.055  1.00  0.00     0.041 C 
ATOM      4  O   UNL     1      35.163  23.993 222.335  1.00  0.00    -0.550 OA
ATOM      5  O   UNL     1      36.067  24.789 224.285  1.00  0.00    -0.550 OA
ENDBRANCH   2   3
ENDBRANCH   1   2
BRANCH   1   6
ATOM      6  C   UNL     1      40.033  23.973 222.828  1.00  0.00     0.000 C 
BRANCH   6   7
ATOM      7  C   UNL     1      41.138  23.960 223.900  1.00  0.00    -0.000 C 
BRANCH   7   8
ATOM      8  C   UNL     1      41.777  22.573 224.068  1.00  0.00    -0.003 C 
ATOM      9  C   UNL     1      41.859  21.795 222.756  1.00  0.00     0.004 C 
ENDBRANCH   7   8
ENDBRANCH   6   7
ENDBRANCH   1   6
TORSDOF 5
ENDMDL
