MODEL 1
REMARK VINA RESULT:    10.709      0.000      0.000
REMARK INTER + INTRA:          13.385
REMARK INTER:                  13.213
REMARK INTRA:                   0.172
REMARK UNBOUND:                 0.172
REMARK SMILES Oc1cc(O)c2cc(O)c(-c3cc(O)c(O)c(O)c3)[o+]c2c1.[Cl-]
REMARK SMILES IDX 10 1 20 2 21 3 22 4 2 5 3 6 4 7 6 8 7 9 8 10 11 11 12 12
REMARK SMILES IDX 13 13 19 14 15 15 17 16 14 17 16 19 18 21 9 23 1 25 5 27
REMARK H PARENT 14 18 16 20 18 22 9 24 1 26 5 28
REMARK Flexibility Score: inf
ROOT
ATOM      1  C   UNL     1      18.728  22.468   9.998  1.00  0.00     0.402 A 
ATOM      2  O   UNL     1      17.622  21.777   9.725  1.00  0.00    -0.202 OA
ATOM      3  C   UNL     1      16.977  21.865   8.567  1.00  0.00     0.368 A 
ATOM      4  C   UNL     1      15.824  21.101   8.357  1.00  0.00     0.162 A 
ATOM      5  C   UNL     1      15.137  21.181   7.142  1.00  0.00     0.128 A 
ATOM      6  C   UNL     1      15.604  22.031   6.129  1.00  0.00     0.093 A 
ATOM      7  C   UNL     1      16.758  22.804   6.326  1.00  0.00     0.136 A 
ATOM      8  C   UNL     1      17.450  22.722   7.550  1.00  0.00     0.125 A 
ATOM      9  C   UNL     1      18.601  23.475   7.804  1.00  0.00     0.078 A 
ATOM     10  C   UNL     1      19.246  23.362   9.040  1.00  0.00     0.223 A 
ENDROOT
BRANCH   1  11
ATOM     11  C   UNL     1      19.363  22.278  11.322  1.00  0.00     0.091 A 
ATOM     12  C   UNL     1      19.351  21.029  11.968  1.00  0.00     0.068 A 
ATOM     13  C   UNL     1      19.937  20.875  13.231  1.00  0.00     0.162 A 
ATOM     14  C   UNL     1      19.939  23.378  11.976  1.00  0.00     0.068 A 
ATOM     15  C   UNL     1      20.532  21.978  13.868  1.00  0.00     0.200 A 
ATOM     16  C   UNL     1      20.528  23.233  13.235  1.00  0.00     0.162 A 
BRANCH  13  17
ATOM     17  O   UNL     1      19.925  19.630  13.859  1.00  0.00    -0.504 OA
ATOM     18  H   UNL     1      19.125  19.011  13.797  1.00  0.00     0.293 HD
ENDBRANCH  13  17
BRANCH  15  19
ATOM     19  O   UNL     1      21.125  21.840  15.124  1.00  0.00    -0.502 OA
ATOM     20  H   UNL     1      20.775  22.324  15.942  1.00  0.00     0.293 HD
ENDBRANCH  15  19
BRANCH  16  21
ATOM     21  O   UNL     1      21.103  24.348  13.844  1.00  0.00    -0.504 OA
ATOM     22  H   UNL     1      21.248  25.219  13.346  1.00  0.00     0.293 HD
ENDBRANCH  16  21
ENDBRANCH   1  11
BRANCH  10  23
ATOM     23  O   UNL     1      20.365  24.147   9.318  1.00  0.00    -0.500 OA
ATOM     24  H   UNL     1      20.326  25.159   9.285  1.00  0.00     0.294 HD
ENDBRANCH  10  23
BRANCH   5  25
ATOM     25  O   UNL     1      13.991  20.413   6.951  1.00  0.00    -0.507 OA
ATOM     26  H   UNL     1      13.084  20.725   7.279  1.00  0.00     0.293 HD
ENDBRANCH   5  25
BRANCH   7  27
ATOM     27  O   UNL     1      17.213  23.646   5.312  1.00  0.00    -0.507 OA
ATOM     28  H   UNL     1      16.571  24.133   4.697  1.00  0.00     0.293 HD
ENDBRANCH   7  27
TORSDOF 7
ENDMDL
MODEL 2
REMARK VINA RESULT:    11.940      8.647     11.916
REMARK INTER + INTRA:          14.903
REMARK INTER:                  14.863
REMARK INTRA:                   0.040
REMARK UNBOUND:                 0.172
REMARK SMILES Oc1cc(O)c2cc(O)c(-c3cc(O)c(O)c(O)c3)[o+]c2c1.[Cl-]
REMARK SMILES IDX 10 1 20 2 21 3 22 4 2 5 3 6 4 7 6 8 7 9 8 10 11 11 12 12
REMARK SMILES IDX 13 13 19 14 15 15 17 16 14 17 16 19 18 21 9 23 1 25 5 27
REMARK H PARENT 14 18 16 20 18 22 9 24 1 26 5 28
REMARK Flexibility Score: inf
ROOT
ATOM      1  C   UNL     1      13.061  21.610  -0.208  1.00  0.00     0.402 A 
ATOM      2  O   UNL     1      12.320  20.759  -0.915  1.00  0.00    -0.202 OA
ATOM      3  C   UNL     1      12.255  20.779  -2.242  1.00  0.00     0.368 A 
ATOM      4  C   UNL     1      11.457  19.846  -2.910  1.00  0.00     0.162 A 
ATOM      5  C   UNL     1      11.382  19.853  -4.306  1.00  0.00     0.128 A 
ATOM      6  C   UNL     1      12.111  20.800  -5.040  1.00  0.00     0.093 A 
ATOM      7  C   UNL     1      12.915  21.744  -4.383  1.00  0.00     0.136 A 
ATOM      8  C   UNL     1      12.989  21.735  -2.977  1.00  0.00     0.125 A 
ATOM      9  C   UNL     1      13.769  22.655  -2.269  1.00  0.00     0.078 A 
ATOM     10  C   UNL     1      13.802  22.608  -0.872  1.00  0.00     0.223 A 
ENDROOT
BRANCH   1  11
ATOM     11  C   UNL     1      13.058  21.483   1.268  1.00  0.00     0.091 A 
ATOM     12  C   UNL     1      13.148  20.227   1.894  1.00  0.00     0.068 A 
ATOM     13  C   UNL     1      13.121  20.124   3.291  1.00  0.00     0.162 A 
ATOM     14  C   UNL     1      12.904  22.630   2.060  1.00  0.00     0.068 A 
ATOM     15  C   UNL     1      12.989  21.283   4.077  1.00  0.00     0.200 A 
ATOM     16  C   UNL     1      12.878  22.538   3.455  1.00  0.00     0.162 A 
BRANCH  13  17
ATOM     17  O   UNL     1      13.217  18.875   3.902  1.00  0.00    -0.504 OA
ATOM     18  H   UNL     1      13.684  18.754   4.794  1.00  0.00     0.293 HD
ENDBRANCH  13  17
BRANCH  15  19
ATOM     19  O   UNL     1      12.965  21.198   5.470  1.00  0.00    -0.502 OA
ATOM     20  H   UNL     1      12.572  20.402   5.957  1.00  0.00     0.293 HD
ENDBRANCH  15  19
BRANCH  16  21
ATOM     21  O   UNL     1      12.739  23.705   4.206  1.00  0.00    -0.504 OA
ATOM     22  H   UNL     1      13.430  24.446   4.184  1.00  0.00     0.293 HD
ENDBRANCH  16  21
ENDBRANCH   1  11
BRANCH  10  23
ATOM     23  O   UNL     1      14.537  23.554  -0.158  1.00  0.00    -0.500 OA
ATOM     24  H   UNL     1      15.540  23.647  -0.275  1.00  0.00     0.294 HD
ENDBRANCH  10  23
BRANCH   5  25
ATOM     25  O   UNL     1      10.581  18.916  -4.956  1.00  0.00    -0.507 OA
ATOM     26  H   UNL     1      10.103  18.184  -4.444  1.00  0.00     0.293 HD
ENDBRANCH   5  25
BRANCH   7  27
ATOM     27  O   UNL     1      13.635  22.681  -5.123  1.00  0.00    -0.507 OA
ATOM     28  H   UNL     1      14.497  23.085  -4.776  1.00  0.00     0.293 HD
ENDBRANCH   7  27
TORSDOF 7
ENDMDL
MODEL 3
REMARK VINA RESULT:    12.016      7.708     11.458
REMARK INTER + INTRA:          14.998
REMARK INTER:                  14.831
REMARK INTRA:                   0.167
REMARK UNBOUND:                 0.172
REMARK SMILES Oc1cc(O)c2cc(O)c(-c3cc(O)c(O)c(O)c3)[o+]c2c1.[Cl-]
REMARK SMILES IDX 10 1 20 2 21 3 22 4 2 5 3 6 4 7 6 8 7 9 8 10 11 11 12 12
REMARK SMILES IDX 13 13 19 14 15 15 17 16 14 17 16 19 18 21 9 23 1 25 5 27
REMARK H PARENT 14 18 16 20 18 22 9 24 1 26 5 28
REMARK Flexibility Score: inf
ROOT
ATOM      1  C   UNL     1      13.673  22.632  -0.083  1.00  0.00     0.402 A 
ATOM      2  O   UNL     1      12.935  21.597  -0.481  1.00  0.00    -0.202 OA
ATOM      3  C   UNL     1      12.639  21.362  -1.756  1.00  0.00     0.368 A 
ATOM      4  C   UNL     1      11.862  20.250  -2.092  1.00  0.00     0.162 A 
ATOM      5  C   UNL     1      11.546  19.989  -3.429  1.00  0.00     0.128 A 
ATOM      6  C   UNL     1      12.010  20.846  -4.437  1.00  0.00     0.093 A 
ATOM      7  C   UNL     1      12.789  21.967  -4.114  1.00  0.00     0.136 A 
ATOM      8  C   UNL     1      13.107  22.229  -2.767  1.00  0.00     0.125 A 
ATOM      9  C   UNL     1      13.874  23.335  -2.387  1.00  0.00     0.078 A 
ATOM     10  C   UNL     1      14.155  23.553  -1.034  1.00  0.00     0.223 A 
ENDROOT
BRANCH   1  11
ATOM     11  C   UNL     1      13.942  22.783   1.366  1.00  0.00     0.091 A 
ATOM     12  C   UNL     1      15.114  23.403   1.832  1.00  0.00     0.068 A 
ATOM     13  C   UNL     1      15.363  23.517   3.206  1.00  0.00     0.162 A 
ATOM     14  C   UNL     1      13.038  22.248   2.296  1.00  0.00     0.068 A 
ATOM     15  C   UNL     1      14.440  22.997   4.130  1.00  0.00     0.200 A 
ATOM     16  C   UNL     1      13.276  22.359   3.669  1.00  0.00     0.162 A 
BRANCH  13  17
ATOM     17  O   UNL     1      16.526  24.139   3.657  1.00  0.00    -0.504 OA
ATOM     18  H   UNL     1      16.706  24.277   4.645  1.00  0.00     0.293 HD
ENDBRANCH  13  17
BRANCH  15  19
ATOM     19  O   UNL     1      14.669  23.107   5.503  1.00  0.00    -0.502 OA
ATOM     20  H   UNL     1      15.299  23.798   5.892  1.00  0.00     0.293 HD
ENDBRANCH  15  19
BRANCH  16  21
ATOM     21  O   UNL     1      12.345  21.826   4.561  1.00  0.00    -0.504 OA
ATOM     22  H   UNL     1      11.618  21.186   4.263  1.00  0.00     0.293 HD
ENDBRANCH  16  21
ENDBRANCH   1  11
BRANCH  10  23
ATOM     23  O   UNL     1      14.876  24.681  -0.643  1.00  0.00    -0.500 OA
ATOM     24  H   UNL     1      14.457  25.409  -0.076  1.00  0.00     0.294 HD
ENDBRANCH  10  23
BRANCH   5  25
ATOM     25  O   UNL     1      10.771  18.876  -3.746  1.00  0.00    -0.507 OA
ATOM     26  H   UNL     1      10.190  18.854  -4.576  1.00  0.00     0.293 HD
ENDBRANCH   5  25
BRANCH   7  27
ATOM     27  O   UNL     1      13.244  22.814  -5.125  1.00  0.00    -0.507 OA
ATOM     28  H   UNL     1      14.115  22.639  -5.612  1.00  0.00     0.293 HD
ENDBRANCH   7  27
TORSDOF 7
ENDMDL
MODEL 4
REMARK VINA RESULT:    12.329      8.278     11.753
REMARK INTER + INTRA:          15.384
REMARK INTER:                  15.085
REMARK INTRA:                   0.300
REMARK UNBOUND:                 0.172
REMARK SMILES Oc1cc(O)c2cc(O)c(-c3cc(O)c(O)c(O)c3)[o+]c2c1.[Cl-]
REMARK SMILES IDX 10 1 20 2 21 3 22 4 2 5 3 6 4 7 6 8 7 9 8 10 11 11 12 12
REMARK SMILES IDX 13 13 19 14 15 15 17 16 14 17 16 19 18 21 9 23 1 25 5 27
REMARK H PARENT 14 18 16 20 18 22 9 24 1 26 5 28
REMARK Flexibility Score: inf
ROOT
ATOM      1  C   UNL     1      13.126  21.623   0.068  1.00  0.00     0.402 A 
ATOM      2  O   UNL     1      12.386  20.763  -0.629  1.00  0.00    -0.202 OA
ATOM      3  C   UNL     1      12.307  20.778  -1.956  1.00  0.00     0.368 A 
ATOM      4  C   UNL     1      11.511  19.836  -2.613  1.00  0.00     0.162 A 
ATOM      5  C   UNL     1      11.422  19.838  -4.008  1.00  0.00     0.128 A 
ATOM      6  C   UNL     1      12.132  20.790  -4.752  1.00  0.00     0.093 A 
ATOM      7  C   UNL     1      12.934  21.744  -4.107  1.00  0.00     0.136 A 
ATOM      8  C   UNL     1      13.023  21.739  -2.701  1.00  0.00     0.125 A 
ATOM      9  C   UNL     1      13.801  22.670  -2.004  1.00  0.00     0.078 A 
ATOM     10  C   UNL     1      13.850  22.627  -0.607  1.00  0.00     0.223 A 
ENDROOT
BRANCH   1  11
ATOM     11  C   UNL     1      13.139  21.500   1.543  1.00  0.00     0.091 A 
ATOM     12  C   UNL     1      13.507  22.580   2.365  1.00  0.00     0.068 A 
ATOM     13  C   UNL     1      13.537  22.438   3.758  1.00  0.00     0.162 A 
ATOM     14  C   UNL     1      12.835  20.266   2.137  1.00  0.00     0.068 A 
ATOM     15  C   UNL     1      13.208  21.203   4.344  1.00  0.00     0.200 A 
ATOM     16  C   UNL     1      12.859  20.115   3.526  1.00  0.00     0.162 A 
BRANCH  13  17
ATOM     17  O   UNL     1      13.897  23.518   4.563  1.00  0.00    -0.504 OA
ATOM     18  H   UNL     1      13.548  23.615   5.510  1.00  0.00     0.293 HD
ENDBRANCH  13  17
BRANCH  15  19
ATOM     19  O   UNL     1      13.227  21.046   5.731  1.00  0.00    -0.502 OA
ATOM     20  H   UNL     1      14.087  20.904   6.247  1.00  0.00     0.293 HD
ENDBRANCH  15  19
BRANCH  16  21
ATOM     21  O   UNL     1      12.535  18.875   4.076  1.00  0.00    -0.504 OA
ATOM     22  H   UNL     1      11.977  18.192   3.576  1.00  0.00     0.293 HD
ENDBRANCH  16  21
ENDBRANCH   1  11
BRANCH  10  23
ATOM     23  O   UNL     1      14.583  23.582   0.097  1.00  0.00    -0.500 OA
ATOM     24  H   UNL     1      14.808  23.462   1.078  1.00  0.00     0.294 HD
ENDBRANCH  10  23
BRANCH   5  25
ATOM     25  O   UNL     1      10.623  18.891  -4.647  1.00  0.00    -0.507 OA
ATOM     26  H   UNL     1      10.243  18.096  -4.146  1.00  0.00     0.293 HD
ENDBRANCH   5  25
BRANCH   7  27
ATOM     27  O   UNL     1      13.636  22.687  -4.857  1.00  0.00    -0.507 OA
ATOM     28  H   UNL     1      14.407  23.212  -4.462  1.00  0.00     0.293 HD
ENDBRANCH   7  27
TORSDOF 7
ENDMDL
MODEL 5
REMARK VINA RESULT:    13.158      7.832     11.852
REMARK INTER + INTRA:          16.407
REMARK INTER:                  16.501
REMARK INTRA:                  -0.094
REMARK UNBOUND:                 0.172
REMARK SMILES Oc1cc(O)c2cc(O)c(-c3cc(O)c(O)c(O)c3)[o+]c2c1.[Cl-]
REMARK SMILES IDX 10 1 20 2 21 3 22 4 2 5 3 6 4 7 6 8 7 9 8 10 11 11 12 12
REMARK SMILES IDX 13 13 19 14 15 15 17 16 14 17 16 19 18 21 9 23 1 25 5 27
REMARK H PARENT 14 18 16 20 18 22 9 24 1 26 5 28
REMARK Flexibility Score: inf
ROOT
ATOM      1  C   UNL     1      13.632  22.589  -0.201  1.00  0.00     0.402 A 
ATOM      2  O   UNL     1      13.635  23.673  -0.975  1.00  0.00    -0.202 OA
ATOM      3  C   UNL     1      13.406  23.633  -2.284  1.00  0.00     0.368 A 
ATOM      4  C   UNL     1      13.422  24.818  -3.025  1.00  0.00     0.162 A 
ATOM      5  C   UNL     1      13.179  24.792  -4.402  1.00  0.00     0.128 A 
ATOM      6  C   UNL     1      12.919  23.572  -5.042  1.00  0.00     0.093 A 
ATOM      7  C   UNL     1      12.902  22.375  -4.312  1.00  0.00     0.136 A 
ATOM      8  C   UNL     1      13.146  22.403  -2.925  1.00  0.00     0.125 A 
ATOM      9  C   UNL     1      13.147  21.240  -2.148  1.00  0.00     0.078 A 
ATOM     10  C   UNL     1      13.403  21.322  -0.775  1.00  0.00     0.223 A 
ENDROOT
BRANCH   1  11
ATOM     11  C   UNL     1      13.892  22.761   1.246  1.00  0.00     0.091 A 
ATOM     12  C   UNL     1      15.051  23.410   1.709  1.00  0.00     0.068 A 
ATOM     13  C   UNL     1      15.292  23.544   3.083  1.00  0.00     0.162 A 
ATOM     14  C   UNL     1      12.997  22.218   2.179  1.00  0.00     0.068 A 
ATOM     15  C   UNL     1      14.376  23.015   4.010  1.00  0.00     0.200 A 
ATOM     16  C   UNL     1      13.228  22.348   3.552  1.00  0.00     0.162 A 
BRANCH  13  17
ATOM     17  O   UNL     1      16.440  24.195   3.531  1.00  0.00    -0.504 OA
ATOM     18  H   UNL     1      16.730  24.153   4.502  1.00  0.00     0.293 HD
ENDBRANCH  13  17
BRANCH  15  19
ATOM     19  O   UNL     1      14.598  23.144   5.382  1.00  0.00    -0.502 OA
ATOM     20  H   UNL     1      13.968  22.752   6.071  1.00  0.00     0.293 HD
ENDBRANCH  15  19
BRANCH  16  21
ATOM     21  O   UNL     1      12.304  21.806   4.446  1.00  0.00    -0.504 OA
ATOM     22  H   UNL     1      12.449  21.828   5.449  1.00  0.00     0.293 HD
ENDBRANCH  16  21
ENDBRANCH   1  11
BRANCH  10  23
ATOM     23  O   UNL     1      13.456  20.161  -0.004  1.00  0.00    -0.500 OA
ATOM     24  H   UNL     1      13.099  19.278  -0.348  1.00  0.00     0.294 HD
ENDBRANCH  10  23
BRANCH   5  25
ATOM     25  O   UNL     1      13.199  25.983  -5.125  1.00  0.00    -0.507 OA
ATOM     26  H   UNL     1      13.975  26.220  -5.733  1.00  0.00     0.293 HD
ENDBRANCH   5  25
BRANCH   7  27
ATOM     27  O   UNL     1      12.642  21.167  -4.960  1.00  0.00    -0.507 OA
ATOM     28  H   UNL     1      12.062  20.452  -4.538  1.00  0.00     0.293 HD
ENDBRANCH   7  27
TORSDOF 7
ENDMDL
MODEL 6
REMARK VINA RESULT:    13.425      1.379      7.449
REMARK INTER + INTRA:          16.735
REMARK INTER:                  16.713
REMARK INTRA:                   0.023
REMARK UNBOUND:                 0.172
REMARK SMILES Oc1cc(O)c2cc(O)c(-c3cc(O)c(O)c(O)c3)[o+]c2c1.[Cl-]
REMARK SMILES IDX 10 1 20 2 21 3 22 4 2 5 3 6 4 7 6 8 7 9 8 10 11 11 12 12
REMARK SMILES IDX 13 13 19 14 15 15 17 16 14 17 16 19 18 21 9 23 1 25 5 27
REMARK H PARENT 14 18 16 20 18 22 9 24 1 26 5 28
REMARK Flexibility Score: inf
ROOT
ATOM      1  C   UNL     1      18.122  22.276   9.041  1.00  0.00     0.402 A 
ATOM      2  O   UNL     1      18.579  23.368   9.652  1.00  0.00    -0.202 OA
ATOM      3  C   UNL     1      19.396  23.327  10.699  1.00  0.00     0.368 A 
ATOM      4  C   UNL     1      19.835  24.521  11.281  1.00  0.00     0.162 A 
ATOM      5  C   UNL     1      20.698  24.493  12.381  1.00  0.00     0.128 A 
ATOM      6  C   UNL     1      21.125  23.264  12.904  1.00  0.00     0.093 A 
ATOM      7  C   UNL     1      20.692  22.059  12.331  1.00  0.00     0.136 A 
ATOM      8  C   UNL     1      19.823  22.088  11.223  1.00  0.00     0.125 A 
ATOM      9  C   UNL     1      19.354  20.918  10.617  1.00  0.00     0.078 A 
ATOM     10  C   UNL     1      18.486  21.003   9.523  1.00  0.00     0.223 A 
ENDROOT
BRANCH   1  11
ATOM     11  C   UNL     1      17.223  22.449   7.878  1.00  0.00     0.091 A 
ATOM     12  C   UNL     1      17.507  23.383   6.865  1.00  0.00     0.068 A 
ATOM     13  C   UNL     1      16.633  23.549   5.783  1.00  0.00     0.162 A 
ATOM     14  C   UNL     1      16.032  21.710   7.808  1.00  0.00     0.068 A 
ATOM     15  C   UNL     1      15.454  22.787   5.711  1.00  0.00     0.200 A 
ATOM     16  C   UNL     1      15.155  21.868   6.731  1.00  0.00     0.162 A 
BRANCH  13  17
ATOM     17  O   UNL     1      16.928  24.473   4.782  1.00  0.00    -0.504 OA
ATOM     18  H   UNL     1      16.601  25.432   4.830  1.00  0.00     0.293 HD
ENDBRANCH  13  17
BRANCH  15  19
ATOM     19  O   UNL     1      14.574  22.937   4.638  1.00  0.00    -0.502 OA
ATOM     20  H   UNL     1      14.670  22.403   3.782  1.00  0.00     0.293 HD
ENDBRANCH  15  19
BRANCH  16  21
ATOM     21  O   UNL     1      13.989  21.103   6.693  1.00  0.00    -0.504 OA
ATOM     22  H   UNL     1      13.245  21.219   7.371  1.00  0.00     0.293 HD
ENDBRANCH  16  21
ENDBRANCH   1  11
BRANCH  10  23
ATOM     23  O   UNL     1      17.975  19.841   8.945  1.00  0.00    -0.500 OA
ATOM     24  H   UNL     1      18.397  19.427   8.122  1.00  0.00     0.294 HD
ENDBRANCH  10  23
BRANCH   5  25
ATOM     25  O   UNL     1      21.125  25.692  12.948  1.00  0.00    -0.507 OA
ATOM     26  H   UNL     1      21.113  26.559  12.424  1.00  0.00     0.293 HD
ENDBRANCH   5  25
BRANCH   7  27
ATOM     27  O   UNL     1      21.122  20.842  12.860  1.00  0.00    -0.507 OA
ATOM     28  H   UNL     1      20.485  20.067  12.996  1.00  0.00     0.293 HD
ENDBRANCH   7  27
TORSDOF 7
ENDMDL
