MODEL 1
REMARK VINA RESULT:    -4.157      0.000      0.000
REMARK INTER + INTRA:          -4.278
REMARK INTER:                  -4.278
REMARK INTRA:                   0.000
REMARK UNBOUND:                 0.000
REMARK SMILES O=c1ccc2cc(O)ccc2o1
REMARK SMILES IDX 9 1 10 2 11 3 5 4 4 5 3 6 2 7 1 8 12 9 6 10 7 11 8 12
REMARK H PARENT 8 13
REMARK Flexibility Score: inf
ROOT
ATOM      1  C   UNL     1      15.042  -7.239  14.456  1.00  0.00     0.050 A 
ATOM      2  C   UNL     1      14.698  -6.261  15.394  1.00  0.00     0.052 A 
ATOM      3  C   UNL     1      15.180  -4.955  15.257  1.00  0.00     0.138 A 
ATOM      4  C   UNL     1      16.017  -4.628  14.167  1.00  0.00     0.021 A 
ATOM      5  C   UNL     1      16.484  -3.315  14.055  1.00  0.00     0.019 A 
ATOM      6  C   UNL     1      16.114  -2.373  15.014  1.00  0.00     0.094 A 
ATOM      7  C   UNL     1      15.281  -2.769  16.068  1.00  0.00     0.336 A 
ATOM      8  O   UNL     1      14.936  -1.933  16.943  1.00  0.00    -0.246 OA
ATOM      9  O   UNL     1      14.851  -4.025  16.150  1.00  0.00    -0.423 OA
ATOM     10  C   UNL     1      16.360  -5.612  13.228  1.00  0.00     0.058 A 
ATOM     11  C   UNL     1      15.871  -6.919  13.375  1.00  0.00     0.116 A 
ENDROOT
BRANCH  11  12
ATOM     12  O   UNL     1      16.203  -7.908  12.450  1.00  0.00    -0.508 OA
ATOM     13  H   UNL     1      17.167  -8.169  12.277  1.00  0.00     0.293 HD
ENDBRANCH  11  12
TORSDOF 1
ENDMDL
MODEL 2
REMARK VINA RESULT:    -4.121     14.099     14.649
REMARK INTER + INTRA:          -4.241
REMARK INTER:                  -4.241
REMARK INTRA:                   0.000
REMARK UNBOUND:                 0.000
REMARK SMILES O=c1ccc2cc(O)ccc2o1
REMARK SMILES IDX 9 1 10 2 11 3 5 4 4 5 3 6 2 7 1 8 12 9 6 10 7 11 8 12
REMARK H PARENT 8 13
REMARK Flexibility Score: inf
ROOT
ATOM      1  C   UNL     1      11.358 -17.988  20.125  1.00  0.00     0.050 A 
ATOM      2  C   UNL     1      12.289 -18.052  21.166  1.00  0.00     0.052 A 
ATOM      3  C   UNL     1      13.659 -18.032  20.886  1.00  0.00     0.138 A 
ATOM      4  C   UNL     1      14.099 -17.949  19.546  1.00  0.00     0.021 A 
ATOM      5  C   UNL     1      15.474 -17.931  19.295  1.00  0.00     0.019 A 
ATOM      6  C   UNL     1      16.366 -17.996  20.365  1.00  0.00     0.094 A 
ATOM      7  C   UNL     1      15.858 -18.077  21.667  1.00  0.00     0.336 A 
ATOM      8  O   UNL     1      16.647 -18.136  22.646  1.00  0.00    -0.246 OA
ATOM      9  O   UNL     1      14.544 -18.092  21.878  1.00  0.00    -0.423 OA
ATOM     10  C   UNL     1      13.162 -17.885  18.504  1.00  0.00     0.058 A 
ATOM     11  C   UNL     1      11.789 -17.906  18.796  1.00  0.00     0.116 A 
ENDROOT
BRANCH  11  12
ATOM     12  O   UNL     1      10.846 -17.843  17.772  1.00  0.00    -0.508 OA
ATOM     13  H   UNL     1      10.476 -18.683  17.341  1.00  0.00     0.293 HD
ENDBRANCH  11  12
TORSDOF 1
ENDMDL
MODEL 3
REMARK VINA RESULT:    -4.060     14.108     14.862
REMARK INTER + INTRA:          -4.179
REMARK INTER:                  -4.179
REMARK INTRA:                   0.000
REMARK UNBOUND:                 0.000
REMARK SMILES O=c1ccc2cc(O)ccc2o1
REMARK SMILES IDX 9 1 10 2 11 3 5 4 4 5 3 6 2 7 1 8 12 9 6 10 7 11 8 12
REMARK H PARENT 8 13
REMARK Flexibility Score: inf
ROOT
ATOM      1  C   UNL     1      16.357 -18.019  20.320  1.00  0.00     0.050 A 
ATOM      2  C   UNL     1      15.468 -17.996  19.241  1.00  0.00     0.052 A 
ATOM      3  C   UNL     1      14.087 -17.993  19.469  1.00  0.00     0.138 A 
ATOM      4  C   UNL     1      13.596 -18.014  20.793  1.00  0.00     0.021 A 
ATOM      5  C   UNL     1      12.212 -18.011  20.991  1.00  0.00     0.019 A 
ATOM      6  C   UNL     1      11.363 -17.987  19.885  1.00  0.00     0.094 A 
ATOM      7  C   UNL     1      11.921 -17.967  18.602  1.00  0.00     0.336 A 
ATOM      8  O   UNL     1      11.171 -17.945  17.591  1.00  0.00    -0.246 OA
ATOM      9  O   UNL     1      13.242 -17.970  18.442  1.00  0.00    -0.423 OA
ATOM     10  C   UNL     1      14.492 -18.038  21.872  1.00  0.00     0.058 A 
ATOM     11  C   UNL     1      15.875 -18.040  21.633  1.00  0.00     0.116 A 
ENDROOT
BRANCH  11  12
ATOM     12  O   UNL     1      16.777 -18.063  22.695  1.00  0.00    -0.508 OA
ATOM     13  H   UNL     1      16.511 -18.410  23.609  1.00  0.00     0.293 HD
ENDBRANCH  11  12
TORSDOF 1
ENDMDL
MODEL 4
REMARK VINA RESULT:    -3.941     12.350     13.853
REMARK INTER + INTRA:          -4.056
REMARK INTER:                  -4.056
REMARK INTRA:                   0.000
REMARK UNBOUND:                 0.000
REMARK SMILES O=c1ccc2cc(O)ccc2o1
REMARK SMILES IDX 9 1 10 2 11 3 5 4 4 5 3 6 2 7 1 8 12 9 6 10 7 11 8 12
REMARK H PARENT 8 13
REMARK Flexibility Score: inf
ROOT
ATOM      1  C   UNL     1      14.214 -16.218  18.025  1.00  0.00     0.050 A 
ATOM      2  C   UNL     1      15.361 -15.932  18.772  1.00  0.00     0.052 A 
ATOM      3  C   UNL     1      15.645 -16.664  19.930  1.00  0.00     0.138 A 
ATOM      4  C   UNL     1      14.769 -17.693  20.341  1.00  0.00     0.021 A 
ATOM      5  C   UNL     1      15.078 -18.408  21.502  1.00  0.00     0.019 A 
ATOM      6  C   UNL     1      16.233 -18.088  22.215  1.00  0.00     0.094 A 
ATOM      7  C   UNL     1      17.055 -17.056  21.748  1.00  0.00     0.336 A 
ATOM      8  O   UNL     1      18.101 -16.752  22.378  1.00  0.00    -0.246 OA
ATOM      9  O   UNL     1      16.737 -16.391  20.640  1.00  0.00    -0.423 OA
ATOM     10  C   UNL     1      13.620 -17.977  19.588  1.00  0.00     0.058 A 
ATOM     11  C   UNL     1      13.343 -17.237  18.429  1.00  0.00     0.116 A 
ENDROOT
BRANCH  11  12
ATOM     12  O   UNL     1      12.206 -17.507  17.670  1.00  0.00    -0.508 OA
ATOM     13  H   UNL     1      11.590 -18.280  17.896  1.00  0.00     0.293 HD
ENDBRANCH  11  12
TORSDOF 1
ENDMDL
MODEL 5
REMARK VINA RESULT:    -3.917     14.068     14.803
REMARK INTER + INTRA:          -4.032
REMARK INTER:                  -4.032
REMARK INTRA:                   0.000
REMARK UNBOUND:                 0.000
REMARK SMILES O=c1ccc2cc(O)ccc2o1
REMARK SMILES IDX 9 1 10 2 11 3 5 4 4 5 3 6 2 7 1 8 12 9 6 10 7 11 8 12
REMARK H PARENT 8 13
REMARK Flexibility Score: inf
ROOT
ATOM      1  C   UNL     1      15.044 -18.109  20.927  1.00  0.00     0.050 A 
ATOM      2  C   UNL     1      13.827 -18.082  21.616  1.00  0.00     0.052 A 
ATOM      3  C   UNL     1      12.623 -17.982  20.911  1.00  0.00     0.138 A 
ATOM      4  C   UNL     1      12.640 -17.908  19.501  1.00  0.00     0.021 A 
ATOM      5  C   UNL     1      11.422 -17.809  18.823  1.00  0.00     0.019 A 
ATOM      6  C   UNL     1      10.233 -17.787  19.552  1.00  0.00     0.094 A 
ATOM      7  C   UNL     1      10.292 -17.864  20.948  1.00  0.00     0.336 A 
ATOM      8  O   UNL     1       9.231 -17.845  21.624  1.00  0.00    -0.246 OA
ATOM      9  O   UNL     1      11.466 -17.957  21.569  1.00  0.00    -0.423 OA
ATOM     10  C   UNL     1      13.863 -17.935  18.813  1.00  0.00     0.058 A 
ATOM     11  C   UNL     1      15.066 -18.035  19.529  1.00  0.00     0.116 A 
ENDROOT
BRANCH  11  12
ATOM     12  O   UNL     1      16.288 -18.063  18.860  1.00  0.00    -0.508 OA
ATOM     13  H   UNL     1      16.339 -18.190  17.856  1.00  0.00     0.293 HD
ENDBRANCH  11  12
TORSDOF 1
ENDMDL
MODEL 6
REMARK VINA RESULT:    -3.801      2.630      4.062
REMARK INTER + INTRA:          -3.912
REMARK INTER:                  -3.912
REMARK INTRA:                   0.000
REMARK UNBOUND:                 0.000
REMARK SMILES O=c1ccc2cc(O)ccc2o1
REMARK SMILES IDX 9 1 10 2 11 3 5 4 4 5 3 6 2 7 1 8 12 9 6 10 7 11 8 12
REMARK H PARENT 8 13
REMARK Flexibility Score: inf
ROOT
ATOM      1  C   UNL     1      14.864  -9.381  10.642  1.00  0.00     0.050 A 
ATOM      2  C   UNL     1      14.762  -9.359  12.037  1.00  0.00     0.052 A 
ATOM      3  C   UNL     1      14.997  -8.172  12.739  1.00  0.00     0.138 A 
ATOM      4  C   UNL     1      15.337  -6.996  12.033  1.00  0.00     0.021 A 
ATOM      5  C   UNL     1      15.565  -5.824  12.762  1.00  0.00     0.019 A 
ATOM      6  C   UNL     1      15.452  -5.849  14.151  1.00  0.00     0.094 A 
ATOM      7  C   UNL     1      15.111  -7.051  14.783  1.00  0.00     0.336 A 
ATOM      8  O   UNL     1      15.004  -7.093  16.036  1.00  0.00    -0.246 OA
ATOM      9  O   UNL     1      14.899  -8.152  14.066  1.00  0.00    -0.423 OA
ATOM     10  C   UNL     1      15.438  -7.023  10.635  1.00  0.00     0.058 A 
ATOM     11  C   UNL     1      15.201  -8.218   9.939  1.00  0.00     0.116 A 
ENDROOT
BRANCH  11  12
ATOM     12  O   UNL     1      15.297  -8.260   8.550  1.00  0.00    -0.508 OA
ATOM     13  H   UNL     1      14.512  -8.017   7.957  1.00  0.00     0.293 HD
ENDBRANCH  11  12
TORSDOF 1
ENDMDL
MODEL 7
REMARK VINA RESULT:    -3.767     12.406     13.791
REMARK INTER + INTRA:          -3.877
REMARK INTER:                  -3.877
REMARK INTRA:                   0.000
REMARK UNBOUND:                 0.000
REMARK SMILES O=c1ccc2cc(O)ccc2o1
REMARK SMILES IDX 9 1 10 2 11 3 5 4 4 5 3 6 2 7 1 8 12 9 6 10 7 11 8 12
REMARK H PARENT 8 13
REMARK Flexibility Score: inf
ROOT
ATOM      1  C   UNL     1      11.380 -18.365  20.532  1.00  0.00     0.050 A 
ATOM      2  C   UNL     1      12.614 -17.992  21.073  1.00  0.00     0.052 A 
ATOM      3  C   UNL     1      13.571 -17.364  20.270  1.00  0.00     0.138 A 
ATOM      4  C   UNL     1      13.287 -17.108  18.910  1.00  0.00     0.021 A 
ATOM      5  C   UNL     1      14.263 -16.479  18.132  1.00  0.00     0.019 A 
ATOM      6  C   UNL     1      15.479 -16.124  18.714  1.00  0.00     0.094 A 
ATOM      7  C   UNL     1      15.691 -16.408  20.068  1.00  0.00     0.336 A 
ATOM      8  O   UNL     1      16.782 -16.095  20.612  1.00  0.00    -0.246 OA
ATOM      9  O   UNL     1      14.745 -17.008  20.786  1.00  0.00    -0.423 OA
ATOM     10  C   UNL     1      12.048 -17.485  18.371  1.00  0.00     0.058 A 
ATOM     11  C   UNL     1      11.094 -18.115  19.185  1.00  0.00     0.116 A 
ENDROOT
BRANCH  11  12
ATOM     12  O   UNL     1       9.858 -18.495  18.664  1.00  0.00    -0.508 OA
ATOM     13  H   UNL     1       9.350 -19.291  19.031  1.00  0.00     0.293 HD
ENDBRANCH  11  12
TORSDOF 1
ENDMDL
MODEL 8
REMARK VINA RESULT:    -3.763     14.764     15.171
REMARK INTER + INTRA:          -3.872
REMARK INTER:                  -3.872
REMARK INTRA:                   0.000
REMARK UNBOUND:                 0.000
REMARK SMILES O=c1ccc2cc(O)ccc2o1
REMARK SMILES IDX 9 1 10 2 11 3 5 4 4 5 3 6 2 7 1 8 12 9 6 10 7 11 8 12
REMARK H PARENT 8 13
REMARK Flexibility Score: inf
ROOT
ATOM      1  C   UNL     1      12.101 -17.283  23.035  1.00  0.00     0.050 A 
ATOM      2  C   UNL     1      13.473 -17.268  23.302  1.00  0.00     0.052 A 
ATOM      3  C   UNL     1      14.388 -17.599  22.296  1.00  0.00     0.138 A 
ATOM      4  C   UNL     1      13.919 -17.949  21.010  1.00  0.00     0.021 A 
ATOM      5  C   UNL     1      14.856 -18.275  20.025  1.00  0.00     0.019 A 
ATOM      6  C   UNL     1      16.215 -18.246  20.337  1.00  0.00     0.094 A 
ATOM      7  C   UNL     1      16.606 -17.889  21.632  1.00  0.00     0.336 A 
ATOM      8  O   UNL     1      17.828 -17.857  21.933  1.00  0.00    -0.246 OA
ATOM      9  O   UNL     1      15.694 -17.583  22.551  1.00  0.00    -0.423 OA
ATOM     10  C   UNL     1      12.542 -17.963  20.747  1.00  0.00     0.058 A 
ATOM     11  C   UNL     1      11.632 -17.630  21.762  1.00  0.00     0.116 A 
ENDROOT
BRANCH  11  12
ATOM     12  O   UNL     1      10.260 -17.639  21.516  1.00  0.00    -0.508 OA
ATOM     13  H   UNL     1       9.850 -17.072  20.783  1.00  0.00     0.293 HD
ENDBRANCH  11  12
TORSDOF 1
ENDMDL
MODEL 9
REMARK VINA RESULT:    -3.749     14.226     14.796
REMARK INTER + INTRA:          -3.859
REMARK INTER:                  -3.859
REMARK INTRA:                   0.000
REMARK UNBOUND:                 0.000
REMARK SMILES O=c1ccc2cc(O)ccc2o1
REMARK SMILES IDX 9 1 10 2 11 3 5 4 4 5 3 6 2 7 1 8 12 9 6 10 7 11 8 12
REMARK H PARENT 8 13
REMARK Flexibility Score: inf
ROOT
ATOM      1  C   UNL     1      13.905 -18.023  19.080  1.00  0.00     0.050 A 
ATOM      2  C   UNL     1      12.736 -17.612  19.728  1.00  0.00     0.052 A 
ATOM      3  C   UNL     1      12.723 -17.450  21.118  1.00  0.00     0.138 A 
ATOM      4  C   UNL     1      13.896 -17.704  21.864  1.00  0.00     0.021 A 
ATOM      5  C   UNL     1      13.854 -17.534  23.250  1.00  0.00     0.019 A 
ATOM      6  C   UNL     1      12.666 -17.122  23.853  1.00  0.00     0.094 A 
ATOM      7  C   UNL     1      11.543 -16.889  23.051  1.00  0.00     0.336 A 
ATOM      8  O   UNL     1      10.462 -16.517  23.577  1.00  0.00    -0.246 OA
ATOM      9  O   UNL     1      11.610 -17.059  21.733  1.00  0.00    -0.423 OA
ATOM     10  C   UNL     1      15.066 -18.116  21.209  1.00  0.00     0.058 A 
ATOM     11  C   UNL     1      15.069 -18.276  19.815  1.00  0.00     0.116 A 
ENDROOT
BRANCH  11  12
ATOM     12  O   UNL     1      16.225 -18.684  19.151  1.00  0.00    -0.508 OA
ATOM     13  H   UNL     1      16.374 -18.475  18.171  1.00  0.00     0.293 HD
ENDBRANCH  11  12
TORSDOF 1
ENDMDL
