MODEL 1
REMARK VINA RESULT:    -4.232      0.000      0.000
REMARK INTER + INTRA:          -5.388
REMARK INTER:                  -5.098
REMARK INTRA:                  -0.290
REMARK UNBOUND:                -0.290
REMARK SMILES Oc1cc(O)c2cc(O)c(-c3ccc(O)c(O)c3)[o+]c2c1
REMARK SMILES IDX 10 1 19 2 20 3 21 4 2 5 3 6 4 7 6 8 7 9 8 10 11 11 12 12
REMARK SMILES IDX 13 13 14 14 18 15 16 16 15 17 17 19 9 21 1 23 5 25
REMARK H PARENT 15 18 17 20 9 22 1 24 5 26
REMARK Flexibility Score: inf
ROOT
ATOM      1  C   UNL     1     156.431 158.214 144.680  1.00  0.00     0.402 A 
ATOM      2  O   UNL     1     155.796 158.223 145.850  1.00  0.00    -0.202 OA
ATOM      3  C   UNL     1     156.423 158.204 147.021  1.00  0.00     0.368 A 
ATOM      4  C   UNL     1     155.667 158.213 148.197  1.00  0.00     0.162 A 
ATOM      5  C   UNL     1     156.302 158.191 149.443  1.00  0.00     0.128 A 
ATOM      6  C   UNL     1     157.695 158.157 149.513  1.00  0.00     0.093 A 
ATOM      7  C   UNL     1     158.475 158.147 148.350  1.00  0.00     0.136 A 
ATOM      8  C   UNL     1     157.837 158.173 147.083  1.00  0.00     0.125 A 
ATOM      9  C   UNL     1     158.537 158.179 145.865  1.00  0.00     0.078 A 
ATOM     10  C   UNL     1     157.838 158.210 144.654  1.00  0.00     0.223 A 
ENDROOT
BRANCH   1  11
ATOM     11  C   UNL     1     155.620 158.228 143.442  1.00  0.00     0.087 A 
ATOM     12  C   UNL     1     154.997 159.401 142.989  1.00  0.00     0.022 A 
ATOM     13  C   UNL     1     154.256 159.395 141.806  1.00  0.00     0.051 A 
ATOM     14  C   UNL     1     154.132 158.227 141.046  1.00  0.00     0.157 A 
ATOM     15  C   UNL     1     155.516 157.060 142.670  1.00  0.00     0.068 A 
ATOM     16  C   UNL     1     154.774 157.044 141.482  1.00  0.00     0.158 A 
BRANCH  14  17
ATOM     17  O   UNL     1     153.374 158.287 139.875  1.00  0.00    -0.504 OA
ATOM     18  H   UNL     1     153.663 157.887 138.994  1.00  0.00     0.293 HD
ENDBRANCH  14  17
BRANCH  16  19
ATOM     19  O   UNL     1     154.705 155.842 140.773  1.00  0.00    -0.504 OA
ATOM     20  H   UNL     1     155.299 155.046 140.953  1.00  0.00     0.293 HD
ENDBRANCH  16  19
ENDBRANCH   1  11
BRANCH  10  21
ATOM     21  O   UNL     1     158.534 158.265 143.446  1.00  0.00    -0.500 OA
ATOM     22  H   UNL     1     159.546 158.258 143.413  1.00  0.00     0.294 HD
ENDBRANCH  10  21
BRANCH   5  23
ATOM     23  O   UNL     1     155.555 158.200 150.619  1.00  0.00    -0.507 OA
ATOM     24  H   UNL     1     155.792 157.602 151.402  1.00  0.00     0.293 HD
ENDBRANCH   5  23
BRANCH   7  25
ATOM     25  O   UNL     1     159.864 158.110 148.505  1.00  0.00    -0.507 OA
ATOM     26  H   UNL     1     160.338 157.737 149.315  1.00  0.00     0.293 HD
ENDBRANCH   7  25
TORSDOF 6
ENDMDL
MODEL 2
REMARK VINA RESULT:    -4.058      3.334      4.152
REMARK INTER + INTRA:          -5.179
REMARK INTER:                  -4.833
REMARK INTRA:                  -0.346
REMARK UNBOUND:                -0.290
REMARK SMILES Oc1cc(O)c2cc(O)c(-c3ccc(O)c(O)c3)[o+]c2c1
REMARK SMILES IDX 10 1 19 2 20 3 21 4 2 5 3 6 4 7 6 8 7 9 8 10 11 11 12 12
REMARK SMILES IDX 13 13 14 14 18 15 16 16 15 17 17 19 9 21 1 23 5 25
REMARK H PARENT 15 18 17 20 9 22 1 24 5 26
REMARK Flexibility Score: inf
ROOT
ATOM      1  C   UNL     1     157.901 157.452 146.731  1.00  0.00     0.402 A 
ATOM      2  O   UNL     1     156.620 157.800 146.833  1.00  0.00    -0.202 OA
ATOM      3  C   UNL     1     156.057 158.187 147.972  1.00  0.00     0.368 A 
ATOM      4  C   UNL     1     154.702 158.530 147.979  1.00  0.00     0.162 A 
ATOM      5  C   UNL     1     154.084 158.937 149.165  1.00  0.00     0.128 A 
ATOM      6  C   UNL     1     154.822 159.001 150.348  1.00  0.00     0.093 A 
ATOM      7  C   UNL     1     156.181 158.662 150.368  1.00  0.00     0.136 A 
ATOM      8  C   UNL     1     156.814 158.250 149.166  1.00  0.00     0.125 A 
ATOM      9  C   UNL     1     158.174 157.905 149.089  1.00  0.00     0.078 A 
ATOM     10  C   UNL     1     158.729 157.513 147.867  1.00  0.00     0.223 A 
ENDROOT
BRANCH   1  11
ATOM     11  C   UNL     1     158.409 157.029 145.406  1.00  0.00     0.087 A 
ATOM     12  C   UNL     1     158.297 155.700 144.970  1.00  0.00     0.022 A 
ATOM     13  C   UNL     1     158.763 155.331 143.707  1.00  0.00     0.051 A 
ATOM     14  C   UNL     1     159.335 156.277 142.851  1.00  0.00     0.157 A 
ATOM     15  C   UNL     1     158.962 157.986 144.541  1.00  0.00     0.068 A 
ATOM     16  C   UNL     1     159.433 157.624 143.272  1.00  0.00     0.158 A 
BRANCH  14  17
ATOM     17  O   UNL     1     159.785 155.842 141.603  1.00  0.00    -0.504 OA
ATOM     18  H   UNL     1     159.327 156.059 140.730  1.00  0.00     0.293 HD
ENDBRANCH  14  17
BRANCH  16  19
ATOM     19  O   UNL     1     159.982 158.628 142.470  1.00  0.00    -0.504 OA
ATOM     20  H   UNL     1     160.641 159.318 142.802  1.00  0.00     0.293 HD
ENDBRANCH  16  19
ENDBRANCH   1  11
BRANCH  10  21
ATOM     21  O   UNL     1     160.090 157.218 147.779  1.00  0.00    -0.500 OA
ATOM     22  H   UNL     1     160.717 157.361 148.562  1.00  0.00     0.294 HD
ENDBRANCH  10  21
BRANCH   5  23
ATOM     23  O   UNL     1     152.734 159.281 149.179  1.00  0.00    -0.507 OA
ATOM     24  H   UNL     1     152.339 159.909 148.488  1.00  0.00     0.293 HD
ENDBRANCH   5  23
BRANCH   7  25
ATOM     25  O   UNL     1     156.849 158.748 151.593  1.00  0.00    -0.507 OA
ATOM     26  H   UNL     1     157.853 158.787 151.695  1.00  0.00     0.293 HD
ENDBRANCH   7  25
TORSDOF 6
ENDMDL
MODEL 3
REMARK VINA RESULT:    -3.980     13.853     15.084
REMARK INTER + INTRA:          -5.085
REMARK INTER:                  -4.736
REMARK INTRA:                  -0.348
REMARK UNBOUND:                -0.290
REMARK SMILES Oc1cc(O)c2cc(O)c(-c3ccc(O)c(O)c3)[o+]c2c1
REMARK SMILES IDX 10 1 19 2 20 3 21 4 2 5 3 6 4 7 6 8 7 9 8 10 11 11 12 12
REMARK SMILES IDX 13 13 14 14 18 15 16 16 15 17 17 19 9 21 1 23 5 25
REMARK H PARENT 15 18 17 20 9 22 1 24 5 26
REMARK Flexibility Score: inf
ROOT
ATOM      1  C   UNL     1     157.729 143.985 143.840  1.00  0.00     0.402 A 
ATOM      2  O   UNL     1     158.295 143.470 144.928  1.00  0.00    -0.202 OA
ATOM      3  C   UNL     1     157.827 142.398 145.558  1.00  0.00     0.368 A 
ATOM      4  C   UNL     1     158.490 141.934 146.696  1.00  0.00     0.162 A 
ATOM      5  C   UNL     1     158.016 140.809 147.379  1.00  0.00     0.128 A 
ATOM      6  C   UNL     1     156.876 140.147 146.922  1.00  0.00     0.093 A 
ATOM      7  C   UNL     1     156.192 140.592 145.783  1.00  0.00     0.136 A 
ATOM      8  C   UNL     1     156.670 141.732 145.085  1.00  0.00     0.125 A 
ATOM      9  C   UNL     1     156.059 142.241 143.927  1.00  0.00     0.078 A 
ATOM     10  C   UNL     1     156.591 143.367 143.290  1.00  0.00     0.223 A 
ENDROOT
BRANCH   1  11
ATOM     11  C   UNL     1     158.340 145.190 143.235  1.00  0.00     0.087 A 
ATOM     12  C   UNL     1     159.341 145.089 142.256  1.00  0.00     0.022 A 
ATOM     13  C   UNL     1     159.886 146.240 141.684  1.00  0.00     0.051 A 
ATOM     14  C   UNL     1     159.437 147.509 142.063  1.00  0.00     0.157 A 
ATOM     15  C   UNL     1     157.872 146.461 143.602  1.00  0.00     0.068 A 
ATOM     16  C   UNL     1     158.414 147.622 143.033  1.00  0.00     0.158 A 
BRANCH  14  17
ATOM     17  O   UNL     1     160.027 148.619 141.456  1.00  0.00    -0.504 OA
ATOM     18  H   UNL     1     160.793 148.564 140.801  1.00  0.00     0.293 HD
ENDBRANCH  14  17
BRANCH  16  19
ATOM     19  O   UNL     1     157.907 148.853 143.457  1.00  0.00    -0.504 OA
ATOM     20  H   UNL     1     158.250 149.745 143.134  1.00  0.00     0.293 HD
ENDBRANCH  16  19
ENDBRANCH   1  11
BRANCH  10  21
ATOM     21  O   UNL     1     156.013 143.843 142.113  1.00  0.00    -0.500 OA
ATOM     22  H   UNL     1     155.068 143.594 141.845  1.00  0.00     0.294 HD
ENDBRANCH  10  21
BRANCH   5  23
ATOM     23  O   UNL     1     158.672 140.340 148.515  1.00  0.00    -0.507 OA
ATOM     24  H   UNL     1     158.554 139.387 148.841  1.00  0.00     0.293 HD
ENDBRANCH   5  23
BRANCH   7  25
ATOM     25  O   UNL     1     155.057 139.876 145.392  1.00  0.00    -0.507 OA
ATOM     26  H   UNL     1     154.329 140.242 144.796  1.00  0.00     0.293 HD
ENDBRANCH   7  25
TORSDOF 6
ENDMDL
MODEL 4
REMARK VINA RESULT:    -3.926     12.917     14.680
REMARK INTER + INTRA:          -5.019
REMARK INTER:                  -4.678
REMARK INTRA:                  -0.341
REMARK UNBOUND:                -0.290
REMARK SMILES Oc1cc(O)c2cc(O)c(-c3ccc(O)c(O)c3)[o+]c2c1
REMARK SMILES IDX 10 1 19 2 20 3 21 4 2 5 3 6 4 7 6 8 7 9 8 10 11 11 12 12
REMARK SMILES IDX 13 13 14 14 18 15 16 16 15 17 17 19 9 21 1 23 5 25
REMARK H PARENT 15 18 17 20 9 22 1 24 5 26
REMARK Flexibility Score: inf
ROOT
ATOM      1  C   UNL     1     142.273 155.653 143.577  1.00  0.00     0.402 A 
ATOM      2  O   UNL     1     141.661 156.132 144.657  1.00  0.00    -0.202 OA
ATOM      3  C   UNL     1     142.060 157.225 145.299  1.00  0.00     0.368 A 
ATOM      4  C   UNL     1     141.353 157.647 146.427  1.00  0.00     0.162 A 
ATOM      5  C   UNL     1     141.753 158.792 147.123  1.00  0.00     0.128 A 
ATOM      6  C   UNL     1     142.865 159.516 146.689  1.00  0.00     0.093 A 
ATOM      7  C   UNL     1     143.591 159.114 145.561  1.00  0.00     0.136 A 
ATOM      8  C   UNL     1     143.187 157.954 144.850  1.00  0.00     0.125 A 
ATOM      9  C   UNL     1     143.846 157.484 143.701  1.00  0.00     0.078 A 
ATOM     10  C   UNL     1     143.386 156.335 143.050  1.00  0.00     0.223 A 
ENDROOT
BRANCH   1  11
ATOM     11  C   UNL     1     141.738 154.420 142.957  1.00  0.00     0.087 A 
ATOM     12  C   UNL     1     140.698 154.467 142.015  1.00  0.00     0.022 A 
ATOM     13  C   UNL     1     140.226 153.293 141.426  1.00  0.00     0.051 A 
ATOM     14  C   UNL     1     140.787 152.054 141.752  1.00  0.00     0.157 A 
ATOM     15  C   UNL     1     142.318 153.181 143.269  1.00  0.00     0.068 A 
ATOM     16  C   UNL     1     141.850 151.997 142.684  1.00  0.00     0.158 A 
BRANCH  14  17
ATOM     17  O   UNL     1     140.266 150.917 141.131  1.00  0.00    -0.504 OA
ATOM     18  H   UNL     1     139.491 150.933 140.484  1.00  0.00     0.293 HD
ENDBRANCH  14  17
BRANCH  16  19
ATOM     19  O   UNL     1     142.468 150.800 143.053  1.00  0.00    -0.504 OA
ATOM     20  H   UNL     1     143.269 150.408 142.578  1.00  0.00     0.293 HD
ENDBRANCH  16  19
ENDBRANCH   1  11
BRANCH  10  21
ATOM     21  O   UNL     1     144.010 155.896 141.882  1.00  0.00    -0.500 OA
ATOM     22  H   UNL     1     144.039 154.915 141.630  1.00  0.00     0.294 HD
ENDBRANCH  10  21
BRANCH   5  23
ATOM     23  O   UNL     1     141.053 159.219 148.249  1.00  0.00    -0.507 OA
ATOM     24  H   UNL     1     141.338 158.952 149.184  1.00  0.00     0.293 HD
ENDBRANCH   5  23
BRANCH   7  25
ATOM     25  O   UNL     1     144.693 159.891 145.193  1.00  0.00    -0.507 OA
ATOM     26  H   UNL     1     145.081 160.635 145.755  1.00  0.00     0.293 HD
ENDBRANCH   7  25
TORSDOF 6
ENDMDL
MODEL 5
REMARK VINA RESULT:    -3.919      1.951      2.688
REMARK INTER + INTRA:          -5.010
REMARK INTER:                  -4.666
REMARK INTRA:                  -0.344
REMARK UNBOUND:                -0.290
REMARK SMILES Oc1cc(O)c2cc(O)c(-c3ccc(O)c(O)c3)[o+]c2c1
REMARK SMILES IDX 10 1 19 2 20 3 21 4 2 5 3 6 4 7 6 8 7 9 8 10 11 11 12 12
REMARK SMILES IDX 13 13 14 14 18 15 16 16 15 17 17 19 9 21 1 23 5 25
REMARK H PARENT 15 18 17 20 9 22 1 24 5 26
REMARK Flexibility Score: inf
ROOT
ATOM      1  C   UNL     1     155.977 157.931 143.937  1.00  0.00     0.402 A 
ATOM      2  O   UNL     1     156.380 158.461 145.089  1.00  0.00    -0.202 OA
ATOM      3  C   UNL     1     157.433 158.020 145.768  1.00  0.00     0.368 A 
ATOM      4  C   UNL     1     157.776 158.641 146.971  1.00  0.00     0.162 A 
ATOM      5  C   UNL     1     158.878 158.194 147.707  1.00  0.00     0.128 A 
ATOM      6  C   UNL     1     159.638 157.122 147.238  1.00  0.00     0.093 A 
ATOM      7  C   UNL     1     159.316 156.482 146.035  1.00  0.00     0.136 A 
ATOM      8  C   UNL     1     158.200 156.933 145.283  1.00  0.00     0.125 A 
ATOM      9  C   UNL     1     157.810 156.361 144.060  1.00  0.00     0.078 A 
ATOM     10  C   UNL     1     156.701 156.864 143.373  1.00  0.00     0.223 A 
ENDROOT
BRANCH   1  11
ATOM     11  C   UNL     1     154.782 158.506 143.280  1.00  0.00     0.087 A 
ATOM     12  C   UNL     1     154.882 159.603 142.411  1.00  0.00     0.022 A 
ATOM     13  C   UNL     1     153.743 160.114 141.785  1.00  0.00     0.051 A 
ATOM     14  C   UNL     1     152.488 159.535 142.001  1.00  0.00     0.157 A 
ATOM     15  C   UNL     1     153.527 157.909 143.482  1.00  0.00     0.068 A 
ATOM     16  C   UNL     1     152.379 158.415 142.858  1.00  0.00     0.158 A 
BRANCH  14  17
ATOM     17  O   UNL     1     151.389 160.096 141.349  1.00  0.00    -0.504 OA
ATOM     18  H   UNL     1     150.595 160.499 141.825  1.00  0.00     0.293 HD
ENDBRANCH  14  17
BRANCH  16  19
ATOM     19  O   UNL     1     151.163 157.777 143.116  1.00  0.00    -0.504 OA
ATOM     20  H   UNL     1     150.356 158.239 143.509  1.00  0.00     0.293 HD
ENDBRANCH  16  19
ENDBRANCH   1  11
BRANCH  10  21
ATOM     21  O   UNL     1     156.344 156.329 142.135  1.00  0.00    -0.500 OA
ATOM     22  H   UNL     1     155.375 156.241 141.852  1.00  0.00     0.294 HD
ENDBRANCH  10  21
BRANCH   5  23
ATOM     23  O   UNL     1     159.225 158.809 148.908  1.00  0.00    -0.507 OA
ATOM     24  H   UNL     1     159.544 159.771 148.938  1.00  0.00     0.293 HD
ENDBRANCH   5  23
BRANCH   7  25
ATOM     25  O   UNL     1     160.125 155.414 145.636  1.00  0.00    -0.507 OA
ATOM     26  H   UNL     1     159.918 154.798 144.863  1.00  0.00     0.293 HD
ENDBRANCH   7  25
TORSDOF 6
ENDMDL
MODEL 6
REMARK VINA RESULT:    -3.890      1.413      7.062
REMARK INTER + INTRA:          -4.976
REMARK INTER:                  -4.681
REMARK INTRA:                  -0.295
REMARK UNBOUND:                -0.290
REMARK SMILES Oc1cc(O)c2cc(O)c(-c3ccc(O)c(O)c3)[o+]c2c1
REMARK SMILES IDX 10 1 19 2 20 3 21 4 2 5 3 6 4 7 6 8 7 9 8 10 11 11 12 12
REMARK SMILES IDX 13 13 14 14 18 15 16 16 15 17 17 19 9 21 1 23 5 25
REMARK H PARENT 15 18 17 20 9 22 1 24 5 26
REMARK Flexibility Score: inf
ROOT
ATOM      1  C   UNL     1     156.548 157.297 144.483  1.00  0.00     0.402 A 
ATOM      2  O   UNL     1     155.903 158.279 143.856  1.00  0.00    -0.202 OA
ATOM      3  C   UNL     1     155.220 158.102 142.731  1.00  0.00     0.368 A 
ATOM      4  C   UNL     1     154.578 159.196 142.146  1.00  0.00     0.162 A 
ATOM      5  C   UNL     1     153.854 159.038 140.960  1.00  0.00     0.128 A 
ATOM      6  C   UNL     1     153.773 157.782 140.356  1.00  0.00     0.093 A 
ATOM      7  C   UNL     1     154.408 156.669 140.923  1.00  0.00     0.136 A 
ATOM      8  C   UNL     1     155.141 156.823 142.128  1.00  0.00     0.125 A 
ATOM      9  C   UNL     1     155.798 155.762 142.774  1.00  0.00     0.078 A 
ATOM     10  C   UNL     1     156.498 155.991 143.963  1.00  0.00     0.223 A 
ENDROOT
BRANCH   1  11
ATOM     11  C   UNL     1     157.283 157.623 145.725  1.00  0.00     0.087 A 
ATOM     12  C   UNL     1     158.686 157.662 145.757  1.00  0.00     0.022 A 
ATOM     13  C   UNL     1     159.356 157.995 146.936  1.00  0.00     0.051 A 
ATOM     14  C   UNL     1     158.645 158.308 148.099  1.00  0.00     0.157 A 
ATOM     15  C   UNL     1     156.566 157.958 146.885  1.00  0.00     0.068 A 
ATOM     16  C   UNL     1     157.230 158.293 148.072  1.00  0.00     0.158 A 
BRANCH  14  17
ATOM     17  O   UNL     1     159.375 158.627 149.245  1.00  0.00    -0.504 OA
ATOM     18  H   UNL     1     159.317 158.114 150.113  1.00  0.00     0.293 HD
ENDBRANCH  14  17
BRANCH  16  19
ATOM     19  O   UNL     1     156.451 158.603 149.190  1.00  0.00    -0.504 OA
ATOM     20  H   UNL     1     155.672 159.244 149.174  1.00  0.00     0.293 HD
ENDBRANCH  16  19
ENDBRANCH   1  11
BRANCH  10  21
ATOM     21  O   UNL     1     157.108 154.928 144.630  1.00  0.00    -0.500 OA
ATOM     22  H   UNL     1     157.673 154.246 144.140  1.00  0.00     0.294 HD
ENDBRANCH  10  21
BRANCH   5  23
ATOM     23  O   UNL     1     153.212 160.125 140.371  1.00  0.00    -0.507 OA
ATOM     24  H   UNL     1     153.476 160.464 139.452  1.00  0.00     0.293 HD
ENDBRANCH   5  23
BRANCH   7  25
ATOM     25  O   UNL     1     154.281 155.447 140.256  1.00  0.00    -0.507 OA
ATOM     26  H   UNL     1     153.421 154.925 140.179  1.00  0.00     0.293 HD
ENDBRANCH   7  25
TORSDOF 6
ENDMDL
MODEL 7
REMARK VINA RESULT:    -3.858      1.514      7.191
REMARK INTER + INTRA:          -4.937
REMARK INTER:                  -4.678
REMARK INTRA:                  -0.259
REMARK UNBOUND:                -0.290
REMARK SMILES Oc1cc(O)c2cc(O)c(-c3ccc(O)c(O)c3)[o+]c2c1
REMARK SMILES IDX 10 1 19 2 20 3 21 4 2 5 3 6 4 7 6 8 7 9 8 10 11 11 12 12
REMARK SMILES IDX 13 13 14 14 18 15 16 16 15 17 17 19 9 21 1 23 5 25
REMARK H PARENT 15 18 17 20 9 22 1 24 5 26
REMARK Flexibility Score: inf
ROOT
ATOM      1  C   UNL     1     156.314 157.796 144.128  1.00  0.00     0.402 A 
ATOM      2  O   UNL     1     156.331 156.596 143.554  1.00  0.00    -0.202 OA
ATOM      3  C   UNL     1     155.659 156.307 142.444  1.00  0.00     0.368 A 
ATOM      4  C   UNL     1     155.737 155.015 141.919  1.00  0.00     0.162 A 
ATOM      5  C   UNL     1     155.037 154.685 140.754  1.00  0.00     0.128 A 
ATOM      6  C   UNL     1     154.257 155.649 140.114  1.00  0.00     0.093 A 
ATOM      7  C   UNL     1     154.161 156.951 140.621  1.00  0.00     0.136 A 
ATOM      8  C   UNL     1     154.872 157.293 141.801  1.00  0.00     0.125 A 
ATOM      9  C   UNL     1     154.847 158.575 142.374  1.00  0.00     0.078 A 
ATOM     10  C   UNL     1     155.577 158.839 143.537  1.00  0.00     0.223 A 
ENDROOT
BRANCH   1  11
ATOM     11  C   UNL     1     157.098 157.990 145.369  1.00  0.00     0.087 A 
ATOM     12  C   UNL     1     158.500 158.053 145.346  1.00  0.00     0.022 A 
ATOM     13  C   UNL     1     159.216 158.260 146.527  1.00  0.00     0.051 A 
ATOM     14  C   UNL     1     158.552 158.422 147.747  1.00  0.00     0.157 A 
ATOM     15  C   UNL     1     156.427 158.175 146.588  1.00  0.00     0.068 A 
ATOM     16  C   UNL     1     157.138 158.383 147.778  1.00  0.00     0.158 A 
BRANCH  14  17
ATOM     17  O   UNL     1     159.326 158.621 148.891  1.00  0.00    -0.504 OA
ATOM     18  H   UNL     1     160.241 158.216 149.031  1.00  0.00     0.293 HD
ENDBRANCH  14  17
BRANCH  16  19
ATOM     19  O   UNL     1     156.404 158.546 148.955  1.00  0.00    -0.504 OA
ATOM     20  H   UNL     1     155.813 159.343 149.146  1.00  0.00     0.293 HD
ENDBRANCH  16  19
ENDBRANCH   1  11
BRANCH  10  21
ATOM     21  O   UNL     1     155.592 160.125 144.077  1.00  0.00    -0.500 OA
ATOM     22  H   UNL     1     155.991 160.315 144.989  1.00  0.00     0.294 HD
ENDBRANCH  10  21
BRANCH   5  23
ATOM     23  O   UNL     1     155.110 153.398 140.224  1.00  0.00    -0.507 OA
ATOM     24  H   UNL     1     154.298 152.793 140.186  1.00  0.00     0.293 HD
ENDBRANCH   5  23
BRANCH   7  25
ATOM     25  O   UNL     1     153.357 157.857 139.924  1.00  0.00    -0.507 OA
ATOM     26  H   UNL     1     152.540 158.309 140.308  1.00  0.00     0.293 HD
ENDBRANCH   7  25
TORSDOF 6
ENDMDL
MODEL 8
REMARK VINA RESULT:    -3.803      8.467     12.802
REMARK INTER + INTRA:          -4.871
REMARK INTER:                  -4.534
REMARK INTRA:                  -0.337
REMARK UNBOUND:                -0.290
REMARK SMILES Oc1cc(O)c2cc(O)c(-c3ccc(O)c(O)c3)[o+]c2c1
REMARK SMILES IDX 10 1 19 2 20 3 21 4 2 5 3 6 4 7 6 8 7 9 8 10 11 11 12 12
REMARK SMILES IDX 13 13 14 14 18 15 16 16 15 17 17 19 9 21 1 23 5 25
REMARK H PARENT 15 18 17 20 9 22 1 24 5 26
REMARK Flexibility Score: inf
ROOT
ATOM      1  C   UNL     1     157.837 155.707 156.261  1.00  0.00     0.402 A 
ATOM      2  O   UNL     1     158.480 156.123 155.173  1.00  0.00    -0.202 OA
ATOM      3  C   UNL     1     158.131 157.206 154.487  1.00  0.00     0.368 A 
ATOM      4  C   UNL     1     158.867 157.560 153.354  1.00  0.00     0.162 A 
ATOM      5  C   UNL     1     158.519 158.693 152.613  1.00  0.00     0.128 A 
ATOM      6  C   UNL     1     157.431 159.474 153.005  1.00  0.00     0.093 A 
ATOM      7  C   UNL     1     156.676 159.140 154.137  1.00  0.00     0.136 A 
ATOM      8  C   UNL     1     157.027 157.993 154.894  1.00  0.00     0.125 A 
ATOM      9  C   UNL     1     156.336 157.589 156.050  1.00  0.00     0.078 A 
ATOM     10  C   UNL     1     156.744 156.448 156.748  1.00  0.00     0.223 A 
ENDROOT
BRANCH   1  11
ATOM     11  C   UNL     1     158.317 154.478 156.933  1.00  0.00     0.087 A 
ATOM     12  C   UNL     1     159.366 154.517 157.864  1.00  0.00     0.022 A 
ATOM     13  C   UNL     1     159.786 153.348 158.502  1.00  0.00     0.051 A 
ATOM     14  C   UNL     1     159.163 152.124 158.236  1.00  0.00     0.157 A 
ATOM     15  C   UNL     1     157.675 153.256 156.680  1.00  0.00     0.068 A 
ATOM     16  C   UNL     1     158.090 152.078 157.314  1.00  0.00     0.158 A 
BRANCH  14  17
ATOM     17  O   UNL     1     159.634 150.992 158.903  1.00  0.00    -0.504 OA
ATOM     18  H   UNL     1     160.135 150.240 158.454  1.00  0.00     0.293 HD
ENDBRANCH  14  17
BRANCH  16  19
ATOM     19  O   UNL     1     157.412 150.897 157.004  1.00  0.00    -0.504 OA
ATOM     20  H   UNL     1     156.470 150.692 157.303  1.00  0.00     0.293 HD
ENDBRANCH  16  19
ENDBRANCH   1  11
BRANCH  10  21
ATOM     21  O   UNL     1     156.090 156.076 157.922  1.00  0.00    -0.500 OA
ATOM     22  H   UNL     1     156.261 156.551 158.801  1.00  0.00     0.294 HD
ENDBRANCH  10  21
BRANCH   5  23
ATOM     23  O   UNL     1     159.249 159.053 151.482  1.00  0.00    -0.507 OA
ATOM     24  H   UNL     1     160.204 159.388 151.551  1.00  0.00     0.293 HD
ENDBRANCH   5  23
BRANCH   7  25
ATOM     25  O   UNL     1     155.599 159.971 154.461  1.00  0.00    -0.507 OA
ATOM     26  H   UNL     1     155.686 160.945 154.712  1.00  0.00     0.293 HD
ENDBRANCH   7  25
TORSDOF 6
ENDMDL
MODEL 9
REMARK VINA RESULT:    -3.772      2.416      3.913
REMARK INTER + INTRA:          -4.834
REMARK INTER:                  -4.494
REMARK INTRA:                  -0.339
REMARK UNBOUND:                -0.290
REMARK SMILES Oc1cc(O)c2cc(O)c(-c3ccc(O)c(O)c3)[o+]c2c1
REMARK SMILES IDX 10 1 19 2 20 3 21 4 2 5 3 6 4 7 6 8 7 9 8 10 11 11 12 12
REMARK SMILES IDX 13 13 14 14 18 15 16 16 15 17 17 19 9 21 1 23 5 25
REMARK H PARENT 15 18 17 20 9 22 1 24 5 26
REMARK Flexibility Score: inf
ROOT
ATOM      1  C   UNL     1     154.592 158.943 143.611  1.00  0.00     0.402 A 
ATOM      2  O   UNL     1     155.692 158.302 143.226  1.00  0.00    -0.202 OA
ATOM      3  C   UNL     1     156.763 158.158 143.999  1.00  0.00     0.368 A 
ATOM      4  C   UNL     1     157.872 157.469 143.503  1.00  0.00     0.162 A 
ATOM      5  C   UNL     1     159.013 157.306 144.295  1.00  0.00     0.128 A 
ATOM      6  C   UNL     1     159.044 157.835 145.587  1.00  0.00     0.093 A 
ATOM      7  C   UNL     1     157.945 158.530 146.107  1.00  0.00     0.136 A 
ATOM      8  C   UNL     1     156.784 158.696 145.308  1.00  0.00     0.125 A 
ATOM      9  C   UNL     1     155.631 159.365 145.751  1.00  0.00     0.078 A 
ATOM     10  C   UNL     1     154.522 159.484 144.908  1.00  0.00     0.223 A 
ENDROOT
BRANCH   1  11
ATOM     11  C   UNL     1     153.468 159.044 142.653  1.00  0.00     0.087 A 
ATOM     12  C   UNL     1     153.427 160.052 141.677  1.00  0.00     0.022 A 
ATOM     13  C   UNL     1     152.367 160.113 140.770  1.00  0.00     0.051 A 
ATOM     14  C   UNL     1     151.338 159.166 140.807  1.00  0.00     0.157 A 
ATOM     15  C   UNL     1     152.448 158.080 142.679  1.00  0.00     0.068 A 
ATOM     16  C   UNL     1     151.381 158.133 141.773  1.00  0.00     0.158 A 
BRANCH  14  17
ATOM     17  O   UNL     1     150.306 159.286 139.875  1.00  0.00    -0.504 OA
ATOM     18  H   UNL     1     149.670 160.069 139.835  1.00  0.00     0.293 HD
ENDBRANCH  14  17
BRANCH  16  19
ATOM     19  O   UNL     1     150.397 157.147 141.867  1.00  0.00    -0.504 OA
ATOM     20  H   UNL     1     150.416 156.392 142.537  1.00  0.00     0.293 HD
ENDBRANCH  16  19
ENDBRANCH   1  11
BRANCH  10  21
ATOM     21  O   UNL     1     153.359 160.106 145.365  1.00  0.00    -0.500 OA
ATOM     22  H   UNL     1     152.687 159.618 145.945  1.00  0.00     0.294 HD
ENDBRANCH  10  21
BRANCH   5  23
ATOM     23  O   UNL     1     160.124 156.621 143.808  1.00  0.00    -0.507 OA
ATOM     24  H   UNL     1     160.179 156.321 142.841  1.00  0.00     0.293 HD
ENDBRANCH   5  23
BRANCH   7  25
ATOM     25  O   UNL     1     158.057 159.031 147.408  1.00  0.00    -0.507 OA
ATOM     26  H   UNL     1     158.266 158.469 148.220  1.00  0.00     0.293 HD
ENDBRANCH   7  25
TORSDOF 6
ENDMDL
