MODEL 1
REMARK VINA RESULT:    -5.218      0.000      0.000
REMARK INTER + INTRA:          -5.370
REMARK INTER:                  -5.370
REMARK INTRA:                   0.000
REMARK UNBOUND:                 0.000
REMARK SMILES O=c1ccc2cc(O)ccc2o1
REMARK SMILES IDX 9 1 10 2 11 3 5 4 4 5 3 6 2 7 1 8 12 9 6 10 7 11 8 12
REMARK H PARENT 8 13
REMARK Flexibility Score: inf
ROOT
ATOM      1  C   UNL     1      30.383   7.169 -20.576  1.00  0.00     0.050 A 
ATOM      2  C   UNL     1      29.951   6.395 -21.658  1.00  0.00     0.052 A 
ATOM      3  C   UNL     1      30.721   6.327 -22.824  1.00  0.00     0.138 A 
ATOM      4  C   UNL     1      31.935   7.044 -22.905  1.00  0.00     0.021 A 
ATOM      5  C   UNL     1      32.683   6.958 -24.083  1.00  0.00     0.019 A 
ATOM      6  C   UNL     1      32.213   6.173 -25.136  1.00  0.00     0.094 A 
ATOM      7  C   UNL     1      31.001   5.491 -24.985  1.00  0.00     0.336 A 
ATOM      8  O   UNL     1      30.560   4.778 -25.924  1.00  0.00    -0.246 OA
ATOM      9  O   UNL     1      30.309   5.590 -23.853  1.00  0.00    -0.423 OA
ATOM     10  C   UNL     1      32.364   7.820 -21.817  1.00  0.00     0.058 A 
ATOM     11  C   UNL     1      31.589   7.882 -20.654  1.00  0.00     0.116 A 
ENDROOT
BRANCH  11  12
ATOM     12  O   UNL     1      32.025   8.655 -19.580  1.00  0.00    -0.508 OA
ATOM     13  H   UNL     1      31.604   9.553 -19.369  1.00  0.00     0.293 HD
ENDBRANCH  11  12
TORSDOF 1
ENDMDL
MODEL 2
REMARK VINA RESULT:    -5.029     11.888     12.363
REMARK INTER + INTRA:          -5.176
REMARK INTER:                  -5.176
REMARK INTRA:                   0.000
REMARK UNBOUND:                 0.000
REMARK SMILES O=c1ccc2cc(O)ccc2o1
REMARK SMILES IDX 9 1 10 2 11 3 5 4 4 5 3 6 2 7 1 8 12 9 6 10 7 11 8 12
REMARK H PARENT 8 13
REMARK Flexibility Score: inf
ROOT
ATOM      1  C   UNL     1      29.788   9.547 -34.535  1.00  0.00     0.050 A 
ATOM      2  C   UNL     1      28.489   9.665 -34.029  1.00  0.00     0.052 A 
ATOM      3  C   UNL     1      28.103  10.829 -33.355  1.00  0.00     0.138 A 
ATOM      4  C   UNL     1      29.029  11.882 -33.188  1.00  0.00     0.021 A 
ATOM      5  C   UNL     1      28.613  13.032 -32.510  1.00  0.00     0.019 A 
ATOM      6  C   UNL     1      27.309  13.106 -32.022  1.00  0.00     0.094 A 
ATOM      7  C   UNL     1      26.447  12.023 -32.225  1.00  0.00     0.336 A 
ATOM      8  O   UNL     1      25.266  12.070 -31.792  1.00  0.00    -0.246 OA
ATOM      9  O   UNL     1      26.867  10.940 -32.873  1.00  0.00    -0.423 OA
ATOM     10  C   UNL     1      30.330  11.759 -33.698  1.00  0.00     0.058 A 
ATOM     11  C   UNL     1      30.709  10.592 -34.371  1.00  0.00     0.116 A 
ENDROOT
BRANCH  11  12
ATOM     12  O   UNL     1      32.004  10.480 -34.873  1.00  0.00    -0.508 OA
ATOM     13  H   UNL     1      32.195  10.549 -35.866  1.00  0.00     0.293 HD
ENDBRANCH  11  12
TORSDOF 1
ENDMDL
MODEL 3
REMARK VINA RESULT:    -4.995     11.244     12.312
REMARK INTER + INTRA:          -5.141
REMARK INTER:                  -5.141
REMARK INTRA:                   0.000
REMARK UNBOUND:                 0.000
REMARK SMILES O=c1ccc2cc(O)ccc2o1
REMARK SMILES IDX 9 1 10 2 11 3 5 4 4 5 3 6 2 7 1 8 12 9 6 10 7 11 8 12
REMARK H PARENT 8 13
REMARK Flexibility Score: inf
ROOT
ATOM      1  C   UNL     1      31.280  10.370 -34.892  1.00  0.00     0.050 A 
ATOM      2  C   UNL     1      30.546  11.341 -34.203  1.00  0.00     0.052 A 
ATOM      3  C   UNL     1      29.377  10.985 -33.522  1.00  0.00     0.138 A 
ATOM      4  C   UNL     1      28.941   9.642 -33.532  1.00  0.00     0.021 A 
ATOM      5  C   UNL     1      27.769   9.316 -32.843  1.00  0.00     0.019 A 
ATOM      6  C   UNL     1      27.070  10.318 -32.171  1.00  0.00     0.094 A 
ATOM      7  C   UNL     1      27.562  11.628 -32.204  1.00  0.00     0.336 A 
ATOM      8  O   UNL     1      26.945  12.546 -31.604  1.00  0.00    -0.246 OA
ATOM      9  O   UNL     1      28.680  11.910 -32.868  1.00  0.00    -0.423 OA
ATOM     10  C   UNL     1      29.681   8.671 -34.224  1.00  0.00     0.058 A 
ATOM     11  C   UNL     1      30.849   9.034 -34.903  1.00  0.00     0.116 A 
ENDROOT
BRANCH  11  12
ATOM     12  O   UNL     1      31.576   8.061 -35.587  1.00  0.00    -0.508 OA
ATOM     13  H   UNL     1      31.422   7.073 -35.424  1.00  0.00     0.293 HD
ENDBRANCH  11  12
TORSDOF 1
ENDMDL
MODEL 4
REMARK VINA RESULT:    -4.991     11.592     11.808
REMARK INTER + INTRA:          -5.137
REMARK INTER:                  -5.137
REMARK INTRA:                   0.000
REMARK UNBOUND:                 0.000
REMARK SMILES O=c1ccc2cc(O)ccc2o1
REMARK SMILES IDX 9 1 10 2 11 3 5 4 4 5 3 6 2 7 1 8 12 9 6 10 7 11 8 12
REMARK H PARENT 8 13
REMARK Flexibility Score: inf
ROOT
ATOM      1  C   UNL     1      28.783  12.405 -32.592  1.00  0.00     0.050 A 
ATOM      2  C   UNL     1      27.446  12.184 -32.245  1.00  0.00     0.052 A 
ATOM      3  C   UNL     1      26.859  10.936 -32.479  1.00  0.00     0.138 A 
ATOM      4  C   UNL     1      27.619   9.902 -33.068  1.00  0.00     0.021 A 
ATOM      5  C   UNL     1      27.003   8.667 -33.291  1.00  0.00     0.019 A 
ATOM      6  C   UNL     1      25.668   8.492 -32.929  1.00  0.00     0.094 A 
ATOM      7  C   UNL     1      24.977   9.562 -32.350  1.00  0.00     0.336 A 
ATOM      8  O   UNL     1      23.771   9.424 -32.017  1.00  0.00    -0.246 OA
ATOM      9  O   UNL     1      25.586  10.727 -32.149  1.00  0.00    -0.423 OA
ATOM     10  C   UNL     1      28.959  10.128 -33.414  1.00  0.00     0.058 A 
ATOM     11  C   UNL     1      29.541  11.379 -33.176  1.00  0.00     0.116 A 
ENDROOT
BRANCH  11  12
ATOM     12  O   UNL     1      30.874  11.593 -33.524  1.00  0.00    -0.508 OA
ATOM     13  H   UNL     1      31.224  11.358 -34.446  1.00  0.00     0.293 HD
ENDBRANCH  11  12
TORSDOF 1
ENDMDL
MODEL 5
REMARK VINA RESULT:    -4.971      1.511      4.075
REMARK INTER + INTRA:          -5.116
REMARK INTER:                  -5.116
REMARK INTRA:                   0.000
REMARK UNBOUND:                 0.000
REMARK SMILES O=c1ccc2cc(O)ccc2o1
REMARK SMILES IDX 9 1 10 2 11 3 5 4 4 5 3 6 2 7 1 8 12 9 6 10 7 11 8 12
REMARK H PARENT 8 13
REMARK Flexibility Score: inf
ROOT
ATOM      1  C   UNL     1      29.467   6.759 -21.492  1.00  0.00     0.050 A 
ATOM      2  C   UNL     1      30.494   7.270 -20.691  1.00  0.00     0.052 A 
ATOM      3  C   UNL     1      31.806   7.310 -21.176  1.00  0.00     0.138 A 
ATOM      4  C   UNL     1      32.089   6.834 -22.475  1.00  0.00     0.021 A 
ATOM      5  C   UNL     1      33.409   6.887 -22.931  1.00  0.00     0.019 A 
ATOM      6  C   UNL     1      34.401   7.404 -22.098  1.00  0.00     0.094 A 
ATOM      7  C   UNL     1      34.047   7.857 -20.823  1.00  0.00     0.336 A 
ATOM      8  O   UNL     1      34.928   8.327 -20.056  1.00  0.00    -0.246 OA
ATOM      9  O   UNL     1      32.783   7.796 -20.413  1.00  0.00    -0.423 OA
ATOM     10  C   UNL     1      31.055   6.323 -23.274  1.00  0.00     0.058 A 
ATOM     11  C   UNL     1      29.745   6.286 -22.783  1.00  0.00     0.116 A 
ENDROOT
BRANCH  11  12
ATOM     12  O   UNL     1      28.726   5.777 -23.585  1.00  0.00    -0.508 OA
ATOM     13  H   UNL     1      28.097   5.056 -23.249  1.00  0.00     0.293 HD
ENDBRANCH  11  12
TORSDOF 1
ENDMDL
MODEL 6
REMARK VINA RESULT:    -4.936     11.514     11.785
REMARK INTER + INTRA:          -5.080
REMARK INTER:                  -5.080
REMARK INTRA:                   0.000
REMARK UNBOUND:                 0.000
REMARK SMILES O=c1ccc2cc(O)ccc2o1
REMARK SMILES IDX 9 1 10 2 11 3 5 4 4 5 3 6 2 7 1 8 12 9 6 10 7 11 8 12
REMARK H PARENT 8 13
REMARK Flexibility Score: inf
ROOT
ATOM      1  C   UNL     1      26.375   9.798 -32.588  1.00  0.00     0.050 A 
ATOM      2  C   UNL     1      27.302   9.083 -33.352  1.00  0.00     0.052 A 
ATOM      3  C   UNL     1      28.522   9.670 -33.705  1.00  0.00     0.138 A 
ATOM      4  C   UNL     1      28.812  10.988 -33.289  1.00  0.00     0.021 A 
ATOM      5  C   UNL     1      30.038  11.549 -33.658  1.00  0.00     0.019 A 
ATOM      6  C   UNL     1      30.932  10.799 -34.420  1.00  0.00     0.094 A 
ATOM      7  C   UNL     1      30.577   9.499 -34.797  1.00  0.00     0.336 A 
ATOM      8  O   UNL     1      31.371   8.806 -35.486  1.00  0.00    -0.246 OA
ATOM      9  O   UNL     1      29.404   8.989 -34.433  1.00  0.00    -0.423 OA
ATOM     10  C   UNL     1      27.878  11.702 -32.522  1.00  0.00     0.058 A 
ATOM     11  C   UNL     1      26.661  11.107 -32.172  1.00  0.00     0.116 A 
ENDROOT
BRANCH  11  12
ATOM     12  O   UNL     1      25.741  11.825 -31.410  1.00  0.00    -0.508 OA
ATOM     13  H   UNL     1      25.487  11.534 -30.473  1.00  0.00     0.293 HD
ENDBRANCH  11  12
TORSDOF 1
ENDMDL
MODEL 7
REMARK VINA RESULT:    -4.879      1.313      4.664
REMARK INTER + INTRA:          -5.022
REMARK INTER:                  -5.022
REMARK INTRA:                   0.000
REMARK UNBOUND:                 0.000
REMARK SMILES O=c1ccc2cc(O)ccc2o1
REMARK SMILES IDX 9 1 10 2 11 3 5 4 4 5 3 6 2 7 1 8 12 9 6 10 7 11 8 12
REMARK H PARENT 8 13
REMARK Flexibility Score: inf
ROOT
ATOM      1  C   UNL     1      31.765   5.686 -24.941  1.00  0.00     0.050 A 
ATOM      2  C   UNL     1      32.680   6.506 -24.271  1.00  0.00     0.052 A 
ATOM      3  C   UNL     1      32.340   7.072 -23.038  1.00  0.00     0.138 A 
ATOM      4  C   UNL     1      31.072   6.815 -22.472  1.00  0.00     0.021 A 
ATOM      5  C   UNL     1      30.762   7.395 -21.239  1.00  0.00     0.019 A 
ATOM      6  C   UNL     1      31.705   8.206 -20.607  1.00  0.00     0.094 A 
ATOM      7  C   UNL     1      32.941   8.417 -21.227  1.00  0.00     0.336 A 
ATOM      8  O   UNL     1      33.805   9.146 -20.673  1.00  0.00    -0.246 OA
ATOM      9  O   UNL     1      33.211   7.852 -22.401  1.00  0.00    -0.423 OA
ATOM     10  C   UNL     1      30.158   5.992 -23.148  1.00  0.00     0.058 A 
ATOM     11  C   UNL     1      30.505   5.428 -24.381  1.00  0.00     0.116 A 
ENDROOT
BRANCH  11  12
ATOM     12  O   UNL     1      29.589   4.612 -25.043  1.00  0.00    -0.508 OA
ATOM     13  H   UNL     1      29.414   4.711 -26.037  1.00  0.00     0.293 HD
ENDBRANCH  11  12
TORSDOF 1
ENDMDL
MODEL 8
REMARK VINA RESULT:    -4.704     11.487     11.996
REMARK INTER + INTRA:          -4.841
REMARK INTER:                  -4.841
REMARK INTRA:                   0.000
REMARK UNBOUND:                 0.000
REMARK SMILES O=c1ccc2cc(O)ccc2o1
REMARK SMILES IDX 9 1 10 2 11 3 5 4 4 5 3 6 2 7 1 8 12 9 6 10 7 11 8 12
REMARK H PARENT 8 13
REMARK Flexibility Score: inf
ROOT
ATOM      1  C   UNL     1      30.106   9.310 -34.151  1.00  0.00     0.050 A 
ATOM      2  C   UNL     1      28.859   8.842 -33.724  1.00  0.00     0.052 A 
ATOM      3  C   UNL     1      27.914   9.736 -33.208  1.00  0.00     0.138 A 
ATOM      4  C   UNL     1      28.224  11.111 -33.119  1.00  0.00     0.021 A 
ATOM      5  C   UNL     1      27.260  11.979 -32.599  1.00  0.00     0.019 A 
ATOM      6  C   UNL     1      26.030  11.468 -32.186  1.00  0.00     0.094 A 
ATOM      7  C   UNL     1      25.793  10.094 -32.304  1.00  0.00     0.336 A 
ATOM      8  O   UNL     1      24.689   9.613 -31.936  1.00  0.00    -0.246 OA
ATOM      9  O   UNL     1      26.727   9.289 -32.802  1.00  0.00    -0.423 OA
ATOM     10  C   UNL     1      29.476  11.575 -33.549  1.00  0.00     0.058 A 
ATOM     11  C   UNL     1      30.416  10.675 -34.064  1.00  0.00     0.116 A 
ENDROOT
BRANCH  11  12
ATOM     12  O   UNL     1      31.657  11.148 -34.488  1.00  0.00    -0.508 OA
ATOM     13  H   UNL     1      32.299  10.560 -35.007  1.00  0.00     0.293 HD
ENDBRANCH  11  12
TORSDOF 1
ENDMDL
MODEL 9
REMARK VINA RESULT:    -4.574      3.269      4.673
REMARK INTER + INTRA:          -4.708
REMARK INTER:                  -4.708
REMARK INTRA:                   0.000
REMARK UNBOUND:                 0.000
REMARK SMILES O=c1ccc2cc(O)ccc2o1
REMARK SMILES IDX 9 1 10 2 11 3 5 4 4 5 3 6 2 7 1 8 12 9 6 10 7 11 8 12
REMARK H PARENT 8 13
REMARK Flexibility Score: inf
ROOT
ATOM      1  C   UNL     1      31.996   7.510 -22.888  1.00  0.00     0.050 A 
ATOM      2  C   UNL     1      33.297   7.060 -23.140  1.00  0.00     0.052 A 
ATOM      3  C   UNL     1      34.273   7.146 -22.142  1.00  0.00     0.138 A 
ATOM      4  C   UNL     1      33.942   7.689 -20.880  1.00  0.00     0.021 A 
ATOM      5  C   UNL     1      34.939   7.762 -19.903  1.00  0.00     0.019 A 
ATOM      6  C   UNL     1      36.222   7.302 -20.199  1.00  0.00     0.094 A 
ATOM      7  C   UNL     1      36.478   6.777 -21.470  1.00  0.00     0.336 A 
ATOM      8  O   UNL     1      37.629   6.357 -21.756  1.00  0.00    -0.246 OA
ATOM      9  O   UNL     1      35.511   6.718 -22.382  1.00  0.00    -0.423 OA
ATOM     10  C   UNL     1      32.636   8.138 -20.633  1.00  0.00     0.058 A 
ATOM     11  C   UNL     1      31.664   8.048 -21.636  1.00  0.00     0.116 A 
ENDROOT
BRANCH  11  12
ATOM     12  O   UNL     1      30.370   8.498 -21.379  1.00  0.00    -0.508 OA
ATOM     13  H   UNL     1      29.825   8.975 -22.088  1.00  0.00     0.293 HD
ENDBRANCH  11  12
TORSDOF 1
ENDMDL
