MODEL 1
REMARK VINA RESULT:    -2.508      0.000      0.000
REMARK INTER + INTRA:          -3.055
REMARK INTER:                  -2.948
REMARK INTRA:                  -0.107
REMARK UNBOUND:                -0.107
REMARK SMILES O=C([O-])CCC(=O)[O-]
REMARK SMILES IDX 4 1 2 2 1 3 3 4 5 5 6 6 7 7 8 8
REMARK H PARENT
REMARK Flexibility Score: inf
ROOT
ATOM      1  C   UNL     1     192.449 195.710 194.187  1.00  0.00     0.059 C 
ENDROOT
BRANCH   1   2
ATOM      2  C   UNL     1     191.281 194.775 194.131  1.00  0.00     0.042 C 
ATOM      3  O   UNL     1     190.517 194.658 195.125  1.00  0.00    -0.550 OA
ATOM      4  O   UNL     1     191.009 194.072 192.965  1.00  0.00    -0.550 OA
ENDBRANCH   1   2
BRANCH   1   5
ATOM      5  C   UNL     1     193.423 195.416 193.045  1.00  0.00     0.059 C 
BRANCH   5   6
ATOM      6  C   UNL     1     194.645 194.726 193.565  1.00  0.00     0.042 C 
ATOM      7  O   UNL     1     194.592 193.515 193.907  1.00  0.00    -0.550 OA
ATOM      8  O   UNL     1     195.855 195.406 193.625  1.00  0.00    -0.550 OA
ENDBRANCH   5   6
ENDBRANCH   1   5
TORSDOF 3
ENDMDL
MODEL 2
REMARK VINA RESULT:    -2.476      4.521      5.955
REMARK INTER + INTRA:          -3.016
REMARK INTER:                  -2.895
REMARK INTRA:                  -0.121
REMARK UNBOUND:                -0.107
REMARK SMILES O=C([O-])CCC(=O)[O-]
REMARK SMILES IDX 4 1 2 2 1 3 3 4 5 5 6 6 7 7 8 8
REMARK H PARENT
REMARK Flexibility Score: inf
ROOT
ATOM      1  C   UNL     1     198.781 193.987 193.702  1.00  0.00     0.059 C 
ENDROOT
BRANCH   1   2
ATOM      2  C   UNL     1     197.509 194.503 194.296  1.00  0.00     0.042 C 
ATOM      3  O   UNL     1     197.532 195.478 195.092  1.00  0.00    -0.550 OA
ATOM      4  O   UNL     1     196.292 193.940 193.932  1.00  0.00    -0.550 OA
ENDBRANCH   1   2
BRANCH   1   5
ATOM      5  C   UNL     1     198.973 192.510 194.050  1.00  0.00     0.059 C 
BRANCH   5   6
ATOM      6  C   UNL     1     198.901 191.668 192.815  1.00  0.00     0.042 C 
ATOM      7  O   UNL     1     199.598 190.624 192.718  1.00  0.00    -0.550 OA
ATOM      8  O   UNL     1     198.028 192.011 191.791  1.00  0.00    -0.550 OA
ENDBRANCH   5   6
ENDBRANCH   1   5
TORSDOF 3
ENDMDL
MODEL 3
REMARK VINA RESULT:    -2.468      2.294      2.958
REMARK INTER + INTRA:          -3.007
REMARK INTER:                  -2.908
REMARK INTRA:                  -0.099
REMARK UNBOUND:                -0.107
REMARK SMILES O=C([O-])CCC(=O)[O-]
REMARK SMILES IDX 4 1 2 2 1 3 3 4 5 5 6 6 7 7 8 8
REMARK H PARENT
REMARK Flexibility Score: inf
ROOT
ATOM      1  C   UNL     1     192.215 195.612 194.195  1.00  0.00     0.059 C 
ENDROOT
BRANCH   1   2
ATOM      2  C   UNL     1     191.372 194.560 194.845  1.00  0.00     0.042 C 
ATOM      3  O   UNL     1     190.168 194.797 195.123  1.00  0.00    -0.550 OA
ATOM      4  O   UNL     1     191.904 193.302 195.097  1.00  0.00    -0.550 OA
ENDBRANCH   1   2
BRANCH   1   5
ATOM      5  C   UNL     1     192.577 195.200 192.766  1.00  0.00     0.059 C 
BRANCH   5   6
ATOM      6  C   UNL     1     191.664 195.863 191.784  1.00  0.00     0.042 C 
ATOM      7  O   UNL     1     190.779 195.193 191.190  1.00  0.00    -0.550 OA
ATOM      8  O   UNL     1     191.759 197.231 191.561  1.00  0.00    -0.550 OA
ENDBRANCH   5   6
ENDBRANCH   1   5
TORSDOF 3
ENDMDL
MODEL 4
REMARK VINA RESULT:    -2.464      0.553      3.792
REMARK INTER + INTRA:          -3.003
REMARK INTER:                  -2.898
REMARK INTRA:                  -0.105
REMARK UNBOUND:                -0.107
REMARK SMILES O=C([O-])CCC(=O)[O-]
REMARK SMILES IDX 4 1 2 2 1 3 3 4 5 5 6 6 7 7 8 8
REMARK H PARENT
REMARK Flexibility Score: inf
ROOT
ATOM      1  C   UNL     1     193.500 195.411 192.900  1.00  0.00     0.059 C 
ENDROOT
BRANCH   1   2
ATOM      2  C   UNL     1     194.804 194.940 193.463  1.00  0.00     0.042 C 
ATOM      3  O   UNL     1     195.757 195.748 193.612  1.00  0.00    -0.550 OA
ATOM      4  O   UNL     1     194.949 193.620 193.869  1.00  0.00    -0.550 OA
ENDBRANCH   1   2
BRANCH   1   5
ATOM      5  C   UNL     1     192.480 195.626 194.020  1.00  0.00     0.059 C 
BRANCH   5   6
ATOM      6  C   UNL     1     191.530 194.473 194.091  1.00  0.00     0.042 C 
ATOM      7  O   UNL     1     191.479 193.756 195.125  1.00  0.00    -0.550 OA
ATOM      8  O   UNL     1     190.666 194.218 193.033  1.00  0.00    -0.550 OA
ENDBRANCH   5   6
ENDBRANCH   1   5
TORSDOF 3
ENDMDL
MODEL 5
REMARK VINA RESULT:    -2.427      4.491      6.519
REMARK INTER + INTRA:          -2.959
REMARK INTER:                  -2.837
REMARK INTRA:                  -0.123
REMARK UNBOUND:                -0.107
REMARK SMILES O=C([O-])CCC(=O)[O-]
REMARK SMILES IDX 4 1 2 2 1 3 3 4 5 5 6 6 7 7 8 8
REMARK H PARENT
REMARK Flexibility Score: inf
ROOT
ATOM      1  C   UNL     1     198.906 192.551 194.059  1.00  0.00     0.059 C 
ENDROOT
BRANCH   1   2
ATOM      2  C   UNL     1     198.890 191.747 192.797  1.00  0.00     0.042 C 
ATOM      3  O   UNL     1     198.189 192.117 191.820  1.00  0.00    -0.550 OA
ATOM      4  O   UNL     1     199.688 190.615 192.684  1.00  0.00    -0.550 OA
ENDBRANCH   1   2
BRANCH   1   5
ATOM      5  C   UNL     1     198.741 194.040 193.746  1.00  0.00     0.059 C 
BRANCH   5   6
ATOM      6  C   UNL     1     197.475 194.562 194.348  1.00  0.00     0.042 C 
ATOM      7  O   UNL     1     197.499 195.573 195.099  1.00  0.00    -0.550 OA
ATOM      8  O   UNL     1     196.260 193.962 194.041  1.00  0.00    -0.550 OA
ENDBRANCH   5   6
ENDBRANCH   1   5
TORSDOF 3
ENDMDL
MODEL 6
REMARK VINA RESULT:    -2.419      2.042      3.692
REMARK INTER + INTRA:          -2.950
REMARK INTER:                  -2.817
REMARK INTRA:                  -0.134
REMARK UNBOUND:                -0.107
REMARK SMILES O=C([O-])CCC(=O)[O-]
REMARK SMILES IDX 4 1 2 2 1 3 3 4 5 5 6 6 7 7 8 8
REMARK H PARENT
REMARK Flexibility Score: inf
ROOT
ATOM      1  C   UNL     1     193.191 195.661 192.822  1.00  0.00     0.059 C 
ENDROOT
BRANCH   1   2
ATOM      2  C   UNL     1     192.831 197.105 192.661  1.00  0.00     0.042 C 
ATOM      3  O   UNL     1     193.358 197.975 193.402  1.00  0.00    -0.550 OA
ATOM      4  O   UNL     1     191.952 197.495 191.658  1.00  0.00    -0.550 OA
ENDBRANCH   1   2
BRANCH   1   5
ATOM      5  C   UNL     1     192.720 195.142 194.182  1.00  0.00     0.059 C 
BRANCH   5   6
ATOM      6  C   UNL     1     191.296 194.689 194.103  1.00  0.00     0.042 C 
ATOM      7  O   UNL     1     190.561 194.727 195.125  1.00  0.00    -0.550 OA
ATOM      8  O   UNL     1     190.766 194.271 192.889  1.00  0.00    -0.550 OA
ENDBRANCH   5   6
ENDBRANCH   1   5
TORSDOF 3
ENDMDL
MODEL 7
REMARK VINA RESULT:    -2.410      1.742      3.509
REMARK INTER + INTRA:          -2.939
REMARK INTER:                  -2.792
REMARK INTRA:                  -0.148
REMARK UNBOUND:                -0.107
REMARK SMILES O=C([O-])CCC(=O)[O-]
REMARK SMILES IDX 4 1 2 2 1 3 3 4 5 5 6 6 7 7 8 8
REMARK H PARENT
REMARK Flexibility Score: inf
ROOT
ATOM      1  C   UNL     1     192.140 195.882 193.016  1.00  0.00     0.059 C 
ENDROOT
BRANCH   1   2
ATOM      2  C   UNL     1     192.723 194.868 192.083  1.00  0.00     0.042 C 
ATOM      3  O   UNL     1     192.187 194.654 190.965  1.00  0.00    -0.550 OA
ATOM      4  O   UNL     1     193.889 194.195 192.428  1.00  0.00    -0.550 OA
ENDBRANCH   1   2
BRANCH   1   5
ATOM      5  C   UNL     1     192.411 195.489 194.470  1.00  0.00     0.059 C 
BRANCH   5   6
ATOM      6  C   UNL     1     191.399 194.491 194.939  1.00  0.00     0.042 C 
ATOM      7  O   UNL     1     190.204 194.840 195.124  1.00  0.00    -0.550 OA
ATOM      8  O   UNL     1     191.766 193.164 195.125  1.00  0.00    -0.550 OA
ENDBRANCH   5   6
ENDBRANCH   1   5
TORSDOF 3
ENDMDL
MODEL 8
REMARK VINA RESULT:    -2.408      1.034      4.134
REMARK INTER + INTRA:          -2.937
REMARK INTER:                  -2.901
REMARK INTRA:                  -0.037
REMARK UNBOUND:                -0.107
REMARK SMILES O=C([O-])CCC(=O)[O-]
REMARK SMILES IDX 4 1 2 2 1 3 3 4 5 5 6 6 7 7 8 8
REMARK H PARENT
REMARK Flexibility Score: inf
ROOT
ATOM      1  C   UNL     1     194.172 193.951 193.713  1.00  0.00     0.059 C 
ENDROOT
BRANCH   1   2
ATOM      2  C   UNL     1     195.628 194.298 193.749  1.00  0.00     0.042 C 
ATOM      3  O   UNL     1     195.991 195.485 193.953  1.00  0.00    -0.550 OA
ATOM      4  O   UNL     1     196.584 193.299 193.607  1.00  0.00    -0.550 OA
ENDBRANCH   1   2
BRANCH   1   5
ATOM      5  C   UNL     1     193.324 195.217 193.577  1.00  0.00     0.059 C 
BRANCH   5   6
ATOM      6  C   UNL     1     191.913 194.948 193.994  1.00  0.00     0.042 C 
ATOM      7  O   UNL     1     191.495 195.348 195.112  1.00  0.00    -0.550 OA
ATOM      8  O   UNL     1     191.044 194.298 193.126  1.00  0.00    -0.550 OA
ENDBRANCH   5   6
ENDBRANCH   1   5
TORSDOF 3
ENDMDL
MODEL 9
REMARK VINA RESULT:    -2.388      1.096      1.301
REMARK INTER + INTRA:          -2.913
REMARK INTER:                  -2.879
REMARK INTRA:                  -0.034
REMARK UNBOUND:                -0.107
REMARK SMILES O=C([O-])CCC(=O)[O-]
REMARK SMILES IDX 4 1 2 2 1 3 3 4 5 5 6 6 7 7 8 8
REMARK H PARENT
REMARK Flexibility Score: inf
ROOT
ATOM      1  C   UNL     1     193.471 195.226 193.597  1.00  0.00     0.059 C 
ENDROOT
BRANCH   1   2
ATOM      2  C   UNL     1     192.049 194.995 194.004  1.00  0.00     0.042 C 
ATOM      3  O   UNL     1     191.639 195.395 195.125  1.00  0.00    -0.550 OA
ATOM      4  O   UNL     1     191.165 194.383 193.125  1.00  0.00    -0.550 OA
ENDBRANCH   1   2
BRANCH   1   5
ATOM      5  C   UNL     1     194.285 193.940 193.748  1.00  0.00     0.059 C 
BRANCH   5   6
ATOM      6  C   UNL     1     195.749 194.249 193.781  1.00  0.00     0.042 C 
ATOM      7  O   UNL     1     196.594 193.336 193.587  1.00  0.00    -0.550 OA
ATOM      8  O   UNL     1     196.179 195.556 193.977  1.00  0.00    -0.550 OA
ENDBRANCH   5   6
ENDBRANCH   1   5
TORSDOF 3
ENDMDL
