MODEL 1
REMARK VINA RESULT:    -8.092      0.000      0.000
REMARK INTER + INTRA:         -14.177
REMARK INTER:                 -14.006
REMARK INTRA:                  -0.171
REMARK UNBOUND:                -0.171
REMARK SMILES OC[C@@H]1O[C@@H](O[C@H]2[C@@H](O)[C@@H](O)[C@H](O[C@@H]3[C@H](O)[C@H](O)[C@@H](O)O[C@H]3CO)O[C@H]2CO)[C@@H](O)[C@H](O)[C@@H]1O
REMARK SMILES IDX 7 1 26 2 25 3 12 4 10 5 8 6 6 7 5 8 3 9 33 10 4 11 31 12
REMARK SMILES IDX 29 13 2 14 1 15 34 17 32 19 30 21 27 23 28 24 9 26 11 28
REMARK SMILES IDX 13 30 14 31 22 32 15 33 21 34 17 35 19 36 23 37 24 38 16 40
REMARK SMILES IDX 18 42 20 44
REMARK H PARENT 1 16 34 18 32 20 30 22 28 25 9 27 11 29 24 39 16 41 18 43
REMARK H PARENT 20 45
REMARK Flexibility Score: inf
ROOT
ATOM      1  C   UNL     1      37.056   3.589  44.279  1.00  0.00     0.184 C 
ATOM      2  C   UNL     1      36.102   2.487  43.746  1.00  0.00     0.178 C 
ATOM      3  O   UNL     1      35.639   1.657  44.807  1.00  0.00    -0.341 OA
ATOM      4  C   UNL     1      36.700   0.950  45.435  1.00  0.00     0.282 C 
ATOM      5  C   UNL     1      37.729   1.918  46.055  1.00  0.00     0.202 C 
ATOM      6  C   UNL     1      38.236   2.903  44.992  1.00  0.00     0.180 C 
ENDROOT
BRANCH   1   7
ATOM      7  O   UNL     1      36.356   4.435  45.191  1.00  0.00    -0.341 OA
BRANCH   7   8
ATOM      8  C   UNL     1      35.607   5.446  44.524  1.00  0.00     0.282 C 
ATOM      9  C   UNL     1      37.505   6.574  43.697  1.00  0.00     0.178 C 
ATOM     10  C   UNL     1      37.258   7.827  44.565  1.00  0.00     0.177 C 
ATOM     11  O   UNL     1      36.289   5.917  43.366  1.00  0.00    -0.341 OA
ATOM     12  C   UNL     1      36.542   7.394  45.851  1.00  0.00     0.179 C 
ATOM     13  C   UNL     1      35.273   6.599  45.495  1.00  0.00     0.202 C 
BRANCH   9  14
ATOM     14  C   UNL     1      38.253   6.923  42.403  1.00  0.00     0.191 C 
BRANCH  14  15
ATOM     15  O   UNL     1      38.716   8.249  42.440  1.00  0.00    -0.394 OA
ATOM     16  H   UNL     1      38.225   8.743  41.728  1.00  0.00     0.210 HD
ENDBRANCH  14  15
ENDBRANCH   9  14
BRANCH  10  17
ATOM     17  O   UNL     1      36.475   8.761  43.857  1.00  0.00    -0.387 OA
ATOM     18  H   UNL     1      36.553   8.528  42.893  1.00  0.00     0.211 HD
ENDBRANCH  10  17
BRANCH  12  19
ATOM     19  O   UNL     1      36.224   8.534  46.622  1.00  0.00    -0.387 OA
ATOM     20  H   UNL     1      35.837   8.209  47.480  1.00  0.00     0.211 HD
ENDBRANCH  12  19
BRANCH  13  21
ATOM     21  O   UNL     1      34.685   6.085  46.662  1.00  0.00    -0.385 OA
ATOM     22  H   UNL     1      34.319   5.193  46.424  1.00  0.00     0.211 HD
ENDBRANCH  13  21
ENDBRANCH   7   8
ENDBRANCH   1   7
BRANCH   2  23
ATOM     23  C   UNL     1      34.881   3.065  43.010  1.00  0.00     0.191 C 
BRANCH  23  24
ATOM     24  O   UNL     1      33.817   2.151  43.021  1.00  0.00    -0.394 OA
ATOM     25  H   UNL     1      32.987   2.694  43.009  1.00  0.00     0.210 HD
ENDBRANCH  23  24
ENDBRANCH   2  23
BRANCH   6  26
ATOM     26  O   UNL     1      39.092   3.847  45.583  1.00  0.00    -0.387 OA
ATOM     27  H   UNL     1      38.605   4.235  46.356  1.00  0.00     0.211 HD
ENDBRANCH   6  26
BRANCH   5  28
ATOM     28  O   UNL     1      37.145   2.617  47.125  1.00  0.00    -0.385 OA
ATOM     29  H   UNL     1      36.746   3.441  46.747  1.00  0.00     0.211 HD
ENDBRANCH   5  28
BRANCH   4  30
ATOM     30  O   UNL     1      37.354   0.101  44.500  1.00  0.00    -0.341 OA
BRANCH  30  31
ATOM     31  C   UNL     1      37.565  -1.213  44.991  1.00  0.00     0.184 C 
ATOM     32  C   UNL     1      36.803  -2.242  44.108  1.00  0.00     0.178 C 
ATOM     33  C   UNL     1      39.081  -1.490  45.009  1.00  0.00     0.180 C 
ATOM     34  O   UNL     1      37.382  -2.437  42.818  1.00  0.00    -0.342 OA
ATOM     35  C   UNL     1      39.604  -1.662  43.576  1.00  0.00     0.201 C 
ATOM     36  C   UNL     1      38.771  -2.729  42.833  1.00  0.00     0.279 C 
BRANCH  32  37
ATOM     37  C   UNL     1      36.393  -3.556  44.823  1.00  0.00     0.191 C 
BRANCH  37  38
ATOM     38  O   UNL     1      35.181  -3.445  45.520  1.00  0.00    -0.394 OA
ATOM     39  H   UNL     1      34.454  -3.732  44.902  1.00  0.00     0.210 HD
ENDBRANCH  37  38
ENDBRANCH  32  37
BRANCH  33  40
ATOM     40  O   UNL     1      39.745  -0.420  45.635  1.00  0.00    -0.387 OA
ATOM     41  H   UNL     1      40.710  -0.514  45.421  1.00  0.00     0.211 HD
ENDBRANCH  33  40
BRANCH  35  42
ATOM     42  O   UNL     1      39.516  -0.446  42.872  1.00  0.00    -0.385 OA
ATOM     43  H   UNL     1      40.041   0.226  43.384  1.00  0.00     0.211 HD
ENDBRANCH  35  42
BRANCH  36  44
ATOM     44  O   UNL     1      38.994  -4.051  43.270  1.00  0.00    -0.366 OA
ATOM     45  H   UNL     1      38.447  -4.234  44.083  1.00  0.00     0.213 HD
ENDBRANCH  36  44
ENDBRANCH  30  31
ENDBRANCH   4  30
TORSDOF 18
ENDMDL
MODEL 2
REMARK VINA RESULT:    -8.045     12.378     14.124
REMARK INTER + INTRA:         -14.095
REMARK INTER:                 -11.773
REMARK INTRA:                  -2.323
REMARK UNBOUND:                -0.171
REMARK SMILES OC[C@@H]1O[C@@H](O[C@H]2[C@@H](O)[C@@H](O)[C@H](O[C@@H]3[C@H](O)[C@H](O)[C@@H](O)O[C@H]3CO)O[C@H]2CO)[C@@H](O)[C@H](O)[C@@H]1O
REMARK SMILES IDX 7 1 26 2 25 3 12 4 10 5 8 6 6 7 5 8 3 9 33 10 4 11 31 12
REMARK SMILES IDX 29 13 2 14 1 15 34 17 32 19 30 21 27 23 28 24 9 26 11 28
REMARK SMILES IDX 13 30 14 31 22 32 15 33 21 34 17 35 19 36 23 37 24 38 16 40
REMARK SMILES IDX 18 42 20 44
REMARK H PARENT 1 16 34 18 32 20 30 22 28 25 9 27 11 29 24 39 16 41 18 43
REMARK H PARENT 20 45
REMARK Flexibility Score: inf
ROOT
ATOM      1  C   UNL     1      26.185   2.121  38.474  1.00  0.00     0.184 C 
ATOM      2  C   UNL     1      26.994   2.404  37.179  1.00  0.00     0.178 C 
ATOM      3  O   UNL     1      26.279   1.971  36.027  1.00  0.00    -0.341 OA
ATOM      4  C   UNL     1      26.065   0.566  36.026  1.00  0.00     0.282 C 
ATOM      5  C   UNL     1      25.232   0.125  37.247  1.00  0.00     0.202 C 
ATOM      6  C   UNL     1      25.896   0.611  38.543  1.00  0.00     0.180 C 
ENDROOT
BRANCH   1   7
ATOM      7  O   UNL     1      24.960   2.855  38.447  1.00  0.00    -0.341 OA
BRANCH   7   8
ATOM      8  C   UNL     1      24.751   3.600  39.642  1.00  0.00     0.282 C 
ATOM      9  C   UNL     1      22.659   2.619  40.114  1.00  0.00     0.178 C 
ATOM     10  C   UNL     1      21.882   3.935  39.887  1.00  0.00     0.177 C 
ATOM     11  O   UNL     1      23.978   2.863  40.584  1.00  0.00    -0.341 OA
ATOM     12  C   UNL     1      22.647   4.780  38.860  1.00  0.00     0.179 C 
ATOM     13  C   UNL     1      24.104   4.965  39.320  1.00  0.00     0.202 C 
BRANCH   9  14
ATOM     14  C   UNL     1      21.935   1.701  41.108  1.00  0.00     0.191 C 
BRANCH  14  15
ATOM     15  O   UNL     1      22.518   0.423  41.116  1.00  0.00    -0.394 OA
ATOM     16  H   UNL     1      22.732   0.201  40.169  1.00  0.00     0.210 HD
ENDBRANCH  14  15
ENDBRANCH   9  14
BRANCH  10  17
ATOM     17  O   UNL     1      21.754   4.637  41.103  1.00  0.00    -0.387 OA
ATOM     18  H   UNL     1      20.785   4.649  41.326  1.00  0.00     0.211 HD
ENDBRANCH  10  17
BRANCH  12  19
ATOM     19  O   UNL     1      22.005   6.028  38.701  1.00  0.00    -0.387 OA
ATOM     20  H   UNL     1      21.835   6.149  37.728  1.00  0.00     0.211 HD
ENDBRANCH  12  19
BRANCH  13  21
ATOM     21  O   UNL     1      24.843   5.621  38.324  1.00  0.00    -0.385 OA
ATOM     22  H   UNL     1      24.596   5.192  37.462  1.00  0.00     0.211 HD
ENDBRANCH  13  21
ENDBRANCH   7   8
ENDBRANCH   1   7
BRANCH   2  23
ATOM     23  C   UNL     1      27.340   3.893  37.010  1.00  0.00     0.191 C 
BRANCH  23  24
ATOM     24  O   UNL     1      26.475   4.501  36.089  1.00  0.00    -0.394 OA
ATOM     25  H   UNL     1      26.578   5.480  36.218  1.00  0.00     0.210 HD
ENDBRANCH  23  24
ENDBRANCH   2  23
BRANCH   6  26
ATOM     26  O   UNL     1      25.082   0.298  39.644  1.00  0.00    -0.387 OA
ATOM     27  H   UNL     1      24.822   1.158  40.065  1.00  0.00     0.211 HD
ENDBRANCH   6  26
BRANCH   5  28
ATOM     28  O   UNL     1      23.928   0.638  37.149  1.00  0.00    -0.385 OA
ATOM     29  H   UNL     1      23.348   0.059  37.706  1.00  0.00     0.211 HD
ENDBRANCH   5  28
BRANCH   4  30
ATOM     30  O   UNL     1      27.308  -0.126  36.026  1.00  0.00    -0.341 OA
BRANCH  30  31
ATOM     31  C   UNL     1      27.183  -1.497  35.684  1.00  0.00     0.184 C 
ATOM     32  C   UNL     1      26.871  -1.643  34.167  1.00  0.00     0.178 C 
ATOM     33  C   UNL     1      28.491  -2.216  36.068  1.00  0.00     0.180 C 
ATOM     34  O   UNL     1      27.979  -1.345  33.319  1.00  0.00    -0.342 OA
ATOM     35  C   UNL     1      29.620  -1.811  35.109  1.00  0.00     0.201 C 
ATOM     36  C   UNL     1      29.176  -2.034  33.647  1.00  0.00     0.279 C 
BRANCH  32  37
ATOM     37  C   UNL     1      26.096  -2.925  33.769  1.00  0.00     0.191 C 
BRANCH  37  38
ATOM     38  O   UNL     1      26.368  -4.014  34.611  1.00  0.00    -0.394 OA
ATOM     39  H   UNL     1      26.479  -3.656  35.534  1.00  0.00     0.210 HD
ENDBRANCH  37  38
ENDBRANCH  32  37
BRANCH  33  40
ATOM     40  O   UNL     1      28.841  -1.878  37.388  1.00  0.00    -0.387 OA
ATOM     41  H   UNL     1      28.315  -1.071  37.628  1.00  0.00     0.211 HD
ENDBRANCH  33  40
BRANCH  35  42
ATOM     42  O   UNL     1      29.946  -0.453  35.283  1.00  0.00    -0.385 OA
ATOM     43  H   UNL     1      29.102   0.064  35.196  1.00  0.00     0.211 HD
ENDBRANCH  35  42
BRANCH  36  44
ATOM     44  O   UNL     1      29.088  -3.388  33.265  1.00  0.00    -0.366 OA
ATOM     45  H   UNL     1      30.003  -3.771  33.161  1.00  0.00     0.213 HD
ENDBRANCH  36  44
ENDBRANCH  30  31
ENDBRANCH   4  30
TORSDOF 18
ENDMDL
MODEL 3
REMARK VINA RESULT:    -7.855     12.613     14.637
REMARK INTER + INTRA:         -13.766
REMARK INTER:                 -11.889
REMARK INTRA:                  -1.876
REMARK UNBOUND:                -0.171
REMARK SMILES OC[C@@H]1O[C@@H](O[C@H]2[C@@H](O)[C@@H](O)[C@H](O[C@@H]3[C@H](O)[C@H](O)[C@@H](O)O[C@H]3CO)O[C@H]2CO)[C@@H](O)[C@H](O)[C@@H]1O
REMARK SMILES IDX 7 1 26 2 25 3 12 4 10 5 8 6 6 7 5 8 3 9 33 10 4 11 31 12
REMARK SMILES IDX 29 13 2 14 1 15 34 17 32 19 30 21 27 23 28 24 9 26 11 28
REMARK SMILES IDX 13 30 14 31 22 32 15 33 21 34 17 35 19 36 23 37 24 38 16 40
REMARK SMILES IDX 18 42 20 44
REMARK H PARENT 1 16 34 18 32 20 30 22 28 25 9 27 11 29 24 39 16 41 18 43
REMARK H PARENT 20 45
REMARK Flexibility Score: inf
ROOT
ATOM      1  C   UNL     1      25.632   1.190  38.102  1.00  0.00     0.184 C 
ATOM      2  C   UNL     1      26.781   1.126  37.060  1.00  0.00     0.178 C 
ATOM      3  O   UNL     1      26.279   1.287  35.738  1.00  0.00    -0.341 OA
ATOM      4  C   UNL     1      25.393   0.238  35.370  1.00  0.00     0.282 C 
ATOM      5  C   UNL     1      24.163   0.191  36.301  1.00  0.00     0.202 C 
ATOM      6  C   UNL     1      24.612   0.087  37.765  1.00  0.00     0.180 C 
ENDROOT
BRANCH   1   7
ATOM      7  O   UNL     1      25.004   2.471  38.051  1.00  0.00    -0.341 OA
BRANCH   7   8
ATOM      8  C   UNL     1      25.134   3.185  39.276  1.00  0.00     0.282 C 
ATOM      9  C   UNL     1      22.825   3.168  39.753  1.00  0.00     0.178 C 
ATOM     10  C   UNL     1      22.682   4.697  39.588  1.00  0.00     0.177 C 
ATOM     11  O   UNL     1      24.124   2.809  40.205  1.00  0.00    -0.341 OA
ATOM     12  C   UNL     1      23.730   5.178  38.576  1.00  0.00     0.179 C 
ATOM     13  C   UNL     1      25.129   4.708  39.015  1.00  0.00     0.202 C 
BRANCH   9  14
ATOM     14  C   UNL     1      21.782   2.605  40.727  1.00  0.00     0.191 C 
BRANCH  14  15
ATOM     15  O   UNL     1      20.830   3.585  41.053  1.00  0.00    -0.394 OA
ATOM     16  H   UNL     1      20.208   3.648  40.278  1.00  0.00     0.210 HD
ENDBRANCH  14  15
ENDBRANCH   9  14
BRANCH  10  17
ATOM     17  O   UNL     1      22.867   5.337  40.830  1.00  0.00    -0.387 OA
ATOM     18  H   UNL     1      23.665   5.924  40.734  1.00  0.00     0.211 HD
ENDBRANCH  10  17
BRANCH  12  19
ATOM     19  O   UNL     1      23.679   6.586  38.475  1.00  0.00    -0.387 OA
ATOM     20  H   UNL     1      24.406   6.948  39.049  1.00  0.00     0.211 HD
ENDBRANCH  12  19
BRANCH  13  21
ATOM     21  O   UNL     1      26.074   5.027  38.028  1.00  0.00    -0.385 OA
ATOM     22  H   UNL     1      25.624   4.892  37.153  1.00  0.00     0.211 HD
ENDBRANCH  13  21
ENDBRANCH   7   8
ENDBRANCH   1   7
BRANCH   2  23
ATOM     23  C   UNL     1      27.864   2.191  37.306  1.00  0.00     0.191 C 
BRANCH  23  24
ATOM     24  O   UNL     1      27.606   3.342  36.547  1.00  0.00    -0.394 OA
ATOM     25  H   UNL     1      26.659   3.583  36.725  1.00  0.00     0.210 HD
ENDBRANCH  23  24
ENDBRANCH   2  23
BRANCH   6  26
ATOM     26  O   UNL     1      23.495   0.150  38.614  1.00  0.00    -0.387 OA
ATOM     27  H   UNL     1      22.920   0.886  38.281  1.00  0.00     0.211 HD
ENDBRANCH   6  26
BRANCH   5  28
ATOM     28  O   UNL     1      23.378   1.341  36.116  1.00  0.00    -0.385 OA
ATOM     29  H   UNL     1      23.607   1.968  36.848  1.00  0.00     0.211 HD
ENDBRANCH   5  28
BRANCH   4  30
ATOM     30  O   UNL     1      26.063  -1.016  35.409  1.00  0.00    -0.341 OA
BRANCH  30  31
ATOM     31  C   UNL     1      27.067  -1.143  34.414  1.00  0.00     0.184 C 
ATOM     32  C   UNL     1      28.366  -1.726  35.038  1.00  0.00     0.178 C 
ATOM     33  C   UNL     1      26.523  -2.042  33.286  1.00  0.00     0.180 C 
ATOM     34  O   UNL     1      28.274  -3.109  35.379  1.00  0.00    -0.342 OA
ATOM     35  C   UNL     1      26.444  -3.500  33.763  1.00  0.00     0.201 C 
ATOM     36  C   UNL     1      27.809  -3.945  34.331  1.00  0.00     0.279 C 
BRANCH  32  37
ATOM     37  C   UNL     1      29.682  -1.340  34.314  1.00  0.00     0.191 C 
BRANCH  37  38
ATOM     38  O   UNL     1      29.507  -1.124  32.939  1.00  0.00    -0.394 OA
ATOM     39  H   UNL     1      29.908  -1.902  32.463  1.00  0.00     0.210 HD
ENDBRANCH  37  38
ENDBRANCH  32  37
BRANCH  33  40
ATOM     40  O   UNL     1      25.246  -1.594  32.904  1.00  0.00    -0.387 OA
ATOM     41  H   UNL     1      25.001  -0.857  33.524  1.00  0.00     0.211 HD
ENDBRANCH  33  40
BRANCH  35  42
ATOM     42  O   UNL     1      25.468  -3.634  34.768  1.00  0.00    -0.385 OA
ATOM     43  H   UNL     1      25.802  -3.145  35.566  1.00  0.00     0.211 HD
ENDBRANCH  35  42
BRANCH  36  44
ATOM     44  O   UNL     1      28.814  -4.124  33.358  1.00  0.00    -0.366 OA
ATOM     45  H   UNL     1      28.449  -3.922  32.453  1.00  0.00     0.213 HD
ENDBRANCH  36  44
ENDBRANCH  30  31
ENDBRANCH   4  30
TORSDOF 18
ENDMDL
MODEL 4
REMARK VINA RESULT:    -7.777      1.571      8.374
REMARK INTER + INTRA:         -13.632
REMARK INTER:                 -13.773
REMARK INTRA:                   0.142
REMARK UNBOUND:                -0.171
REMARK SMILES OC[C@@H]1O[C@@H](O[C@H]2[C@@H](O)[C@@H](O)[C@H](O[C@@H]3[C@H](O)[C@H](O)[C@@H](O)O[C@H]3CO)O[C@H]2CO)[C@@H](O)[C@H](O)[C@@H]1O
REMARK SMILES IDX 7 1 26 2 25 3 12 4 10 5 8 6 6 7 5 8 3 9 33 10 4 11 31 12
REMARK SMILES IDX 29 13 2 14 1 15 34 17 32 19 30 21 27 23 28 24 9 26 11 28
REMARK SMILES IDX 13 30 14 31 22 32 15 33 21 34 17 35 19 36 23 37 24 38 16 40
REMARK SMILES IDX 18 42 20 44
REMARK H PARENT 1 16 34 18 32 20 30 22 28 25 9 27 11 29 24 39 16 41 18 43
REMARK H PARENT 20 45
REMARK Flexibility Score: inf
ROOT
ATOM      1  C   UNL     1      39.057   1.175  44.343  1.00  0.00     0.184 C 
ATOM      2  C   UNL     1      39.164   2.176  45.524  1.00  0.00     0.178 C 
ATOM      3  O   UNL     1      37.877   2.644  45.913  1.00  0.00    -0.341 OA
ATOM      4  C   UNL     1      37.235   3.371  44.873  1.00  0.00     0.282 C 
ATOM      5  C   UNL     1      37.020   2.491  43.625  1.00  0.00     0.202 C 
ATOM      6  C   UNL     1      38.354   1.883  43.171  1.00  0.00     0.180 C 
ENDROOT
BRANCH   1   7
ATOM      7  O   UNL     1      38.305   0.030  44.747  1.00  0.00    -0.341 OA
BRANCH   7   8
ATOM      8  C   UNL     1      37.838  -0.729  43.637  1.00  0.00     0.282 C 
ATOM      9  C   UNL     1      36.455  -2.132  44.934  1.00  0.00     0.178 C 
ATOM     10  C   UNL     1      37.305  -3.391  44.652  1.00  0.00     0.177 C 
ATOM     11  O   UNL     1      36.515  -1.207  43.856  1.00  0.00    -0.341 OA
ATOM     12  C   UNL     1      38.759  -2.956  44.426  1.00  0.00     0.179 C 
ATOM     13  C   UNL     1      38.815  -1.883  43.324  1.00  0.00     0.202 C 
BRANCH   9  14
ATOM     14  C   UNL     1      34.988  -2.490  45.206  1.00  0.00     0.191 C 
BRANCH  14  15
ATOM     15  O   UNL     1      34.882  -3.801  45.699  1.00  0.00    -0.394 OA
ATOM     16  H   UNL     1      34.916  -4.407  44.909  1.00  0.00     0.210 HD
ENDBRANCH  14  15
ENDBRANCH   9  14
BRANCH  10  17
ATOM     17  O   UNL     1      36.811  -4.064  43.516  1.00  0.00    -0.387 OA
ATOM     18  H   UNL     1      37.540  -4.059  42.840  1.00  0.00     0.211 HD
ENDBRANCH  10  17
BRANCH  12  19
ATOM     19  O   UNL     1      39.540  -4.080  44.078  1.00  0.00    -0.387 OA
ATOM     20  H   UNL     1      39.575  -4.672  44.877  1.00  0.00     0.211 HD
ENDBRANCH  12  19
BRANCH  13  21
ATOM     21  O   UNL     1      40.122  -1.385  43.205  1.00  0.00    -0.385 OA
ATOM     22  H   UNL     1      40.185  -0.973  42.303  1.00  0.00     0.211 HD
ENDBRANCH  13  21
ENDBRANCH   7   8
ENDBRANCH   1   7
BRANCH   2  23
ATOM     23  C   UNL     1      39.857   1.569  46.756  1.00  0.00     0.191 C 
BRANCH  23  24
ATOM     24  O   UNL     1      38.950   0.810  47.510  1.00  0.00    -0.394 OA
ATOM     25  H   UNL     1      38.066   1.251  47.402  1.00  0.00     0.210 HD
ENDBRANCH  23  24
ENDBRANCH   2  23
BRANCH   6  26
ATOM     26  O   UNL     1      38.137   1.001  42.099  1.00  0.00    -0.387 OA
ATOM     27  H   UNL     1      38.819   1.212  41.409  1.00  0.00     0.211 HD
ENDBRANCH   6  26
BRANCH   5  28
ATOM     28  O   UNL     1      36.095   1.473  43.910  1.00  0.00    -0.385 OA
ATOM     29  H   UNL     1      36.213   0.774  43.217  1.00  0.00     0.211 HD
ENDBRANCH   5  28
BRANCH   4  30
ATOM     30  O   UNL     1      38.003   4.515  44.519  1.00  0.00    -0.341 OA
BRANCH  30  31
ATOM     31  C   UNL     1      37.376   5.326  43.538  1.00  0.00     0.184 C 
ATOM     32  C   UNL     1      35.994   5.817  44.055  1.00  0.00     0.178 C 
ATOM     33  C   UNL     1      38.312   6.505  43.208  1.00  0.00     0.180 C 
ATOM     34  O   UNL     1      36.079   6.807  45.080  1.00  0.00    -0.342 OA
ATOM     35  C   UNL     1      38.349   7.496  44.380  1.00  0.00     0.201 C 
ATOM     36  C   UNL     1      36.912   7.913  44.764  1.00  0.00     0.279 C 
BRANCH  32  37
ATOM     37  C   UNL     1      34.948   6.133  42.956  1.00  0.00     0.191 C 
BRANCH  37  38
ATOM     38  O   UNL     1      35.198   5.459  41.751  1.00  0.00    -0.394 OA
ATOM     39  H   UNL     1      35.850   6.006  41.234  1.00  0.00     0.210 HD
ENDBRANCH  37  38
ENDBRANCH  32  37
BRANCH  33  40
ATOM     40  O   UNL     1      39.608   6.017  42.955  1.00  0.00    -0.387 OA
ATOM     41  H   UNL     1      39.648   5.794  41.988  1.00  0.00     0.211 HD
ENDBRANCH  33  40
BRANCH  35  42
ATOM     42  O   UNL     1      38.966   6.909  45.500  1.00  0.00    -0.385 OA
ATOM     43  H   UNL     1      38.248   6.707  46.157  1.00  0.00     0.211 HD
ENDBRANCH  35  42
BRANCH  36  44
ATOM     44  O   UNL     1      36.280   8.757  43.828  1.00  0.00    -0.366 OA
ATOM     45  H   UNL     1      36.796   9.605  43.735  1.00  0.00     0.213 HD
ENDBRANCH  36  44
ENDBRANCH  30  31
ENDBRANCH   4  30
TORSDOF 18
ENDMDL
MODEL 5
REMARK VINA RESULT:    -7.761     12.586     15.661
REMARK INTER + INTRA:         -13.603
REMARK INTER:                 -11.334
REMARK INTRA:                  -2.269
REMARK UNBOUND:                -0.171
REMARK SMILES OC[C@@H]1O[C@@H](O[C@H]2[C@@H](O)[C@@H](O)[C@H](O[C@@H]3[C@H](O)[C@H](O)[C@@H](O)O[C@H]3CO)O[C@H]2CO)[C@@H](O)[C@H](O)[C@@H]1O
REMARK SMILES IDX 7 1 26 2 25 3 12 4 10 5 8 6 6 7 5 8 3 9 33 10 4 11 31 12
REMARK SMILES IDX 29 13 2 14 1 15 34 17 32 19 30 21 27 23 28 24 9 26 11 28
REMARK SMILES IDX 13 30 14 31 22 32 15 33 21 34 17 35 19 36 23 37 24 38 16 40
REMARK SMILES IDX 18 42 20 44
REMARK H PARENT 1 16 34 18 32 20 30 22 28 25 9 27 11 29 24 39 16 41 18 43
REMARK H PARENT 20 45
REMARK Flexibility Score: inf
ROOT
ATOM      1  C   UNL     1      22.266   3.083  37.860  1.00  0.00     0.184 C 
ATOM      2  C   UNL     1      23.358   3.298  38.942  1.00  0.00     0.178 C 
ATOM      3  O   UNL     1      24.658   3.287  38.362  1.00  0.00    -0.341 OA
ATOM      4  C   UNL     1      24.971   2.032  37.771  1.00  0.00     0.282 C 
ATOM      5  C   UNL     1      23.985   1.687  36.636  1.00  0.00     0.202 C 
ATOM      6  C   UNL     1      22.541   1.742  37.156  1.00  0.00     0.180 C 
ENDROOT
BRANCH   1   7
ATOM      7  O   UNL     1      22.306   4.152  36.915  1.00  0.00    -0.341 OA
BRANCH   7   8
ATOM      8  C   UNL     1      21.006   4.628  36.582  1.00  0.00     0.282 C 
ATOM      9  C   UNL     1      21.264   4.279  34.264  1.00  0.00     0.178 C 
ATOM     10  C   UNL     1      21.229   5.788  33.935  1.00  0.00     0.177 C 
ATOM     11  O   UNL     1      20.497   3.977  35.422  1.00  0.00    -0.341 OA
ATOM     12  C   UNL     1      21.788   6.560  35.137  1.00  0.00     0.179 C 
ATOM     13  C   UNL     1      21.021   6.162  36.412  1.00  0.00     0.202 C 
BRANCH   9  14
ATOM     14  C   UNL     1      20.751   3.434  33.090  1.00  0.00     0.191 C 
BRANCH  14  15
ATOM     15  O   UNL     1      21.163   2.098  33.224  1.00  0.00    -0.394 OA
ATOM     16  H   UNL     1      20.948   1.825  34.157  1.00  0.00     0.210 HD
ENDBRANCH  14  15
ENDBRANCH   9  14
BRANCH  10  17
ATOM     17  O   UNL     1      19.908   6.194  33.661  1.00  0.00    -0.387 OA
ATOM     18  H   UNL     1      19.644   5.756  32.808  1.00  0.00     0.211 HD
ENDBRANCH  10  17
BRANCH  12  19
ATOM     19  O   UNL     1      21.685   7.948  34.898  1.00  0.00    -0.387 OA
ATOM     20  H   UNL     1      22.528   8.366  35.221  1.00  0.00     0.211 HD
ENDBRANCH  12  19
BRANCH  13  21
ATOM     21  O   UNL     1      21.613   6.762  37.535  1.00  0.00    -0.385 OA
ATOM     22  H   UNL     1      21.516   7.744  37.414  1.00  0.00     0.211 HD
ENDBRANCH  13  21
ENDBRANCH   7   8
ENDBRANCH   1   7
BRANCH   2  23
ATOM     23  C   UNL     1      23.178   4.616  39.714  1.00  0.00     0.191 C 
BRANCH  23  24
ATOM     24  O   UNL     1      23.704   5.693  38.984  1.00  0.00    -0.394 OA
ATOM     25  H   UNL     1      23.560   5.473  38.027  1.00  0.00     0.210 HD
ENDBRANCH  23  24
ENDBRANCH   2  23
BRANCH   6  26
ATOM     26  O   UNL     1      21.643   1.530  36.097  1.00  0.00    -0.387 OA
ATOM     27  H   UNL     1      22.150   1.670  35.255  1.00  0.00     0.211 HD
ENDBRANCH   6  26
BRANCH   5  28
ATOM     28  O   UNL     1      24.150   2.584  35.568  1.00  0.00    -0.385 OA
ATOM     29  H   UNL     1      23.750   3.446  35.850  1.00  0.00     0.211 HD
ENDBRANCH   5  28
BRANCH   4  30
ATOM     30  O   UNL     1      24.945   1.001  38.750  1.00  0.00    -0.341 OA
BRANCH  30  31
ATOM     31  C   UNL     1      26.185   0.323  38.878  1.00  0.00     0.184 C 
ATOM     32  C   UNL     1      27.325   1.170  38.245  1.00  0.00     0.178 C 
ATOM     33  C   UNL     1      26.440   0.052  40.374  1.00  0.00     0.180 C 
ATOM     34  O   UNL     1      27.673   2.328  39.003  1.00  0.00    -0.342 OA
ATOM     35  C   UNL     1      26.784   1.361  41.098  1.00  0.00     0.201 C 
ATOM     36  C   UNL     1      27.946   2.076  40.374  1.00  0.00     0.279 C 
BRANCH  32  37
ATOM     37  C   UNL     1      28.543   0.363  37.727  1.00  0.00     0.191 C 
BRANCH  37  38
ATOM     38  O   UNL     1      28.805  -0.784  38.491  1.00  0.00    -0.394 OA
ATOM     39  H   UNL     1      29.163  -0.481  39.370  1.00  0.00     0.210 HD
ENDBRANCH  37  38
ENDBRANCH  32  37
BRANCH  33  40
ATOM     40  O   UNL     1      25.292  -0.524  40.948  1.00  0.00    -0.387 OA
ATOM     41  H   UNL     1      25.605  -1.157  41.647  1.00  0.00     0.211 HD
ENDBRANCH  33  40
BRANCH  35  42
ATOM     42  O   UNL     1      25.668   2.217  41.121  1.00  0.00    -0.385 OA
ATOM     43  H   UNL     1      25.153   2.003  41.944  1.00  0.00     0.211 HD
ENDBRANCH  35  42
BRANCH  36  44
ATOM     44  O   UNL     1      29.200   1.449  40.521  1.00  0.00    -0.366 OA
ATOM     45  H   UNL     1      29.351   0.814  39.767  1.00  0.00     0.213 HD
ENDBRANCH  36  44
ENDBRANCH  30  31
ENDBRANCH   4  30
TORSDOF 18
ENDMDL
MODEL 6
REMARK VINA RESULT:    -7.724      1.701      8.265
REMARK INTER + INTRA:         -13.540
REMARK INTER:                 -11.870
REMARK INTRA:                  -1.671
REMARK UNBOUND:                -0.171
REMARK SMILES OC[C@@H]1O[C@@H](O[C@H]2[C@@H](O)[C@@H](O)[C@H](O[C@@H]3[C@H](O)[C@H](O)[C@@H](O)O[C@H]3CO)O[C@H]2CO)[C@@H](O)[C@H](O)[C@@H]1O
REMARK SMILES IDX 7 1 26 2 25 3 12 4 10 5 8 6 6 7 5 8 3 9 33 10 4 11 31 12
REMARK SMILES IDX 29 13 2 14 1 15 34 17 32 19 30 21 27 23 28 24 9 26 11 28
REMARK SMILES IDX 13 30 14 31 22 32 15 33 21 34 17 35 19 36 23 37 24 38 16 40
REMARK SMILES IDX 18 42 20 44
REMARK H PARENT 1 16 34 18 32 20 30 22 28 25 9 27 11 29 24 39 16 41 18 43
REMARK H PARENT 20 45
REMARK Flexibility Score: inf
ROOT
ATOM      1  C   UNL     1      39.398   1.386  43.880  1.00  0.00     0.184 C 
ATOM      2  C   UNL     1      39.476   2.409  45.045  1.00  0.00     0.178 C 
ATOM      3  O   UNL     1      38.190   2.939  45.343  1.00  0.00    -0.341 OA
ATOM      4  C   UNL     1      37.645   3.669  44.252  1.00  0.00     0.282 C 
ATOM      5  C   UNL     1      37.468   2.771  43.010  1.00  0.00     0.202 C 
ATOM      6  C   UNL     1      38.800   2.097  42.652  1.00  0.00     0.180 C 
ENDROOT
BRANCH   1   7
ATOM      7  O   UNL     1      38.574   0.284  44.259  1.00  0.00    -0.341 OA
BRANCH   7   8
ATOM      8  C   UNL     1      39.330  -0.898  44.501  1.00  0.00     0.282 C 
ATOM      9  C   UNL     1      38.857  -1.859  42.400  1.00  0.00     0.178 C 
ATOM     10  C   UNL     1      38.021  -3.008  43.005  1.00  0.00     0.177 C 
ATOM     11  O   UNL     1      39.873  -1.422  43.293  1.00  0.00    -0.341 OA
ATOM     12  C   UNL     1      37.381  -2.510  44.308  1.00  0.00     0.179 C 
ATOM     13  C   UNL     1      38.470  -1.947  45.239  1.00  0.00     0.202 C 
BRANCH   9  14
ATOM     14  C   UNL     1      39.504  -2.272  41.070  1.00  0.00     0.191 C 
BRANCH  14  15
ATOM     15  O   UNL     1      38.609  -3.032  40.300  1.00  0.00    -0.394 OA
ATOM     16  H   UNL     1      39.093  -3.285  39.467  1.00  0.00     0.210 HD
ENDBRANCH  14  15
ENDBRANCH   9  14
BRANCH  10  17
ATOM     17  O   UNL     1      38.843  -4.124  43.258  1.00  0.00    -0.387 OA
ATOM     18  H   UNL     1      38.461  -4.590  44.049  1.00  0.00     0.211 HD
ENDBRANCH  10  17
BRANCH  12  19
ATOM     19  O   UNL     1      36.683  -3.569  44.928  1.00  0.00    -0.387 OA
ATOM     20  H   UNL     1      37.215  -4.397  44.780  1.00  0.00     0.211 HD
ENDBRANCH  12  19
BRANCH  13  21
ATOM     21  O   UNL     1      37.879  -1.368  46.373  1.00  0.00    -0.385 OA
ATOM     22  H   UNL     1      37.254  -2.046  46.742  1.00  0.00     0.211 HD
ENDBRANCH  13  21
ENDBRANCH   7   8
ENDBRANCH   1   7
BRANCH   2  23
ATOM     23  C   UNL     1      40.065   1.801  46.329  1.00  0.00     0.191 C 
BRANCH  23  24
ATOM     24  O   UNL     1      39.042   1.360  47.182  1.00  0.00    -0.394 OA
ATOM     25  H   UNL     1      39.081   1.945  47.984  1.00  0.00     0.210 HD
ENDBRANCH  23  24
ENDBRANCH   2  23
BRANCH   6  26
ATOM     26  O   UNL     1      38.612   1.200  41.587  1.00  0.00    -0.387 OA
ATOM     27  H   UNL     1      37.793   0.677  41.790  1.00  0.00     0.211 HD
ENDBRANCH   6  26
BRANCH   5  28
ATOM     28  O   UNL     1      36.484   1.799  43.257  1.00  0.00    -0.385 OA
ATOM     29  H   UNL     1      36.100   1.997  44.149  1.00  0.00     0.211 HD
ENDBRANCH   5  28
BRANCH   4  30
ATOM     30  O   UNL     1      38.481   4.771  43.923  1.00  0.00    -0.341 OA
BRANCH  30  31
ATOM     31  C   UNL     1      37.841   5.732  43.098  1.00  0.00     0.184 C 
ATOM     32  C   UNL     1      36.366   5.927  43.553  1.00  0.00     0.178 C 
ATOM     33  C   UNL     1      38.639   7.048  43.172  1.00  0.00     0.180 C 
ATOM     34  O   UNL     1      36.231   6.630  44.787  1.00  0.00    -0.342 OA
ATOM     35  C   UNL     1      38.441   7.710  44.544  1.00  0.00     0.201 C 
ATOM     36  C   UNL     1      36.934   7.861  44.845  1.00  0.00     0.279 C 
BRANCH  32  37
ATOM     37  C   UNL     1      35.387   6.396  42.446  1.00  0.00     0.191 C 
BRANCH  37  38
ATOM     38  O   UNL     1      34.993   5.360  41.587  1.00  0.00    -0.394 OA
ATOM     39  H   UNL     1      35.183   4.499  42.052  1.00  0.00     0.210 HD
ENDBRANCH  37  38
ENDBRANCH  32  37
BRANCH  33  40
ATOM     40  O   UNL     1      40.004   6.781  42.963  1.00  0.00    -0.387 OA
ATOM     41  H   UNL     1      40.260   7.232  42.116  1.00  0.00     0.211 HD
ENDBRANCH  33  40
BRANCH  35  42
ATOM     42  O   UNL     1      39.031   6.929  45.555  1.00  0.00    -0.385 OA
ATOM     43  H   UNL     1      39.159   7.521  46.343  1.00  0.00     0.211 HD
ENDBRANCH  35  42
BRANCH  36  44
ATOM     44  O   UNL     1      36.280   8.842  44.072  1.00  0.00    -0.366 OA
ATOM     45  H   UNL     1      35.746   8.403  43.352  1.00  0.00     0.213 HD
ENDBRANCH  36  44
ENDBRANCH  30  31
ENDBRANCH   4  30
TORSDOF 18
ENDMDL
MODEL 7
REMARK VINA RESULT:    -7.579     11.325     15.680
REMARK INTER + INTRA:         -13.289
REMARK INTER:                 -12.172
REMARK INTRA:                  -1.117
REMARK UNBOUND:                -0.171
REMARK SMILES OC[C@@H]1O[C@@H](O[C@H]2[C@@H](O)[C@@H](O)[C@H](O[C@@H]3[C@H](O)[C@H](O)[C@@H](O)O[C@H]3CO)O[C@H]2CO)[C@@H](O)[C@H](O)[C@@H]1O
REMARK SMILES IDX 7 1 26 2 25 3 12 4 10 5 8 6 6 7 5 8 3 9 33 10 4 11 31 12
REMARK SMILES IDX 29 13 2 14 1 15 34 17 32 19 30 21 27 23 28 24 9 26 11 28
REMARK SMILES IDX 13 30 14 31 22 32 15 33 21 34 17 35 19 36 23 37 24 38 16 40
REMARK SMILES IDX 18 42 20 44
REMARK H PARENT 1 16 34 18 32 20 30 22 28 25 9 27 11 29 24 39 16 41 18 43
REMARK H PARENT 20 45
REMARK Flexibility Score: inf
ROOT
ATOM      1  C   UNL     1      26.750   1.623  37.897  1.00  0.00     0.184 C 
ATOM      2  C   UNL     1      25.326   1.750  38.500  1.00  0.00     0.178 C 
ATOM      3  O   UNL     1      24.472   2.492  37.636  1.00  0.00    -0.341 OA
ATOM      4  C   UNL     1      24.917   3.831  37.463  1.00  0.00     0.282 C 
ATOM      5  C   UNL     1      26.323   3.876  36.830  1.00  0.00     0.202 C 
ATOM      6  C   UNL     1      27.304   3.040  37.663  1.00  0.00     0.180 C 
ENDROOT
BRANCH   1   7
ATOM      7  O   UNL     1      26.690   0.909  36.662  1.00  0.00    -0.341 OA
BRANCH   7   8
ATOM      8  C   UNL     1      26.599  -0.499  36.855  1.00  0.00     0.282 C 
ATOM      9  C   UNL     1      28.909  -0.880  36.576  1.00  0.00     0.178 C 
ATOM     10  C   UNL     1      28.718  -1.668  35.261  1.00  0.00     0.177 C 
ATOM     11  O   UNL     1      27.788  -1.020  37.439  1.00  0.00    -0.341 OA
ATOM     12  C   UNL     1      27.459  -1.144  34.559  1.00  0.00     0.179 C 
ATOM     13  C   UNL     1      26.262  -1.205  35.524  1.00  0.00     0.202 C 
BRANCH   9  14
ATOM     14  C   UNL     1      30.174  -1.325  37.322  1.00  0.00     0.191 C 
BRANCH  14  15
ATOM     15  O   UNL     1      29.849  -2.210  38.363  1.00  0.00    -0.394 OA
ATOM     16  H   UNL     1      29.014  -2.679  38.089  1.00  0.00     0.210 HD
ENDBRANCH  14  15
ENDBRANCH   9  14
BRANCH  10  17
ATOM     17  O   UNL     1      28.591  -3.044  35.536  1.00  0.00    -0.387 OA
ATOM     18  H   UNL     1      27.617  -3.249  35.535  1.00  0.00     0.211 HD
ENDBRANCH  10  17
BRANCH  12  19
ATOM     19  O   UNL     1      27.212  -1.909  33.397  1.00  0.00    -0.387 OA
ATOM     20  H   UNL     1      26.561  -1.400  32.843  1.00  0.00     0.211 HD
ENDBRANCH  12  19
BRANCH  13  21
ATOM     21  O   UNL     1      25.138  -0.605  34.935  1.00  0.00    -0.385 OA
ATOM     22  H   UNL     1      24.560  -1.345  34.611  1.00  0.00     0.211 HD
ENDBRANCH  13  21
ENDBRANCH   7   8
ENDBRANCH   1   7
BRANCH   2  23
ATOM     23  C   UNL     1      24.675   0.384  38.777  1.00  0.00     0.191 C 
BRANCH  23  24
ATOM     24  O   UNL     1      23.827   0.456  39.892  1.00  0.00    -0.394 OA
ATOM     25  H   UNL     1      23.415   1.359  39.866  1.00  0.00     0.210 HD
ENDBRANCH  23  24
ENDBRANCH   2  23
BRANCH   6  26
ATOM     26  O   UNL     1      28.557   2.998  37.027  1.00  0.00    -0.387 OA
ATOM     27  H   UNL     1      28.389   3.074  36.052  1.00  0.00     0.211 HD
ENDBRANCH   6  26
BRANCH   5  28
ATOM     28  O   UNL     1      26.271   3.393  35.512  1.00  0.00    -0.385 OA
ATOM     29  H   UNL     1      25.489   2.787  35.457  1.00  0.00     0.211 HD
ENDBRANCH   5  28
BRANCH   4  30
ATOM     30  O   UNL     1      24.938   4.513  38.711  1.00  0.00    -0.341 OA
BRANCH  30  31
ATOM     31  C   UNL     1      24.046   5.616  38.759  1.00  0.00     0.184 C 
ATOM     32  C   UNL     1      22.902   5.423  37.723  1.00  0.00     0.178 C 
ATOM     33  C   UNL     1      23.500   5.740  40.194  1.00  0.00     0.180 C 
ATOM     34  O   UNL     1      21.960   4.413  38.085  1.00  0.00    -0.342 OA
ATOM     35  C   UNL     1      22.517   4.598  40.487  1.00  0.00     0.201 C 
ATOM     36  C   UNL     1      21.427   4.546  39.394  1.00  0.00     0.279 C 
BRANCH  32  37
ATOM     37  C   UNL     1      22.257   6.730  37.194  1.00  0.00     0.191 C 
BRANCH  37  38
ATOM     38  O   UNL     1      20.898   6.582  36.880  1.00  0.00    -0.394 OA
ATOM     39  H   UNL     1      20.722   7.121  36.061  1.00  0.00     0.210 HD
ENDBRANCH  37  38
ENDBRANCH  32  37
BRANCH  33  40
ATOM     40  O   UNL     1      24.569   5.695  41.108  1.00  0.00    -0.387 OA
ATOM     41  H   UNL     1      25.373   6.027  40.628  1.00  0.00     0.211 HD
ENDBRANCH  33  40
BRANCH  35  42
ATOM     42  O   UNL     1      23.192   3.364  40.514  1.00  0.00    -0.385 OA
ATOM     43  H   UNL     1      24.001   3.486  41.078  1.00  0.00     0.211 HD
ENDBRANCH  35  42
BRANCH  36  44
ATOM     44  O   UNL     1      20.499   5.606  39.445  1.00  0.00    -0.366 OA
ATOM     45  H   UNL     1      20.791   6.340  38.836  1.00  0.00     0.213 HD
ENDBRANCH  36  44
ENDBRANCH  30  31
ENDBRANCH   4  30
TORSDOF 18
ENDMDL
MODEL 8
REMARK VINA RESULT:    -7.540      1.605      7.942
REMARK INTER + INTRA:         -13.222
REMARK INTER:                 -12.954
REMARK INTRA:                  -0.268
REMARK UNBOUND:                -0.171
REMARK SMILES OC[C@@H]1O[C@@H](O[C@H]2[C@@H](O)[C@@H](O)[C@H](O[C@@H]3[C@H](O)[C@H](O)[C@@H](O)O[C@H]3CO)O[C@H]2CO)[C@@H](O)[C@H](O)[C@@H]1O
REMARK SMILES IDX 7 1 26 2 25 3 12 4 10 5 8 6 6 7 5 8 3 9 33 10 4 11 31 12
REMARK SMILES IDX 29 13 2 14 1 15 34 17 32 19 30 21 27 23 28 24 9 26 11 28
REMARK SMILES IDX 13 30 14 31 22 32 15 33 21 34 17 35 19 36 23 37 24 38 16 40
REMARK SMILES IDX 18 42 20 44
REMARK H PARENT 1 16 34 18 32 20 30 22 28 25 9 27 11 29 24 39 16 41 18 43
REMARK H PARENT 20 45
REMARK Flexibility Score: inf
ROOT
ATOM      1  C   UNL     1      37.787   1.505  45.009  1.00  0.00     0.184 C 
ATOM      2  C   UNL     1      36.880   2.482  44.215  1.00  0.00     0.178 C 
ATOM      3  O   UNL     1      37.483   2.844  42.977  1.00  0.00    -0.341 OA
ATOM      4  C   UNL     1      38.705   3.546  43.161  1.00  0.00     0.282 C 
ATOM      5  C   UNL     1      39.739   2.683  43.913  1.00  0.00     0.202 C 
ATOM      6  C   UNL     1      39.147   2.188  45.241  1.00  0.00     0.180 C 
ENDROOT
BRANCH   1   7
ATOM      7  O   UNL     1      37.963   0.298  44.267  1.00  0.00    -0.341 OA
BRANCH   7   8
ATOM      8  C   UNL     1      38.323  -0.800  45.099  1.00  0.00     0.282 C 
ATOM      9  C   UNL     1      37.783  -2.440  43.493  1.00  0.00     0.178 C 
ATOM     10  C   UNL     1      36.602  -2.997  44.318  1.00  0.00     0.177 C 
ATOM     11  O   UNL     1      38.797  -1.900  44.330  1.00  0.00    -0.341 OA
ATOM     12  C   UNL     1      36.018  -1.857  45.163  1.00  0.00     0.179 C 
ATOM     13  C   UNL     1      37.136  -1.207  45.999  1.00  0.00     0.202 C 
BRANCH   9  14
ATOM     14  C   UNL     1      38.399  -3.518  42.591  1.00  0.00     0.191 C 
BRANCH  14  15
ATOM     15  O   UNL     1      37.809  -3.494  41.317  1.00  0.00    -0.394 OA
ATOM     16  H   UNL     1      38.324  -2.834  40.776  1.00  0.00     0.210 HD
ENDBRANCH  14  15
ENDBRANCH   9  14
BRANCH  10  17
ATOM     17  O   UNL     1      37.042  -4.048  45.147  1.00  0.00    -0.387 OA
ATOM     18  H   UNL     1      36.663  -4.888  44.773  1.00  0.00     0.211 HD
ENDBRANCH  10  17
BRANCH  12  19
ATOM     19  O   UNL     1      34.993  -2.360  45.994  1.00  0.00    -0.387 OA
ATOM     20  H   UNL     1      35.138  -1.980  46.902  1.00  0.00     0.211 HD
ENDBRANCH  12  19
BRANCH  13  21
ATOM     21  O   UNL     1      36.638  -0.080  46.672  1.00  0.00    -0.385 OA
ATOM     22  H   UNL     1      35.647  -0.135  46.618  1.00  0.00     0.211 HD
ENDBRANCH  13  21
ENDBRANCH   7   8
ENDBRANCH   1   7
BRANCH   2  23
ATOM     23  C   UNL     1      35.486   1.898  43.928  1.00  0.00     0.191 C 
BRANCH  23  24
ATOM     24  O   UNL     1      34.830   2.645  42.939  1.00  0.00    -0.394 OA
ATOM     25  H   UNL     1      35.216   2.353  42.072  1.00  0.00     0.210 HD
ENDBRANCH  23  24
ENDBRANCH   2  23
BRANCH   6  26
ATOM     26  O   UNL     1      40.052   1.319  45.873  1.00  0.00    -0.387 OA
ATOM     27  H   UNL     1      40.898   1.357  45.357  1.00  0.00     0.211 HD
ENDBRANCH   6  26
BRANCH   5  28
ATOM     28  O   UNL     1      40.124   1.592  43.117  1.00  0.00    -0.385 OA
ATOM     29  H   UNL     1      39.321   1.025  42.996  1.00  0.00     0.211 HD
ENDBRANCH   5  28
BRANCH   4  30
ATOM     30  O   UNL     1      38.482   4.752  43.880  1.00  0.00    -0.341 OA
BRANCH  30  31
ATOM     31  C   UNL     1      37.687   5.688  43.168  1.00  0.00     0.184 C 
ATOM     32  C   UNL     1      36.292   5.826  43.843  1.00  0.00     0.178 C 
ATOM     33  C   UNL     1      38.437   7.034  43.129  1.00  0.00     0.180 C 
ATOM     34  O   UNL     1      36.320   6.523  45.088  1.00  0.00    -0.342 OA
ATOM     35  C   UNL     1      38.425   7.687  44.518  1.00  0.00     0.201 C 
ATOM     36  C   UNL     1      36.977   7.780  45.047  1.00  0.00     0.279 C 
BRANCH  32  37
ATOM     37  C   UNL     1      35.139   6.258  42.901  1.00  0.00     0.191 C 
BRANCH  37  38
ATOM     38  O   UNL     1      35.152   5.580  41.673  1.00  0.00    -0.394 OA
ATOM     39  H   UNL     1      34.927   4.628  41.857  1.00  0.00     0.210 HD
ENDBRANCH  37  38
ENDBRANCH  32  37
BRANCH  33  40
ATOM     40  O   UNL     1      39.763   6.819  42.713  1.00  0.00    -0.387 OA
ATOM     41  H   UNL     1      40.291   6.612  43.528  1.00  0.00     0.211 HD
ENDBRANCH  33  40
BRANCH  35  42
ATOM     42  O   UNL     1      39.191   6.929  45.423  1.00  0.00    -0.385 OA
ATOM     43  H   UNL     1      39.776   7.565  45.915  1.00  0.00     0.211 HD
ENDBRANCH  35  42
BRANCH  36  44
ATOM     44  O   UNL     1      36.176   8.735  44.387  1.00  0.00    -0.366 OA
ATOM     45  H   UNL     1      35.550   8.277  43.761  1.00  0.00     0.213 HD
ENDBRANCH  36  44
ENDBRANCH  30  31
ENDBRANCH   4  30
TORSDOF 18
ENDMDL
MODEL 9
REMARK VINA RESULT:    -7.367     12.253     14.774
REMARK INTER + INTRA:         -12.922
REMARK INTER:                 -10.812
REMARK INTRA:                  -2.110
REMARK UNBOUND:                -0.171
REMARK SMILES OC[C@@H]1O[C@@H](O[C@H]2[C@@H](O)[C@@H](O)[C@H](O[C@@H]3[C@H](O)[C@H](O)[C@@H](O)O[C@H]3CO)O[C@H]2CO)[C@@H](O)[C@H](O)[C@@H]1O
REMARK SMILES IDX 7 1 26 2 25 3 12 4 10 5 8 6 6 7 5 8 3 9 33 10 4 11 31 12
REMARK SMILES IDX 29 13 2 14 1 15 34 17 32 19 30 21 27 23 28 24 9 26 11 28
REMARK SMILES IDX 13 30 14 31 22 32 15 33 21 34 17 35 19 36 23 37 24 38 16 40
REMARK SMILES IDX 18 42 20 44
REMARK H PARENT 1 16 34 18 32 20 30 22 28 25 9 27 11 29 24 39 16 41 18 43
REMARK H PARENT 20 45
REMARK Flexibility Score: inf
ROOT
ATOM      1  C   UNL     1      24.371   0.343  38.594  1.00  0.00     0.184 C 
ATOM      2  C   UNL     1      25.892   0.052  38.476  1.00  0.00     0.178 C 
ATOM      3  O   UNL     1      26.483   0.841  37.450  1.00  0.00    -0.341 OA
ATOM      4  C   UNL     1      25.952   0.537  36.167  1.00  0.00     0.282 C 
ATOM      5  C   UNL     1      24.436   0.813  36.109  1.00  0.00     0.202 C 
ATOM      6  C   UNL     1      23.717   0.051  37.231  1.00  0.00     0.180 C 
ENDROOT
BRANCH   1   7
ATOM      7  O   UNL     1      24.168   1.709  38.954  1.00  0.00    -0.341 OA
BRANCH   7   8
ATOM      8  C   UNL     1      23.005   1.890  39.755  1.00  0.00     0.282 C 
ATOM      9  C   UNL     1      22.417   3.952  38.775  1.00  0.00     0.178 C 
ATOM     10  C   UNL     1      22.682   4.752  40.069  1.00  0.00     0.177 C 
ATOM     11  O   UNL     1      22.003   2.622  39.057  1.00  0.00    -0.341 OA
ATOM     12  C   UNL     1      23.775   4.033  40.871  1.00  0.00     0.179 C 
ATOM     13  C   UNL     1      23.372   2.564  41.095  1.00  0.00     0.202 C 
BRANCH   9  14
ATOM     14  C   UNL     1      21.355   4.632  37.900  1.00  0.00     0.191 C 
BRANCH  14  15
ATOM     15  O   UNL     1      21.301   6.009  38.167  1.00  0.00    -0.394 OA
ATOM     16  H   UNL     1      22.113   6.230  38.700  1.00  0.00     0.210 HD
ENDBRANCH  14  15
ENDBRANCH   9  14
BRANCH  10  17
ATOM     17  O   UNL     1      21.500   4.851  40.830  1.00  0.00    -0.387 OA
ATOM     18  H   UNL     1      21.622   5.616  41.454  1.00  0.00     0.211 HD
ENDBRANCH  10  17
BRANCH  12  19
ATOM     19  O   UNL     1      23.974   4.696  42.102  1.00  0.00    -0.387 OA
ATOM     20  H   UNL     1      24.946   4.894  42.175  1.00  0.00     0.211 HD
ENDBRANCH  12  19
BRANCH  13  21
ATOM     21  O   UNL     1      24.424   1.866  41.709  1.00  0.00    -0.385 OA
ATOM     22  H   UNL     1      24.005   1.219  42.336  1.00  0.00     0.211 HD
ENDBRANCH  13  21
ENDBRANCH   7   8
ENDBRANCH   1   7
BRANCH   2  23
ATOM     23  C   UNL     1      26.649   0.310  39.790  1.00  0.00     0.191 C 
BRANCH  23  24
ATOM     24  O   UNL     1      26.824   1.686  39.998  1.00  0.00    -0.394 OA
ATOM     25  H   UNL     1      26.370   1.895  40.856  1.00  0.00     0.210 HD
ENDBRANCH  23  24
ENDBRANCH   2  23
BRANCH   6  26
ATOM     26  O   UNL     1      22.352   0.386  37.240  1.00  0.00    -0.387 OA
ATOM     27  H   UNL     1      21.912  -0.212  37.898  1.00  0.00     0.211 HD
ENDBRANCH   6  26
BRANCH   5  28
ATOM     28  O   UNL     1      24.194   2.192  36.227  1.00  0.00    -0.385 OA
ATOM     29  H   UNL     1      24.256   2.414  37.191  1.00  0.00     0.211 HD
ENDBRANCH   5  28
BRANCH   4  30
ATOM     30  O   UNL     1      26.199  -0.824  35.837  1.00  0.00    -0.341 OA
BRANCH  30  31
ATOM     31  C   UNL     1      27.064  -0.980  34.723  1.00  0.00     0.184 C 
ATOM     32  C   UNL     1      28.377  -1.687  35.163  1.00  0.00     0.178 C 
ATOM     33  C   UNL     1      26.321  -1.784  33.637  1.00  0.00     0.180 C 
ATOM     34  O   UNL     1      28.216  -3.073  35.462  1.00  0.00    -0.342 OA
ATOM     35  C   UNL     1      26.182  -3.251  34.067  1.00  0.00     0.201 C 
ATOM     36  C   UNL     1      27.565  -3.824  34.447  1.00  0.00     0.279 C 
BRANCH  32  37
ATOM     37  C   UNL     1      29.624  -1.367  34.298  1.00  0.00     0.191 C 
BRANCH  37  38
ATOM     38  O   UNL     1      29.304  -1.056  32.968  1.00  0.00    -0.394 OA
ATOM     39  H   UNL     1      29.998  -1.476  32.389  1.00  0.00     0.210 HD
ENDBRANCH  37  38
ENDBRANCH  32  37
BRANCH  33  40
ATOM     40  O   UNL     1      25.047  -1.224  33.430  1.00  0.00    -0.387 OA
ATOM     41  H   UNL     1      25.158  -0.488  32.773  1.00  0.00     0.211 HD
ENDBRANCH  33  40
BRANCH  35  42
ATOM     42  O   UNL     1      25.325  -3.359  35.177  1.00  0.00    -0.385 OA
ATOM     43  H   UNL     1      25.202  -4.328  35.359  1.00  0.00     0.211 HD
ENDBRANCH  35  42
BRANCH  36  44
ATOM     44  O   UNL     1      28.431  -4.032  33.354  1.00  0.00    -0.366 OA
ATOM     45  H   UNL     1      28.599  -5.008  33.239  1.00  0.00     0.213 HD
ENDBRANCH  36  44
ENDBRANCH  30  31
ENDBRANCH   4  30
TORSDOF 18
ENDMDL
