MODEL 1
REMARK VINA RESULT:    -4.595      0.000      0.000
REMARK INTER + INTRA:          -7.441
REMARK INTER:                  -6.744
REMARK INTRA:                  -0.698
REMARK UNBOUND:                -0.698
REMARK SMILES O=C([O-])CCCCCCCC(=O)[O-]
REMARK SMILES IDX 7 1 6 2 5 3 4 4 2 5 1 6 3 7 8 8 9 9 10 10 11 11 12 12 13 13
REMARK H PARENT
REMARK Flexibility Score: inf
ROOT
ATOM      1  C   UNL     1     -22.680 -59.562   1.153  1.00  0.00     0.000 C 
ENDROOT
BRANCH   1   2
ATOM      2  C   UNL     1     -23.368 -60.235   2.351  1.00  0.00     0.000 C 
BRANCH   2   3
ATOM      3  C   UNL     1     -24.450 -61.240   1.923  1.00  0.00     0.006 C 
BRANCH   3   4
ATOM      4  C   UNL     1     -24.590 -62.410   2.907  1.00  0.00     0.053 C 
BRANCH   4   5
ATOM      5  C   UNL     1     -23.363 -63.265   2.879  1.00  0.00     0.041 C 
ATOM      6  O   UNL     1     -22.775 -63.565   3.951  1.00  0.00    -0.550 OA
ATOM      7  O   UNL     1     -22.896 -63.771   1.673  1.00  0.00    -0.550 OA
ENDBRANCH   4   5
ENDBRANCH   3   4
ENDBRANCH   2   3
ENDBRANCH   1   2
BRANCH   1   8
ATOM      8  C   UNL     1     -22.269 -60.601   0.102  1.00  0.00     0.000 C 
BRANCH   8   9
ATOM      9  C   UNL     1     -22.818 -60.228  -1.283  1.00  0.00     0.006 C 
BRANCH   9  10
ATOM     10  C   UNL     1     -23.775 -59.030  -1.225  1.00  0.00     0.053 C 
BRANCH  10  11
ATOM     11  C   UNL     1     -25.157 -59.401  -1.668  1.00  0.00     0.041 C 
ATOM     12  O   UNL     1     -26.048 -59.664  -0.819  1.00  0.00    -0.550 OA
ATOM     13  O   UNL     1     -25.451 -59.489  -3.023  1.00  0.00    -0.550 OA
ENDBRANCH  10  11
ENDBRANCH   9  10
ENDBRANCH   8   9
ENDBRANCH   1   8
TORSDOF 8
ENDMDL
MODEL 2
REMARK VINA RESULT:    -4.573      1.100      5.752
REMARK INTER + INTRA:          -7.409
REMARK INTER:                  -6.850
REMARK INTRA:                  -0.559
REMARK UNBOUND:                -0.698
REMARK SMILES O=C([O-])CCCCCCCC(=O)[O-]
REMARK SMILES IDX 7 1 6 2 5 3 4 4 2 5 1 6 3 7 8 8 9 9 10 10 11 11 12 12 13 13
REMARK H PARENT
REMARK Flexibility Score: inf
ROOT
ATOM      1  C   UNL     1     -22.671 -60.423  -0.791  1.00  0.00     0.000 C 
ENDROOT
BRANCH   1   2
ATOM      2  C   UNL     1     -22.731 -58.943  -1.199  1.00  0.00     0.000 C 
BRANCH   2   3
ATOM      3  C   UNL     1     -24.161 -58.379  -1.171  1.00  0.00     0.006 C 
BRANCH   3   4
ATOM      4  C   UNL     1     -25.212 -59.409  -1.607  1.00  0.00     0.053 C 
BRANCH   4   5
ATOM      5  C   UNL     1     -25.966 -58.912  -2.799  1.00  0.00     0.041 C 
ATOM      6  O   UNL     1     -25.974 -59.578  -3.868  1.00  0.00    -0.550 OA
ATOM      7  O   UNL     1     -26.701 -57.737  -2.716  1.00  0.00    -0.550 OA
ENDBRANCH   4   5
ENDBRANCH   3   4
ENDBRANCH   2   3
ENDBRANCH   1   2
BRANCH   1   8
ATOM      8  C   UNL     1     -21.953 -60.592   0.554  1.00  0.00     0.000 C 
BRANCH   8   9
ATOM      9  C   UNL     1     -22.916 -60.350   1.726  1.00  0.00     0.006 C 
BRANCH   9  10
ATOM     10  C   UNL     1     -23.817 -61.564   1.996  1.00  0.00     0.053 C 
BRANCH  10  11
ATOM     11  C   UNL     1     -23.026 -62.751   2.453  1.00  0.00     0.041 C 
ATOM     12  O   UNL     1     -22.428 -62.728   3.560  1.00  0.00    -0.550 OA
ATOM     13  O   UNL     1     -22.923 -63.872   1.638  1.00  0.00    -0.550 OA
ENDBRANCH  10  11
ENDBRANCH   9  10
ENDBRANCH   8   9
ENDBRANCH   1   8
TORSDOF 8
ENDMDL
MODEL 3
REMARK VINA RESULT:    -4.550      1.149      2.008
REMARK INTER + INTRA:          -7.375
REMARK INTER:                  -6.852
REMARK INTRA:                  -0.524
REMARK UNBOUND:                -0.698
REMARK SMILES O=C([O-])CCCCCCCC(=O)[O-]
REMARK SMILES IDX 7 1 6 2 5 3 4 4 2 5 1 6 3 7 8 8 9 9 10 10 11 11 12 12 13 13
REMARK H PARENT
REMARK Flexibility Score: inf
ROOT
ATOM      1  C   UNL     1     -22.079 -59.980  -1.154  1.00  0.00     0.000 C 
ENDROOT
BRANCH   1   2
ATOM      2  C   UNL     1     -21.987 -61.156  -0.170  1.00  0.00     0.000 C 
BRANCH   2   3
ATOM      3  C   UNL     1     -22.347 -60.753   1.269  1.00  0.00     0.006 C 
BRANCH   3   4
ATOM      4  C   UNL     1     -23.514 -61.572   1.837  1.00  0.00     0.053 C 
BRANCH   4   5
ATOM      5  C   UNL     1     -23.010 -62.837   2.457  1.00  0.00     0.041 C 
ATOM      6  O   UNL     1     -22.991 -63.905   1.791  1.00  0.00    -0.550 OA
ATOM      7  O   UNL     1     -22.516 -62.826   3.755  1.00  0.00    -0.550 OA
ENDBRANCH   4   5
ENDBRANCH   3   4
ENDBRANCH   2   3
ENDBRANCH   1   2
BRANCH   1   8
ATOM      8  C   UNL     1     -22.616 -58.723  -0.458  1.00  0.00     0.000 C 
BRANCH   8   9
ATOM      9  C   UNL     1     -23.874 -58.197  -1.165  1.00  0.00     0.006 C 
BRANCH   9  10
ATOM     10  C   UNL     1     -24.864 -59.321  -1.500  1.00  0.00     0.053 C 
BRANCH  10  11
ATOM     11  C   UNL     1     -25.833 -58.907  -2.564  1.00  0.00     0.041 C 
ATOM     12  O   UNL     1     -26.581 -57.910  -2.388  1.00  0.00    -0.550 OA
ATOM     13  O   UNL     1     -25.933 -59.643  -3.738  1.00  0.00    -0.550 OA
ENDBRANCH  10  11
ENDBRANCH   9  10
ENDBRANCH   8   9
ENDBRANCH   1   8
TORSDOF 8
ENDMDL
MODEL 4
REMARK VINA RESULT:    -4.512      0.438      5.432
REMARK INTER + INTRA:          -7.320
REMARK INTER:                  -6.712
REMARK INTRA:                  -0.608
REMARK UNBOUND:                -0.698
REMARK SMILES O=C([O-])CCCCCCCC(=O)[O-]
REMARK SMILES IDX 7 1 6 2 5 3 4 4 2 5 1 6 3 7 8 8 9 9 10 10 11 11 12 12 13 13
REMARK H PARENT
REMARK Flexibility Score: inf
ROOT
ATOM      1  C   UNL     1     -22.740 -59.568   1.274  1.00  0.00     0.000 C 
ENDROOT
BRANCH   1   2
ATOM      2  C   UNL     1     -22.598 -60.561   0.110  1.00  0.00     0.000 C 
BRANCH   2   3
ATOM      3  C   UNL     1     -22.802 -59.898  -1.262  1.00  0.00     0.006 C 
BRANCH   3   4
ATOM      4  C   UNL     1     -23.881 -58.808  -1.237  1.00  0.00     0.053 C 
BRANCH   4   5
ATOM      5  C   UNL     1     -25.196 -59.365  -1.682  1.00  0.00     0.041 C 
ATOM      6  O   UNL     1     -25.400 -59.609  -2.901  1.00  0.00    -0.550 OA
ATOM      7  O   UNL     1     -26.178 -59.662  -0.747  1.00  0.00    -0.550 OA
ENDBRANCH   4   5
ENDBRANCH   3   4
ENDBRANCH   2   3
ENDBRANCH   1   2
BRANCH   1   8
ATOM      8  C   UNL     1     -23.441 -60.223   2.470  1.00  0.00     0.000 C 
BRANCH   8   9
ATOM      9  C   UNL     1     -24.315 -61.402   2.018  1.00  0.00     0.006 C 
BRANCH   9  10
ATOM     10  C   UNL     1     -24.419 -62.493   3.093  1.00  0.00     0.053 C 
BRANCH  10  11
ATOM     11  C   UNL     1     -23.542 -63.666   2.780  1.00  0.00     0.041 C 
ATOM     12  O   UNL     1     -23.468 -64.635   3.580  1.00  0.00    -0.550 OA
ATOM     13  O   UNL     1     -22.781 -63.673   1.618  1.00  0.00    -0.550 OA
ENDBRANCH  10  11
ENDBRANCH   9  10
ENDBRANCH   8   9
ENDBRANCH   1   8
TORSDOF 8
ENDMDL
MODEL 5
REMARK VINA RESULT:    -4.475      2.030      5.674
REMARK INTER + INTRA:          -7.265
REMARK INTER:                  -6.709
REMARK INTRA:                  -0.556
REMARK UNBOUND:                -0.698
REMARK SMILES O=C([O-])CCCCCCCC(=O)[O-]
REMARK SMILES IDX 7 1 6 2 5 3 4 4 2 5 1 6 3 7 8 8 9 9 10 10 11 11 12 12 13 13
REMARK H PARENT
REMARK Flexibility Score: inf
ROOT
ATOM      1  C   UNL     1     -24.776 -60.858   2.057  1.00  0.00     0.000 C 
ENDROOT
BRANCH   1   2
ATOM      2  C   UNL     1     -23.907 -59.649   2.436  1.00  0.00     0.000 C 
BRANCH   2   3
ATOM      3  C   UNL     1     -22.679 -59.492   1.523  1.00  0.00     0.006 C 
BRANCH   3   4
ATOM      4  C   UNL     1     -22.735 -60.412   0.296  1.00  0.00     0.053 C 
BRANCH   4   5
ATOM      5  C   UNL     1     -22.332 -59.664  -0.935  1.00  0.00     0.041 C 
ATOM      6  O   UNL     1     -22.360 -58.405  -0.949  1.00  0.00    -0.550 OA
ATOM      7  O   UNL     1     -21.877 -60.354  -2.051  1.00  0.00    -0.550 OA
ENDBRANCH   4   5
ENDBRANCH   3   4
ENDBRANCH   2   3
ENDBRANCH   1   2
BRANCH   1   8
ATOM      8  C   UNL     1     -25.546 -61.383   3.274  1.00  0.00     0.000 C 
BRANCH   8   9
ATOM      9  C   UNL     1     -25.445 -62.913   3.371  1.00  0.00     0.006 C 
BRANCH   9  10
ATOM     10  C   UNL     1     -24.147 -63.449   2.752  1.00  0.00     0.053 C 
BRANCH  10  11
ATOM     11  C   UNL     1     -23.146 -63.825   3.800  1.00  0.00     0.041 C 
ATOM     12  O   UNL     1     -23.066 -65.016   4.203  1.00  0.00    -0.550 OA
ATOM     13  O   UNL     1     -22.323 -62.854   4.356  1.00  0.00    -0.550 OA
ENDBRANCH  10  11
ENDBRANCH   9  10
ENDBRANCH   8   9
ENDBRANCH   1   8
TORSDOF 8
ENDMDL
MODEL 6
REMARK VINA RESULT:    -4.453      2.149      2.884
REMARK INTER + INTRA:          -7.233
REMARK INTER:                  -6.775
REMARK INTRA:                  -0.457
REMARK UNBOUND:                -0.698
REMARK SMILES O=C([O-])CCCCCCCC(=O)[O-]
REMARK SMILES IDX 7 1 6 2 5 3 4 4 2 5 1 6 3 7 8 8 9 9 10 10 11 11 12 12 13 13
REMARK H PARENT
REMARK Flexibility Score: inf
ROOT
ATOM      1  C   UNL     1     -23.529 -61.291   2.432  1.00  0.00     0.000 C 
ENDROOT
BRANCH   1   2
ATOM      2  C   UNL     1     -24.780 -62.052   2.895  1.00  0.00     0.000 C 
BRANCH   2   3
ATOM      3  C   UNL     1     -24.576 -63.576   2.906  1.00  0.00     0.006 C 
BRANCH   3   4
ATOM      4  C   UNL     1     -25.075 -64.229   4.202  1.00  0.00     0.053 C 
BRANCH   4   5
ATOM      5  C   UNL     1     -23.933 -64.465   5.140  1.00  0.00     0.041 C 
ATOM      6  O   UNL     1     -24.140 -64.566   6.378  1.00  0.00    -0.550 OA
ATOM      7  O   UNL     1     -22.647 -64.624   4.642  1.00  0.00    -0.550 OA
ENDBRANCH   4   5
ENDBRANCH   3   4
ENDBRANCH   2   3
ENDBRANCH   1   2
BRANCH   1   8
ATOM      8  C   UNL     1     -22.509 -62.245   1.799  1.00  0.00     0.000 C 
BRANCH   8   9
ATOM      9  C   UNL     1     -21.974 -61.680   0.475  1.00  0.00     0.006 C 
BRANCH   9  10
ATOM     10  C   UNL     1     -22.174 -60.162   0.370  1.00  0.00     0.053 C 
BRANCH  10  11
ATOM     11  C   UNL     1     -22.149 -59.697  -1.054  1.00  0.00     0.041 C 
ATOM     12  O   UNL     1     -21.953 -60.519  -1.987  1.00  0.00    -0.550 OA
ATOM     13  O   UNL     1     -22.311 -58.348  -1.347  1.00  0.00    -0.550 OA
ENDBRANCH  10  11
ENDBRANCH   9  10
ENDBRANCH   8   9
ENDBRANCH   1   8
TORSDOF 8
ENDMDL
MODEL 7
REMARK VINA RESULT:    -4.385      1.384      6.004
REMARK INTER + INTRA:          -7.134
REMARK INTER:                  -6.738
REMARK INTRA:                  -0.396
REMARK UNBOUND:                -0.698
REMARK SMILES O=C([O-])CCCCCCCC(=O)[O-]
REMARK SMILES IDX 7 1 6 2 5 3 4 4 2 5 1 6 3 7 8 8 9 9 10 10 11 11 12 12 13 13
REMARK H PARENT
REMARK Flexibility Score: inf
ROOT
ATOM      1  C   UNL     1     -21.962 -60.992  -0.145  1.00  0.00     0.000 C 
ENDROOT
BRANCH   1   2
ATOM      2  C   UNL     1     -22.833 -60.188  -1.122  1.00  0.00     0.000 C 
BRANCH   2   3
ATOM      3  C   UNL     1     -23.904 -59.348  -0.408  1.00  0.00     0.006 C 
BRANCH   3   4
ATOM      4  C   UNL     1     -25.285 -59.470  -1.065  1.00  0.00     0.053 C 
BRANCH   4   5
ATOM      5  C   UNL     1     -25.298 -58.768  -2.386  1.00  0.00     0.041 C 
ATOM      6  O   UNL     1     -24.819 -57.607  -2.491  1.00  0.00    -0.550 OA
ATOM      7  O   UNL     1     -25.792 -59.413  -3.511  1.00  0.00    -0.550 OA
ENDBRANCH   4   5
ENDBRANCH   3   4
ENDBRANCH   2   3
ENDBRANCH   1   2
BRANCH   1   8
ATOM      8  C   UNL     1     -22.631 -61.090   1.233  1.00  0.00     0.000 C 
BRANCH   8   9
ATOM      9  C   UNL     1     -22.851 -62.556   1.634  1.00  0.00     0.006 C 
BRANCH   9  10
ATOM     10  C   UNL     1     -23.970 -62.711   2.674  1.00  0.00     0.053 C 
BRANCH  10  11
ATOM     11  C   UNL     1     -23.513 -63.489   3.868  1.00  0.00     0.041 C 
ATOM     12  O   UNL     1     -23.133 -64.683   3.741  1.00  0.00    -0.550 OA
ATOM     13  O   UNL     1     -23.536 -62.906   5.129  1.00  0.00    -0.550 OA
ENDBRANCH  10  11
ENDBRANCH   9  10
ENDBRANCH   8   9
ENDBRANCH   1   8
TORSDOF 8
ENDMDL
MODEL 8
REMARK VINA RESULT:    -4.293      1.573      5.846
REMARK INTER + INTRA:          -6.999
REMARK INTER:                  -6.436
REMARK INTRA:                  -0.563
REMARK UNBOUND:                -0.698
REMARK SMILES O=C([O-])CCCCCCCC(=O)[O-]
REMARK SMILES IDX 7 1 6 2 5 3 4 4 2 5 1 6 3 7 8 8 9 9 10 10 11 11 12 12 13 13
REMARK H PARENT
REMARK Flexibility Score: inf
ROOT
ATOM      1  C   UNL     1     -22.224 -62.090   0.843  1.00  0.00     0.000 C 
ENDROOT
BRANCH   1   2
ATOM      2  C   UNL     1     -22.557 -60.675   1.337  1.00  0.00     0.000 C 
BRANCH   2   3
ATOM      3  C   UNL     1     -21.876 -59.579   0.501  1.00  0.00     0.006 C 
BRANCH   3   4
ATOM      4  C   UNL     1     -22.223 -59.673  -0.991  1.00  0.00     0.053 C 
BRANCH   4   5
ATOM      5  C   UNL     1     -23.516 -58.976  -1.270  1.00  0.00     0.041 C 
ATOM      6  O   UNL     1     -23.689 -57.787  -0.891  1.00  0.00    -0.550 OA
ATOM      7  O   UNL     1     -24.512 -59.620  -1.991  1.00  0.00    -0.550 OA
ENDBRANCH   4   5
ENDBRANCH   3   4
ENDBRANCH   2   3
ENDBRANCH   1   2
BRANCH   1   8
ATOM      8  C   UNL     1     -22.962 -63.149   1.671  1.00  0.00     0.000 C 
BRANCH   8   9
ATOM      9  C   UNL     1     -24.113 -62.519   2.469  1.00  0.00     0.006 C 
BRANCH   9  10
ATOM     10  C   UNL     1     -24.146 -63.007   3.924  1.00  0.00     0.053 C 
BRANCH  10  11
ATOM     11  C   UNL     1     -22.919 -62.591   4.676  1.00  0.00     0.041 C 
ATOM     12  O   UNL     1     -22.705 -61.375   4.919  1.00  0.00    -0.550 OA
ATOM     13  O   UNL     1     -21.995 -63.546   5.080  1.00  0.00    -0.550 OA
ENDBRANCH  10  11
ENDBRANCH   9  10
ENDBRANCH   8   9
ENDBRANCH   1   8
TORSDOF 8
ENDMDL
MODEL 9
REMARK VINA RESULT:    -4.087      2.713      4.023
REMARK INTER + INTRA:          -6.696
REMARK INTER:                  -6.099
REMARK INTRA:                  -0.596
REMARK UNBOUND:                -0.698
REMARK SMILES O=C([O-])CCCCCCCC(=O)[O-]
REMARK SMILES IDX 7 1 6 2 5 3 4 4 2 5 1 6 3 7 8 8 9 9 10 10 11 11 12 12 13 13
REMARK H PARENT
REMARK Flexibility Score: inf
ROOT
ATOM      1  C   UNL     1     -24.069 -61.749   2.158  1.00  0.00     0.000 C 
ENDROOT
BRANCH   1   2
ATOM      2  C   UNL     1     -24.062 -60.406   2.904  1.00  0.00     0.000 C 
BRANCH   2   3
ATOM      3  C   UNL     1     -25.046 -59.389   2.303  1.00  0.00     0.006 C 
BRANCH   3   4
ATOM      4  C   UNL     1     -25.614 -59.845   0.952  1.00  0.00     0.053 C 
BRANCH   4   5
ATOM      5  C   UNL     1     -26.854 -59.076   0.621  1.00  0.00     0.041 C 
ATOM      6  O   UNL     1     -27.978 -59.490   1.010  1.00  0.00    -0.550 OA
ATOM      7  O   UNL     1     -26.765 -57.877  -0.072  1.00  0.00    -0.550 OA
ENDBRANCH   4   5
ENDBRANCH   3   4
ENDBRANCH   2   3
ENDBRANCH   1   2
BRANCH   1   8
ATOM      8  C   UNL     1     -22.650 -62.151   1.738  1.00  0.00     0.000 C 
BRANCH   8   9
ATOM      9  C   UNL     1     -22.394 -61.805   0.263  1.00  0.00     0.006 C 
BRANCH   9  10
ATOM     10  C   UNL     1     -21.876 -60.371   0.086  1.00  0.00     0.053 C 
BRANCH  10  11
ATOM     11  C   UNL     1     -22.602 -59.650  -1.008  1.00  0.00     0.041 C 
ATOM     12  O   UNL     1     -23.453 -60.255  -1.711  1.00  0.00    -0.550 OA
ATOM     13  O   UNL     1     -22.314 -58.316  -1.271  1.00  0.00    -0.550 OA
ENDBRANCH  10  11
ENDBRANCH   9  10
ENDBRANCH   8   9
ENDBRANCH   1   8
TORSDOF 8
ENDMDL
