MODEL 1
REMARK VINA RESULT:    -4.374      0.000      0.000
REMARK INTER + INTRA:          -8.446
REMARK INTER:                  -6.803
REMARK INTRA:                  -1.643
REMARK UNBOUND:                -1.643
REMARK SMILES COc1cc(CNC(=O)CCCCC=CC(C)C)ccc1O
REMARK SMILES IDX 11 1 12 2 13 3 14 4 15 5 16 6 17 7 18 8 10 9 8 10 9 11 7 12
REMARK SMILES IDX 6 14 5 15 4 16 19 17 3 18 20 19 21 20 2 21 1 22 22 23
REMARK H PARENT 7 13 22 24
REMARK Flexibility Score: inf
ROOT
ATOM      1  C   UNL     1     103.948 105.474 104.186  1.00  0.00     0.010 C 
ENDROOT
BRANCH   1   2
ATOM      2  C   UNL     1     103.834 104.539 102.970  1.00  0.00     0.005 C 
BRANCH   2   3
ATOM      3  C   UNL     1     104.995 104.724 101.985  1.00  0.00     0.027 C 
BRANCH   3   4
ATOM      4  C   UNL     1     106.324 104.416 102.634  1.00  0.00    -0.031 C 
ATOM      5  C   UNL     1     107.374 105.258 102.691  1.00  0.00    -0.028 C 
BRANCH   5   6
ATOM      6  C   UNL     1     107.416 106.636 102.063  1.00  0.00     0.005 C 
ATOM      7  C   UNL     1     108.867 107.094 101.882  1.00  0.00     0.012 C 
ATOM      8  C   UNL     1     106.651 107.637 102.936  1.00  0.00     0.012 C 
ENDBRANCH   5   6
ENDBRANCH   3   4
ENDBRANCH   2   3
ENDBRANCH   1   2
BRANCH   1   9
ATOM      9  C   UNL     1     103.328 104.861 105.450  1.00  0.00     0.100 C 
BRANCH   9  10
ATOM     10  C   UNL     1     104.331 104.743 106.559  1.00  0.00     0.220 C 
ATOM     11  O   UNL     1     103.996 105.057 107.734  1.00  0.00    -0.275 OA
ATOM     12  N   UNL     1     105.650 104.246 106.291  1.00  0.00    -0.352 N 
ATOM     13  H   UNL     1     105.892 103.946 105.319  1.00  0.00     0.163 HD
BRANCH  12  14
ATOM     14  C   UNL     1     106.667 104.118 107.331  1.00  0.00     0.151 C 
BRANCH  14  15
ATOM     15  C   UNL     1     107.635 105.267 107.260  1.00  0.00    -0.025 A 
ATOM     16  C   UNL     1     108.530 105.498 108.316  1.00  0.00     0.056 A 
ATOM     17  C   UNL     1     107.671 106.100 106.132  1.00  0.00     0.009 A 
ATOM     18  C   UNL     1     109.457 106.557 108.253  1.00  0.00     0.160 A 
ATOM     19  C   UNL     1     108.586 107.152 106.064  1.00  0.00     0.050 A 
ATOM     20  C   UNL     1     109.478 107.383 107.120  1.00  0.00     0.157 A 
BRANCH  18  21
ATOM     21  O   UNL     1     110.368 106.817 109.287  1.00  0.00    -0.493 OA
ATOM     22  C   UNL     1     110.108 107.676 110.394  1.00  0.00     0.278 C 
ENDBRANCH  18  21
BRANCH  20  23
ATOM     23  O   UNL     1     110.391 108.434 107.050  1.00  0.00    -0.504 OA
ATOM     24  H   UNL     1     110.275 109.194 106.390  1.00  0.00     0.293 HD
ENDBRANCH  20  23
ENDBRANCH  14  15
ENDBRANCH  12  14
ENDBRANCH   9  10
ENDBRANCH   1   9
TORSDOF 10
ENDMDL
MODEL 2
REMARK VINA RESULT:    -4.356      1.922      5.206
REMARK INTER + INTRA:          -8.418
REMARK INTER:                  -6.889
REMARK INTRA:                  -1.529
REMARK UNBOUND:                -1.643
REMARK SMILES COc1cc(CNC(=O)CCCCC=CC(C)C)ccc1O
REMARK SMILES IDX 11 1 12 2 13 3 14 4 15 5 16 6 17 7 18 8 10 9 8 10 9 11 7 12
REMARK SMILES IDX 6 14 5 15 4 16 19 17 3 18 20 19 21 20 2 21 1 22 22 23
REMARK H PARENT 7 13 22 24
REMARK Flexibility Score: inf
ROOT
ATOM      1  C   UNL     1     107.622 107.122 103.751  1.00  0.00     0.010 C 
ENDROOT
BRANCH   1   2
ATOM      2  C   UNL     1     108.143 106.626 102.391  1.00  0.00     0.005 C 
BRANCH   2   3
ATOM      3  C   UNL     1     107.357 105.414 101.876  1.00  0.00     0.027 C 
BRANCH   3   4
ATOM      4  C   UNL     1     106.728 104.640 103.011  1.00  0.00    -0.031 C 
ATOM      5  C   UNL     1     105.405 104.491 103.211  1.00  0.00    -0.028 C 
BRANCH   5   6
ATOM      6  C   UNL     1     104.323 105.122 102.359  1.00  0.00     0.005 C 
ATOM      7  C   UNL     1     104.124 106.590 102.756  1.00  0.00     0.012 C 
ATOM      8  C   UNL     1     103.009 104.350 102.516  1.00  0.00     0.012 C 
ENDBRANCH   5   6
ENDBRANCH   3   4
ENDBRANCH   2   3
ENDBRANCH   1   2
BRANCH   1   9
ATOM      9  C   UNL     1     108.686 107.019 104.852  1.00  0.00     0.100 C 
BRANCH   9  10
ATOM     10  C   UNL     1     108.080 106.661 106.178  1.00  0.00     0.220 C 
ATOM     11  O   UNL     1     107.851 107.571 107.020  1.00  0.00    -0.275 OA
ATOM     12  N   UNL     1     107.733 105.300 106.469  1.00  0.00    -0.352 N 
ATOM     13  H   UNL     1     107.886 104.568 105.739  1.00  0.00     0.163 HD
BRANCH  12  14
ATOM     14  C   UNL     1     107.148 104.896 107.745  1.00  0.00     0.151 C 
BRANCH  14  15
ATOM     15  C   UNL     1     105.676 104.629 107.584  1.00  0.00    -0.025 A 
ATOM     16  C   UNL     1     105.024 103.743 108.456  1.00  0.00     0.056 A 
ATOM     17  C   UNL     1     104.939 105.277 106.582  1.00  0.00     0.009 A 
ATOM     18  C   UNL     1     103.642 103.500 108.330  1.00  0.00     0.160 A 
ATOM     19  C   UNL     1     103.570 105.039 106.451  1.00  0.00     0.050 A 
ATOM     20  C   UNL     1     102.920 104.153 107.320  1.00  0.00     0.157 A 
BRANCH  18  21
ATOM     21  O   UNL     1     102.955 102.624 109.184  1.00  0.00    -0.493 OA
ATOM     22  C   UNL     1     102.470 102.975 110.477  1.00  0.00     0.278 C 
ENDBRANCH  18  21
BRANCH  20  23
ATOM     23  O   UNL     1     101.552 103.917 107.189  1.00  0.00    -0.504 OA
ATOM     24  H   UNL     1     101.168 103.478 106.360  1.00  0.00     0.293 HD
ENDBRANCH  20  23
ENDBRANCH  14  15
ENDBRANCH  12  14
ENDBRANCH   9  10
ENDBRANCH   1   9
TORSDOF 10
ENDMDL
MODEL 3
REMARK VINA RESULT:    -4.339      2.570      4.561
REMARK INTER + INTRA:          -8.391
REMARK INTER:                  -6.339
REMARK INTRA:                  -2.052
REMARK UNBOUND:                -1.643
REMARK SMILES COc1cc(CNC(=O)CCCCC=CC(C)C)ccc1O
REMARK SMILES IDX 11 1 12 2 13 3 14 4 15 5 16 6 17 7 18 8 10 9 8 10 9 11 7 12
REMARK SMILES IDX 6 14 5 15 4 16 19 17 3 18 20 19 21 20 2 21 1 22 22 23
REMARK H PARENT 7 13 22 24
REMARK Flexibility Score: inf
ROOT
ATOM      1  C   UNL     1     107.614 104.780 102.603  1.00  0.00     0.010 C 
ENDROOT
BRANCH   1   2
ATOM      2  C   UNL     1     107.519 106.308 102.753  1.00  0.00     0.005 C 
BRANCH   2   3
ATOM      3  C   UNL     1     108.246 106.814 104.005  1.00  0.00     0.027 C 
BRANCH   3   4
ATOM      4  C   UNL     1     107.907 105.979 105.217  1.00  0.00    -0.031 C 
ATOM      5  C   UNL     1     108.084 106.358 106.497  1.00  0.00    -0.028 C 
BRANCH   5   6
ATOM      6  C   UNL     1     108.706 107.668 106.935  1.00  0.00     0.005 C 
ATOM      7  C   UNL     1     110.233 107.543 106.976  1.00  0.00     0.012 C 
ATOM      8  C   UNL     1     108.171 108.073 108.313  1.00  0.00     0.012 C 
ENDBRANCH   5   6
ENDBRANCH   3   4
ENDBRANCH   2   3
ENDBRANCH   1   2
BRANCH   1   9
ATOM      9  C   UNL     1     106.320 104.171 102.044  1.00  0.00     0.100 C 
BRANCH   9  10
ATOM     10  C   UNL     1     105.112 104.650 102.793  1.00  0.00     0.220 C 
ATOM     11  O   UNL     1     104.146 105.150 102.156  1.00  0.00    -0.275 OA
ATOM     12  N   UNL     1     105.044 104.510 104.220  1.00  0.00    -0.352 N 
ATOM     13  H   UNL     1     105.835 104.049 104.724  1.00  0.00     0.163 HD
BRANCH  12  14
ATOM     14  C   UNL     1     103.896 104.966 104.999  1.00  0.00     0.151 C 
BRANCH  14  15
ATOM     15  C   UNL     1     104.220 106.259 105.698  1.00  0.00    -0.025 A 
ATOM     16  C   UNL     1     104.077 106.357 107.091  1.00  0.00     0.056 A 
ATOM     17  C   UNL     1     104.688 107.364 104.973  1.00  0.00     0.009 A 
ATOM     18  C   UNL     1     104.397 107.554 107.761  1.00  0.00     0.160 A 
ATOM     19  C   UNL     1     105.005 108.554 105.632  1.00  0.00     0.050 A 
ATOM     20  C   UNL     1     104.861 108.652 107.022  1.00  0.00     0.157 A 
BRANCH  18  21
ATOM     21  O   UNL     1     104.271 107.690 109.152  1.00  0.00    -0.493 OA
ATOM     22  C   UNL     1     105.160 107.111 110.102  1.00  0.00     0.278 C 
ENDBRANCH  18  21
BRANCH  20  23
ATOM     23  O   UNL     1     105.178 109.840 107.678  1.00  0.00    -0.504 OA
ATOM     24  H   UNL     1     105.066 110.741 107.227  1.00  0.00     0.293 HD
ENDBRANCH  20  23
ENDBRANCH  14  15
ENDBRANCH  12  14
ENDBRANCH   9  10
ENDBRANCH   1   9
TORSDOF 10
ENDMDL
MODEL 4
REMARK VINA RESULT:    -4.327      2.826      5.117
REMARK INTER + INTRA:          -8.373
REMARK INTER:                  -6.571
REMARK INTRA:                  -1.802
REMARK UNBOUND:                -1.643
REMARK SMILES COc1cc(CNC(=O)CCCCC=CC(C)C)ccc1O
REMARK SMILES IDX 11 1 12 2 13 3 14 4 15 5 16 6 17 7 18 8 10 9 8 10 9 11 7 12
REMARK SMILES IDX 6 14 5 15 4 16 19 17 3 18 20 19 21 20 2 21 1 22 22 23
REMARK H PARENT 7 13 22 24
REMARK Flexibility Score: inf
ROOT
ATOM      1  C   UNL     1     108.020 106.313 103.459  1.00  0.00     0.010 C 
ENDROOT
BRANCH   1   2
ATOM      2  C   UNL     1     107.546 105.296 102.406  1.00  0.00     0.005 C 
BRANCH   2   3
ATOM      3  C   UNL     1     107.027 104.001 103.043  1.00  0.00     0.027 C 
BRANCH   3   4
ATOM      4  C   UNL     1     106.028 104.287 104.140  1.00  0.00    -0.031 C 
ATOM      5  C   UNL     1     104.727 104.579 103.950  1.00  0.00    -0.028 C 
BRANCH   5   6
ATOM      6  C   UNL     1     104.060 104.724 102.597  1.00  0.00     0.005 C 
ATOM      7  C   UNL     1     103.989 106.202 102.196  1.00  0.00     0.012 C 
ATOM      8  C   UNL     1     102.653 104.118 102.634  1.00  0.00     0.012 C 
ENDBRANCH   5   6
ENDBRANCH   3   4
ENDBRANCH   2   3
ENDBRANCH   1   2
BRANCH   1   9
ATOM      9  C   UNL     1     107.155 107.581 103.470  1.00  0.00     0.100 C 
BRANCH   9  10
ATOM     10  C   UNL     1     106.404 107.728 104.761  1.00  0.00     0.220 C 
ATOM     11  O   UNL     1     105.252 108.239 104.753  1.00  0.00    -0.275 OA
ATOM     12  N   UNL     1     106.981 107.261 105.989  1.00  0.00    -0.352 N 
ATOM     13  H   UNL     1     107.917 106.797 105.968  1.00  0.00     0.163 HD
BRANCH  12  14
ATOM     14  C   UNL     1     106.297 107.386 107.274  1.00  0.00     0.151 C 
BRANCH  14  15
ATOM     15  C   UNL     1     105.719 106.061 107.690  1.00  0.00    -0.025 A 
ATOM     16  C   UNL     1     104.397 105.734 107.351  1.00  0.00     0.056 A 
ATOM     17  C   UNL     1     106.499 105.132 108.394  1.00  0.00     0.009 A 
ATOM     18  C   UNL     1     103.850 104.488 107.715  1.00  0.00     0.160 A 
ATOM     19  C   UNL     1     105.962 103.896 108.760  1.00  0.00     0.050 A 
ATOM     20  C   UNL     1     104.641 103.572 108.423  1.00  0.00     0.157 A 
BRANCH  18  21
ATOM     21  O   UNL     1     102.533 104.125 107.392  1.00  0.00    -0.493 OA
ATOM     22  C   UNL     1     101.374 104.634 108.044  1.00  0.00     0.278 C 
ENDBRANCH  18  21
BRANCH  20  23
ATOM     23  O   UNL     1     104.107 102.337 108.788  1.00  0.00    -0.504 OA
ATOM     24  H   UNL     1     104.670 101.495 108.785  1.00  0.00     0.293 HD
ENDBRANCH  20  23
ENDBRANCH  14  15
ENDBRANCH  12  14
ENDBRANCH   9  10
ENDBRANCH   1   9
TORSDOF 10
ENDMDL
MODEL 5
REMARK VINA RESULT:    -4.318      2.552      3.864
REMARK INTER + INTRA:          -8.359
REMARK INTER:                  -6.806
REMARK INTRA:                  -1.553
REMARK UNBOUND:                -1.643
REMARK SMILES COc1cc(CNC(=O)CCCCC=CC(C)C)ccc1O
REMARK SMILES IDX 11 1 12 2 13 3 14 4 15 5 16 6 17 7 18 8 10 9 8 10 9 11 7 12
REMARK SMILES IDX 6 14 5 15 4 16 19 17 3 18 20 19 21 20 2 21 1 22 22 23
REMARK H PARENT 7 13 22 24
REMARK Flexibility Score: inf
ROOT
ATOM      1  C   UNL     1     105.041 107.604 103.875  1.00  0.00     0.010 C 
ENDROOT
BRANCH   1   2
ATOM      2  C   UNL     1     105.615 108.309 102.633  1.00  0.00     0.005 C 
BRANCH   2   3
ATOM      3  C   UNL     1     106.620 107.429 101.879  1.00  0.00     0.027 C 
BRANCH   3   4
ATOM      4  C   UNL     1     107.467 106.617 102.831  1.00  0.00    -0.031 C 
ATOM      5  C   UNL     1     107.503 105.272 102.887  1.00  0.00    -0.028 C 
BRANCH   5   6
ATOM      6  C   UNL     1     106.654 104.347 102.040  1.00  0.00     0.005 C 
ATOM      7  C   UNL     1     105.274 104.157 102.680  1.00  0.00     0.012 C 
ATOM      8  C   UNL     1     107.351 102.992 101.876  1.00  0.00     0.012 C 
ENDBRANCH   5   6
ENDBRANCH   3   4
ENDBRANCH   2   3
ENDBRANCH   1   2
BRANCH   1   9
ATOM      9  C   UNL     1     104.973 108.537 105.092  1.00  0.00     0.100 C 
BRANCH   9  10
ATOM     10  C   UNL     1     105.587 107.908 106.308  1.00  0.00     0.220 C 
ATOM     11  O   UNL     1     104.946 107.901 107.393  1.00  0.00    -0.275 OA
ATOM     12  N   UNL     1     106.880 107.290 106.227  1.00  0.00    -0.352 N 
ATOM     13  H   UNL     1     107.374 107.264 105.306  1.00  0.00     0.163 HD
BRANCH  12  14
ATOM     14  C   UNL     1     107.526 106.670 107.381  1.00  0.00     0.151 C 
BRANCH  14  15
ATOM     15  C   UNL     1     107.557 105.174 107.222  1.00  0.00    -0.025 A 
ATOM     16  C   UNL     1     108.058 104.369 108.256  1.00  0.00     0.056 A 
ATOM     17  C   UNL     1     107.064 104.571 106.055  1.00  0.00     0.009 A 
ATOM     18  C   UNL     1     108.073 102.966 108.129  1.00  0.00     0.160 A 
ATOM     19  C   UNL     1     107.078 103.181 105.923  1.00  0.00     0.050 A 
ATOM     20  C   UNL     1     107.580 102.378 106.955  1.00  0.00     0.157 A 
BRANCH  18  21
ATOM     21  O   UNL     1     108.563 102.128 109.142  1.00  0.00    -0.493 OA
ATOM     22  C   UNL     1     108.782 102.535 110.490  1.00  0.00     0.278 C 
ENDBRANCH  18  21
BRANCH  20  23
ATOM     23  O   UNL     1     107.593 100.990 106.822  1.00  0.00    -0.504 OA
ATOM     24  H   UNL     1     108.460 100.467 106.812  1.00  0.00     0.293 HD
ENDBRANCH  20  23
ENDBRANCH  14  15
ENDBRANCH  12  14
ENDBRANCH   9  10
ENDBRANCH   1   9
TORSDOF 10
ENDMDL
MODEL 6
REMARK VINA RESULT:    -4.317      2.634      4.713
REMARK INTER + INTRA:          -8.357
REMARK INTER:                  -6.342
REMARK INTRA:                  -2.016
REMARK UNBOUND:                -1.643
REMARK SMILES COc1cc(CNC(=O)CCCCC=CC(C)C)ccc1O
REMARK SMILES IDX 11 1 12 2 13 3 14 4 15 5 16 6 17 7 18 8 10 9 8 10 9 11 7 12
REMARK SMILES IDX 6 14 5 15 4 16 19 17 3 18 20 19 21 20 2 21 1 22 22 23
REMARK H PARENT 7 13 22 24
REMARK Flexibility Score: inf
ROOT
ATOM      1  C   UNL     1     105.936 103.848 102.611  1.00  0.00     0.010 C 
ENDROOT
BRANCH   1   2
ATOM      2  C   UNL     1     104.668 104.711 102.495  1.00  0.00     0.005 C 
BRANCH   2   3
ATOM      3  C   UNL     1     104.061 105.038 103.865  1.00  0.00     0.027 C 
BRANCH   3   4
ATOM      4  C   UNL     1     104.907 104.488 104.989  1.00  0.00    -0.031 C 
ATOM      5  C   UNL     1     104.600 104.558 106.299  1.00  0.00    -0.028 C 
BRANCH   5   6
ATOM      6  C   UNL     1     103.379 105.252 106.867  1.00  0.00     0.005 C 
ATOM      7  C   UNL     1     103.623 105.644 108.329  1.00  0.00     0.012 C 
ATOM      8  C   UNL     1     102.155 104.336 106.763  1.00  0.00     0.012 C 
ENDBRANCH   5   6
ENDBRANCH   3   4
ENDBRANCH   2   3
ENDBRANCH   1   2
BRANCH   1   9
ATOM      9  C   UNL     1     107.155 104.517 101.961  1.00  0.00     0.100 C 
BRANCH   9  10
ATOM     10  C   UNL     1     107.598 105.728 102.727  1.00  0.00     0.220 C 
ATOM     11  O   UNL     1     107.785 106.815 102.116  1.00  0.00    -0.275 OA
ATOM     12  N   UNL     1     107.776 105.658 104.150  1.00  0.00    -0.352 N 
ATOM     13  H   UNL     1     107.569 104.760 104.644  1.00  0.00     0.163 HD
BRANCH  12  14
ATOM     14  C   UNL     1     108.213 106.804 104.943  1.00  0.00     0.151 C 
BRANCH  14  15
ATOM     15  C   UNL     1     107.032 107.462 105.604  1.00  0.00    -0.025 A 
ATOM     16  C   UNL     1     107.003 107.611 107.000  1.00  0.00     0.056 A 
ATOM     17  C   UNL     1     105.966 107.952 104.836  1.00  0.00     0.009 A 
ATOM     18  C   UNL     1     105.913 108.244 107.630  1.00  0.00     0.160 A 
ATOM     19  C   UNL     1     104.883 108.579 105.455  1.00  0.00     0.050 A 
ATOM     20  C   UNL     1     104.854 108.726 106.848  1.00  0.00     0.157 A 
BRANCH  18  21
ATOM     21  O   UNL     1     105.850 108.415 109.022  1.00  0.00    -0.493 OA
ATOM     22  C   UNL     1     106.977 108.663 109.855  1.00  0.00     0.278 C 
ENDBRANCH  18  21
BRANCH  20  23
ATOM     23  O   UNL     1     103.772 109.353 107.465  1.00  0.00    -0.504 OA
ATOM     24  H   UNL     1     103.860 109.784 108.378  1.00  0.00     0.293 HD
ENDBRANCH  20  23
ENDBRANCH  14  15
ENDBRANCH  12  14
ENDBRANCH   9  10
ENDBRANCH   1   9
TORSDOF 10
ENDMDL
MODEL 7
REMARK VINA RESULT:    -4.280      2.229      4.451
REMARK INTER + INTRA:          -8.301
REMARK INTER:                  -6.431
REMARK INTRA:                  -1.870
REMARK UNBOUND:                -1.643
REMARK SMILES COc1cc(CNC(=O)CCCCC=CC(C)C)ccc1O
REMARK SMILES IDX 11 1 12 2 13 3 14 4 15 5 16 6 17 7 18 8 10 9 8 10 9 11 7 12
REMARK SMILES IDX 6 14 5 15 4 16 19 17 3 18 20 19 21 20 2 21 1 22 22 23
REMARK H PARENT 7 13 22 24
REMARK Flexibility Score: inf
ROOT
ATOM      1  C   UNL     1     107.361 104.436 102.549  1.00  0.00     0.010 C 
ENDROOT
BRANCH   1   2
ATOM      2  C   UNL     1     106.030 103.891 102.002  1.00  0.00     0.005 C 
BRANCH   2   3
ATOM      3  C   UNL     1     104.964 104.986 101.875  1.00  0.00     0.027 C 
BRANCH   3   4
ATOM      4  C   UNL     1     103.703 104.619 102.622  1.00  0.00    -0.031 C 
ATOM      5  C   UNL     1     103.485 104.835 103.933  1.00  0.00    -0.028 C 
BRANCH   5   6
ATOM      6  C   UNL     1     104.493 105.434 104.892  1.00  0.00     0.005 C 
ATOM      7  C   UNL     1     104.104 105.115 106.340  1.00  0.00     0.012 C 
ATOM      8  C   UNL     1     104.578 106.951 104.690  1.00  0.00     0.012 C 
ENDBRANCH   5   6
ENDBRANCH   3   4
ENDBRANCH   2   3
ENDBRANCH   1   2
BRANCH   1   9
ATOM      9  C   UNL     1     107.631 105.876 102.089  1.00  0.00     0.100 C 
BRANCH   9  10
ATOM     10  C   UNL     1     108.198 106.715 103.196  1.00  0.00     0.220 C 
ATOM     11  O   UNL     1     108.769 107.804 102.918  1.00  0.00    -0.275 OA
ATOM     12  N   UNL     1     108.061 106.297 104.562  1.00  0.00    -0.352 N 
ATOM     13  H   UNL     1     107.542 105.415 104.774  1.00  0.00     0.163 HD
BRANCH  12  14
ATOM     14  C   UNL     1     108.601 107.071 105.676  1.00  0.00     0.151 C 
BRANCH  14  15
ATOM     15  C   UNL     1     107.772 106.854 106.913  1.00  0.00    -0.025 A 
ATOM     16  C   UNL     1     106.787 107.787 107.271  1.00  0.00     0.056 A 
ATOM     17  C   UNL     1     107.957 105.709 107.703  1.00  0.00     0.009 A 
ATOM     18  C   UNL     1     105.989 107.585 108.414  1.00  0.00     0.160 A 
ATOM     19  C   UNL     1     107.170 105.505 108.839  1.00  0.00     0.050 A 
ATOM     20  C   UNL     1     106.188 106.438 109.196  1.00  0.00     0.157 A 
BRANCH  18  21
ATOM     21  O   UNL     1     104.992 108.494 108.802  1.00  0.00    -0.493 OA
ATOM     22  C   UNL     1     103.720 108.611 108.173  1.00  0.00     0.278 C 
ENDBRANCH  18  21
BRANCH  20  23
ATOM     23  O   UNL     1     105.404 106.232 110.330  1.00  0.00    -0.504 OA
ATOM     24  H   UNL     1     105.126 107.001 110.929  1.00  0.00     0.293 HD
ENDBRANCH  20  23
ENDBRANCH  14  15
ENDBRANCH  12  14
ENDBRANCH   9  10
ENDBRANCH   1   9
TORSDOF 10
ENDMDL
MODEL 8
REMARK VINA RESULT:    -4.258      2.284      4.278
REMARK INTER + INTRA:          -8.266
REMARK INTER:                  -6.252
REMARK INTRA:                  -2.014
REMARK UNBOUND:                -1.643
REMARK SMILES COc1cc(CNC(=O)CCCCC=CC(C)C)ccc1O
REMARK SMILES IDX 11 1 12 2 13 3 14 4 15 5 16 6 17 7 18 8 10 9 8 10 9 11 7 12
REMARK SMILES IDX 6 14 5 15 4 16 19 17 3 18 20 19 21 20 2 21 1 22 22 23
REMARK H PARENT 7 13 22 24
REMARK Flexibility Score: inf
ROOT
ATOM      1  C   UNL     1     104.584 107.476 102.574  1.00  0.00     0.010 C 
ENDROOT
BRANCH   1   2
ATOM      2  C   UNL     1     104.076 106.203 101.876  1.00  0.00     0.005 C 
BRANCH   2   3
ATOM      3  C   UNL     1     103.634 105.129 102.878  1.00  0.00     0.027 C 
BRANCH   3   4
ATOM      4  C   UNL     1     104.808 104.578 103.652  1.00  0.00    -0.031 C 
ATOM      5  C   UNL     1     104.935 104.599 104.993  1.00  0.00    -0.028 C 
BRANCH   5   6
ATOM      6  C   UNL     1     103.942 105.230 105.947  1.00  0.00     0.005 C 
ATOM      7  C   UNL     1     104.342 106.680 106.246  1.00  0.00     0.012 C 
ATOM      8  C   UNL     1     103.872 104.422 107.248  1.00  0.00     0.012 C 
ENDBRANCH   5   6
ENDBRANCH   3   4
ENDBRANCH   2   3
ENDBRANCH   1   2
BRANCH   1   9
ATOM      9  C   UNL     1     105.841 108.045 101.901  1.00  0.00     0.100 C 
BRANCH   9  10
ATOM     10  C   UNL     1     107.095 107.573 102.577  1.00  0.00     0.220 C 
ATOM     11  O   UNL     1     108.144 107.417 101.897  1.00  0.00    -0.275 OA
ATOM     12  N   UNL     1     107.106 107.333 103.992  1.00  0.00    -0.352 N 
ATOM     13  H   UNL     1     106.238 107.515 104.545  1.00  0.00     0.163 HD
BRANCH  12  14
ATOM     14  C   UNL     1     108.296 106.866 104.698  1.00  0.00     0.151 C 
BRANCH  14  15
ATOM     15  C   UNL     1     107.965 106.559 106.133  1.00  0.00    -0.025 A 
ATOM     16  C   UNL     1     107.813 105.228 106.549  1.00  0.00     0.056 A 
ATOM     17  C   UNL     1     107.830 107.594 107.071  1.00  0.00     0.009 A 
ATOM     18  C   UNL     1     107.524 104.925 107.895  1.00  0.00     0.160 A 
ATOM     19  C   UNL     1     107.542 107.300 108.405  1.00  0.00     0.050 A 
ATOM     20  C   UNL     1     107.389 105.971 108.819  1.00  0.00     0.157 A 
BRANCH  18  21
ATOM     21  O   UNL     1     107.369 103.606 108.349  1.00  0.00    -0.493 OA
ATOM     22  C   UNL     1     108.191 102.514 107.949  1.00  0.00     0.278 C 
ENDBRANCH  18  21
BRANCH  20  23
ATOM     23  O   UNL     1     107.102 105.679 110.152  1.00  0.00    -0.504 OA
ATOM     24  H   UNL     1     106.506 106.280 110.709  1.00  0.00     0.293 HD
ENDBRANCH  20  23
ENDBRANCH  14  15
ENDBRANCH  12  14
ENDBRANCH   9  10
ENDBRANCH   1   9
TORSDOF 10
ENDMDL
MODEL 9
REMARK VINA RESULT:    -4.180      3.102      5.445
REMARK INTER + INTRA:          -8.145
REMARK INTER:                  -6.106
REMARK INTRA:                  -2.040
REMARK UNBOUND:                -1.643
REMARK SMILES COc1cc(CNC(=O)CCCCC=CC(C)C)ccc1O
REMARK SMILES IDX 11 1 12 2 13 3 14 4 15 5 16 6 17 7 18 8 10 9 8 10 9 11 7 12
REMARK SMILES IDX 6 14 5 15 4 16 19 17 3 18 20 19 21 20 2 21 1 22 22 23
REMARK H PARENT 7 13 22 24
REMARK Flexibility Score: inf
ROOT
ATOM      1  C   UNL     1     107.740 105.653 102.507  1.00  0.00     0.010 C 
ENDROOT
BRANCH   1   2
ATOM      2  C   UNL     1     106.757 104.481 102.673  1.00  0.00     0.005 C 
BRANCH   2   3
ATOM      3  C   UNL     1     106.883 103.809 104.046  1.00  0.00     0.027 C 
BRANCH   3   4
ATOM      4  C   UNL     1     107.446 104.759 105.077  1.00  0.00    -0.031 C 
ATOM      5  C   UNL     1     107.429 104.561 106.409  1.00  0.00    -0.028 C 
BRANCH   5   6
ATOM      6  C   UNL     1     106.789 103.374 107.101  1.00  0.00     0.005 C 
ATOM      7  C   UNL     1     106.358 103.756 108.521  1.00  0.00     0.012 C 
ATOM      8  C   UNL     1     107.770 102.197 107.144  1.00  0.00     0.012 C 
ENDBRANCH   5   6
ENDBRANCH   3   4
ENDBRANCH   2   3
ENDBRANCH   1   2
BRANCH   1   9
ATOM      9  C   UNL     1     107.074 106.883 101.875  1.00  0.00     0.100 C 
BRANCH   9  10
ATOM     10  C   UNL     1     105.992 107.440 102.752  1.00  0.00     0.220 C 
ATOM     11  O   UNL     1     104.866 107.708 102.253  1.00  0.00    -0.275 OA
ATOM     12  N   UNL     1     106.227 107.633 104.155  1.00  0.00    -0.352 N 
ATOM     13  H   UNL     1     107.151 107.359 104.558  1.00  0.00     0.163 HD
BRANCH  12  14
ATOM     14  C   UNL     1     105.211 108.179 105.052  1.00  0.00     0.151 C 
BRANCH  14  15
ATOM     15  C   UNL     1     104.556 107.073 105.833  1.00  0.00    -0.025 A 
ATOM     16  C   UNL     1     104.384 107.200 107.220  1.00  0.00     0.056 A 
ATOM     17  C   UNL     1     104.089 105.921 105.183  1.00  0.00     0.009 A 
ATOM     18  C   UNL     1     103.753 106.181 107.961  1.00  0.00     0.160 A 
ATOM     19  C   UNL     1     103.464 104.907 105.913  1.00  0.00     0.050 A 
ATOM     20  C   UNL     1     103.295 105.034 107.298  1.00  0.00     0.157 A 
BRANCH  18  21
ATOM     21  O   UNL     1     103.561 106.274 109.348  1.00  0.00    -0.493 OA
ATOM     22  C   UNL     1     104.568 106.663 110.277  1.00  0.00     0.278 C 
ENDBRANCH  18  21
BRANCH  20  23
ATOM     23  O   UNL     1     102.671 104.021 108.024  1.00  0.00    -0.504 OA
ATOM     24  H   UNL     1     102.330 103.179 107.575  1.00  0.00     0.293 HD
ENDBRANCH  20  23
ENDBRANCH  14  15
ENDBRANCH  12  14
ENDBRANCH   9  10
ENDBRANCH   1   9
TORSDOF 10
ENDMDL
