MODEL 1
REMARK VINA RESULT:    -3.912      0.000      0.000
REMARK INTER + INTRA:          -4.927
REMARK INTER:                  -4.827
REMARK INTRA:                  -0.100
REMARK UNBOUND:                -0.100
REMARK SMILES CCCCCC(=O)[O-]
REMARK SMILES IDX 4 1 5 2 6 3 7 4 8 5 3 6 2 7 1 8
REMARK H PARENT
REMARK Flexibility Score: inf
ROOT
ATOM      1  C   UNL     1      21.818 -11.472  22.338  1.00  0.00     0.006 C 
ENDROOT
BRANCH   1   2
ATOM      2  C   UNL     1      22.838 -12.390  21.649  1.00  0.00     0.053 C 
BRANCH   2   3
ATOM      3  C   UNL     1      22.137 -13.503  20.936  1.00  0.00     0.041 C 
ATOM      4  O   UNL     1      20.995 -13.318  20.439  1.00  0.00    -0.550 OA
ATOM      5  O   UNL     1      22.766 -14.732  20.778  1.00  0.00    -0.550 OA
ENDBRANCH   2   3
ENDBRANCH   1   2
BRANCH   1   6
ATOM      6  C   UNL     1      22.267 -10.003  22.361  1.00  0.00     0.000 C 
BRANCH   6   7
ATOM      7  C   UNL     1      21.527  -9.175  23.422  1.00  0.00    -0.003 C 
ATOM      8  C   UNL     1      20.749 -10.077  24.377  1.00  0.00     0.004 C 
ENDBRANCH   6   7
ENDBRANCH   1   6
TORSDOF 4
ENDMDL
MODEL 2
REMARK VINA RESULT:    -3.904      2.967      4.521
REMARK INTER + INTRA:          -4.916
REMARK INTER:                  -4.822
REMARK INTRA:                  -0.094
REMARK UNBOUND:                -0.100
REMARK SMILES CCCCCC(=O)[O-]
REMARK SMILES IDX 4 1 5 2 6 3 7 4 8 5 3 6 2 7 1 8
REMARK H PARENT
REMARK Flexibility Score: inf
ROOT
ATOM      1  C   UNL     1      21.538 -11.877  21.906  1.00  0.00     0.006 C 
ENDROOT
BRANCH   1   2
ATOM      2  C   UNL     1      20.376 -11.597  22.869  1.00  0.00     0.053 C 
BRANCH   2   3
ATOM      3  C   UNL     1      20.792 -10.611  23.914  1.00  0.00     0.041 C 
ATOM      4  O   UNL     1      20.395 -10.741  25.102  1.00  0.00    -0.550 OA
ATOM      5  O   UNL     1      21.655  -9.573  23.587  1.00  0.00    -0.550 OA
ENDBRANCH   2   3
ENDBRANCH   1   2
BRANCH   1   6
ATOM      6  C   UNL     1      21.223 -13.006  20.913  1.00  0.00     0.000 C 
BRANCH   6   7
ATOM      7  C   UNL     1      22.376 -14.013  20.779  1.00  0.00    -0.003 C 
ATOM      8  C   UNL     1      23.593 -13.564  21.582  1.00  0.00     0.004 C 
ENDBRANCH   6   7
ENDBRANCH   1   6
TORSDOF 4
ENDMDL
MODEL 3
REMARK VINA RESULT:    -3.822      2.348      4.886
REMARK INTER + INTRA:          -4.815
REMARK INTER:                  -4.765
REMARK INTRA:                  -0.050
REMARK UNBOUND:                -0.100
REMARK SMILES CCCCCC(=O)[O-]
REMARK SMILES IDX 4 1 5 2 6 3 7 4 8 5 3 6 2 7 1 8
REMARK H PARENT
REMARK Flexibility Score: inf
ROOT
ATOM      1  C   UNL     1      21.673 -13.263  21.054  1.00  0.00     0.006 C 
ENDROOT
BRANCH   1   2
ATOM      2  C   UNL     1      22.169 -11.931  21.632  1.00  0.00     0.053 C 
BRANCH   2   3
ATOM      3  C   UNL     1      21.193 -11.403  22.636  1.00  0.00     0.041 C 
ATOM      4  O   UNL     1      21.511 -10.443  23.386  1.00  0.00    -0.550 OA
ATOM      5  O   UNL     1      19.914 -11.940  22.711  1.00  0.00    -0.550 OA
ENDBRANCH   2   3
ENDBRANCH   1   2
BRANCH   1   6
ATOM      6  C   UNL     1      22.803 -14.290  20.883  1.00  0.00     0.000 C 
BRANCH   6   7
ATOM      7  C   UNL     1      22.688 -15.082  19.572  1.00  0.00    -0.003 C 
ATOM      8  C   UNL     1      23.100 -16.538  19.772  1.00  0.00     0.004 C 
ENDBRANCH   6   7
ENDBRANCH   1   6
TORSDOF 4
ENDMDL
MODEL 4
REMARK VINA RESULT:    -3.822      3.032      5.873
REMARK INTER + INTRA:          -4.815
REMARK INTER:                  -4.718
REMARK INTRA:                  -0.097
REMARK UNBOUND:                -0.100
REMARK SMILES CCCCCC(=O)[O-]
REMARK SMILES IDX 4 1 5 2 6 3 7 4 8 5 3 6 2 7 1 8
REMARK H PARENT
REMARK Flexibility Score: inf
ROOT
ATOM      1  C   UNL     1      22.684 -15.221  19.692  1.00  0.00     0.006 C 
ENDROOT
BRANCH   1   2
ATOM      2  C   UNL     1      22.895 -14.221  20.836  1.00  0.00     0.053 C 
BRANCH   2   3
ATOM      3  C   UNL     1      21.761 -13.246  20.890  1.00  0.00     0.041 C 
ATOM      4  O   UNL     1      20.792 -13.354  20.093  1.00  0.00    -0.550 OA
ATOM      5  O   UNL     1      21.750 -12.244  21.853  1.00  0.00    -0.550 OA
ENDBRANCH   2   3
ENDBRANCH   1   2
BRANCH   1   6
ATOM      6  C   UNL     1      23.107 -16.649  20.070  1.00  0.00     0.000 C 
BRANCH   6   7
ATOM      7  C   UNL     1      23.411 -17.521  18.843  1.00  0.00    -0.003 C 
ATOM      8  C   UNL     1      23.015 -16.808  17.552  1.00  0.00     0.004 C 
ENDBRANCH   6   7
ENDBRANCH   1   6
TORSDOF 4
ENDMDL
MODEL 5
REMARK VINA RESULT:    -3.778      1.695      2.273
REMARK INTER + INTRA:          -4.761
REMARK INTER:                  -4.710
REMARK INTRA:                  -0.052
REMARK UNBOUND:                -0.100
REMARK SMILES CCCCCC(=O)[O-]
REMARK SMILES IDX 4 1 5 2 6 3 7 4 8 5 3 6 2 7 1 8
REMARK H PARENT
REMARK Flexibility Score: inf
ROOT
ATOM      1  C   UNL     1      21.412 -10.406  23.478  1.00  0.00     0.006 C 
ENDROOT
BRANCH   1   2
ATOM      2  C   UNL     1      20.613 -11.522  22.793  1.00  0.00     0.053 C 
BRANCH   2   3
ATOM      3  C   UNL     1      21.440 -12.180  21.733  1.00  0.00     0.041 C 
ATOM      4  O   UNL     1      20.908 -12.978  20.918  1.00  0.00    -0.550 OA
ATOM      5  O   UNL     1      22.790 -11.874  21.615  1.00  0.00    -0.550 OA
ENDBRANCH   2   3
ENDBRANCH   1   2
BRANCH   1   6
ATOM      6  C   UNL     1      20.644  -9.758  24.641  1.00  0.00     0.000 C 
BRANCH   6   7
ATOM      7  C   UNL     1      21.082  -8.309  24.903  1.00  0.00    -0.003 C 
ATOM      8  C   UNL     1      19.923  -7.474  25.441  1.00  0.00     0.004 C 
ENDBRANCH   6   7
ENDBRANCH   1   6
TORSDOF 4
ENDMDL
MODEL 6
REMARK VINA RESULT:    -3.743      6.754      7.448
REMARK INTER + INTRA:          -4.718
REMARK INTER:                  -4.617
REMARK INTRA:                  -0.101
REMARK UNBOUND:                -0.100
REMARK SMILES CCCCCC(=O)[O-]
REMARK SMILES IDX 4 1 5 2 6 3 7 4 8 5 3 6 2 7 1 8
REMARK H PARENT
REMARK Flexibility Score: inf
ROOT
ATOM      1  C   UNL     1      16.052 -13.735  19.367  1.00  0.00     0.006 C 
ENDROOT
BRANCH   1   2
ATOM      2  C   UNL     1      15.334 -13.300  18.083  1.00  0.00     0.053 C 
BRANCH   2   3
ATOM      3  C   UNL     1      16.224 -13.498  16.896  1.00  0.00     0.041 C 
ATOM      4  O   UNL     1      15.759 -13.392  15.731  1.00  0.00    -0.550 OA
ATOM      5  O   UNL     1      17.577 -13.754  17.077  1.00  0.00    -0.550 OA
ENDBRANCH   2   3
ENDBRANCH   1   2
BRANCH   1   6
ATOM      6  C   UNL     1      15.107 -14.414  20.371  1.00  0.00     0.000 C 
BRANCH   6   7
ATOM      7  C   UNL     1      14.513 -13.424  21.385  1.00  0.00    -0.003 C 
ATOM      8  C   UNL     1      15.604 -12.561  22.014  1.00  0.00     0.004 C 
ENDBRANCH   6   7
ENDBRANCH   1   6
TORSDOF 4
ENDMDL
MODEL 7
REMARK VINA RESULT:    -3.732      3.947      6.957
REMARK INTER + INTRA:          -4.704
REMARK INTER:                  -4.614
REMARK INTRA:                  -0.091
REMARK UNBOUND:                -0.100
REMARK SMILES CCCCCC(=O)[O-]
REMARK SMILES IDX 4 1 5 2 6 3 7 4 8 5 3 6 2 7 1 8
REMARK H PARENT
REMARK Flexibility Score: inf
ROOT
ATOM      1  C   UNL     1      23.028 -16.867  19.757  1.00  0.00     0.006 C 
ENDROOT
BRANCH   1   2
ATOM      2  C   UNL     1      22.912 -15.413  19.282  1.00  0.00     0.053 C 
BRANCH   2   3
ATOM      3  C   UNL     1      22.566 -14.516  20.430  1.00  0.00     0.041 C 
ATOM      4  O   UNL     1      23.323 -14.450  21.433  1.00  0.00    -0.550 OA
ATOM      5  O   UNL     1      21.430 -13.719  20.371  1.00  0.00    -0.550 OA
ENDBRANCH   2   3
ENDBRANCH   1   2
BRANCH   1   6
ATOM      6  C   UNL     1      23.491 -17.817  18.642  1.00  0.00     0.000 C 
BRANCH   6   7
ATOM      7  C   UNL     1      22.987 -17.390  17.255  1.00  0.00    -0.003 C 
ATOM      8  C   UNL     1      22.554 -18.600  16.431  1.00  0.00     0.004 C 
ENDBRANCH   6   7
ENDBRANCH   1   6
TORSDOF 4
ENDMDL
MODEL 8
REMARK VINA RESULT:    -3.699      4.464      5.741
REMARK INTER + INTRA:          -4.664
REMARK INTER:                  -4.587
REMARK INTRA:                  -0.077
REMARK UNBOUND:                -0.100
REMARK SMILES CCCCCC(=O)[O-]
REMARK SMILES IDX 4 1 5 2 6 3 7 4 8 5 3 6 2 7 1 8
REMARK H PARENT
REMARK Flexibility Score: inf
ROOT
ATOM      1  C   UNL     1      20.612 -10.143  24.736  1.00  0.00     0.006 C 
ENDROOT
BRANCH   1   2
ATOM      2  C   UNL     1      20.927  -8.676  24.416  1.00  0.00     0.053 C 
BRANCH   2   3
ATOM      3  C   UNL     1      20.434  -7.786  25.514  1.00  0.00     0.041 C 
ATOM      4  O   UNL     1      19.357  -7.149  25.378  1.00  0.00    -0.550 OA
ATOM      5  O   UNL     1      21.140  -7.697  26.707  1.00  0.00    -0.550 OA
ENDBRANCH   2   3
ENDBRANCH   1   2
BRANCH   1   6
ATOM      6  C   UNL     1      20.737 -11.055  23.506  1.00  0.00     0.000 C 
BRANCH   6   7
ATOM      7  C   UNL     1      21.949 -10.704  22.631  1.00  0.00    -0.003 C 
ATOM      8  C   UNL     1      22.323 -11.868  21.717  1.00  0.00     0.004 C 
ENDBRANCH   6   7
ENDBRANCH   1   6
TORSDOF 4
ENDMDL
MODEL 9
REMARK VINA RESULT:    -3.684      3.542      4.796
REMARK INTER + INTRA:          -4.645
REMARK INTER:                  -4.568
REMARK INTRA:                  -0.077
REMARK UNBOUND:                -0.100
REMARK SMILES CCCCCC(=O)[O-]
REMARK SMILES IDX 4 1 5 2 6 3 7 4 8 5 3 6 2 7 1 8
REMARK H PARENT
REMARK Flexibility Score: inf
ROOT
ATOM      1  C   UNL     1      22.690 -15.078  19.426  1.00  0.00     0.006 C 
ENDROOT
BRANCH   1   2
ATOM      2  C   UNL     1      23.073 -16.526  19.092  1.00  0.00     0.053 C 
BRANCH   2   3
ATOM      3  C   UNL     1      22.982 -16.762  17.617  1.00  0.00     0.041 C 
ATOM      4  O   UNL     1      22.828 -15.793  16.828  1.00  0.00    -0.550 OA
ATOM      5  O   UNL     1      23.114 -18.049  17.109  1.00  0.00    -0.550 OA
ENDBRANCH   2   3
ENDBRANCH   1   2
BRANCH   1   6
ATOM      6  C   UNL     1      23.020 -14.700  20.878  1.00  0.00     0.000 C 
BRANCH   6   7
ATOM      7  C   UNL     1      22.575 -13.273  21.232  1.00  0.00    -0.003 C 
ATOM      8  C   UNL     1      21.098 -13.062  20.908  1.00  0.00     0.004 C 
ENDBRANCH   6   7
ENDBRANCH   1   6
TORSDOF 4
ENDMDL
