MODEL 1
REMARK VINA RESULT:    -3.643      0.000      0.000
REMARK INTER + INTRA:          -4.433
REMARK INTER:                  -4.282
REMARK INTRA:                  -0.150
REMARK UNBOUND:                -0.150
REMARK SMILES O=C([O-])C=Cc1ccc(O)c(O)c1
REMARK SMILES IDX 6 1 13 2 7 3 11 4 8 5 9 6 5 7 4 8 2 9 1 10 3 11 12 12 10 14
REMARK H PARENT 12 13 10 15
REMARK Flexibility Score: inf
ROOT
ATOM      1  C   UNL     1     -25.925  54.327  44.144  1.00  0.00    -0.022 A 
ATOM      2  C   UNL     1     -26.264  53.322  43.216  1.00  0.00     0.058 A 
ATOM      3  C   UNL     1     -25.054  55.353  43.746  1.00  0.00     0.012 A 
ATOM      4  C   UNL     1     -25.757  53.360  41.908  1.00  0.00     0.157 A 
ATOM      5  C   UNL     1     -24.552  55.393  42.443  1.00  0.00     0.051 A 
ATOM      6  C   UNL     1     -24.901  54.404  41.521  1.00  0.00     0.157 A 
ENDROOT
BRANCH   1   7
ATOM      7  C   UNL     1     -26.425  54.323  45.542  1.00  0.00     0.010 C 
ATOM      8  C   UNL     1     -26.111  55.261  46.449  1.00  0.00     0.025 C 
BRANCH   8   9
ATOM      9  C   UNL     1     -26.617  55.219  47.830  1.00  0.00     0.064 C 
ATOM     10  O   UNL     1     -27.528  56.000  48.216  1.00  0.00    -0.545 OA
ATOM     11  O   UNL     1     -26.081  54.303  48.726  1.00  0.00    -0.545 OA
ENDBRANCH   8   9
ENDBRANCH   1   7
BRANCH   4  12
ATOM     12  O   UNL     1     -26.100  52.364  40.995  1.00  0.00    -0.504 OA
ATOM     13  H   UNL     1     -25.890  51.388  41.169  1.00  0.00     0.293 HD
ENDBRANCH   4  12
BRANCH   6  14
ATOM     14  O   UNL     1     -24.385  54.471  40.226  1.00  0.00    -0.504 OA
ATOM     15  H   UNL     1     -23.527  54.964  40.013  1.00  0.00     0.293 HD
ENDBRANCH   6  14
TORSDOF 4
ENDMDL
MODEL 2
REMARK VINA RESULT:    -3.630      2.007      5.489
REMARK INTER + INTRA:          -4.418
REMARK INTER:                  -4.265
REMARK INTRA:                  -0.152
REMARK UNBOUND:                -0.150
REMARK SMILES O=C([O-])C=Cc1ccc(O)c(O)c1
REMARK SMILES IDX 6 1 13 2 7 3 11 4 8 5 9 6 5 7 4 8 2 9 1 10 3 11 12 12 10 14
REMARK H PARENT 12 13 10 15
REMARK Flexibility Score: inf
ROOT
ATOM      1  C   UNL     1     -26.196  53.354  44.000  1.00  0.00    -0.022 A 
ATOM      2  C   UNL     1     -26.850  53.787  45.171  1.00  0.00     0.058 A 
ATOM      3  C   UNL     1     -25.287  54.219  43.371  1.00  0.00     0.012 A 
ATOM      4  C   UNL     1     -26.579  55.052  45.713  1.00  0.00     0.157 A 
ATOM      5  C   UNL     1     -25.014  55.478  43.913  1.00  0.00     0.051 A 
ATOM      6  C   UNL     1     -25.653  55.899  45.081  1.00  0.00     0.157 A 
ENDROOT
BRANCH   1   7
ATOM      7  C   UNL     1     -26.458  52.030  43.382  1.00  0.00     0.010 C 
ATOM      8  C   UNL     1     -26.015  51.673  42.168  1.00  0.00     0.025 C 
BRANCH   8   9
ATOM      9  C   UNL     1     -26.304  50.354  41.581  1.00  0.00     0.064 C 
ATOM     10  O   UNL     1     -26.410  50.203  40.334  1.00  0.00    -0.545 OA
ATOM     11  O   UNL     1     -26.464  49.256  42.416  1.00  0.00    -0.545 OA
ENDBRANCH   8   9
ENDBRANCH   1   7
BRANCH   4  12
ATOM     12  O   UNL     1     -27.227  55.470  46.874  1.00  0.00    -0.504 OA
ATOM     13  H   UNL     1     -27.495  54.815  47.598  1.00  0.00     0.293 HD
ENDBRANCH   4  12
BRANCH   6  14
ATOM     14  O   UNL     1     -25.360  57.160  45.599  1.00  0.00    -0.504 OA
ATOM     15  H   UNL     1     -24.538  57.680  45.318  1.00  0.00     0.293 HD
ENDBRANCH   6  14
TORSDOF 4
ENDMDL
MODEL 3
REMARK VINA RESULT:    -3.343      0.931      2.016
REMARK INTER + INTRA:          -4.080
REMARK INTER:                  -3.929
REMARK INTRA:                  -0.151
REMARK UNBOUND:                -0.150
REMARK SMILES O=C([O-])C=Cc1ccc(O)c(O)c1
REMARK SMILES IDX 6 1 13 2 7 3 11 4 8 5 9 6 5 7 4 8 2 9 1 10 3 11 12 12 10 14
REMARK H PARENT 12 13 10 15
REMARK Flexibility Score: inf
ROOT
ATOM      1  C   UNL     1     -25.983  54.610  44.584  1.00  0.00    -0.022 A 
ATOM      2  C   UNL     1     -25.211  55.023  43.480  1.00  0.00     0.058 A 
ATOM      3  C   UNL     1     -26.739  53.432  44.480  1.00  0.00     0.012 A 
ATOM      4  C   UNL     1     -25.179  54.256  42.305  1.00  0.00     0.157 A 
ATOM      5  C   UNL     1     -26.705  52.666  43.312  1.00  0.00     0.051 A 
ATOM      6  C   UNL     1     -25.927  53.071  42.224  1.00  0.00     0.157 A 
ENDROOT
BRANCH   1   7
ATOM      7  C   UNL     1     -26.058  55.392  45.843  1.00  0.00     0.010 C 
ATOM      8  C   UNL     1     -26.431  54.873  47.022  1.00  0.00     0.025 C 
BRANCH   8   9
ATOM      9  C   UNL     1     -26.505  55.683  48.249  1.00  0.00     0.064 C 
ATOM     10  O   UNL     1     -25.954  56.815  48.319  1.00  0.00    -0.545 OA
ATOM     11  O   UNL     1     -27.193  55.191  49.351  1.00  0.00    -0.545 OA
ENDBRANCH   8   9
ENDBRANCH   1   7
BRANCH   4  12
ATOM     12  O   UNL     1     -24.409  54.671  41.219  1.00  0.00    -0.504 OA
ATOM     13  H   UNL     1     -24.702  55.434  40.620  1.00  0.00     0.293 HD
ENDBRANCH   4  12
BRANCH   6  14
ATOM     14  O   UNL     1     -25.912  52.286  41.072  1.00  0.00    -0.504 OA
ATOM     15  H   UNL     1     -26.750  51.851  40.704  1.00  0.00     0.293 HD
ENDBRANCH   6  14
TORSDOF 4
ENDMDL
MODEL 4
REMARK VINA RESULT:    -3.312      2.158      6.187
REMARK INTER + INTRA:          -4.043
REMARK INTER:                  -3.890
REMARK INTRA:                  -0.153
REMARK UNBOUND:                -0.150
REMARK SMILES O=C([O-])C=Cc1ccc(O)c(O)c1
REMARK SMILES IDX 6 1 13 2 7 3 11 4 8 5 9 6 5 7 4 8 2 9 1 10 3 11 12 12 10 14
REMARK H PARENT 12 13 10 15
REMARK Flexibility Score: inf
ROOT
ATOM      1  C   UNL     1     -25.655  53.326  42.860  1.00  0.00    -0.022 A 
ATOM      2  C   UNL     1     -25.139  54.575  43.261  1.00  0.00     0.058 A 
ATOM      3  C   UNL     1     -26.638  52.713  43.653  1.00  0.00     0.012 A 
ATOM      4  C   UNL     1     -25.617  55.205  44.420  1.00  0.00     0.157 A 
ATOM      5  C   UNL     1     -27.117  53.342  44.805  1.00  0.00     0.051 A 
ATOM      6  C   UNL     1     -26.614  54.586  45.191  1.00  0.00     0.157 A 
ENDROOT
BRANCH   1   7
ATOM      7  C   UNL     1     -25.173  52.614  41.650  1.00  0.00     0.010 C 
ATOM      8  C   UNL     1     -25.602  51.398  41.280  1.00  0.00     0.025 C 
BRANCH   8   9
ATOM      9  C   UNL     1     -25.093  50.717  40.079  1.00  0.00     0.064 C 
ATOM     10  O   UNL     1     -25.556  49.603  39.715  1.00  0.00    -0.545 OA
ATOM     11  O   UNL     1     -24.083  51.312  39.334  1.00  0.00    -0.545 OA
ENDBRANCH   8   9
ENDBRANCH   1   7
BRANCH   4  12
ATOM     12  O   UNL     1     -25.103  56.442  44.807  1.00  0.00    -0.504 OA
ATOM     13  H   UNL     1     -25.525  57.312  44.503  1.00  0.00     0.293 HD
ENDBRANCH   4  12
BRANCH   6  14
ATOM     14  O   UNL     1     -27.112  55.190  46.345  1.00  0.00    -0.504 OA
ATOM     15  H   UNL     1     -27.460  56.141  46.348  1.00  0.00     0.293 HD
ENDBRANCH   6  14
TORSDOF 4
ENDMDL
MODEL 5
REMARK VINA RESULT:    -3.265      1.509      1.994
REMARK INTER + INTRA:          -3.988
REMARK INTER:                  -3.857
REMARK INTRA:                  -0.130
REMARK UNBOUND:                -0.150
REMARK SMILES O=C([O-])C=Cc1ccc(O)c(O)c1
REMARK SMILES IDX 6 1 13 2 7 3 11 4 8 5 9 6 5 7 4 8 2 9 1 10 3 11 12 12 10 14
REMARK H PARENT 12 13 10 15
REMARK Flexibility Score: inf
ROOT
ATOM      1  C   UNL     1     -26.339  53.059  43.806  1.00  0.00    -0.022 A 
ATOM      2  C   UNL     1     -26.524  51.677  43.597  1.00  0.00     0.058 A 
ATOM      3  C   UNL     1     -25.799  53.836  42.769  1.00  0.00     0.012 A 
ATOM      4  C   UNL     1     -26.196  51.093  42.364  1.00  0.00     0.157 A 
ATOM      5  C   UNL     1     -25.476  53.254  41.540  1.00  0.00     0.051 A 
ATOM      6  C   UNL     1     -25.674  51.888  41.331  1.00  0.00     0.157 A 
ENDROOT
BRANCH   1   7
ATOM      7  C   UNL     1     -26.658  53.721  45.096  1.00  0.00     0.010 C 
ATOM      8  C   UNL     1     -25.758  53.937  46.066  1.00  0.00     0.025 C 
BRANCH   8   9
ATOM      9  C   UNL     1     -26.113  54.587  47.338  1.00  0.00     0.064 C 
ATOM     10  O   UNL     1     -26.852  55.608  47.365  1.00  0.00    -0.545 OA
ATOM     11  O   UNL     1     -25.626  54.067  48.530  1.00  0.00    -0.545 OA
ENDBRANCH   8   9
ENDBRANCH   1   7
BRANCH   4  12
ATOM     12  O   UNL     1     -26.387  49.726  42.165  1.00  0.00    -0.504 OA
ATOM     13  H   UNL     1     -27.279  49.282  42.344  1.00  0.00     0.293 HD
ENDBRANCH   4  12
BRANCH   6  14
ATOM     14  O   UNL     1     -25.343  51.336  40.094  1.00  0.00    -0.504 OA
ATOM     15  H   UNL     1     -24.674  50.582  40.002  1.00  0.00     0.293 HD
ENDBRANCH   6  14
TORSDOF 4
ENDMDL
MODEL 6
REMARK VINA RESULT:    -3.247      2.739      5.605
REMARK INTER + INTRA:          -3.967
REMARK INTER:                  -3.831
REMARK INTRA:                  -0.136
REMARK UNBOUND:                -0.150
REMARK SMILES O=C([O-])C=Cc1ccc(O)c(O)c1
REMARK SMILES IDX 6 1 13 2 7 3 11 4 8 5 9 6 5 7 4 8 2 9 1 10 3 11 12 12 10 14
REMARK H PARENT 12 13 10 15
REMARK Flexibility Score: inf
ROOT
ATOM      1  C   UNL     1     -26.210  52.652  43.308  1.00  0.00    -0.022 A 
ATOM      2  C   UNL     1     -25.409  53.722  42.857  1.00  0.00     0.058 A 
ATOM      3  C   UNL     1     -26.923  52.798  44.508  1.00  0.00     0.012 A 
ATOM      4  C   UNL     1     -25.346  54.920  43.583  1.00  0.00     0.157 A 
ATOM      5  C   UNL     1     -26.862  53.993  45.230  1.00  0.00     0.051 A 
ATOM      6  C   UNL     1     -26.080  55.056  44.773  1.00  0.00     0.157 A 
ENDROOT
BRANCH   1   7
ATOM      7  C   UNL     1     -26.300  51.361  42.581  1.00  0.00     0.010 C 
ATOM      8  C   UNL     1     -25.973  50.177  43.121  1.00  0.00     0.025 C 
BRANCH   8   9
ATOM      9  C   UNL     1     -26.064  48.917  42.366  1.00  0.00     0.064 C 
ATOM     10  O   UNL     1     -25.277  48.668  41.413  1.00  0.00    -0.545 OA
ATOM     11  O   UNL     1     -27.035  47.985  42.709  1.00  0.00    -0.545 OA
ENDBRANCH   8   9
ENDBRANCH   1   7
BRANCH   4  12
ATOM     12  O   UNL     1     -24.555  55.974  43.127  1.00  0.00    -0.504 OA
ATOM     13  H   UNL     1     -24.467  56.184  42.140  1.00  0.00     0.293 HD
ENDBRANCH   4  12
BRANCH   6  14
ATOM     14  O   UNL     1     -26.040  56.237  45.514  1.00  0.00    -0.504 OA
ATOM     15  H   UNL     1     -26.421  57.106  45.162  1.00  0.00     0.293 HD
ENDBRANCH   6  14
TORSDOF 4
ENDMDL
MODEL 7
REMARK VINA RESULT:    -3.057      2.725      6.183
REMARK INTER + INTRA:          -3.743
REMARK INTER:                  -3.593
REMARK INTRA:                  -0.150
REMARK UNBOUND:                -0.150
REMARK SMILES O=C([O-])C=Cc1ccc(O)c(O)c1
REMARK SMILES IDX 6 1 13 2 7 3 11 4 8 5 9 6 5 7 4 8 2 9 1 10 3 11 12 12 10 14
REMARK H PARENT 12 13 10 15
REMARK Flexibility Score: inf
ROOT
ATOM      1  C   UNL     1     -26.146  52.182  44.200  1.00  0.00    -0.022 A 
ATOM      2  C   UNL     1     -26.821  53.398  44.432  1.00  0.00     0.058 A 
ATOM      3  C   UNL     1     -25.169  51.763  45.117  1.00  0.00     0.012 A 
ATOM      4  C   UNL     1     -26.538  54.164  45.573  1.00  0.00     0.157 A 
ATOM      5  C   UNL     1     -24.890  52.524  46.256  1.00  0.00     0.051 A 
ATOM      6  C   UNL     1     -25.571  53.721  46.490  1.00  0.00     0.157 A 
ENDROOT
BRANCH   1   7
ATOM      7  C   UNL     1     -26.400  51.343  43.002  1.00  0.00     0.010 C 
ATOM      8  C   UNL     1     -26.090  50.041  42.924  1.00  0.00     0.025 C 
BRANCH   8   9
ATOM      9  C   UNL     1     -26.346  49.243  41.715  1.00  0.00     0.064 C 
ATOM     10  O   UNL     1     -25.816  48.110  41.556  1.00  0.00    -0.545 OA
ATOM     11  O   UNL     1     -27.187  49.746  40.730  1.00  0.00    -0.545 OA
ENDBRANCH   8   9
ENDBRANCH   1   7
BRANCH   4  12
ATOM     12  O   UNL     1     -27.214  55.363  45.796  1.00  0.00    -0.504 OA
ATOM     13  H   UNL     1     -27.616  55.896  45.034  1.00  0.00     0.293 HD
ENDBRANCH   4  12
BRANCH   6  14
ATOM     14  O   UNL     1     -25.272  54.459  47.635  1.00  0.00    -0.504 OA
ATOM     15  H   UNL     1     -24.321  54.606  47.948  1.00  0.00     0.293 HD
ENDBRANCH   6  14
TORSDOF 4
ENDMDL
MODEL 8
REMARK VINA RESULT:    -2.971      3.916      5.372
REMARK INTER + INTRA:          -3.643
REMARK INTER:                  -3.513
REMARK INTRA:                  -0.130
REMARK UNBOUND:                -0.150
REMARK SMILES O=C([O-])C=Cc1ccc(O)c(O)c1
REMARK SMILES IDX 6 1 13 2 7 3 11 4 8 5 9 6 5 7 4 8 2 9 1 10 3 11 12 12 10 14
REMARK H PARENT 12 13 10 15
REMARK Flexibility Score: inf
ROOT
ATOM      1  C   UNL     1     -26.318  50.440  42.158  1.00  0.00    -0.022 A 
ATOM      2  C   UNL     1     -26.747  50.338  40.819  1.00  0.00     0.058 A 
ATOM      3  C   UNL     1     -26.272  49.279  42.946  1.00  0.00     0.012 A 
ATOM      4  C   UNL     1     -27.099  49.092  40.276  1.00  0.00     0.157 A 
ATOM      5  C   UNL     1     -26.618  48.038  42.404  1.00  0.00     0.051 A 
ATOM      6  C   UNL     1     -27.029  47.938  41.073  1.00  0.00     0.157 A 
ENDROOT
BRANCH   1   7
ATOM      7  C   UNL     1     -25.948  51.735  42.781  1.00  0.00     0.010 C 
ATOM      8  C   UNL     1     -26.760  52.432  43.590  1.00  0.00     0.025 C 
BRANCH   8   9
ATOM      9  C   UNL     1     -26.363  53.720  44.181  1.00  0.00     0.064 C 
ATOM     10  O   UNL     1     -26.793  54.081  45.310  1.00  0.00    -0.545 OA
ATOM     11  O   UNL     1     -25.501  54.555  43.483  1.00  0.00    -0.545 OA
ENDBRANCH   8   9
ENDBRANCH   1   7
BRANCH   4  12
ATOM     12  O   UNL     1     -27.518  49.000  38.950  1.00  0.00    -0.504 OA
ATOM     13  H   UNL     1     -27.071  49.532  38.213  1.00  0.00     0.293 HD
ENDBRANCH   4  12
BRANCH   6  14
ATOM     14  O   UNL     1     -27.368  46.686  40.560  1.00  0.00    -0.504 OA
ATOM     15  H   UNL     1     -28.093  46.113  40.972  1.00  0.00     0.293 HD
ENDBRANCH   6  14
TORSDOF 4
ENDMDL
