MODEL 1
REMARK VINA RESULT:    -3.982      0.000      0.000
REMARK INTER + INTRA:          -4.513
REMARK INTER:                  -4.215
REMARK INTRA:                  -0.298
REMARK UNBOUND:                -0.298
REMARK SMILES C=C1CC[C@]2(C(C)C)C[C@H]12
REMARK SMILES IDX 5 1 4 2 3 3 2 4 1 5 10 6 9 7 6 8 7 9 8 10
REMARK H PARENT
REMARK Flexibility Score: inf
ROOT
ATOM      1  C   UNL     1     133.306 136.466 131.965  1.00  0.00    -0.020 C 
ATOM      2  C   UNL     1     134.193 135.389 132.616  1.00  0.00     0.012 C 
ATOM      3  C   UNL     1     134.843 134.592 131.482  1.00  0.00     0.031 C 
ATOM      4  C   UNL     1     134.261 135.155 130.231  1.00  0.00    -0.074 C 
ATOM      5  C   UNL     1     134.542 134.680 129.015  1.00  0.00     0.008 C 
ATOM      6  C   UNL     1     133.328 136.291 130.456  1.00  0.00     0.021 C 
ATOM      7  C   UNL     1     132.058 135.972 131.239  1.00  0.00     0.016 C 
ENDROOT
BRANCH   1   8
ATOM      8  C   UNL     1     133.279 137.922 132.493  1.00  0.00    -0.011 C 
ATOM      9  C   UNL     1     134.146 138.852 131.632  1.00  0.00     0.008 C 
ATOM     10  C   UNL     1     133.724 137.966 133.957  1.00  0.00     0.008 C 
ENDBRANCH   1   8
TORSDOF 1
ENDMDL
MODEL 2
REMARK VINA RESULT:    -3.977      5.908      7.113
REMARK INTER + INTRA:          -4.508
REMARK INTER:                  -4.200
REMARK INTRA:                  -0.308
REMARK UNBOUND:                -0.298
REMARK SMILES C=C1CC[C@]2(C(C)C)C[C@H]12
REMARK SMILES IDX 5 1 4 2 3 3 2 4 1 5 10 6 9 7 6 8 7 9 8 10
REMARK H PARENT
REMARK Flexibility Score: inf
ROOT
ATOM      1  C   UNL     1     140.435 137.314 131.840  1.00  0.00    -0.020 C 
ATOM      2  C   UNL     1     139.498 138.379 132.437  1.00  0.00     0.012 C 
ATOM      3  C   UNL     1     138.945 139.200 131.271  1.00  0.00     0.031 C 
ATOM      4  C   UNL     1     139.628 138.662 130.060  1.00  0.00    -0.074 C 
ATOM      5  C   UNL     1     139.449 139.162 128.835  1.00  0.00     0.008 C 
ATOM      6  C   UNL     1     140.538 137.519 130.338  1.00  0.00     0.021 C 
ATOM      7  C   UNL     1     141.739 137.819 131.230  1.00  0.00     0.016 C 
ENDROOT
BRANCH   1   8
ATOM      8  C   UNL     1     140.418 135.847 132.338  1.00  0.00    -0.011 C 
ATOM      9  C   UNL     1     139.551 134.955 131.440  1.00  0.00     0.008 C 
ATOM     10  C   UNL     1     139.938 135.784 133.791  1.00  0.00     0.008 C 
ENDBRANCH   1   8
TORSDOF 1
ENDMDL
MODEL 3
REMARK VINA RESULT:    -3.957      3.345      5.017
REMARK INTER + INTRA:          -4.486
REMARK INTER:                  -4.182
REMARK INTRA:                  -0.305
REMARK UNBOUND:                -0.298
REMARK SMILES C=C1CC[C@]2(C(C)C)C[C@H]12
REMARK SMILES IDX 5 1 4 2 3 3 2 4 1 5 10 6 9 7 6 8 7 9 8 10
REMARK H PARENT
REMARK Flexibility Score: inf
ROOT
ATOM      1  C   UNL     1     136.505 140.427 131.879  1.00  0.00    -0.020 C 
ATOM      2  C   UNL     1     135.469 139.509 132.553  1.00  0.00     0.012 C 
ATOM      3  C   UNL     1     134.638 138.870 131.439  1.00  0.00     0.031 C 
ATOM      4  C   UNL     1     135.141 139.486 130.178  1.00  0.00    -0.074 C 
ATOM      5  C   UNL     1     134.622 139.222 128.976  1.00  0.00     0.008 C 
ATOM      6  C   UNL     1     136.271 140.432 130.377  1.00  0.00     0.021 C 
ATOM      7  C   UNL     1     135.964 141.681 131.199  1.00  0.00     0.016 C 
ENDROOT
BRANCH   1   8
ATOM      8  C   UNL     1     137.981 140.467 132.349  1.00  0.00    -0.011 C 
ATOM      9  C   UNL     1     138.879 139.590 131.467  1.00  0.00     0.008 C 
ATOM     10  C   UNL     1     138.083 140.045 133.817  1.00  0.00     0.008 C 
ENDBRANCH   1   8
TORSDOF 1
ENDMDL
MODEL 4
REMARK VINA RESULT:    -3.946      3.288      4.932
REMARK INTER + INTRA:          -4.475
REMARK INTER:                  -4.164
REMARK INTRA:                  -0.311
REMARK UNBOUND:                -0.298
REMARK SMILES C=C1CC[C@]2(C(C)C)C[C@H]12
REMARK SMILES IDX 5 1 4 2 3 3 2 4 1 5 10 6 9 7 6 8 7 9 8 10
REMARK H PARENT
REMARK Flexibility Score: inf
ROOT
ATOM      1  C   UNL     1     137.187 133.354 131.826  1.00  0.00    -0.020 C 
ATOM      2  C   UNL     1     138.241 134.289 132.446  1.00  0.00     0.012 C 
ATOM      3  C   UNL     1     139.084 134.846 131.297  1.00  0.00     0.031 C 
ATOM      4  C   UNL     1     138.569 134.168 130.075  1.00  0.00    -0.074 C 
ATOM      5  C   UNL     1     139.092 134.351 128.860  1.00  0.00     0.008 C 
ATOM      6  C   UNL     1     137.421 133.256 130.328  1.00  0.00     0.021 C 
ATOM      7  C   UNL     1     137.705 132.052 131.221  1.00  0.00     0.016 C 
ENDROOT
BRANCH   1   8
ATOM      8  C   UNL     1     135.711 133.369 132.296  1.00  0.00    -0.011 C 
ATOM      9  C   UNL     1     134.848 134.286 131.420  1.00  0.00     0.008 C 
ATOM     10  C   UNL     1     135.626 133.786 133.767  1.00  0.00     0.008 C 
ENDBRANCH   1   8
TORSDOF 1
ENDMDL
MODEL 5
REMARK VINA RESULT:    -3.791      3.411      5.654
REMARK INTER + INTRA:          -4.311
REMARK INTER:                  -4.022
REMARK INTRA:                  -0.289
REMARK UNBOUND:                -0.298
REMARK SMILES C=C1CC[C@]2(C(C)C)C[C@H]12
REMARK SMILES IDX 5 1 4 2 3 3 2 4 1 5 10 6 9 7 6 8 7 9 8 10
REMARK H PARENT
REMARK Flexibility Score: inf
ROOT
ATOM      1  C   UNL     1     137.814 133.568 130.772  1.00  0.00    -0.020 C 
ATOM      2  C   UNL     1     136.567 134.199 130.125  1.00  0.00     0.012 C 
ATOM      3  C   UNL     1     135.521 134.367 131.229  1.00  0.00     0.031 C 
ATOM      4  C   UNL     1     136.138 133.761 132.443  1.00  0.00    -0.074 C 
ATOM      5  C   UNL     1     135.505 133.664 133.615  1.00  0.00     0.008 C 
ATOM      6  C   UNL     1     137.523 133.264 132.232  1.00  0.00     0.021 C 
ATOM      7  C   UNL     1     137.681 132.120 131.235  1.00  0.00     0.016 C 
ENDROOT
BRANCH   1   8
ATOM      8  C   UNL     1     139.242 134.069 130.441  1.00  0.00    -0.011 C 
ATOM      9  C   UNL     1     139.809 134.946 131.565  1.00  0.00     0.008 C 
ATOM     10  C   UNL     1     139.245 134.824 129.109  1.00  0.00     0.008 C 
ENDBRANCH   1   8
TORSDOF 1
ENDMDL
MODEL 6
REMARK VINA RESULT:    -3.790      1.851      3.417
REMARK INTER + INTRA:          -4.310
REMARK INTER:                  -4.003
REMARK INTRA:                  -0.306
REMARK UNBOUND:                -0.298
REMARK SMILES C=C1CC[C@]2(C(C)C)C[C@H]12
REMARK SMILES IDX 5 1 4 2 3 3 2 4 1 5 10 6 9 7 6 8 7 9 8 10
REMARK H PARENT
REMARK Flexibility Score: inf
ROOT
ATOM      1  C   UNL     1     134.915 134.943 131.921  1.00  0.00    -0.020 C 
ATOM      2  C   UNL     1     136.091 135.788 131.399  1.00  0.00     0.012 C 
ATOM      3  C   UNL     1     137.238 134.824 131.088  1.00  0.00     0.031 C 
ATOM      4  C   UNL     1     136.743 133.484 131.511  1.00  0.00    -0.074 C 
ATOM      5  C   UNL     1     137.486 132.375 131.449  1.00  0.00     0.008 C 
ATOM      6  C   UNL     1     135.345 133.489 132.020  1.00  0.00     0.021 C 
ATOM      7  C   UNL     1     135.097 134.296 133.291  1.00  0.00     0.016 C 
ENDROOT
BRANCH   1   8
ATOM      8  C   UNL     1     133.460 135.203 131.458  1.00  0.00    -0.011 C 
ATOM      9  C   UNL     1     133.149 134.483 130.139  1.00  0.00     0.008 C 
ATOM     10  C   UNL     1     133.204 136.707 131.329  1.00  0.00     0.008 C 
ENDBRANCH   1   8
TORSDOF 1
ENDMDL
MODEL 7
REMARK VINA RESULT:    -3.776      4.671      6.418
REMARK INTER + INTRA:          -4.295
REMARK INTER:                  -3.992
REMARK INTRA:                  -0.303
REMARK UNBOUND:                -0.298
REMARK SMILES C=C1CC[C@]2(C(C)C)C[C@H]12
REMARK SMILES IDX 5 1 4 2 3 3 2 4 1 5 10 6 9 7 6 8 7 9 8 10
REMARK H PARENT
REMARK Flexibility Score: inf
ROOT
ATOM      1  C   UNL     1     138.726 138.851 131.873  1.00  0.00    -0.020 C 
ATOM      2  C   UNL     1     137.555 138.005 131.342  1.00  0.00     0.012 C 
ATOM      3  C   UNL     1     136.406 138.966 131.032  1.00  0.00     0.031 C 
ATOM      4  C   UNL     1     136.895 140.306 131.466  1.00  0.00    -0.074 C 
ATOM      5  C   UNL     1     136.148 141.412 131.408  1.00  0.00     0.008 C 
ATOM      6  C   UNL     1     138.290 140.303 131.980  1.00  0.00     0.021 C 
ATOM      7  C   UNL     1     138.537 139.488 133.247  1.00  0.00     0.016 C 
ENDROOT
BRANCH   1   8
ATOM      8  C   UNL     1     140.184 138.598 131.414  1.00  0.00    -0.011 C 
ATOM      9  C   UNL     1     140.489 139.305 130.086  1.00  0.00     0.008 C 
ATOM     10  C   UNL     1     140.454 137.095 131.303  1.00  0.00     0.008 C 
ENDBRANCH   1   8
TORSDOF 1
ENDMDL
MODEL 8
REMARK VINA RESULT:    -3.749      4.903      6.601
REMARK INTER + INTRA:          -4.267
REMARK INTER:                  -3.968
REMARK INTRA:                  -0.299
REMARK UNBOUND:                -0.298
REMARK SMILES C=C1CC[C@]2(C(C)C)C[C@H]12
REMARK SMILES IDX 5 1 4 2 3 3 2 4 1 5 10 6 9 7 6 8 7 9 8 10
REMARK H PARENT
REMARK Flexibility Score: inf
ROOT
ATOM      1  C   UNL     1     138.826 135.009 131.838  1.00  0.00    -0.020 C 
ATOM      2  C   UNL     1     137.986 136.164 131.264  1.00  0.00     0.012 C 
ATOM      3  C   UNL     1     138.946 137.318 130.966  1.00  0.00     0.031 C 
ATOM      4  C   UNL     1     140.276 136.848 131.447  1.00  0.00    -0.074 C 
ATOM      5  C   UNL     1     141.376 137.604 131.411  1.00  0.00     0.008 C 
ATOM      6  C   UNL     1     140.270 135.460 131.981  1.00  0.00     0.021 C 
ATOM      7  C   UNL     1     139.420 135.225 133.227  1.00  0.00     0.016 C 
ENDROOT
BRANCH   1   8
ATOM      8  C   UNL     1     138.601 133.542 131.393  1.00  0.00    -0.011 C 
ATOM      9  C   UNL     1     139.316 133.237 130.070  1.00  0.00     0.008 C 
ATOM     10  C   UNL     1     137.103 133.244 131.283  1.00  0.00     0.008 C 
ENDBRANCH   1   8
TORSDOF 1
ENDMDL
MODEL 9
REMARK VINA RESULT:    -3.719      1.176      4.009
REMARK INTER + INTRA:          -4.235
REMARK INTER:                  -3.937
REMARK INTRA:                  -0.297
REMARK UNBOUND:                -0.298
REMARK SMILES C=C1CC[C@]2(C(C)C)C[C@H]12
REMARK SMILES IDX 5 1 4 2 3 3 2 4 1 5 10 6 9 7 6 8 7 9 8 10
REMARK H PARENT
REMARK Flexibility Score: inf
ROOT
ATOM      1  C   UNL     1     134.350 134.691 130.476  1.00  0.00    -0.020 C 
ATOM      2  C   UNL     1     132.840 134.840 130.210  1.00  0.00     0.012 C 
ATOM      3  C   UNL     1     132.301 135.854 131.220  1.00  0.00     0.031 C 
ATOM      4  C   UNL     1     133.464 136.195 132.087  1.00  0.00    -0.074 C 
ATOM      5  C   UNL     1     133.381 137.019 133.135  1.00  0.00     0.008 C 
ATOM      6  C   UNL     1     134.732 135.528 131.686  1.00  0.00     0.021 C 
ATOM      7  C   UNL     1     134.747 134.005 131.780  1.00  0.00     0.016 C 
ENDROOT
BRANCH   1   8
ATOM      8  C   UNL     1     135.377 134.641 129.318  1.00  0.00    -0.011 C 
ATOM      9  C   UNL     1     136.079 135.993 129.125  1.00  0.00     0.008 C 
ATOM     10  C   UNL     1     134.696 134.194 128.022  1.00  0.00     0.008 C 
ENDBRANCH   1   8
TORSDOF 1
ENDMDL
