MODEL 1
REMARK VINA RESULT:    12.185      0.000      0.000
REMARK INTER + INTRA:          14.841
REMARK INTER:                  14.678
REMARK INTRA:                   0.162
REMARK UNBOUND:                 0.162
REMARK SMILES O=c1c(O)c(-c2ccc(O)c(O)c2)oc2cc(O)cc(O)c12
REMARK SMILES IDX 5 1 3 2 2 3 1 4 22 5 20 6 19 7 17 8 16 9 15 10 14 11 6 12
REMARK SMILES IDX 7 13 8 14 9 15 13 16 11 17 10 18 12 20 4 22 21 24 18 26
REMARK H PARENT 10 19 12 21 4 23 21 25 18 27
REMARK Flexibility Score: inf
ROOT
ATOM      1  C   UNL     1       9.400  12.475  35.257  1.00  0.00     0.180 A 
ATOM      2  C   UNL     1       9.512  12.607  36.651  1.00  0.00     0.208 A 
ATOM      3  C   UNL     1      10.779  12.821  37.215  1.00  0.00     0.238 A 
ATOM      4  O   UNL     1      10.863  13.013  38.457  1.00  0.00    -0.285 OA
ATOM      5  C   UNL     1      11.926  12.845  36.385  1.00  0.00     0.111 A 
ATOM      6  C   UNL     1      13.266  13.010  36.854  1.00  0.00     0.134 A 
ATOM      7  C   UNL     1      14.311  13.124  35.929  1.00  0.00     0.093 A 
ATOM      8  C   UNL     1      14.075  13.015  34.557  1.00  0.00     0.123 A 
ATOM      9  C   UNL     1      12.780  12.798  34.093  1.00  0.00     0.094 A 
ATOM     10  C   UNL     1      11.710  12.719  34.988  1.00  0.00     0.146 A 
ATOM     11  O   UNL     1      10.489  12.534  34.500  1.00  0.00    -0.452 OA
ENDROOT
BRANCH   1  12
ATOM     12  C   UNL     1       8.098  12.262  34.586  1.00  0.00     0.025 A 
ATOM     13  C   UNL     1       7.788  12.893  33.368  1.00  0.00     0.016 A 
ATOM     14  C   UNL     1       6.561  12.656  32.742  1.00  0.00     0.051 A 
ATOM     15  C   UNL     1       5.632  11.778  33.314  1.00  0.00     0.157 A 
ATOM     16  C   UNL     1       7.171  11.365  35.144  1.00  0.00     0.062 A 
ATOM     17  C   UNL     1       5.942  11.127  34.520  1.00  0.00     0.158 A 
BRANCH  15  18
ATOM     18  O   UNL     1       4.409  11.547  32.688  1.00  0.00    -0.504 OA
ATOM     19  H   UNL     1       3.551  11.967  33.026  1.00  0.00     0.293 HD
ENDBRANCH  15  18
BRANCH  17  20
ATOM     20  O   UNL     1       5.043  10.240  35.112  1.00  0.00    -0.504 OA
ATOM     21  H   UNL     1       5.273   9.266  35.269  1.00  0.00     0.293 HD
ENDBRANCH  17  20
ENDBRANCH   1  12
BRANCH   2  22
ATOM     22  O   UNL     1       8.378  12.505  37.461  1.00  0.00    -0.502 OA
ATOM     23  H   UNL     1       8.207  13.128  38.240  1.00  0.00     0.293 HD
ENDBRANCH   2  22
BRANCH   6  24
ATOM     24  O   UNL     1      13.624  13.042  38.204  1.00  0.00    -0.507 OA
ATOM     25  H   UNL     1      14.517  13.346  38.558  1.00  0.00     0.293 HD
ENDBRANCH   6  24
BRANCH   8  26
ATOM     26  O   UNL     1      15.125  13.112  33.646  1.00  0.00    -0.508 OA
ATOM     27  H   UNL     1      16.018  12.666  33.816  1.00  0.00     0.293 HD
ENDBRANCH   8  26
TORSDOF 6
ENDMDL
MODEL 2
REMARK VINA RESULT:    12.415      2.000      7.205
REMARK INTER + INTRA:          15.118
REMARK INTER:                  14.675
REMARK INTRA:                   0.443
REMARK UNBOUND:                 0.162
REMARK SMILES O=c1c(O)c(-c2ccc(O)c(O)c2)oc2cc(O)cc(O)c12
REMARK SMILES IDX 5 1 3 2 2 3 1 4 22 5 20 6 19 7 17 8 16 9 15 10 14 11 6 12
REMARK SMILES IDX 7 13 8 14 9 15 13 16 11 17 10 18 12 20 4 22 21 24 18 26
REMARK H PARENT 10 19 12 21 4 23 21 25 18 27
REMARK Flexibility Score: inf
ROOT
ATOM      1  C   UNL     1      11.299  12.597  36.675  1.00  0.00     0.180 A 
ATOM      2  C   UNL     1      11.629  12.850  35.333  1.00  0.00     0.208 A 
ATOM      3  C   UNL     1      10.613  12.818  34.364  1.00  0.00     0.238 A 
ATOM      4  O   UNL     1      10.901  13.118  33.176  1.00  0.00    -0.285 OA
ATOM      5  C   UNL     1       9.290  12.479  34.741  1.00  0.00     0.111 A 
ATOM      6  C   UNL     1       8.190  12.372  33.836  1.00  0.00     0.134 A 
ATOM      7  C   UNL     1       6.905  12.134  34.337  1.00  0.00     0.093 A 
ATOM      8  C   UNL     1       6.689  11.936  35.703  1.00  0.00     0.123 A 
ATOM      9  C   UNL     1       7.764  11.982  36.587  1.00  0.00     0.094 A 
ATOM     10  C   UNL     1       9.053  12.256  36.122  1.00  0.00     0.146 A 
ATOM     11  O   UNL     1      10.045  12.314  37.003  1.00  0.00    -0.452 OA
ENDROOT
BRANCH   1  12
ATOM     12  C   UNL     1      12.312  12.627  37.755  1.00  0.00     0.025 A 
ATOM     13  C   UNL     1      13.621  13.081  37.518  1.00  0.00     0.016 A 
ATOM     14  C   UNL     1      14.553  13.123  38.560  1.00  0.00     0.051 A 
ATOM     15  C   UNL     1      14.188  12.726  39.852  1.00  0.00     0.157 A 
ATOM     16  C   UNL     1      11.945  12.250  39.057  1.00  0.00     0.062 A 
ATOM     17  C   UNL     1      12.876  12.290  40.101  1.00  0.00     0.158 A 
BRANCH  15  18
ATOM     18  O   UNL     1      15.120  12.766  40.887  1.00  0.00    -0.504 OA
ATOM     19  H   UNL     1      15.765  13.540  40.991  1.00  0.00     0.293 HD
ENDBRANCH  15  18
BRANCH  17  20
ATOM     20  O   UNL     1      12.477  11.895  41.378  1.00  0.00    -0.504 OA
ATOM     21  H   UNL     1      12.860  11.072  41.831  1.00  0.00     0.293 HD
ENDBRANCH  17  20
ENDBRANCH   1  12
BRANCH   2  22
ATOM     22  O   UNL     1      12.953  13.108  34.970  1.00  0.00    -0.502 OA
ATOM     23  H   UNL     1      13.269  13.082  34.008  1.00  0.00     0.293 HD
ENDBRANCH   2  22
BRANCH   6  24
ATOM     24  O   UNL     1       8.308  12.465  32.446  1.00  0.00    -0.507 OA
ATOM     25  H   UNL     1       8.477  13.317  31.936  1.00  0.00     0.293 HD
ENDBRANCH   6  24
BRANCH   8  26
ATOM     26  O   UNL     1       5.409  11.682  36.191  1.00  0.00    -0.508 OA
ATOM     27  H   UNL     1       4.956  12.310  36.844  1.00  0.00     0.293 HD
ENDBRANCH   8  26
TORSDOF 6
ENDMDL
MODEL 3
REMARK VINA RESULT:    13.209      1.449      3.040
REMARK INTER + INTRA:          16.074
REMARK INTER:                  15.829
REMARK INTRA:                   0.245
REMARK UNBOUND:                 0.162
REMARK SMILES O=c1c(O)c(-c2ccc(O)c(O)c2)oc2cc(O)cc(O)c12
REMARK SMILES IDX 5 1 3 2 2 3 1 4 22 5 20 6 19 7 17 8 16 9 15 10 14 11 6 12
REMARK SMILES IDX 7 13 8 14 9 15 13 16 11 17 10 18 12 20 4 22 21 24 18 26
REMARK H PARENT 10 19 12 21 4 23 21 25 18 27
REMARK Flexibility Score: inf
ROOT
ATOM      1  C   UNL     1       9.188  12.257  35.746  1.00  0.00     0.180 A 
ATOM      2  C   UNL     1       9.890  12.269  34.529  1.00  0.00     0.208 A 
ATOM      3  C   UNL     1      11.281  12.463  34.548  1.00  0.00     0.238 A 
ATOM      4  O   UNL     1      11.914  12.399  33.461  1.00  0.00    -0.285 OA
ATOM      5  C   UNL     1      11.944  12.697  35.777  1.00  0.00     0.111 A 
ATOM      6  C   UNL     1      13.344  12.950  35.910  1.00  0.00     0.134 A 
ATOM      7  C   UNL     1      13.906  13.062  37.187  1.00  0.00     0.093 A 
ATOM      8  C   UNL     1      13.111  12.994  38.334  1.00  0.00     0.123 A 
ATOM      9  C   UNL     1      11.738  12.803  38.213  1.00  0.00     0.094 A 
ATOM     10  C   UNL     1      11.151  12.649  36.954  1.00  0.00     0.146 A 
ATOM     11  O   UNL     1       9.841  12.447  36.886  1.00  0.00    -0.452 OA
ENDROOT
BRANCH   1  12
ATOM     12  C   UNL     1       7.724  12.044  35.809  1.00  0.00     0.025 A 
ATOM     13  C   UNL     1       6.923  12.738  36.733  1.00  0.00     0.016 A 
ATOM     14  C   UNL     1       5.539  12.539  36.757  1.00  0.00     0.051 A 
ATOM     15  C   UNL     1       4.935  11.657  35.852  1.00  0.00     0.157 A 
ATOM     16  C   UNL     1       7.110  11.178  34.889  1.00  0.00     0.062 A 
ATOM     17  C   UNL     1       5.726  10.976  34.912  1.00  0.00     0.158 A 
BRANCH  15  18
ATOM     18  O   UNL     1       3.556  11.460  35.881  1.00  0.00    -0.504 OA
ATOM     19  H   UNL     1       3.149  10.610  36.252  1.00  0.00     0.293 HD
ENDBRANCH  15  18
BRANCH  17  20
ATOM     20  O   UNL     1       5.155  10.097  33.991  1.00  0.00    -0.504 OA
ATOM     21  H   UNL     1       5.350   9.102  34.006  1.00  0.00     0.293 HD
ENDBRANCH  17  20
ENDBRANCH   1  12
BRANCH   2  22
ATOM     22  O   UNL     1       9.207  12.113  33.320  1.00  0.00    -0.502 OA
ATOM     23  H   UNL     1       8.986  12.893  32.715  1.00  0.00     0.293 HD
ENDBRANCH   2  22
BRANCH   6  24
ATOM     24  O   UNL     1      14.214  13.125  34.830  1.00  0.00    -0.507 OA
ATOM     25  H   UNL     1      14.012  12.866  33.877  1.00  0.00     0.293 HD
ENDBRANCH   6  24
BRANCH   8  26
ATOM     26  O   UNL     1      13.678  13.124  39.600  1.00  0.00    -0.508 OA
ATOM     27  H   UNL     1      13.889  12.316  40.172  1.00  0.00     0.293 HD
ENDBRANCH   8  26
TORSDOF 6
ENDMDL
MODEL 4
REMARK VINA RESULT:    14.673      1.266      2.912
REMARK INTER + INTRA:          17.838
REMARK INTER:                  17.745
REMARK INTRA:                   0.093
REMARK UNBOUND:                 0.162
REMARK SMILES O=c1c(O)c(-c2ccc(O)c(O)c2)oc2cc(O)cc(O)c12
REMARK SMILES IDX 5 1 3 2 2 3 1 4 22 5 20 6 19 7 17 8 16 9 15 10 14 11 6 12
REMARK SMILES IDX 7 13 8 14 9 15 13 16 11 17 10 18 12 20 4 22 21 24 18 26
REMARK H PARENT 10 19 12 21 4 23 21 25 18 27
REMARK Flexibility Score: inf
ROOT
ATOM      1  C   UNL     1       9.941  12.437  34.949  1.00  0.00     0.180 A 
ATOM      2  C   UNL     1      11.057  12.584  34.108  1.00  0.00     0.208 A 
ATOM      3  C   UNL     1      12.333  12.689  34.682  1.00  0.00     0.238 A 
ATOM      4  O   UNL     1      13.335  12.744  33.921  1.00  0.00    -0.285 OA
ATOM      5  C   UNL     1      12.474  12.702  36.091  1.00  0.00     0.111 A 
ATOM      6  C   UNL     1      13.716  12.848  36.782  1.00  0.00     0.134 A 
ATOM      7  C   UNL     1      13.745  12.740  38.178  1.00  0.00     0.093 A 
ATOM      8  C   UNL     1      12.571  12.554  38.912  1.00  0.00     0.123 A 
ATOM      9  C   UNL     1      11.349  12.466  38.251  1.00  0.00     0.094 A 
ATOM     10  C   UNL     1      11.291  12.532  36.856  1.00  0.00     0.146 A 
ATOM     11  O   UNL     1      10.107  12.421  36.266  1.00  0.00    -0.452 OA
ENDROOT
BRANCH   1  12
ATOM     12  C   UNL     1       8.565  12.307  34.418  1.00  0.00     0.025 A 
ATOM     13  C   UNL     1       8.103  13.125  33.372  1.00  0.00     0.016 A 
ATOM     14  C   UNL     1       6.808  12.966  32.871  1.00  0.00     0.051 A 
ATOM     15  C   UNL     1       5.961  11.982  33.397  1.00  0.00     0.157 A 
ATOM     16  C   UNL     1       7.720  11.307  34.927  1.00  0.00     0.062 A 
ATOM     17  C   UNL     1       6.422  11.147  34.428  1.00  0.00     0.158 A 
BRANCH  15  18
ATOM     18  O   UNL     1       4.669  11.828  32.897  1.00  0.00    -0.504 OA
ATOM     19  H   UNL     1       4.155  12.608  32.505  1.00  0.00     0.293 HD
ENDBRANCH  15  18
BRANCH  17  20
ATOM     20  O   UNL     1       5.608  10.152  34.969  1.00  0.00    -0.504 OA
ATOM     21  H   UNL     1       5.898   9.590  35.761  1.00  0.00     0.293 HD
ENDBRANCH  17  20
ENDBRANCH   1  12
BRANCH   2  22
ATOM     22  O   UNL     1      10.890  12.646  32.721  1.00  0.00    -0.502 OA
ATOM     23  H   UNL     1      11.353  13.339  32.148  1.00  0.00     0.293 HD
ENDBRANCH   2  22
BRANCH   6  24
ATOM     24  O   UNL     1      14.934  13.125  36.155  1.00  0.00    -0.507 OA
ATOM     25  H   UNL     1      15.842  12.922  36.541  1.00  0.00     0.293 HD
ENDBRANCH   6  24
BRANCH   8  26
ATOM     26  O   UNL     1      12.609  12.465  40.302  1.00  0.00    -0.508 OA
ATOM     27  H   UNL     1      12.655  13.292  40.885  1.00  0.00     0.293 HD
ENDBRANCH   8  26
TORSDOF 6
ENDMDL
MODEL 5
REMARK VINA RESULT:    14.882      1.413      7.349
REMARK INTER + INTRA:          18.090
REMARK INTER:                  17.759
REMARK INTRA:                   0.331
REMARK UNBOUND:                 0.162
REMARK SMILES O=c1c(O)c(-c2ccc(O)c(O)c2)oc2cc(O)cc(O)c12
REMARK SMILES IDX 5 1 3 2 2 3 1 4 22 5 20 6 19 7 17 8 16 9 15 10 14 11 6 12
REMARK SMILES IDX 7 13 8 14 9 15 13 16 11 17 10 18 12 20 4 22 21 24 18 26
REMARK H PARENT 10 19 12 21 4 23 21 25 18 27
REMARK Flexibility Score: inf
ROOT
ATOM      1  C   UNL     1       9.344  12.421  35.335  1.00  0.00     0.180 A 
ATOM      2  C   UNL     1       9.285  12.684  33.956  1.00  0.00     0.208 A 
ATOM      3  C   UNL     1       8.076  12.476  33.274  1.00  0.00     0.238 A 
ATOM      4  O   UNL     1       8.010  12.784  32.055  1.00  0.00    -0.285 OA
ATOM      5  C   UNL     1       6.956  11.955  33.967  1.00  0.00     0.111 A 
ATOM      6  C   UNL     1       5.693  11.663  33.367  1.00  0.00     0.134 A 
ATOM      7  C   UNL     1       4.625  11.250  34.173  1.00  0.00     0.093 A 
ATOM      8  C   UNL     1       4.791  11.059  35.547  1.00  0.00     0.123 A 
ATOM      9  C   UNL     1       6.033  11.288  36.132  1.00  0.00     0.094 A 
ATOM     10  C   UNL     1       7.108  11.737  35.361  1.00  0.00     0.146 A 
ATOM     11  O   UNL     1       8.269  11.964  35.965  1.00  0.00    -0.452 OA
ENDROOT
BRANCH   1  12
ATOM     12  C   UNL     1      10.579  12.629  36.125  1.00  0.00     0.025 A 
ATOM     13  C   UNL     1      10.527  12.926  37.499  1.00  0.00     0.016 A 
ATOM     14  C   UNL     1      11.707  13.094  38.229  1.00  0.00     0.051 A 
ATOM     15  C   UNL     1      12.953  12.954  37.605  1.00  0.00     0.157 A 
ATOM     16  C   UNL     1      11.830  12.468  35.509  1.00  0.00     0.062 A 
ATOM     17  C   UNL     1      13.013  12.637  36.237  1.00  0.00     0.158 A 
BRANCH  15  18
ATOM     18  O   UNL     1      14.127  13.124  38.336  1.00  0.00    -0.504 OA
ATOM     19  H   UNL     1      14.609  12.339  38.757  1.00  0.00     0.293 HD
ENDBRANCH  15  18
BRANCH  17  20
ATOM     20  O   UNL     1      14.237  12.482  35.586  1.00  0.00    -0.504 OA
ATOM     21  H   UNL     1      14.816  11.661  35.718  1.00  0.00     0.293 HD
ENDBRANCH  17  20
ENDBRANCH   1  12
BRANCH   2  22
ATOM     22  O   UNL     1      10.423  13.125  33.274  1.00  0.00    -0.502 OA
ATOM     23  H   UNL     1      10.750  14.081  33.322  1.00  0.00     0.293 HD
ENDBRANCH   2  22
BRANCH   6  24
ATOM     24  O   UNL     1       5.444  11.734  31.993  1.00  0.00    -0.507 OA
ATOM     25  H   UNL     1       4.587  11.447  31.546  1.00  0.00     0.293 HD
ENDBRANCH   6  24
BRANCH   8  26
ATOM     26  O   UNL     1       3.726  10.632  36.338  1.00  0.00    -0.508 OA
ATOM     27  H   UNL     1       2.789  10.545  35.963  1.00  0.00     0.293 HD
ENDBRANCH   8  26
TORSDOF 6
ENDMDL
