MODEL 1
REMARK VINA RESULT:     5.203      0.000      0.000
REMARK INTER + INTRA:          12.034
REMARK INTER:                  11.896
REMARK INTRA:                   0.139
REMARK UNBOUND:                 0.139
REMARK SMILES CCCCCCCCCCCCCCCCCCCCCCCC(=O)[O-]
REMARK SMILES IDX 13 1 14 2 15 3 16 4 17 5 18 6 19 7 20 8 21 9 22 10 23 11
REMARK SMILES IDX 24 12 25 13 26 14 12 15 11 16 10 17 9 18 8 19 7 20 6 21 5 22
REMARK SMILES IDX 4 23 3 24 2 25 1 26
REMARK H PARENT
REMARK Flexibility Score: inf
ROOT
ATOM      1  C   UNL     1      36.319 103.813 265.536  1.00  0.00     0.000 C 
ENDROOT
BRANCH   1   2
ATOM      2  C   UNL     1      35.113 104.304 264.712  1.00  0.00     0.000 C 
BRANCH   2   3
ATOM      3  C   UNL     1      34.887 105.830 264.715  1.00  0.00     0.000 C 
BRANCH   3   4
ATOM      4  C   UNL     1      34.902 106.499 263.329  1.00  0.00     0.000 C 
BRANCH   4   5
ATOM      5  C   UNL     1      35.988 105.932 262.404  1.00  0.00     0.000 C 
BRANCH   5   6
ATOM      6  C   UNL     1      37.351 105.913 263.113  1.00  0.00     0.000 C 
BRANCH   6   7
ATOM      7  C   UNL     1      38.390 106.816 262.426  1.00  0.00     0.000 C 
BRANCH   7   8
ATOM      8  C   UNL     1      39.239 106.117 261.347  1.00  0.00     0.000 C 
BRANCH   8   9
ATOM      9  C   UNL     1      38.516 104.941 260.657  1.00  0.00     0.000 C 
BRANCH   9  10
ATOM     10  C   UNL     1      37.848 105.365 259.337  1.00  0.00     0.006 C 
BRANCH  10  11
ATOM     11  C   UNL     1      36.857 106.519 259.534  1.00  0.00     0.053 C 
BRANCH  11  12
ATOM     12  C   UNL     1      35.891 106.617 258.393  1.00  0.00     0.041 C 
ATOM     13  O   UNL     1      35.622 107.737 257.883  1.00  0.00    -0.550 OA
ATOM     14  O   UNL     1      35.308 105.467 257.875  1.00  0.00    -0.550 OA
ENDBRANCH  11  12
ENDBRANCH  10  11
ENDBRANCH   9  10
ENDBRANCH   8   9
ENDBRANCH   7   8
ENDBRANCH   6   7
ENDBRANCH   5   6
ENDBRANCH   4   5
ENDBRANCH   3   4
ENDBRANCH   2   3
ENDBRANCH   1   2
BRANCH   1  15
ATOM     15  C   UNL     1      35.924 102.836 266.654  1.00  0.00     0.000 C 
BRANCH  15  16
ATOM     16  C   UNL     1      34.875 103.420 267.615  1.00  0.00     0.000 C 
BRANCH  16  17
ATOM     17  C   UNL     1      35.098 104.911 267.950  1.00  0.00     0.000 C 
BRANCH  17  18
ATOM     18  C   UNL     1      35.158 105.161 269.467  1.00  0.00    -0.000 C 
BRANCH  18  19
ATOM     19  C   UNL     1      35.483 106.622 269.815  1.00  0.00    -0.000 C 
BRANCH  19  20
ATOM     20  C   UNL     1      36.826 107.087 269.226  1.00  0.00    -0.000 C 
BRANCH  20  21
ATOM     21  C   UNL     1      38.037 106.437 269.916  1.00  0.00    -0.000 C 
BRANCH  21  22
ATOM     22  C   UNL     1      37.790 106.093 271.401  1.00  0.00    -0.000 C 
BRANCH  22  23
ATOM     23  C   UNL     1      37.854 104.578 271.664  1.00  0.00    -0.000 C 
BRANCH  23  24
ATOM     24  C   UNL     1      38.850 104.208 272.775  1.00  0.00    -0.000 C 
BRANCH  24  25
ATOM     25  C   UNL     1      38.530 102.858 273.432  1.00  0.00    -0.003 C 
ATOM     26  C   UNL     1      39.807 102.147 273.874  1.00  0.00     0.004 C 
ENDBRANCH  24  25
ENDBRANCH  23  24
ENDBRANCH  22  23
ENDBRANCH  21  22
ENDBRANCH  20  21
ENDBRANCH  19  20
ENDBRANCH  18  19
ENDBRANCH  17  18
ENDBRANCH  16  17
ENDBRANCH  15  16
ENDBRANCH   1  15
TORSDOF 22
ENDMDL
MODEL 2
REMARK VINA RESULT:     5.567      2.177      3.985
REMARK INTER + INTRA:          12.865
REMARK INTER:                  11.584
REMARK INTRA:                   1.280
REMARK UNBOUND:                 0.139
REMARK SMILES CCCCCCCCCCCCCCCCCCCCCCCC(=O)[O-]
REMARK SMILES IDX 13 1 14 2 15 3 16 4 17 5 18 6 19 7 20 8 21 9 22 10 23 11
REMARK SMILES IDX 24 12 25 13 26 14 12 15 11 16 10 17 9 18 8 19 7 20 6 21 5 22
REMARK SMILES IDX 4 23 3 24 2 25 1 26
REMARK H PARENT
REMARK Flexibility Score: inf
ROOT
ATOM      1  C   UNL     1      36.585 103.904 265.581  1.00  0.00     0.000 C 
ENDROOT
BRANCH   1   2
ATOM      2  C   UNL     1      35.636 104.560 264.561  1.00  0.00     0.000 C 
BRANCH   2   3
ATOM      3  C   UNL     1      35.172 105.989 264.912  1.00  0.00     0.000 C 
BRANCH   3   4
ATOM      4  C   UNL     1      34.890 106.903 263.706  1.00  0.00     0.000 C 
BRANCH   4   5
ATOM      5  C   UNL     1      35.799 106.604 262.505  1.00  0.00     0.000 C 
BRANCH   5   6
ATOM      6  C   UNL     1      37.237 106.328 262.967  1.00  0.00     0.000 C 
BRANCH   6   7
ATOM      7  C   UNL     1      38.287 107.056 262.110  1.00  0.00     0.000 C 
BRANCH   7   8
ATOM      8  C   UNL     1      38.474 106.482 260.692  1.00  0.00     0.000 C 
BRANCH   8   9
ATOM      9  C   UNL     1      38.333 104.946 260.624  1.00  0.00     0.000 C 
BRANCH   9  10
ATOM     10  C   UNL     1      37.853 104.467 259.243  1.00  0.00     0.006 C 
BRANCH  10  11
ATOM     11  C   UNL     1      37.700 105.626 258.250  1.00  0.00     0.053 C 
BRANCH  11  12
ATOM     12  C   UNL     1      36.422 106.376 258.471  1.00  0.00     0.041 C 
ATOM     13  O   UNL     1      36.431 107.633 258.564  1.00  0.00    -0.550 OA
ATOM     14  O   UNL     1      35.217 105.690 258.546  1.00  0.00    -0.550 OA
ENDBRANCH  11  12
ENDBRANCH  10  11
ENDBRANCH   9  10
ENDBRANCH   8   9
ENDBRANCH   7   8
ENDBRANCH   6   7
ENDBRANCH   5   6
ENDBRANCH   4   5
ENDBRANCH   3   4
ENDBRANCH   2   3
ENDBRANCH   1   2
BRANCH   1  15
ATOM     15  C   UNL     1      36.016 102.613 266.187  1.00  0.00     0.000 C 
BRANCH  15  16
ATOM     16  C   UNL     1      34.877 102.875 267.189  1.00  0.00     0.000 C 
BRANCH  16  17
ATOM     17  C   UNL     1      34.883 104.300 267.780  1.00  0.00     0.000 C 
BRANCH  17  18
ATOM     18  C   UNL     1      35.331 104.315 269.253  1.00  0.00    -0.000 C 
BRANCH  18  19
ATOM     19  C   UNL     1      35.170 105.695 269.909  1.00  0.00    -0.000 C 
BRANCH  19  20
ATOM     20  C   UNL     1      36.439 106.557 269.793  1.00  0.00    -0.000 C 
BRANCH  20  21
ATOM     21  C   UNL     1      36.204 107.862 269.013  1.00  0.00    -0.000 C 
BRANCH  21  22
ATOM     22  C   UNL     1      35.208 107.712 267.843  1.00  0.00    -0.000 C 
BRANCH  22  23
ATOM     23  C   UNL     1      35.725 108.372 266.552  1.00  0.00    -0.000 C 
BRANCH  23  24
ATOM     24  C   UNL     1      34.927 109.627 266.165  1.00  0.00    -0.000 C 
BRANCH  24  25
ATOM     25  C   UNL     1      35.269 110.840 267.043  1.00  0.00    -0.003 C 
ATOM     26  C   UNL     1      34.932 110.570 268.507  1.00  0.00     0.004 C 
ENDBRANCH  24  25
ENDBRANCH  23  24
ENDBRANCH  22  23
ENDBRANCH  21  22
ENDBRANCH  20  21
ENDBRANCH  19  20
ENDBRANCH  18  19
ENDBRANCH  17  18
ENDBRANCH  16  17
ENDBRANCH  15  16
ENDBRANCH   1  15
TORSDOF 22
ENDMDL
MODEL 3
REMARK VINA RESULT:     6.415      2.244      3.997
REMARK INTER + INTRA:          14.803
REMARK INTER:                  12.112
REMARK INTRA:                   2.691
REMARK UNBOUND:                 0.139
REMARK SMILES CCCCCCCCCCCCCCCCCCCCCCCC(=O)[O-]
REMARK SMILES IDX 13 1 14 2 15 3 16 4 17 5 18 6 19 7 20 8 21 9 22 10 23 11
REMARK SMILES IDX 24 12 25 13 26 14 12 15 11 16 10 17 9 18 8 19 7 20 6 21 5 22
REMARK SMILES IDX 4 23 3 24 2 25 1 26
REMARK H PARENT
REMARK Flexibility Score: inf
ROOT
ATOM      1  C   UNL     1      34.899 107.140 266.100  1.00  0.00     0.000 C 
ENDROOT
BRANCH   1   2
ATOM      2  C   UNL     1      34.885 106.729 264.616  1.00  0.00     0.000 C 
BRANCH   2   3
ATOM      3  C   UNL     1      34.989 105.214 264.348  1.00  0.00     0.000 C 
BRANCH   3   4
ATOM      4  C   UNL     1      34.987 104.808 262.864  1.00  0.00     0.000 C 
BRANCH   4   5
ATOM      5  C   UNL     1      36.211 105.330 262.099  1.00  0.00     0.000 C 
BRANCH   5   6
ATOM      6  C   UNL     1      37.258 105.896 263.071  1.00  0.00     0.000 C 
BRANCH   6   7
ATOM      7  C   UNL     1      38.447 106.552 262.348  1.00  0.00     0.000 C 
BRANCH   7   8
ATOM      8  C   UNL     1      38.641 106.103 260.887  1.00  0.00     0.000 C 
BRANCH   8   9
ATOM      9  C   UNL     1      37.672 104.983 260.451  1.00  0.00     0.000 C 
BRANCH   9  10
ATOM     10  C   UNL     1      37.836 104.619 258.965  1.00  0.00     0.006 C 
BRANCH  10  11
ATOM     11  C   UNL     1      36.654 105.102 258.116  1.00  0.00     0.053 C 
BRANCH  11  12
ATOM     12  C   UNL     1      36.171 106.449 258.561  1.00  0.00     0.041 C 
ATOM     13  O   UNL     1      36.720 107.032 259.533  1.00  0.00    -0.550 OA
ATOM     14  O   UNL     1      35.131 107.073 257.883  1.00  0.00    -0.550 OA
ENDBRANCH  11  12
ENDBRANCH  10  11
ENDBRANCH   9  10
ENDBRANCH   8   9
ENDBRANCH   7   8
ENDBRANCH   6   7
ENDBRANCH   5   6
ENDBRANCH   4   5
ENDBRANCH   3   4
ENDBRANCH   2   3
ENDBRANCH   1   2
BRANCH   1  15
ATOM     15  C   UNL     1      35.162 108.640 266.306  1.00  0.00     0.000 C 
BRANCH  15  16
ATOM     16  C   UNL     1      35.053 109.069 267.780  1.00  0.00     0.000 C 
BRANCH  16  17
ATOM     17  C   UNL     1      36.024 108.322 268.719  1.00  0.00     0.000 C 
BRANCH  17  18
ATOM     18  C   UNL     1      35.303 107.726 269.941  1.00  0.00    -0.000 C 
BRANCH  18  19
ATOM     19  C   UNL     1      34.878 106.265 269.725  1.00  0.00    -0.000 C 
BRANCH  19  20
ATOM     20  C   UNL     1      36.074 105.333 269.466  1.00  0.00    -0.000 C 
BRANCH  20  21
ATOM     21  C   UNL     1      36.021 104.667 268.080  1.00  0.00    -0.000 C 
BRANCH  21  22
ATOM     22  C   UNL     1      34.942 103.568 267.964  1.00  0.00    -0.000 C 
BRANCH  22  23
ATOM     23  C   UNL     1      35.028 102.809 266.627  1.00  0.00    -0.000 C 
BRANCH  23  24
ATOM     24  C   UNL     1      36.473 102.466 266.230  1.00  0.00    -0.000 C 
BRANCH  24  25
ATOM     25  C   UNL     1      36.552 101.654 264.929  1.00  0.00    -0.003 C 
ATOM     26  C   UNL     1      37.536 100.496 265.065  1.00  0.00     0.004 C 
ENDBRANCH  24  25
ENDBRANCH  23  24
ENDBRANCH  22  23
ENDBRANCH  21  22
ENDBRANCH  20  21
ENDBRANCH  19  20
ENDBRANCH  18  19
ENDBRANCH  17  18
ENDBRANCH  16  17
ENDBRANCH  15  16
ENDBRANCH   1  15
TORSDOF 22
ENDMDL
MODEL 4
REMARK VINA RESULT:     7.207      2.250      3.105
REMARK INTER + INTRA:          16.614
REMARK INTER:                  15.348
REMARK INTRA:                   1.266
REMARK UNBOUND:                 0.139
REMARK SMILES CCCCCCCCCCCCCCCCCCCCCCCC(=O)[O-]
REMARK SMILES IDX 13 1 14 2 15 3 16 4 17 5 18 6 19 7 20 8 21 9 22 10 23 11
REMARK SMILES IDX 24 12 25 13 26 14 12 15 11 16 10 17 9 18 8 19 7 20 6 21 5 22
REMARK SMILES IDX 4 23 3 24 2 25 1 26
REMARK H PARENT
REMARK Flexibility Score: inf
ROOT
ATOM      1  C   UNL     1      35.694 106.748 265.202  1.00  0.00     0.000 C 
ENDROOT
BRANCH   1   2
ATOM      2  C   UNL     1      34.953 105.938 264.122  1.00  0.00     0.000 C 
BRANCH   2   3
ATOM      3  C   UNL     1      34.877 104.418 264.370  1.00  0.00     0.000 C 
BRANCH   3   4
ATOM      4  C   UNL     1      35.478 103.540 263.258  1.00  0.00     0.000 C 
BRANCH   4   5
ATOM      5  C   UNL     1      35.098 104.017 261.849  1.00  0.00     0.000 C 
BRANCH   5   6
ATOM      6  C   UNL     1      36.308 104.646 261.143  1.00  0.00     0.000 C 
BRANCH   6   7
ATOM      7  C   UNL     1      35.936 105.314 259.808  1.00  0.00     0.000 C 
BRANCH   7   8
ATOM      8  C   UNL     1      36.886 104.991 258.639  1.00  0.00     0.000 C 
BRANCH   8   9
ATOM      9  C   UNL     1      38.369 104.890 259.056  1.00  0.00     0.000 C 
BRANCH   9  10
ATOM     10  C   UNL     1      38.552 105.005 260.580  1.00  0.00     0.006 C 
BRANCH  10  11
ATOM     11  C   UNL     1      38.726 106.460 261.033  1.00  0.00     0.053 C 
BRANCH  11  12
ATOM     12  C   UNL     1      39.138 106.543 262.471  1.00  0.00     0.041 C 
ATOM     13  O   UNL     1      40.218 106.018 262.854  1.00  0.00    -0.550 OA
ATOM     14  O   UNL     1      38.343 107.225 263.384  1.00  0.00    -0.550 OA
ENDBRANCH  11  12
ENDBRANCH  10  11
ENDBRANCH   9  10
ENDBRANCH   8   9
ENDBRANCH   7   8
ENDBRANCH   6   7
ENDBRANCH   5   6
ENDBRANCH   4   5
ENDBRANCH   3   4
ENDBRANCH   2   3
ENDBRANCH   1   2
BRANCH   1  15
ATOM     15  C   UNL     1      35.187 106.459 266.624  1.00  0.00     0.000 C 
BRANCH  15  16
ATOM     16  C   UNL     1      35.008 107.735 267.465  1.00  0.00     0.000 C 
BRANCH  16  17
ATOM     17  C   UNL     1      34.875 107.469 268.979  1.00  0.00     0.000 C 
BRANCH  17  18
ATOM     18  C   UNL     1      35.292 106.036 269.355  1.00  0.00    -0.000 C 
BRANCH  18  19
ATOM     19  C   UNL     1      36.285 105.994 270.526  1.00  0.00    -0.000 C 
BRANCH  19  20
ATOM     20  C   UNL     1      37.566 106.797 270.245  1.00  0.00    -0.000 C 
BRANCH  20  21
ATOM     21  C   UNL     1      38.802 106.215 270.952  1.00  0.00    -0.000 C 
BRANCH  21  22
ATOM     22  C   UNL     1      38.683 104.706 271.261  1.00  0.00    -0.000 C 
BRANCH  22  23
ATOM     23  C   UNL     1      38.310 104.443 272.731  1.00  0.00    -0.000 C 
BRANCH  23  24
ATOM     24  C   UNL     1      39.057 103.239 273.328  1.00  0.00    -0.000 C 
BRANCH  24  25
ATOM     25  C   UNL     1      38.174 102.399 274.262  1.00  0.00    -0.003 C 
ATOM     26  C   UNL     1      38.491 102.692 275.726  1.00  0.00     0.004 C 
ENDBRANCH  24  25
ENDBRANCH  23  24
ENDBRANCH  22  23
ENDBRANCH  21  22
ENDBRANCH  20  21
ENDBRANCH  19  20
ENDBRANCH  18  19
ENDBRANCH  17  18
ENDBRANCH  16  17
ENDBRANCH  15  16
ENDBRANCH   1  15
TORSDOF 22
ENDMDL
MODEL 5
REMARK VINA RESULT:     7.659      5.467     11.603
REMARK INTER + INTRA:          17.649
REMARK INTER:                  17.885
REMARK INTRA:                  -0.237
REMARK UNBOUND:                 0.139
REMARK SMILES CCCCCCCCCCCCCCCCCCCCCCCC(=O)[O-]
REMARK SMILES IDX 13 1 14 2 15 3 16 4 17 5 18 6 19 7 20 8 21 9 22 10 23 11
REMARK SMILES IDX 24 12 25 13 26 14 12 15 11 16 10 17 9 18 8 19 7 20 6 21 5 22
REMARK SMILES IDX 4 23 3 24 2 25 1 26
REMARK H PARENT
REMARK Flexibility Score: inf
ROOT
ATOM      1  C   UNL     1      35.492 107.061 267.841  1.00  0.00     0.000 C 
ENDROOT
BRANCH   1   2
ATOM      2  C   UNL     1      34.950 106.373 269.108  1.00  0.00     0.000 C 
BRANCH   2   3
ATOM      3  C   UNL     1      36.019 105.921 270.124  1.00  0.00     0.000 C 
BRANCH   3   4
ATOM      4  C   UNL     1      37.155 106.928 270.375  1.00  0.00     0.000 C 
BRANCH   4   5
ATOM      5  C   UNL     1      38.487 106.250 270.729  1.00  0.00     0.000 C 
BRANCH   5   6
ATOM      6  C   UNL     1      38.386 105.527 272.080  1.00  0.00     0.000 C 
BRANCH   6   7
ATOM      7  C   UNL     1      38.562 104.004 271.954  1.00  0.00     0.000 C 
BRANCH   7   8
ATOM      8  C   UNL     1      38.321 103.217 273.257  1.00  0.00     0.000 C 
BRANCH   8   9
ATOM      9  C   UNL     1      39.617 102.884 274.027  1.00  0.00     0.000 C 
BRANCH   9  10
ATOM     10  C   UNL     1      40.216 101.533 273.598  1.00  0.00     0.006 C 
BRANCH  10  11
ATOM     11  C   UNL     1      41.707 101.644 273.253  1.00  0.00     0.053 C 
BRANCH  11  12
ATOM     12  C   UNL     1      42.504 100.550 273.894  1.00  0.00     0.041 C 
ATOM     13  O   UNL     1      41.961  99.446 274.169  1.00  0.00    -0.550 OA
ATOM     14  O   UNL     1      43.853 100.738 274.162  1.00  0.00    -0.550 OA
ENDBRANCH  11  12
ENDBRANCH  10  11
ENDBRANCH   9  10
ENDBRANCH   8   9
ENDBRANCH   7   8
ENDBRANCH   6   7
ENDBRANCH   5   6
ENDBRANCH   4   5
ENDBRANCH   3   4
ENDBRANCH   2   3
ENDBRANCH   1   2
BRANCH   1  15
ATOM     15  C   UNL     1      34.890 106.495 266.545  1.00  0.00     0.000 C 
BRANCH  15  16
ATOM     16  C   UNL     1      34.929 107.499 265.380  1.00  0.00     0.000 C 
BRANCH  16  17
ATOM     17  C   UNL     1      34.939 106.837 263.986  1.00  0.00     0.000 C 
BRANCH  17  18
ATOM     18  C   UNL     1      35.569 105.433 264.017  1.00  0.00    -0.000 C 
BRANCH  18  19
ATOM     19  C   UNL     1      36.267 105.067 262.698  1.00  0.00    -0.000 C 
BRANCH  19  20
ATOM     20  C   UNL     1      36.070 106.133 261.608  1.00  0.00    -0.000 C 
BRANCH  20  21
ATOM     21  C   UNL     1      37.381 106.504 260.893  1.00  0.00    -0.000 C 
BRANCH  21  22
ATOM     22  C   UNL     1      38.433 105.374 260.908  1.00  0.00    -0.000 C 
BRANCH  22  23
ATOM     23  C   UNL     1      38.214 104.362 259.769  1.00  0.00    -0.000 C 
BRANCH  23  24
ATOM     24  C   UNL     1      36.983 104.690 258.911  1.00  0.00    -0.000 C 
BRANCH  24  25
ATOM     25  C   UNL     1      37.167 105.964 258.073  1.00  0.00    -0.003 C 
ATOM     26  C   UNL     1      35.838 106.687 257.876  1.00  0.00     0.004 C 
ENDBRANCH  24  25
ENDBRANCH  23  24
ENDBRANCH  22  23
ENDBRANCH  21  22
ENDBRANCH  20  21
ENDBRANCH  19  20
ENDBRANCH  18  19
ENDBRANCH  17  18
ENDBRANCH  16  17
ENDBRANCH  15  16
ENDBRANCH   1  15
TORSDOF 22
ENDMDL
MODEL 6
REMARK VINA RESULT:     7.966      1.485      3.011
REMARK INTER + INTRA:          18.351
REMARK INTER:                  17.414
REMARK INTRA:                   0.936
REMARK UNBOUND:                 0.139
REMARK SMILES CCCCCCCCCCCCCCCCCCCCCCCC(=O)[O-]
REMARK SMILES IDX 13 1 14 2 15 3 16 4 17 5 18 6 19 7 20 8 21 9 22 10 23 11
REMARK SMILES IDX 24 12 25 13 26 14 12 15 11 16 10 17 9 18 8 19 7 20 6 21 5 22
REMARK SMILES IDX 4 23 3 24 2 25 1 26
REMARK H PARENT
REMARK Flexibility Score: inf
ROOT
ATOM      1  C   UNL     1      36.398 108.371 266.878  1.00  0.00     0.000 C 
ENDROOT
BRANCH   1   2
ATOM      2  C   UNL     1      35.963 107.839 265.499  1.00  0.00     0.000 C 
BRANCH   2   3
ATOM      3  C   UNL     1      34.875 106.746 265.524  1.00  0.00     0.000 C 
BRANCH   3   4
ATOM      4  C   UNL     1      35.366 105.339 265.907  1.00  0.00     0.000 C 
BRANCH   4   5
ATOM      5  C   UNL     1      34.953 104.265 264.891  1.00  0.00     0.000 C 
BRANCH   5   6
ATOM      6  C   UNL     1      35.063 104.802 263.456  1.00  0.00     0.000 C 
BRANCH   6   7
ATOM      7  C   UNL     1      36.436 105.430 263.160  1.00  0.00     0.000 C 
BRANCH   7   8
ATOM      8  C   UNL     1      36.644 105.865 261.696  1.00  0.00     0.000 C 
BRANCH   8   9
ATOM      9  C   UNL     1      38.006 106.544 261.441  1.00  0.00     0.000 C 
BRANCH   9  10
ATOM     10  C   UNL     1      38.926 105.684 260.556  1.00  0.00     0.006 C 
BRANCH  10  11
ATOM     11  C   UNL     1      38.144 104.633 259.759  1.00  0.00     0.053 C 
BRANCH  11  12
ATOM     12  C   UNL     1      37.060 105.259 258.936  1.00  0.00     0.041 C 
ATOM     13  O   UNL     1      36.336 104.546 258.191  1.00  0.00    -0.550 OA
ATOM     14  O   UNL     1      36.829 106.626 259.015  1.00  0.00    -0.550 OA
ENDBRANCH  11  12
ENDBRANCH  10  11
ENDBRANCH   9  10
ENDBRANCH   8   9
ENDBRANCH   7   8
ENDBRANCH   6   7
ENDBRANCH   5   6
ENDBRANCH   4   5
ENDBRANCH   3   4
ENDBRANCH   2   3
ENDBRANCH   1   2
BRANCH   1  15
ATOM     15  C   UNL     1      35.259 109.068 267.639  1.00  0.00     0.000 C 
BRANCH  15  16
ATOM     16  C   UNL     1      34.877 108.340 268.939  1.00  0.00     0.000 C 
BRANCH  16  17
ATOM     17  C   UNL     1      35.449 106.910 269.044  1.00  0.00     0.000 C 
BRANCH  17  18
ATOM     18  C   UNL     1      36.013 106.613 270.445  1.00  0.00    -0.000 C 
BRANCH  18  19
ATOM     19  C   UNL     1      37.533 106.818 270.529  1.00  0.00    -0.000 C 
BRANCH  19  20
ATOM     20  C   UNL     1      38.298 105.501 270.742  1.00  0.00    -0.000 C 
BRANCH  20  21
ATOM     21  C   UNL     1      38.223 104.996 272.193  1.00  0.00    -0.000 C 
BRANCH  21  22
ATOM     22  C   UNL     1      38.130 103.459 272.308  1.00  0.00    -0.000 C 
BRANCH  22  23
ATOM     23  C   UNL     1      38.821 102.928 273.577  1.00  0.00    -0.000 C 
BRANCH  23  24
ATOM     24  C   UNL     1      40.271 102.485 273.323  1.00  0.00    -0.000 C 
BRANCH  24  25
ATOM     25  C   UNL     1      40.522 101.025 273.728  1.00  0.00    -0.003 C 
ATOM     26  C   UNL     1      42.016 100.745 273.866  1.00  0.00     0.004 C 
ENDBRANCH  24  25
ENDBRANCH  23  24
ENDBRANCH  22  23
ENDBRANCH  21  22
ENDBRANCH  20  21
ENDBRANCH  19  20
ENDBRANCH  18  19
ENDBRANCH  17  18
ENDBRANCH  16  17
ENDBRANCH  15  16
ENDBRANCH   1  15
TORSDOF 22
ENDMDL
