MODEL 1
REMARK VINA RESULT:    -2.569      0.000      0.000
REMARK INTER + INTRA:          -5.831
REMARK INTER:                  -4.672
REMARK INTRA:                  -1.159
REMARK UNBOUND:                -1.159
REMARK SMILES CCCCCCCCCCCCCCCC(=O)[O-]
REMARK SMILES IDX 9 1 10 2 11 3 12 4 13 5 14 6 15 7 16 8 17 9 18 10 8 11 7 12
REMARK SMILES IDX 6 13 5 14 4 15 3 16 2 17 1 18
REMARK H PARENT
REMARK Flexibility Score: inf
ROOT
ATOM      1  C   UNL     1     -20.789   1.424   7.213  1.00  0.00     0.000 C 
ENDROOT
BRANCH   1   2
ATOM      2  C   UNL     1     -21.738   2.613   7.421  1.00  0.00     0.000 C 
BRANCH   2   3
ATOM      3  C   UNL     1     -22.091   2.781   8.903  1.00  0.00     0.000 C 
BRANCH   3   4
ATOM      4  C   UNL     1     -21.955   1.452   9.657  1.00  0.00     0.000 C 
BRANCH   4   5
ATOM      5  C   UNL     1     -22.728   1.491  10.984  1.00  0.00     0.000 C 
BRANCH   5   6
ATOM      6  C   UNL     1     -21.810   1.369  12.214  1.00  0.00     0.006 C 
BRANCH   6   7
ATOM      7  C   UNL     1     -21.346  -0.065  12.516  1.00  0.00     0.053 C 
BRANCH   7   8
ATOM      8  C   UNL     1     -21.492  -0.408  13.968  1.00  0.00     0.041 C 
ATOM      9  O   UNL     1     -20.485  -0.396  14.725  1.00  0.00    -0.550 OA
ATOM     10  O   UNL     1     -22.731  -0.774  14.476  1.00  0.00    -0.550 OA
ENDBRANCH   7   8
ENDBRANCH   6   7
ENDBRANCH   5   6
ENDBRANCH   4   5
ENDBRANCH   3   4
ENDBRANCH   2   3
ENDBRANCH   1   2
BRANCH   1  11
ATOM     11  C   UNL     1     -21.267   0.472   6.105  1.00  0.00     0.000 C 
BRANCH  11  12
ATOM     12  C   UNL     1     -21.803  -0.860   6.660  1.00  0.00    -0.000 C 
BRANCH  12  13
ATOM     13  C   UNL     1     -20.679  -1.787   7.149  1.00  0.00    -0.000 C 
BRANCH  13  14
ATOM     14  C   UNL     1     -20.670  -1.946   8.679  1.00  0.00    -0.000 C 
BRANCH  14  15
ATOM     15  C   UNL     1     -20.210  -3.344   9.129  1.00  0.00    -0.000 C 
BRANCH  15  16
ATOM     16  C   UNL     1     -19.865  -4.317   7.985  1.00  0.00    -0.000 C 
BRANCH  16  17
ATOM     17  C   UNL     1     -20.163  -5.798   8.278  1.00  0.00    -0.003 C 
ATOM     18  C   UNL     1     -21.647  -6.069   8.521  1.00  0.00     0.004 C 
ENDBRANCH  16  17
ENDBRANCH  15  16
ENDBRANCH  14  15
ENDBRANCH  13  14
ENDBRANCH  12  13
ENDBRANCH  11  12
ENDBRANCH   1  11
TORSDOF 14
ENDMDL
MODEL 2
REMARK VINA RESULT:    -2.486      1.732      5.541
REMARK INTER + INTRA:          -5.680
REMARK INTER:                  -4.904
REMARK INTRA:                  -0.776
REMARK UNBOUND:                -1.159
REMARK SMILES CCCCCCCCCCCCCCCC(=O)[O-]
REMARK SMILES IDX 9 1 10 2 11 3 12 4 13 5 14 6 15 7 16 8 17 9 18 10 8 11 7 12
REMARK SMILES IDX 6 13 5 14 4 15 3 16 2 17 1 18
REMARK H PARENT
REMARK Flexibility Score: inf
ROOT
ATOM      1  C   UNL     1     -21.071  -1.660   6.866  1.00  0.00     0.000 C 
ENDROOT
BRANCH   1   2
ATOM      2  C   UNL     1     -21.038  -1.521   8.394  1.00  0.00     0.000 C 
BRANCH   2   3
ATOM      3  C   UNL     1     -20.144  -2.595   9.024  1.00  0.00     0.000 C 
BRANCH   3   4
ATOM      4  C   UNL     1     -19.725  -2.200  10.446  1.00  0.00     0.000 C 
BRANCH   4   5
ATOM      5  C   UNL     1     -20.895  -1.558  11.206  1.00  0.00     0.000 C 
BRANCH   5   6
ATOM      6  C   UNL     1     -21.103  -2.166  12.605  1.00  0.00     0.006 C 
BRANCH   6   7
ATOM      7  C   UNL     1     -21.986  -1.320  13.536  1.00  0.00     0.053 C 
BRANCH   7   8
ATOM      8  C   UNL     1     -21.293  -0.070  13.986  1.00  0.00     0.041 C 
ATOM      9  O   UNL     1     -20.630  -0.064  15.056  1.00  0.00    -0.550 OA
ATOM     10  O   UNL     1     -21.409   1.096  13.241  1.00  0.00    -0.550 OA
ENDBRANCH   7   8
ENDBRANCH   6   7
ENDBRANCH   5   6
ENDBRANCH   4   5
ENDBRANCH   3   4
ENDBRANCH   2   3
ENDBRANCH   1   2
BRANCH   1  11
ATOM     11  C   UNL     1     -20.617  -0.379   6.146  1.00  0.00     0.000 C 
BRANCH  11  12
ATOM     12  C   UNL     1     -21.641   0.763   6.272  1.00  0.00    -0.000 C 
BRANCH  12  13
ATOM     13  C   UNL     1     -21.170   1.871   7.228  1.00  0.00    -0.000 C 
BRANCH  13  14
ATOM     14  C   UNL     1     -21.768   1.727   8.637  1.00  0.00    -0.000 C 
BRANCH  14  15
ATOM     15  C   UNL     1     -22.441   3.019   9.134  1.00  0.00    -0.000 C 
BRANCH  15  16
ATOM     16  C   UNL     1     -22.290   4.234   8.197  1.00  0.00    -0.000 C 
BRANCH  16  17
ATOM     17  C   UNL     1     -22.201   5.595   8.908  1.00  0.00    -0.003 C 
ATOM     18  C   UNL     1     -20.784   5.936   9.366  1.00  0.00     0.004 C 
ENDBRANCH  16  17
ENDBRANCH  15  16
ENDBRANCH  14  15
ENDBRANCH  13  14
ENDBRANCH  12  13
ENDBRANCH  11  12
ENDBRANCH   1  11
TORSDOF 14
ENDMDL
MODEL 3
REMARK VINA RESULT:    -2.243      3.368      7.333
REMARK INTER + INTRA:          -5.239
REMARK INTER:                  -3.929
REMARK INTRA:                  -1.310
REMARK UNBOUND:                -1.159
REMARK SMILES CCCCCCCCCCCCCCCC(=O)[O-]
REMARK SMILES IDX 9 1 10 2 11 3 12 4 13 5 14 6 15 7 16 8 17 9 18 10 8 11 7 12
REMARK SMILES IDX 6 13 5 14 4 15 3 16 2 17 1 18
REMARK H PARENT
REMARK Flexibility Score: inf
ROOT
ATOM      1  C   UNL     1     -20.957  -1.228  13.675  1.00  0.00     0.000 C 
ENDROOT
BRANCH   1   2
ATOM      2  C   UNL     1     -21.374  -2.107  12.488  1.00  0.00     0.000 C 
BRANCH   2   3
ATOM      3  C   UNL     1     -20.281  -2.132  11.413  1.00  0.00     0.000 C 
BRANCH   3   4
ATOM      4  C   UNL     1     -20.823  -1.646  10.063  1.00  0.00     0.000 C 
BRANCH   4   5
ATOM      5  C   UNL     1     -20.316  -2.531   8.915  1.00  0.00     0.000 C 
BRANCH   5   6
ATOM      6  C   UNL     1     -20.777  -2.039   7.532  1.00  0.00     0.006 C 
BRANCH   6   7
ATOM      7  C   UNL     1     -21.298  -0.593   7.517  1.00  0.00     0.053 C 
BRANCH   7   8
ATOM      8  C   UNL     1     -20.994   0.101   6.224  1.00  0.00     0.041 C 
ATOM      9  O   UNL     1     -21.759   1.005   5.796  1.00  0.00    -0.550 OA
ATOM     10  O   UNL     1     -19.887  -0.276   5.475  1.00  0.00    -0.550 OA
ENDBRANCH   7   8
ENDBRANCH   6   7
ENDBRANCH   5   6
ENDBRANCH   4   5
ENDBRANCH   3   4
ENDBRANCH   2   3
ENDBRANCH   1   2
BRANCH   1  11
ATOM     11  C   UNL     1     -21.880  -0.013  13.864  1.00  0.00     0.000 C 
BRANCH  11  12
ATOM     12  C   UNL     1     -21.450   1.194  13.012  1.00  0.00    -0.000 C 
BRANCH  12  13
ATOM     13  C   UNL     1     -22.457   1.515  11.897  1.00  0.00    -0.000 C 
BRANCH  13  14
ATOM     14  C   UNL     1     -21.804   1.557  10.506  1.00  0.00    -0.000 C 
BRANCH  14  15
ATOM     15  C   UNL     1     -22.704   2.211   9.443  1.00  0.00    -0.000 C 
BRANCH  15  16
ATOM     16  C   UNL     1     -21.976   3.150   8.460  1.00  0.00    -0.000 C 
BRANCH  16  17
ATOM     17  C   UNL     1     -22.556   4.572   8.370  1.00  0.00    -0.003 C 
ATOM     18  C   UNL     1     -21.638   5.629   8.983  1.00  0.00     0.004 C 
ENDBRANCH  16  17
ENDBRANCH  15  16
ENDBRANCH  14  15
ENDBRANCH  13  14
ENDBRANCH  12  13
ENDBRANCH  11  12
ENDBRANCH   1  11
TORSDOF 14
ENDMDL
MODEL 4
REMARK VINA RESULT:    -2.145      3.098      5.058
REMARK INTER + INTRA:          -5.060
REMARK INTER:                  -4.025
REMARK INTRA:                  -1.035
REMARK UNBOUND:                -1.159
REMARK SMILES CCCCCCCCCCCCCCCC(=O)[O-]
REMARK SMILES IDX 9 1 10 2 11 3 12 4 13 5 14 6 15 7 16 8 17 9 18 10 8 11 7 12
REMARK SMILES IDX 6 13 5 14 4 15 3 16 2 17 1 18
REMARK H PARENT
REMARK Flexibility Score: inf
ROOT
ATOM      1  C   UNL     1     -21.236   0.221  13.397  1.00  0.00     0.000 C 
ENDROOT
BRANCH   1   2
ATOM      2  C   UNL     1     -22.229   1.150  12.683  1.00  0.00     0.000 C 
BRANCH   2   3
ATOM      3  C   UNL     1     -21.585   1.797  11.451  1.00  0.00     0.000 C 
BRANCH   3   4
ATOM      4  C   UNL     1     -22.396   1.498  10.184  1.00  0.00     0.000 C 
BRANCH   4   5
ATOM      5  C   UNL     1     -22.257   2.635   9.161  1.00  0.00     0.000 C 
BRANCH   5   6
ATOM      6  C   UNL     1     -21.662   2.164   7.821  1.00  0.00     0.006 C 
BRANCH   6   7
ATOM      7  C   UNL     1     -21.133   0.721   7.837  1.00  0.00     0.053 C 
BRANCH   7   8
ATOM      8  C   UNL     1     -21.175   0.092   6.478  1.00  0.00     0.041 C 
ATOM      9  O   UNL     1     -21.810   0.648   5.542  1.00  0.00    -0.550 OA
ATOM     10  O   UNL     1     -20.542  -1.123   6.253  1.00  0.00    -0.550 OA
ENDBRANCH   7   8
ENDBRANCH   6   7
ENDBRANCH   5   6
ENDBRANCH   4   5
ENDBRANCH   3   4
ENDBRANCH   2   3
ENDBRANCH   1   2
BRANCH   1  11
ATOM     11  C   UNL     1     -21.806  -1.187  13.628  1.00  0.00     0.000 C 
BRANCH  11  12
ATOM     12  C   UNL     1     -21.460  -2.159  12.486  1.00  0.00    -0.000 C 
BRANCH  12  13
ATOM     13  C   UNL     1     -20.403  -1.586  11.528  1.00  0.00    -0.000 C 
BRANCH  13  14
ATOM     14  C   UNL     1     -20.717  -1.891  10.054  1.00  0.00    -0.000 C 
BRANCH  14  15
ATOM     15  C   UNL     1     -19.782  -2.954   9.452  1.00  0.00    -0.000 C 
BRANCH  15  16
ATOM     16  C   UNL     1     -20.285  -3.600   8.145  1.00  0.00    -0.000 C 
BRANCH  16  17
ATOM     17  C   UNL     1     -19.904  -5.079   7.963  1.00  0.00    -0.003 C 
ATOM     18  C   UNL     1     -21.051  -6.034   8.292  1.00  0.00     0.004 C 
ENDBRANCH  16  17
ENDBRANCH  15  16
ENDBRANCH  14  15
ENDBRANCH  13  14
ENDBRANCH  12  13
ENDBRANCH  11  12
ENDBRANCH   1  11
TORSDOF 14
ENDMDL
MODEL 5
REMARK VINA RESULT:    -1.980      0.774      1.595
REMARK INTER + INTRA:          -4.760
REMARK INTER:                  -3.759
REMARK INTRA:                  -1.001
REMARK UNBOUND:                -1.159
REMARK SMILES CCCCCCCCCCCCCCCC(=O)[O-]
REMARK SMILES IDX 9 1 10 2 11 3 12 4 13 5 14 6 15 7 16 8 17 9 18 10 8 11 7 12
REMARK SMILES IDX 6 13 5 14 4 15 3 16 2 17 1 18
REMARK H PARENT
REMARK Flexibility Score: inf
ROOT
ATOM      1  C   UNL     1     -21.463   2.546   7.459  1.00  0.00     0.000 C 
ENDROOT
BRANCH   1   2
ATOM      2  C   UNL     1     -22.150   2.482   8.830  1.00  0.00     0.000 C 
BRANCH   2   3
ATOM      3  C   UNL     1     -21.852   1.153   9.533  1.00  0.00     0.000 C 
BRANCH   3   4
ATOM      4  C   UNL     1     -22.386   1.157  10.970  1.00  0.00     0.000 C 
BRANCH   4   5
ATOM      5  C   UNL     1     -21.424   1.897  11.912  1.00  0.00     0.000 C 
BRANCH   5   6
ATOM      6  C   UNL     1     -21.726   1.636  13.399  1.00  0.00     0.006 C 
BRANCH   6   7
ATOM      7  C   UNL     1     -20.942   0.462  14.007  1.00  0.00     0.053 C 
BRANCH   7   8
ATOM      8  C   UNL     1     -21.571  -0.860  13.686  1.00  0.00     0.041 C 
ATOM      9  O   UNL     1     -22.497  -1.312  14.411  1.00  0.00    -0.550 OA
ATOM     10  O   UNL     1     -21.112  -1.606  12.610  1.00  0.00    -0.550 OA
ENDBRANCH   7   8
ENDBRANCH   6   7
ENDBRANCH   5   6
ENDBRANCH   4   5
ENDBRANCH   3   4
ENDBRANCH   2   3
ENDBRANCH   1   2
BRANCH   1  11
ATOM     11  C   UNL     1     -20.728   1.243   7.105  1.00  0.00     0.000 C 
BRANCH  11  12
ATOM     12  C   UNL     1     -21.478   0.409   6.050  1.00  0.00    -0.000 C 
BRANCH  12  13
ATOM     13  C   UNL     1     -21.887  -0.975   6.577  1.00  0.00    -0.000 C 
BRANCH  13  14
ATOM     14  C   UNL     1     -20.683  -1.803   7.056  1.00  0.00    -0.000 C 
BRANCH  14  15
ATOM     15  C   UNL     1     -20.631  -1.950   8.586  1.00  0.00    -0.000 C 
BRANCH  15  16
ATOM     16  C   UNL     1     -20.262  -3.359   9.094  1.00  0.00    -0.000 C 
BRANCH  16  17
ATOM     17  C   UNL     1     -19.834  -4.352   7.999  1.00  0.00    -0.003 C 
ATOM     18  C   UNL     1     -20.412  -5.751   8.205  1.00  0.00     0.004 C 
ENDBRANCH  16  17
ENDBRANCH  15  16
ENDBRANCH  14  15
ENDBRANCH  13  14
ENDBRANCH  12  13
ENDBRANCH  11  12
ENDBRANCH   1  11
TORSDOF 14
ENDMDL
MODEL 6
REMARK VINA RESULT:    -1.891      1.937      5.417
REMARK INTER + INTRA:          -4.597
REMARK INTER:                  -3.656
REMARK INTRA:                  -0.941
REMARK UNBOUND:                -1.159
REMARK SMILES CCCCCCCCCCCCCCCC(=O)[O-]
REMARK SMILES IDX 9 1 10 2 11 3 12 4 13 5 14 6 15 7 16 8 17 9 18 10 8 11 7 12
REMARK SMILES IDX 6 13 5 14 4 15 3 16 2 17 1 18
REMARK H PARENT
REMARK Flexibility Score: inf
ROOT
ATOM      1  C   UNL     1     -20.988  -1.396   8.415  1.00  0.00     0.000 C 
ENDROOT
BRANCH   1   2
ATOM      2  C   UNL     1     -20.164  -2.494   9.102  1.00  0.00     0.000 C 
BRANCH   2   3
ATOM      3  C   UNL     1     -19.965  -2.181  10.590  1.00  0.00     0.000 C 
BRANCH   3   4
ATOM      4  C   UNL     1     -21.300  -2.215  11.344  1.00  0.00     0.000 C 
BRANCH   4   5
ATOM      5  C   UNL     1     -21.077  -2.137  12.862  1.00  0.00     0.000 C 
BRANCH   5   6
ATOM      6  C   UNL     1     -21.992  -1.107  13.548  1.00  0.00     0.006 C 
BRANCH   6   7
ATOM      7  C   UNL     1     -21.287   0.199  13.947  1.00  0.00     0.053 C 
BRANCH   7   8
ATOM      8  C   UNL     1     -21.573   1.310  12.982  1.00  0.00     0.041 C 
ATOM      9  O   UNL     1     -22.203   1.076  11.917  1.00  0.00    -0.550 OA
ATOM     10  O   UNL     1     -21.114   2.594  13.243  1.00  0.00    -0.550 OA
ENDBRANCH   7   8
ENDBRANCH   6   7
ENDBRANCH   5   6
ENDBRANCH   4   5
ENDBRANCH   3   4
ENDBRANCH   2   3
ENDBRANCH   1   2
BRANCH   1  11
ATOM     11  C   UNL     1     -21.030  -1.558   6.887  1.00  0.00     0.000 C 
BRANCH  11  12
ATOM     12  C   UNL     1     -21.171  -0.211   6.155  1.00  0.00    -0.000 C 
BRANCH  12  13
ATOM     13  C   UNL     1     -20.440   0.931   6.879  1.00  0.00    -0.000 C 
BRANCH  13  14
ATOM     14  C   UNL     1     -21.382   2.085   7.260  1.00  0.00    -0.000 C 
BRANCH  14  15
ATOM     15  C   UNL     1     -21.950   1.946   8.684  1.00  0.00    -0.000 C 
BRANCH  15  16
ATOM     16  C   UNL     1     -22.505   3.248   9.295  1.00  0.00    -0.000 C 
BRANCH  16  17
ATOM     17  C   UNL     1     -22.520   4.457   8.343  1.00  0.00    -0.003 C 
ATOM     18  C   UNL     1     -21.666   5.621   8.845  1.00  0.00     0.004 C 
ENDBRANCH  16  17
ENDBRANCH  15  16
ENDBRANCH  14  15
ENDBRANCH  13  14
ENDBRANCH  12  13
ENDBRANCH  11  12
ENDBRANCH   1  11
TORSDOF 14
ENDMDL
MODEL 7
REMARK VINA RESULT:    -1.758      3.318      5.710
REMARK INTER + INTRA:          -4.356
REMARK INTER:                  -3.617
REMARK INTRA:                  -0.740
REMARK UNBOUND:                -1.159
REMARK SMILES CCCCCCCCCCCCCCCC(=O)[O-]
REMARK SMILES IDX 9 1 10 2 11 3 12 4 13 5 14 6 15 7 16 8 17 9 18 10 8 11 7 12
REMARK SMILES IDX 6 13 5 14 4 15 3 16 2 17 1 18
REMARK H PARENT
REMARK Flexibility Score: inf
ROOT
ATOM      1  C   UNL     1     -20.846  -1.646   7.036  1.00  0.00     0.000 C 
ENDROOT
BRANCH   1   2
ATOM      2  C   UNL     1     -20.808  -0.415   6.118  1.00  0.00     0.000 C 
BRANCH   2   3
ATOM      3  C   UNL     1     -20.324   0.824   6.882  1.00  0.00     0.000 C 
BRANCH   3   4
ATOM      4  C   UNL     1     -21.480   1.799   7.139  1.00  0.00     0.000 C 
BRANCH   4   5
ATOM      5  C   UNL     1     -21.820   1.866   8.635  1.00  0.00     0.000 C 
BRANCH   5   6
ATOM      6  C   UNL     1     -22.537   3.171   9.027  1.00  0.00     0.006 C 
BRANCH   6   7
ATOM      7  C   UNL     1     -22.270   4.349   8.077  1.00  0.00     0.053 C 
BRANCH   7   8
ATOM      8  C   UNL     1     -21.935   5.606   8.820  1.00  0.00     0.041 C 
ATOM      9  O   UNL     1     -22.854   6.373   9.213  1.00  0.00    -0.550 OA
ATOM     10  O   UNL     1     -20.609   5.948   9.049  1.00  0.00    -0.550 OA
ENDBRANCH   7   8
ENDBRANCH   6   7
ENDBRANCH   5   6
ENDBRANCH   4   5
ENDBRANCH   3   4
ENDBRANCH   2   3
ENDBRANCH   1   2
BRANCH   1  11
ATOM     11  C   UNL     1     -20.993  -1.273   8.520  1.00  0.00     0.000 C 
BRANCH  11  12
ATOM     12  C   UNL     1     -20.513  -2.393   9.460  1.00  0.00    -0.000 C 
BRANCH  12  13
ATOM     13  C   UNL     1     -20.168  -1.872  10.865  1.00  0.00    -0.000 C 
BRANCH  13  14
ATOM     14  C   UNL     1     -21.237  -2.238  11.908  1.00  0.00    -0.000 C 
BRANCH  14  15
ATOM     15  C   UNL     1     -20.958  -1.620  13.289  1.00  0.00    -0.000 C 
BRANCH  15  16
ATOM     16  C   UNL     1     -21.985  -0.568  13.752  1.00  0.00    -0.000 C 
BRANCH  16  17
ATOM     17  C   UNL     1     -21.541   0.895  13.577  1.00  0.00    -0.003 C 
ATOM     18  C   UNL     1     -21.919   1.472  12.213  1.00  0.00     0.004 C 
ENDBRANCH  16  17
ENDBRANCH  15  16
ENDBRANCH  14  15
ENDBRANCH  13  14
ENDBRANCH  12  13
ENDBRANCH  11  12
ENDBRANCH   1  11
TORSDOF 14
ENDMDL
MODEL 8
REMARK VINA RESULT:    -1.752      2.959      5.708
REMARK INTER + INTRA:          -4.345
REMARK INTER:                  -3.266
REMARK INTRA:                  -1.080
REMARK UNBOUND:                -1.159
REMARK SMILES CCCCCCCCCCCCCCCC(=O)[O-]
REMARK SMILES IDX 9 1 10 2 11 3 12 4 13 5 14 6 15 7 16 8 17 9 18 10 8 11 7 12
REMARK SMILES IDX 6 13 5 14 4 15 3 16 2 17 1 18
REMARK H PARENT
REMARK Flexibility Score: inf
ROOT
ATOM      1  C   UNL     1     -21.413   1.787   6.914  1.00  0.00     0.000 C 
ENDROOT
BRANCH   1   2
ATOM      2  C   UNL     1     -20.269   0.763   6.928  1.00  0.00     0.000 C 
BRANCH   2   3
ATOM      3  C   UNL     1     -20.628  -0.471   6.092  1.00  0.00     0.000 C 
BRANCH   3   4
ATOM      4  C   UNL     1     -21.309  -1.542   6.954  1.00  0.00     0.000 C 
BRANCH   4   5
ATOM      5  C   UNL     1     -20.602  -1.690   8.309  1.00  0.00     0.000 C 
BRANCH   5   6
ATOM      6  C   UNL     1     -20.596  -3.140   8.825  1.00  0.00     0.006 C 
BRANCH   6   7
ATOM      7  C   UNL     1     -19.888  -4.139   7.895  1.00  0.00     0.053 C 
BRANCH   7   8
ATOM      8  C   UNL     1     -20.316  -5.551   8.156  1.00  0.00     0.041 C 
ATOM      9  O   UNL     1     -19.548  -6.508   7.872  1.00  0.00    -0.550 OA
ATOM     10  O   UNL     1     -21.575  -5.810   8.681  1.00  0.00    -0.550 OA
ENDBRANCH   7   8
ENDBRANCH   6   7
ENDBRANCH   5   6
ENDBRANCH   4   5
ENDBRANCH   3   4
ENDBRANCH   2   3
ENDBRANCH   1   2
BRANCH   1  11
ATOM     11  C   UNL     1     -21.775   2.287   8.322  1.00  0.00     0.000 C 
BRANCH  11  12
ATOM     12  C   UNL     1     -21.746   1.162   9.373  1.00  0.00    -0.000 C 
BRANCH  12  13
ATOM     13  C   UNL     1     -22.557   1.513  10.631  1.00  0.00    -0.000 C 
BRANCH  13  14
ATOM     14  C   UNL     1     -21.662   1.833  11.840  1.00  0.00    -0.000 C 
BRANCH  14  15
ATOM     15  C   UNL     1     -22.119   1.121  13.125  1.00  0.00    -0.000 C 
BRANCH  15  16
ATOM     16  C   UNL     1     -21.170   0.016  13.631  1.00  0.00    -0.000 C 
BRANCH  16  17
ATOM     17  C   UNL     1     -21.647  -1.422  13.363  1.00  0.00    -0.003 C 
ATOM     18  C   UNL     1     -21.033  -2.027  12.101  1.00  0.00     0.004 C 
ENDBRANCH  16  17
ENDBRANCH  15  16
ENDBRANCH  14  15
ENDBRANCH  13  14
ENDBRANCH  12  13
ENDBRANCH  11  12
ENDBRANCH   1  11
TORSDOF 14
ENDMDL
MODEL 9
REMARK VINA RESULT:    -1.687      3.204      5.636
REMARK INTER + INTRA:          -4.227
REMARK INTER:                  -2.958
REMARK INTRA:                  -1.269
REMARK UNBOUND:                -1.159
REMARK SMILES CCCCCCCCCCCCCCCC(=O)[O-]
REMARK SMILES IDX 9 1 10 2 11 3 12 4 13 5 14 6 15 7 16 8 17 9 18 10 8 11 7 12
REMARK SMILES IDX 6 13 5 14 4 15 3 16 2 17 1 18
REMARK H PARENT
REMARK Flexibility Score: inf
ROOT
ATOM      1  C   UNL     1     -21.841  -0.382  13.748  1.00  0.00     0.000 C 
ENDROOT
BRANCH   1   2
ATOM      2  C   UNL     1     -21.419   0.850  12.935  1.00  0.00     0.000 C 
BRANCH   2   3
ATOM      3  C   UNL     1     -22.361   1.074  11.747  1.00  0.00     0.000 C 
BRANCH   3   4
ATOM      4  C   UNL     1     -21.816   2.155  10.806  1.00  0.00     0.000 C 
BRANCH   4   5
ATOM      5  C   UNL     1     -22.090   1.796   9.338  1.00  0.00     0.000 C 
BRANCH   5   6
ATOM      6  C   UNL     1     -21.917   2.995   8.388  1.00  0.00     0.006 C 
BRANCH   6   7
ATOM      7  C   UNL     1     -22.800   4.205   8.729  1.00  0.00     0.053 C 
BRANCH   7   8
ATOM      8  C   UNL     1     -22.014   5.480   8.775  1.00  0.00     0.041 C 
ATOM      9  O   UNL     1     -22.291   6.424   7.989  1.00  0.00    -0.550 OA
ATOM     10  O   UNL     1     -20.954   5.612   9.663  1.00  0.00    -0.550 OA
ENDBRANCH   7   8
ENDBRANCH   6   7
ENDBRANCH   5   6
ENDBRANCH   4   5
ENDBRANCH   3   4
ENDBRANCH   2   3
ENDBRANCH   1   2
BRANCH   1  11
ATOM     11  C   UNL     1     -21.018  -1.632  13.397  1.00  0.00     0.000 C 
BRANCH  11  12
ATOM     12  C   UNL     1     -21.403  -2.229  12.032  1.00  0.00    -0.000 C 
BRANCH  12  13
ATOM     13  C   UNL     1     -20.305  -2.032  10.974  1.00  0.00    -0.000 C 
BRANCH  13  14
ATOM     14  C   UNL     1     -20.842  -1.406   9.676  1.00  0.00    -0.000 C 
BRANCH  14  15
ATOM     15  C   UNL     1     -20.473  -2.222   8.425  1.00  0.00    -0.000 C 
BRANCH  15  16
ATOM     16  C   UNL     1     -21.057  -1.686   7.102  1.00  0.00    -0.000 C 
BRANCH  16  17
ATOM     17  C   UNL     1     -20.603  -0.266   6.719  1.00  0.00    -0.003 C 
ATOM     18  C   UNL     1     -21.641   0.488   5.889  1.00  0.00     0.004 C 
ENDBRANCH  16  17
ENDBRANCH  15  16
ENDBRANCH  14  15
ENDBRANCH  13  14
ENDBRANCH  12  13
ENDBRANCH  11  12
ENDBRANCH   1  11
TORSDOF 14
ENDMDL
