MODEL 1
REMARK VINA RESULT:    -7.275      0.000      0.000
REMARK INTER + INTRA:          -8.814
REMARK INTER:                  -8.550
REMARK INTRA:                  -0.263
REMARK UNBOUND:                -0.263
REMARK SMILES O=c1cc(-c2ccc(O)c(O)c2)oc2cc(O)cc(O)c12
REMARK SMILES IDX 4 1 3 2 2 3 1 4 21 5 19 6 18 7 16 8 15 9 14 10 13 11 5 12
REMARK SMILES IDX 6 13 7 14 8 15 12 16 10 17 9 18 11 20 20 22 17 24
REMARK H PARENT 9 19 11 21 20 23 17 25
REMARK Flexibility Score: inf
ROOT
ATOM      1  C   UNL     1      31.379 -91.977  37.753  1.00  0.00     0.138 A 
ATOM      2  C   UNL     1      30.136 -92.567  37.484  1.00  0.00     0.100 A 
ATOM      3  C   UNL     1      29.974 -93.943  37.653  1.00  0.00     0.197 A 
ATOM      4  O   UNL     1      28.832 -94.434  37.463  1.00  0.00    -0.289 OA
ATOM      5  C   UNL     1      31.073 -94.735  38.064  1.00  0.00     0.107 A 
ATOM      6  C   UNL     1      31.036 -96.152  38.229  1.00  0.00     0.134 A 
ATOM      7  C   UNL     1      32.153 -96.815  38.753  1.00  0.00     0.093 A 
ATOM      8  C   UNL     1      33.323 -96.123  39.059  1.00  0.00     0.123 A 
ATOM      9  C   UNL     1      33.390 -94.745  38.850  1.00  0.00     0.094 A 
ATOM     10  C   UNL     1      32.281 -94.050  38.362  1.00  0.00     0.146 A 
ATOM     11  O   UNL     1      32.379 -92.736  38.191  1.00  0.00    -0.456 OA
ENDROOT
BRANCH   1  12
ATOM     12  C   UNL     1      31.606 -90.519  37.589  1.00  0.00     0.021 A 
ATOM     13  C   UNL     1      32.561 -90.016  36.684  1.00  0.00     0.016 A 
ATOM     14  C   UNL     1      32.762 -88.639  36.558  1.00  0.00     0.051 A 
ATOM     15  C   UNL     1      32.019 -87.743  37.337  1.00  0.00     0.157 A 
ATOM     16  C   UNL     1      30.874 -89.611  38.377  1.00  0.00     0.062 A 
ATOM     17  C   UNL     1      31.076 -88.229  38.249  1.00  0.00     0.158 A 
BRANCH  15  18
ATOM     18  O   UNL     1      32.216 -86.368  37.212  1.00  0.00    -0.504 OA
ATOM     19  H   UNL     1      31.628 -85.801  36.613  1.00  0.00     0.293 HD
ENDBRANCH  15  18
BRANCH  17  20
ATOM     20  O   UNL     1      30.342 -87.334  39.025  1.00  0.00    -0.504 OA
ATOM     21  H   UNL     1      29.679 -87.656  39.721  1.00  0.00     0.293 HD
ENDBRANCH  17  20
ENDBRANCH   1  12
BRANCH   6  22
ATOM     22  O   UNL     1      29.944 -96.952  37.875  1.00  0.00    -0.507 OA
ATOM     23  H   UNL     1      29.674 -97.170  36.928  1.00  0.00     0.293 HD
ENDBRANCH   6  22
BRANCH   8  24
ATOM     24  O   UNL     1      34.420 -96.818  39.563  1.00  0.00    -0.508 OA
ATOM     25  H   UNL     1      34.977 -97.428  38.977  1.00  0.00     0.293 HD
ENDBRANCH   8  24
TORSDOF 5
ENDMDL
MODEL 2
REMARK VINA RESULT:    -7.225      1.228      2.815
REMARK INTER + INTRA:          -8.756
REMARK INTER:                  -8.484
REMARK INTRA:                  -0.272
REMARK UNBOUND:                -0.263
REMARK SMILES O=c1cc(-c2ccc(O)c(O)c2)oc2cc(O)cc(O)c12
REMARK SMILES IDX 4 1 3 2 2 3 1 4 21 5 19 6 18 7 16 8 15 9 14 10 13 11 5 12
REMARK SMILES IDX 6 13 7 14 8 15 12 16 10 17 9 18 11 20 20 22 17 24
REMARK H PARENT 9 19 11 21 20 23 17 25
REMARK Flexibility Score: inf
ROOT
ATOM      1  C   UNL     1      31.468 -92.017  37.805  1.00  0.00     0.138 A 
ATOM      2  C   UNL     1      32.508 -92.838  38.262  1.00  0.00     0.100 A 
ATOM      3  C   UNL     1      32.284 -94.205  38.431  1.00  0.00     0.197 A 
ATOM      4  O   UNL     1      33.253 -94.926  38.782  1.00  0.00    -0.289 OA
ATOM      5  C   UNL     1      31.002 -94.746  38.169  1.00  0.00     0.107 A 
ATOM      6  C   UNL     1      30.648 -96.117  38.345  1.00  0.00     0.134 A 
ATOM      7  C   UNL     1      29.381 -96.559  37.943  1.00  0.00     0.093 A 
ATOM      8  C   UNL     1      28.438 -95.671  37.430  1.00  0.00     0.123 A 
ATOM      9  C   UNL     1      28.755 -94.318  37.304  1.00  0.00     0.094 A 
ATOM     10  C   UNL     1      30.021 -93.852  37.663  1.00  0.00     0.146 A 
ATOM     11  O   UNL     1      30.289 -92.559  37.514  1.00  0.00    -0.456 OA
ENDROOT
BRANCH   1  12
ATOM     12  C   UNL     1      31.650 -90.556  37.609  1.00  0.00     0.021 A 
ATOM     13  C   UNL     1      32.539 -90.044  36.645  1.00  0.00     0.016 A 
ATOM     14  C   UNL     1      32.699 -88.664  36.489  1.00  0.00     0.051 A 
ATOM     15  C   UNL     1      31.980 -87.775  37.297  1.00  0.00     0.157 A 
ATOM     16  C   UNL     1      30.942 -89.654  38.425  1.00  0.00     0.062 A 
ATOM     17  C   UNL     1      31.103 -88.270  38.267  1.00  0.00     0.158 A 
BRANCH  15  18
ATOM     18  O   UNL     1      32.137 -86.398  37.143  1.00  0.00    -0.504 OA
ATOM     19  H   UNL     1      31.544 -85.864  36.518  1.00  0.00     0.293 HD
ENDBRANCH  15  18
BRANCH  17  20
ATOM     20  O   UNL     1      30.392 -87.381  39.072  1.00  0.00    -0.504 OA
ATOM     21  H   UNL     1      29.385 -87.289  39.000  1.00  0.00     0.293 HD
ENDBRANCH  17  20
ENDBRANCH   1  12
BRANCH   6  22
ATOM     22  O   UNL     1      31.487 -97.072  38.927  1.00  0.00    -0.507 OA
ATOM     23  H   UNL     1      31.232 -97.670  39.698  1.00  0.00     0.293 HD
ENDBRANCH   6  22
BRANCH   8  24
ATOM     24  O   UNL     1      27.182 -96.143  37.055  1.00  0.00    -0.508 OA
ATOM     25  H   UNL     1      27.059 -96.740  36.245  1.00  0.00     0.293 HD
ENDBRANCH   8  24
TORSDOF 5
ENDMDL
MODEL 3
REMARK VINA RESULT:    -5.736      9.218     10.809
REMARK INTER + INTRA:          -7.005
REMARK INTER:                  -6.724
REMARK INTRA:                  -0.281
REMARK UNBOUND:                -0.263
REMARK SMILES O=c1cc(-c2ccc(O)c(O)c2)oc2cc(O)cc(O)c12
REMARK SMILES IDX 4 1 3 2 2 3 1 4 21 5 19 6 18 7 16 8 15 9 14 10 13 11 5 12
REMARK SMILES IDX 6 13 7 14 8 15 12 16 10 17 9 18 11 20 20 22 17 24
REMARK H PARENT 9 19 11 21 20 23 17 25
REMARK Flexibility Score: inf
ROOT
ATOM      1  C   UNL     1      37.943 -94.825  31.254  1.00  0.00     0.138 A 
ATOM      2  C   UNL     1      38.608 -95.427  30.177  1.00  0.00     0.100 A 
ATOM      3  C   UNL     1      37.948 -95.581  28.957  1.00  0.00     0.197 A 
ATOM      4  O   UNL     1      38.590 -96.068  27.991  1.00  0.00    -0.289 OA
ATOM      5  C   UNL     1      36.604 -95.157  28.827  1.00  0.00     0.107 A 
ATOM      6  C   UNL     1      35.818 -95.300  27.644  1.00  0.00     0.134 A 
ATOM      7  C   UNL     1      34.536 -94.738  27.595  1.00  0.00     0.093 A 
ATOM      8  C   UNL     1      33.990 -94.092  28.703  1.00  0.00     0.123 A 
ATOM      9  C   UNL     1      34.729 -93.993  29.883  1.00  0.00     0.094 A 
ATOM     10  C   UNL     1      36.023 -94.513  29.952  1.00  0.00     0.146 A 
ATOM     11  O   UNL     1      36.700 -94.386  31.088  1.00  0.00    -0.456 OA
ENDROOT
BRANCH   1  12
ATOM     12  C   UNL     1      38.598 -94.638  32.574  1.00  0.00     0.021 A 
ATOM     13  C   UNL     1      39.822 -93.954  32.702  1.00  0.00     0.016 A 
ATOM     14  C   UNL     1      40.421 -93.801  33.956  1.00  0.00     0.051 A 
ATOM     15  C   UNL     1      39.812 -94.334  35.099  1.00  0.00     0.157 A 
ATOM     16  C   UNL     1      38.000 -95.180  33.726  1.00  0.00     0.062 A 
ATOM     17  C   UNL     1      38.602 -95.026  34.984  1.00  0.00     0.158 A 
BRANCH  15  18
ATOM     18  O   UNL     1      40.406 -94.182  36.351  1.00  0.00    -0.504 OA
ATOM     19  H   UNL     1      41.317 -93.751  36.456  1.00  0.00     0.293 HD
ENDBRANCH  15  18
BRANCH  17  20
ATOM     20  O   UNL     1      38.000 -95.558  36.123  1.00  0.00    -0.504 OA
ATOM     21  H   UNL     1      38.491 -96.204  36.730  1.00  0.00     0.293 HD
ENDBRANCH  17  20
ENDBRANCH   1  12
BRANCH   6  22
ATOM     22  O   UNL     1      36.236 -96.001  26.508  1.00  0.00    -0.507 OA
ATOM     23  H   UNL     1      35.679 -96.141  25.680  1.00  0.00     0.293 HD
ENDBRANCH   6  22
BRANCH   8  24
ATOM     24  O   UNL     1      32.706 -93.558  28.623  1.00  0.00    -0.508 OA
ATOM     25  H   UNL     1      32.497 -92.765  28.027  1.00  0.00     0.293 HD
ENDBRANCH   8  24
TORSDOF 5
ENDMDL
MODEL 4
REMARK VINA RESULT:    -5.585      8.752     10.926
REMARK INTER + INTRA:          -6.828
REMARK INTER:                  -6.512
REMARK INTRA:                  -0.316
REMARK UNBOUND:                -0.263
REMARK SMILES O=c1cc(-c2ccc(O)c(O)c2)oc2cc(O)cc(O)c12
REMARK SMILES IDX 4 1 3 2 2 3 1 4 21 5 19 6 18 7 16 8 15 9 14 10 13 11 5 12
REMARK SMILES IDX 6 13 7 14 8 15 12 16 10 17 9 18 11 20 20 22 17 24
REMARK H PARENT 9 19 11 21 20 23 17 25
REMARK Flexibility Score: inf
ROOT
ATOM      1  C   UNL     1      40.878 -94.750  35.841  1.00  0.00     0.138 A 
ATOM      2  C   UNL     1      42.000 -94.956  35.026  1.00  0.00     0.100 A 
ATOM      3  C   UNL     1      41.849 -94.988  33.639  1.00  0.00     0.197 A 
ATOM      4  O   UNL     1      42.882 -95.112  32.932  1.00  0.00    -0.289 OA
ATOM      5  C   UNL     1      40.562 -94.842  33.068  1.00  0.00     0.107 A 
ATOM      6  C   UNL     1      40.283 -94.898  31.669  1.00  0.00     0.134 A 
ATOM      7  C   UNL     1      38.987 -94.624  31.213  1.00  0.00     0.093 A 
ATOM      8  C   UNL     1      37.950 -94.358  32.106  1.00  0.00     0.123 A 
ATOM      9  C   UNL     1      38.200 -94.354  33.479  1.00  0.00     0.094 A 
ATOM     10  C   UNL     1      39.489 -94.589  33.964  1.00  0.00     0.146 A 
ATOM     11  O   UNL     1      39.689 -94.562  35.277  1.00  0.00    -0.456 OA
ENDROOT
BRANCH   1  12
ATOM     12  C   UNL     1      40.981 -94.710  37.321  1.00  0.00     0.021 A 
ATOM     13  C   UNL     1      42.143 -95.134  37.994  1.00  0.00     0.016 A 
ATOM     14  C   UNL     1      42.209 -95.094  39.390  1.00  0.00     0.051 A 
ATOM     15  C   UNL     1      41.116 -94.638  40.135  1.00  0.00     0.157 A 
ATOM     16  C   UNL     1      39.883 -94.265  38.080  1.00  0.00     0.062 A 
ATOM     17  C   UNL     1      39.950 -94.225  39.481  1.00  0.00     0.158 A 
BRANCH  15  18
ATOM     18  O   UNL     1      41.179 -94.596  41.528  1.00  0.00    -0.504 OA
ATOM     19  H   UNL     1      41.227 -93.717  42.029  1.00  0.00     0.293 HD
ENDBRANCH  15  18
BRANCH  17  20
ATOM     20  O   UNL     1      38.862 -93.775  40.226  1.00  0.00    -0.504 OA
ATOM     21  H   UNL     1      38.625 -94.187  41.121  1.00  0.00     0.293 HD
ENDBRANCH  17  20
ENDBRANCH   1  12
BRANCH   6  22
ATOM     22  O   UNL     1      41.228 -95.239  30.697  1.00  0.00    -0.507 OA
ATOM     23  H   UNL     1      41.375 -96.169  30.337  1.00  0.00     0.293 HD
ENDBRANCH   6  22
BRANCH   8  24
ATOM     24  O   UNL     1      36.671 -94.105  31.617  1.00  0.00    -0.508 OA
ATOM     25  H   UNL     1      36.357 -94.482  30.730  1.00  0.00     0.293 HD
ENDBRANCH   8  24
TORSDOF 5
ENDMDL
MODEL 5
REMARK VINA RESULT:    -5.560      9.903     11.135
REMARK INTER + INTRA:          -6.799
REMARK INTER:                  -6.482
REMARK INTRA:                  -0.317
REMARK UNBOUND:                -0.263
REMARK SMILES O=c1cc(-c2ccc(O)c(O)c2)oc2cc(O)cc(O)c12
REMARK SMILES IDX 4 1 3 2 2 3 1 4 21 5 19 6 18 7 16 8 15 9 14 10 13 11 5 12
REMARK SMILES IDX 6 13 7 14 8 15 12 16 10 17 9 18 11 20 20 22 17 24
REMARK H PARENT 9 19 11 21 20 23 17 25
REMARK Flexibility Score: inf
ROOT
ATOM      1  C   UNL     1      36.469 -94.969  29.215  1.00  0.00     0.138 A 
ATOM      2  C   UNL     1      37.600 -95.365  28.489  1.00  0.00     0.100 A 
ATOM      3  C   UNL     1      38.853 -95.357  29.104  1.00  0.00     0.197 A 
ATOM      4  O   UNL     1      39.840 -95.777  28.447  1.00  0.00    -0.289 OA
ATOM      5  C   UNL     1      38.975 -94.919  30.445  1.00  0.00     0.107 A 
ATOM      6  C   UNL     1      40.207 -94.830  31.161  1.00  0.00     0.134 A 
ATOM      7  C   UNL     1      40.191 -94.493  32.520  1.00  0.00     0.093 A 
ATOM      8  C   UNL     1      38.999 -94.185  33.172  1.00  0.00     0.123 A 
ATOM      9  C   UNL     1      37.794 -94.216  32.468  1.00  0.00     0.094 A 
ATOM     10  C   UNL     1      37.772 -94.582  31.120  1.00  0.00     0.146 A 
ATOM     11  O   UNL     1      36.604 -94.614  30.489  1.00  0.00    -0.456 OA
ENDROOT
BRANCH   1  12
ATOM     12  C   UNL     1      35.113 -94.957  28.609  1.00  0.00     0.021 A 
ATOM     13  C   UNL     1      34.918 -95.143  27.227  1.00  0.00     0.016 A 
ATOM     14  C   UNL     1      33.631 -95.117  26.683  1.00  0.00     0.051 A 
ATOM     15  C   UNL     1      32.520 -94.898  27.506  1.00  0.00     0.157 A 
ATOM     16  C   UNL     1      33.991 -94.725  29.427  1.00  0.00     0.062 A 
ATOM     17  C   UNL     1      32.700 -94.700  28.880  1.00  0.00     0.158 A 
BRANCH  15  18
ATOM     18  O   UNL     1      31.235 -94.873  26.966  1.00  0.00    -0.504 OA
ATOM     19  H   UNL     1      30.647 -95.698  26.961  1.00  0.00     0.293 HD
ENDBRANCH  15  18
BRANCH  17  20
ATOM     20  O   UNL     1      31.593 -94.479  29.696  1.00  0.00    -0.504 OA
ATOM     21  H   UNL     1      31.259 -93.543  29.896  1.00  0.00     0.293 HD
ENDBRANCH  17  20
ENDBRANCH   1  12
BRANCH   6  22
ATOM     22  O   UNL     1      41.463 -95.035  30.582  1.00  0.00    -0.507 OA
ATOM     23  H   UNL     1      42.090 -95.789  30.819  1.00  0.00     0.293 HD
ENDBRANCH   6  22
BRANCH   8  24
ATOM     24  O   UNL     1      39.023 -93.839  34.522  1.00  0.00    -0.508 OA
ATOM     25  H   UNL     1      39.893 -93.651  35.006  1.00  0.00     0.293 HD
ENDBRANCH   8  24
TORSDOF 5
ENDMDL
MODEL 6
REMARK VINA RESULT:    -5.551      9.454     11.243
REMARK INTER + INTRA:          -6.788
REMARK INTER:                  -6.470
REMARK INTRA:                  -0.318
REMARK UNBOUND:                -0.263
REMARK SMILES O=c1cc(-c2ccc(O)c(O)c2)oc2cc(O)cc(O)c12
REMARK SMILES IDX 4 1 3 2 2 3 1 4 21 5 19 6 18 7 16 8 15 9 14 10 13 11 5 12
REMARK SMILES IDX 6 13 7 14 8 15 12 16 10 17 9 18 11 20 20 22 17 24
REMARK H PARENT 9 19 11 21 20 23 17 25
REMARK Flexibility Score: inf
ROOT
ATOM      1  C   UNL     1      40.228 -94.725  32.786  1.00  0.00     0.138 A 
ATOM      2  C   UNL     1      40.951 -94.946  31.606  1.00  0.00     0.100 A 
ATOM      3  C   UNL     1      40.273 -95.073  30.394  1.00  0.00     0.197 A 
ATOM      4  O   UNL     1      40.953 -95.210  29.344  1.00  0.00    -0.289 OA
ATOM      5  C   UNL     1      38.859 -95.008  30.368  1.00  0.00     0.107 A 
ATOM      6  C   UNL     1      38.060 -95.164  29.197  1.00  0.00     0.134 A 
ATOM      7  C   UNL     1      36.676 -94.964  29.274  1.00  0.00     0.093 A 
ATOM      8  C   UNL     1      36.057 -94.673  30.489  1.00  0.00     0.123 A 
ATOM      9  C   UNL     1      36.822 -94.572  31.651  1.00  0.00     0.094 A 
ATOM     10  C   UNL     1      38.209 -94.732  31.601  1.00  0.00     0.146 A 
ATOM     11  O   UNL     1      38.904 -94.613  32.726  1.00  0.00    -0.456 OA
ENDROOT
BRANCH   1  12
ATOM     12  C   UNL     1      40.899 -94.584  34.103  1.00  0.00     0.021 A 
ATOM     13  C   UNL     1      42.287 -94.770  34.250  1.00  0.00     0.016 A 
ATOM     14  C   UNL     1      42.890 -94.641  35.504  1.00  0.00     0.051 A 
ATOM     15  C   UNL     1      42.119 -94.332  36.631  1.00  0.00     0.157 A 
ATOM     16  C   UNL     1      40.130 -94.286  35.243  1.00  0.00     0.062 A 
ATOM     17  C   UNL     1      40.737 -94.157  36.501  1.00  0.00     0.158 A 
BRANCH  15  18
ATOM     18  O   UNL     1      42.718 -94.202  37.883  1.00  0.00    -0.504 OA
ATOM     19  H   UNL     1      43.136 -94.994  38.355  1.00  0.00     0.293 HD
ENDBRANCH  15  18
BRANCH  17  20
ATOM     20  O   UNL     1      39.971 -93.853  37.626  1.00  0.00    -0.504 OA
ATOM     21  H   UNL     1      39.400 -94.553  38.083  1.00  0.00     0.293 HD
ENDBRANCH  17  20
ENDBRANCH   1  12
BRANCH   6  22
ATOM     22  O   UNL     1      38.568 -95.537  27.948  1.00  0.00    -0.507 OA
ATOM     23  H   UNL     1      38.728 -96.487  27.651  1.00  0.00     0.293 HD
ENDBRANCH   6  22
BRANCH   8  24
ATOM     24  O   UNL     1      34.676 -94.495  30.531  1.00  0.00    -0.508 OA
ATOM     25  H   UNL     1      34.237 -93.659  30.164  1.00  0.00     0.293 HD
ENDBRANCH   8  24
TORSDOF 5
ENDMDL
MODEL 7
REMARK VINA RESULT:    -5.481      8.383     10.390
REMARK INTER + INTRA:          -6.706
REMARK INTER:                  -6.390
REMARK INTRA:                  -0.316
REMARK UNBOUND:                -0.263
REMARK SMILES O=c1cc(-c2ccc(O)c(O)c2)oc2cc(O)cc(O)c12
REMARK SMILES IDX 4 1 3 2 2 3 1 4 21 5 19 6 18 7 16 8 15 9 14 10 13 11 5 12
REMARK SMILES IDX 6 13 7 14 8 15 12 16 10 17 9 18 11 20 20 22 17 24
REMARK H PARENT 9 19 11 21 20 23 17 25
REMARK Flexibility Score: inf
ROOT
ATOM      1  C   UNL     1      39.851 -94.736  33.957  1.00  0.00     0.138 A 
ATOM      2  C   UNL     1      41.230 -94.520  34.091  1.00  0.00     0.100 A 
ATOM      3  C   UNL     1      41.796 -94.445  35.363  1.00  0.00     0.197 A 
ATOM      4  O   UNL     1      43.044 -94.313  35.451  1.00  0.00    -0.289 OA
ATOM      5  C   UNL     1      40.971 -94.556  36.508  1.00  0.00     0.107 A 
ATOM      6  C   UNL     1      41.432 -94.454  37.855  1.00  0.00     0.134 A 
ATOM      7  C   UNL     1      40.542 -94.697  38.909  1.00  0.00     0.093 A 
ATOM      8  C   UNL     1      39.199 -94.976  38.668  1.00  0.00     0.123 A 
ATOM      9  C   UNL     1      38.725 -95.025  37.356  1.00  0.00     0.094 A 
ATOM     10  C   UNL     1      39.594 -94.822  36.282  1.00  0.00     0.146 A 
ATOM     11  O   UNL     1      39.107 -94.891  35.048  1.00  0.00    -0.456 OA
ENDROOT
BRANCH   1  12
ATOM     12  C   UNL     1      39.196 -94.823  32.627  1.00  0.00     0.021 A 
ATOM     13  C   UNL     1      39.945 -94.939  31.440  1.00  0.00     0.016 A 
ATOM     14  C   UNL     1      39.303 -95.008  30.200  1.00  0.00     0.051 A 
ATOM     15  C   UNL     1      37.906 -94.956  30.125  1.00  0.00     0.157 A 
ATOM     16  C   UNL     1      37.793 -94.759  32.540  1.00  0.00     0.062 A 
ATOM     17  C   UNL     1      37.150 -94.829  31.296  1.00  0.00     0.158 A 
BRANCH  15  18
ATOM     18  O   UNL     1      37.262 -95.027  28.890  1.00  0.00    -0.504 OA
ATOM     19  H   UNL     1      37.710 -94.708  28.040  1.00  0.00     0.293 HD
ENDBRANCH  15  18
BRANCH  17  20
ATOM     20  O   UNL     1      35.759 -94.775  31.217  1.00  0.00    -0.504 OA
ATOM     21  H   UNL     1      35.251 -95.243  30.476  1.00  0.00     0.293 HD
ENDBRANCH  17  20
ENDBRANCH   1  12
BRANCH   6  22
ATOM     22  O   UNL     1      42.737 -94.096  38.209  1.00  0.00    -0.507 OA
ATOM     23  H   UNL     1      43.438 -94.737  38.547  1.00  0.00     0.293 HD
ENDBRANCH   6  22
BRANCH   8  24
ATOM     24  O   UNL     1      38.339 -95.197  39.741  1.00  0.00    -0.508 OA
ATOM     25  H   UNL     1      38.690 -95.393  40.671  1.00  0.00     0.293 HD
ENDBRANCH   8  24
TORSDOF 5
ENDMDL
MODEL 8
REMARK VINA RESULT:    -5.399     15.164     16.437
REMARK INTER + INTRA:          -6.609
REMARK INTER:                  -6.295
REMARK INTRA:                  -0.314
REMARK UNBOUND:                -0.263
REMARK SMILES O=c1cc(-c2ccc(O)c(O)c2)oc2cc(O)cc(O)c12
REMARK SMILES IDX 4 1 3 2 2 3 1 4 21 5 19 6 18 7 16 8 15 9 14 10 13 11 5 12
REMARK SMILES IDX 6 13 7 14 8 15 12 16 10 17 9 18 11 20 20 22 17 24
REMARK H PARENT 9 19 11 21 20 23 17 25
REMARK Flexibility Score: inf
ROOT
ATOM      1  C   UNL     1      37.434 -77.642  37.714  1.00  0.00     0.138 A 
ATOM      2  C   UNL     1      38.599 -77.157  37.102  1.00  0.00     0.100 A 
ATOM      3  C   UNL     1      39.822 -77.265  37.764  1.00  0.00     0.197 A 
ATOM      4  O   UNL     1      40.858 -76.878  37.164  1.00  0.00    -0.289 OA
ATOM      5  C   UNL     1      39.874 -77.835  39.059  1.00  0.00     0.107 A 
ATOM      6  C   UNL     1      41.058 -77.959  39.845  1.00  0.00     0.134 A 
ATOM      7  C   UNL     1      41.008 -78.645  41.065  1.00  0.00     0.093 A 
ATOM      8  C   UNL     1      39.807 -79.156  41.555  1.00  0.00     0.123 A 
ATOM      9  C   UNL     1      38.632 -78.993  40.820  1.00  0.00     0.094 A 
ATOM     10  C   UNL     1      38.656 -78.344  39.583  1.00  0.00     0.146 A 
ATOM     11  O   UNL     1      37.519 -78.221  38.907  1.00  0.00    -0.456 OA
ENDROOT
BRANCH   1  12
ATOM     12  C   UNL     1      36.106 -77.551  37.056  1.00  0.00     0.021 A 
ATOM     13  C   UNL     1      35.979 -77.269  35.682  1.00  0.00     0.016 A 
ATOM     14  C   UNL     1      34.716 -77.179  35.090  1.00  0.00     0.051 A 
ATOM     15  C   UNL     1      33.561 -77.362  35.860  1.00  0.00     0.157 A 
ATOM     16  C   UNL     1      34.940 -77.721  37.823  1.00  0.00     0.062 A 
ATOM     17  C   UNL     1      33.673 -77.632  37.229  1.00  0.00     0.158 A 
BRANCH  15  18
ATOM     18  O   UNL     1      32.300 -77.275  35.273  1.00  0.00    -0.504 OA
ATOM     19  H   UNL     1      31.667 -76.514  35.488  1.00  0.00     0.293 HD
ENDBRANCH  15  18
BRANCH  17  20
ATOM     20  O   UNL     1      32.521 -77.810  37.993  1.00  0.00    -0.504 OA
ATOM     21  H   UNL     1      32.031 -78.697  38.015  1.00  0.00     0.293 HD
ENDBRANCH  17  20
ENDBRANCH   1  12
BRANCH   6  22
ATOM     22  O   UNL     1      42.294 -77.410  39.488  1.00  0.00    -0.507 OA
ATOM     23  H   UNL     1      42.461 -76.853  38.665  1.00  0.00     0.293 HD
ENDBRANCH   6  22
BRANCH   8  24
ATOM     24  O   UNL     1      39.791 -79.820  42.780  1.00  0.00    -0.508 OA
ATOM     25  H   UNL     1      39.418 -80.757  42.871  1.00  0.00     0.293 HD
ENDBRANCH   8  24
TORSDOF 5
ENDMDL
MODEL 9
REMARK VINA RESULT:    -5.328      7.635      9.522
REMARK INTER + INTRA:          -6.525
REMARK INTER:                  -6.217
REMARK INTRA:                  -0.308
REMARK UNBOUND:                -0.263
REMARK SMILES O=c1cc(-c2ccc(O)c(O)c2)oc2cc(O)cc(O)c12
REMARK SMILES IDX 4 1 3 2 2 3 1 4 21 5 19 6 18 7 16 8 15 9 14 10 13 11 5 12
REMARK SMILES IDX 6 13 7 14 8 15 12 16 10 17 9 18 11 20 20 22 17 24
REMARK H PARENT 9 19 11 21 20 23 17 25
REMARK Flexibility Score: inf
ROOT
ATOM      1  C   UNL     1      39.476 -94.814  35.432  1.00  0.00     0.138 A 
ATOM      2  C   UNL     1      40.628 -94.381  36.102  1.00  0.00     0.100 A 
ATOM      3  C   UNL     1      40.693 -94.468  37.493  1.00  0.00     0.197 A 
ATOM      4  O   UNL     1      41.763 -94.129  38.060  1.00  0.00    -0.289 OA
ATOM      5  C   UNL     1      39.583 -94.964  38.218  1.00  0.00     0.107 A 
ATOM      6  C   UNL     1      39.521 -95.060  39.641  1.00  0.00     0.134 A 
ATOM      7  C   UNL     1      38.416 -95.676  40.242  1.00  0.00     0.093 A 
ATOM      8  C   UNL     1      37.347 -96.143  39.479  1.00  0.00     0.123 A 
ATOM      9  C   UNL     1      37.373 -96.005  38.091  1.00  0.00     0.094 A 
ATOM     10  C   UNL     1      38.476 -95.427  37.458  1.00  0.00     0.146 A 
ATOM     11  O   UNL     1      38.470 -95.327  36.133  1.00  0.00    -0.456 OA
ENDROOT
BRANCH   1  12
ATOM     12  C   UNL     1      39.354 -94.743  33.954  1.00  0.00     0.021 A 
ATOM     13  C   UNL     1      40.486 -94.745  33.117  1.00  0.00     0.016 A 
ATOM     14  C   UNL     1      40.342 -94.667  31.729  1.00  0.00     0.051 A 
ATOM     15  C   UNL     1      39.068 -94.578  31.155  1.00  0.00     0.157 A 
ATOM     16  C   UNL     1      38.078 -94.641  33.369  1.00  0.00     0.062 A 
ATOM     17  C   UNL     1      37.935 -94.563  31.976  1.00  0.00     0.158 A 
BRANCH  15  18
ATOM     18  O   UNL     1      38.921 -94.501  29.771  1.00  0.00    -0.504 OA
ATOM     19  H   UNL     1      38.621 -93.646  29.317  1.00  0.00     0.293 HD
ENDBRANCH  15  18
BRANCH  17  20
ATOM     20  O   UNL     1      36.668 -94.470  31.401  1.00  0.00    -0.504 OA
ATOM     21  H   UNL     1      35.864 -94.928  31.814  1.00  0.00     0.293 HD
ENDBRANCH  17  20
ENDBRANCH   1  12
BRANCH   6  22
ATOM     22  O   UNL     1      40.497 -94.549  40.503  1.00  0.00    -0.507 OA
ATOM     23  H   UNL     1      40.873 -95.037  41.300  1.00  0.00     0.293 HD
ENDBRANCH   6  22
BRANCH   8  24
ATOM     24  O   UNL     1      36.257 -96.736  40.113  1.00  0.00    -0.508 OA
ATOM     25  H   UNL     1      36.046 -96.554  41.087  1.00  0.00     0.293 HD
ENDBRANCH   8  24
TORSDOF 5
ENDMDL
