MODEL 1
REMARK VINA RESULT:    41.852      0.000      0.000
REMARK INTER + INTRA:          45.370
REMARK INTER:                  45.522
REMARK INTRA:                  -0.153
REMARK UNBOUND:                -0.153
REMARK SMILES CC(=O)[C@H]1CC[C@H]2[C@@H]3CC=C4C[C@H](O)CC[C@]4(C)[C@@H]3CC[C@@]12C
REMARK SMILES IDX 4 1 5 2 6 3 7 4 22 5 21 6 20 7 19 8 8 9 9 10 10 11 11 12
REMARK SMILES IDX 17 13 16 14 15 15 13 16 12 17 18 18 23 19 2 20 1 21 3 22
REMARK SMILES IDX 14 23
REMARK H PARENT 14 24
REMARK Flexibility Score: inf
ROOT
ATOM      1  C   UNL     1      10.554  14.010   0.418  1.00  0.00     0.062 C 
ATOM      2  C   UNL     1       9.211  14.708   0.178  1.00  0.00     0.012 C 
ATOM      3  C   UNL     1       8.941  14.608  -1.323  1.00  0.00     0.005 C 
ATOM      4  C   UNL     1      10.123  13.839  -1.938  1.00  0.00    -0.001 C 
ATOM      5  C   UNL     1      11.295  14.033  -0.946  1.00  0.00    -0.020 C 
ATOM      6  C   UNL     1      12.004  15.393  -1.193  1.00  0.00     0.008 C 
ATOM      7  C   UNL     1      12.395  15.619  -2.655  1.00  0.00     0.005 C 
ATOM      8  C   UNL     1      11.159  15.584  -3.588  1.00  0.00     0.003 C 
ATOM      9  C   UNL     1      10.397  14.234  -3.423  1.00  0.00     0.000 C 
ATOM     10  C   UNL     1      11.021  13.055  -4.231  1.00  0.00     0.031 C 
ATOM     11  C   UNL     1      12.094  13.430  -5.225  1.00  0.00    -0.027 C 
ATOM     12  C   UNL     1      12.310  14.688  -5.654  1.00  0.00    -0.065 C 
ATOM     13  C   UNL     1      11.491  15.849  -5.107  1.00  0.00    -0.008 C 
ATOM     14  C   UNL     1      12.297  17.171  -5.295  1.00  0.00     0.014 C 
ATOM     15  C   UNL     1      12.754  17.429  -6.748  1.00  0.00     0.033 C 
ATOM     16  C   UNL     1      13.150  16.148  -7.524  1.00  0.00     0.118 C 
ATOM     17  C   UNL     1      13.465  14.963  -6.596  1.00  0.00     0.063 C 
ATOM     18  C   UNL     1      10.167  15.960  -5.915  1.00  0.00     0.016 C 
ATOM     19  C   UNL     1      12.319  12.875  -0.996  1.00  0.00     0.012 C 
ENDROOT
BRANCH   1  20
ATOM     20  C   UNL     1      11.331  14.582   1.594  1.00  0.00     0.133 C 
ATOM     21  C   UNL     1      11.036  15.955   2.120  1.00  0.00     0.088 C 
ATOM     22  O   UNL     1      12.219  13.929   2.125  1.00  0.00    -0.300 OA
ENDBRANCH   1  20
BRANCH  16  23
ATOM     23  O   UNL     1      14.260  16.424  -8.337  1.00  0.00    -0.393 OA
ATOM     24  H   UNL     1      14.485  15.583  -8.815  1.00  0.00     0.210 HD
ENDBRANCH  16  23
TORSDOF 2
ENDMDL
