MODEL 1
REMARK VINA RESULT:    -1.802      0.000      0.000
REMARK INTER + INTRA:          -3.544
REMARK INTER:                  -2.750
REMARK INTRA:                  -0.794
REMARK UNBOUND:                -0.794
REMARK SMILES OC[C@@H]1O[C@H](O[C@]2(CO)O[C@H](CO)[C@@H](O)[C@H]2O)[C@@H](O)[C@H](O)[C@@H]1O
REMARK SMILES IDX 6 1 5 2 3 3 22 4 4 5 20 6 18 7 2 8 1 9 23 11 21 13 19 15
REMARK SMILES IDX 7 17 16 18 10 19 14 20 11 21 8 22 9 23 17 25 15 27 12 29
REMARK SMILES IDX 13 30
REMARK H PARENT 1 10 23 12 21 14 19 16 9 24 17 26 15 28 13 31
REMARK Flexibility Score: inf
ROOT
ATOM      1  O   UNL     1       8.800  -4.291  -1.008  1.00  0.00    -0.313 OA
ENDROOT
BRANCH   1   2
ATOM      2  C   UNL     1       9.922  -4.723  -1.770  1.00  0.00     0.285 C 
ATOM      3  C   UNL     1      11.782  -4.089  -3.036  1.00  0.00     0.178 C 
ATOM      4  C   UNL     1      12.350  -5.533  -2.797  1.00  0.00     0.177 C 
ATOM      5  O   UNL     1      10.867  -3.692  -2.017  1.00  0.00    -0.341 OA
ATOM      6  C   UNL     1      12.122  -5.961  -1.337  1.00  0.00     0.179 C 
ATOM      7  C   UNL     1      10.615  -5.864  -0.984  1.00  0.00     0.202 C 
BRANCH   3   8
ATOM      8  C   UNL     1      12.893  -3.033  -3.125  1.00  0.00     0.191 C 
BRANCH   8   9
ATOM      9  O   UNL     1      13.897  -3.310  -2.190  1.00  0.00    -0.394 OA
ATOM     10  H   UNL     1      13.968  -2.503  -1.617  1.00  0.00     0.210 HD
ENDBRANCH   8   9
ENDBRANCH   3   8
BRANCH   4  11
ATOM     11  O   UNL     1      13.717  -5.634  -3.109  1.00  0.00    -0.387 OA
ATOM     12  H   UNL     1      13.970  -6.588  -2.981  1.00  0.00     0.211 HD
ENDBRANCH   4  11
BRANCH   6  13
ATOM     13  O   UNL     1      12.852  -5.123  -0.473  1.00  0.00    -0.387 OA
ATOM     14  H   UNL     1      12.193  -4.576   0.026  1.00  0.00     0.211 HD
ENDBRANCH   6  13
BRANCH   7  15
ATOM     15  O   UNL     1       9.965  -7.079  -1.268  1.00  0.00    -0.385 OA
ATOM     16  H   UNL     1       9.917  -7.586  -0.416  1.00  0.00     0.211 HD
ENDBRANCH   7  15
ENDBRANCH   1   2
BRANCH   1  17
ATOM     17  C   UNL     1       7.484  -4.438  -1.551  1.00  0.00     0.224 C 
ATOM     18  C   UNL     1       6.366  -3.561  -0.886  1.00  0.00     0.208 C 
ATOM     19  O   UNL     1       7.580  -4.012  -2.902  1.00  0.00    -0.337 OA
ATOM     20  C   UNL     1       5.707  -2.833  -2.044  1.00  0.00     0.180 C 
ATOM     21  C   UNL     1       6.823  -2.836  -3.082  1.00  0.00     0.179 C 
BRANCH  17  22
ATOM     22  C   UNL     1       7.155  -5.951  -1.619  1.00  0.00     0.225 C 
BRANCH  22  23
ATOM     23  O   UNL     1       6.181  -6.240  -2.588  1.00  0.00    -0.391 OA
ATOM     24  H   UNL     1       6.200  -5.508  -3.257  1.00  0.00     0.210 HD
ENDBRANCH  22  23
ENDBRANCH  17  22
BRANCH  18  25
ATOM     25  O   UNL     1       5.463  -4.267  -0.064  1.00  0.00    -0.385 OA
ATOM     26  H   UNL     1       5.685  -5.233  -0.079  1.00  0.00     0.211 HD
ENDBRANCH  18  25
BRANCH  20  27
ATOM     27  O   UNL     1       4.557  -3.490  -2.531  1.00  0.00    -0.387 OA
ATOM     28  H   UNL     1       4.461  -3.282  -3.497  1.00  0.00     0.211 HD
ENDBRANCH  20  27
BRANCH  21  29
ATOM     29  C   UNL     1       7.740  -1.608  -2.971  1.00  0.00     0.191 C 
BRANCH  29  30
ATOM     30  O   UNL     1       6.969  -0.453  -2.795  1.00  0.00    -0.394 OA
ATOM     31  H   UNL     1       6.109  -0.622  -3.262  1.00  0.00     0.210 HD
ENDBRANCH  29  30
ENDBRANCH  21  29
ENDBRANCH   1  17
TORSDOF 13
ENDMDL
MODEL 2
REMARK VINA RESULT:    -0.977      1.630      5.892
REMARK INTER + INTRA:          -2.284
REMARK INTER:                  -3.832
REMARK INTRA:                   1.548
REMARK UNBOUND:                -0.794
REMARK SMILES OC[C@@H]1O[C@H](O[C@]2(CO)O[C@H](CO)[C@@H](O)[C@H]2O)[C@@H](O)[C@H](O)[C@@H]1O
REMARK SMILES IDX 6 1 5 2 3 3 22 4 4 5 20 6 18 7 2 8 1 9 23 11 21 13 19 15
REMARK SMILES IDX 7 17 16 18 10 19 14 20 11 21 8 22 9 23 17 25 15 27 12 29
REMARK SMILES IDX 13 30
REMARK H PARENT 1 10 23 12 21 14 19 16 9 24 17 26 15 28 13 31
REMARK Flexibility Score: inf
ROOT
ATOM      1  O   UNL     1       9.523  -3.948  -3.070  1.00  0.00    -0.313 OA
ENDROOT
BRANCH   1   2
ATOM      2  C   UNL     1       8.244  -3.484  -2.649  1.00  0.00     0.285 C 
ATOM      3  C   UNL     1       5.926  -3.680  -2.874  1.00  0.00     0.178 C 
ATOM      4  C   UNL     1       5.800  -2.964  -1.483  1.00  0.00     0.177 C 
ATOM      5  O   UNL     1       7.179  -4.342  -3.031  1.00  0.00    -0.341 OA
ATOM      6  C   UNL     1       6.849  -3.517  -0.502  1.00  0.00     0.179 C 
ATOM      7  C   UNL     1       8.270  -3.368  -1.104  1.00  0.00     0.202 C 
BRANCH   3   8
ATOM      8  C   UNL     1       4.806  -4.705  -3.106  1.00  0.00     0.191 C 
BRANCH   8   9
ATOM      9  O   UNL     1       3.559  -4.075  -3.054  1.00  0.00    -0.394 OA
ATOM     10  H   UNL     1       3.561  -3.527  -2.226  1.00  0.00     0.210 HD
ENDBRANCH   8   9
ENDBRANCH   3   8
BRANCH   4  11
ATOM     11  O   UNL     1       4.517  -3.094  -0.923  1.00  0.00    -0.387 OA
ATOM     12  H   UNL     1       4.419  -2.358  -0.259  1.00  0.00     0.211 HD
ENDBRANCH   4  11
BRANCH   6  13
ATOM     13  O   UNL     1       6.595  -4.877  -0.248  1.00  0.00    -0.387 OA
ATOM     14  H   UNL     1       7.136  -5.399  -0.894  1.00  0.00     0.211 HD
ENDBRANCH   6  13
BRANCH   7  15
ATOM     15  O   UNL     1       8.829  -2.128  -0.745  1.00  0.00    -0.385 OA
ATOM     16  H   UNL     1       8.299  -1.429  -1.211  1.00  0.00     0.211 HD
ENDBRANCH   7  15
ENDBRANCH   1   2
BRANCH   1  17
ATOM     17  C   UNL     1      10.176  -4.980  -2.324  1.00  0.00     0.224 C 
ATOM     18  C   UNL     1       9.534  -5.335  -0.937  1.00  0.00     0.208 C 
ATOM     19  O   UNL     1      10.077  -6.148  -3.125  1.00  0.00    -0.337 OA
ATOM     20  C   UNL     1       9.333  -6.840  -0.980  1.00  0.00     0.180 C 
ATOM     21  C   UNL     1       9.256  -7.096  -2.480  1.00  0.00     0.179 C 
BRANCH  17  22
ATOM     22  C   UNL     1      11.689  -4.649  -2.264  1.00  0.00     0.225 C 
BRANCH  22  23
ATOM     23  O   UNL     1      12.371  -5.447  -1.332  1.00  0.00    -0.391 OA
ATOM     24  H   UNL     1      11.787  -6.220  -1.119  1.00  0.00     0.210 HD
ENDBRANCH  22  23
ENDBRANCH  17  22
BRANCH  18  25
ATOM     25  O   UNL     1      10.256  -4.885   0.187  1.00  0.00    -0.385 OA
ATOM     26  H   UNL     1      10.480  -5.655   0.770  1.00  0.00     0.211 HD
ENDBRANCH  18  25
BRANCH  20  27
ATOM     27  O   UNL     1      10.395  -7.559  -0.394  1.00  0.00    -0.387 OA
ATOM     28  H   UNL     1      11.150  -7.586  -1.039  1.00  0.00     0.211 HD
ENDBRANCH  20  27
BRANCH  21  29
ATOM     29  C   UNL     1       7.823  -6.995  -3.027  1.00  0.00     0.191 C 
BRANCH  29  30
ATOM     30  O   UNL     1       6.903  -7.180  -1.988  1.00  0.00    -0.394 OA
ATOM     31  H   UNL     1       7.341  -7.791  -1.339  1.00  0.00     0.210 HD
ENDBRANCH  29  30
ENDBRANCH  21  29
ENDBRANCH   1  17
TORSDOF 13
ENDMDL
MODEL 3
REMARK VINA RESULT:    -0.482      1.157      2.480
REMARK INTER + INTRA:          -1.530
REMARK INTER:                  -1.529
REMARK INTRA:                  -0.001
REMARK UNBOUND:                -0.794
REMARK SMILES OC[C@@H]1O[C@H](O[C@]2(CO)O[C@H](CO)[C@@H](O)[C@H]2O)[C@@H](O)[C@H](O)[C@@H]1O
REMARK SMILES IDX 6 1 5 2 3 3 22 4 4 5 20 6 18 7 2 8 1 9 23 11 21 13 19 15
REMARK SMILES IDX 7 17 16 18 10 19 14 20 11 21 8 22 9 23 17 25 15 27 12 29
REMARK SMILES IDX 13 30
REMARK H PARENT 1 10 23 12 21 14 19 16 9 24 17 26 15 28 13 31
REMARK Flexibility Score: inf
ROOT
ATOM      1  O   UNL     1       8.669  -5.080  -0.946  1.00  0.00    -0.313 OA
ENDROOT
BRANCH   1   2
ATOM      2  C   UNL     1       9.852  -5.274  -1.715  1.00  0.00     0.285 C 
ATOM      3  C   UNL     1      11.525  -4.276  -3.006  1.00  0.00     0.178 C 
ATOM      4  C   UNL     1      12.388  -5.564  -2.758  1.00  0.00     0.177 C 
ATOM      5  O   UNL     1      10.554  -4.069  -1.983  1.00  0.00    -0.341 OA
ATOM      6  C   UNL     1      12.267  -6.011  -1.291  1.00  0.00     0.179 C 
ATOM      7  C   UNL     1      10.777  -6.232  -0.923  1.00  0.00     0.202 C 
BRANCH   3   8
ATOM      8  C   UNL     1      12.386  -3.010  -3.118  1.00  0.00     0.191 C 
BRANCH   8   9
ATOM      9  O   UNL     1      13.636  -3.224  -2.527  1.00  0.00    -0.394 OA
ATOM     10  H   UNL     1      13.497  -3.126  -1.549  1.00  0.00     0.210 HD
ENDBRANCH   8   9
ENDBRANCH   3   8
BRANCH   4  11
ATOM     11  O   UNL     1      13.743  -5.377  -3.083  1.00  0.00    -0.387 OA
ATOM     12  H   UNL     1      14.245  -5.371  -2.224  1.00  0.00     0.211 HD
ENDBRANCH   4  11
BRANCH   6  13
ATOM     13  O   UNL     1      12.810  -5.027  -0.444  1.00  0.00    -0.387 OA
ATOM     14  H   UNL     1      12.366  -5.126   0.437  1.00  0.00     0.211 HD
ENDBRANCH   6  13
BRANCH   7  15
ATOM     15  O   UNL     1      10.397  -7.561  -1.188  1.00  0.00    -0.385 OA
ATOM     16  H   UNL     1       9.874  -7.872  -0.404  1.00  0.00     0.211 HD
ENDBRANCH   7  15
ENDBRANCH   1   2
BRANCH   1  17
ATOM     17  C   UNL     1       7.863  -3.921  -1.178  1.00  0.00     0.224 C 
ATOM     18  C   UNL     1       8.020  -3.248  -2.587  1.00  0.00     0.208 C 
ATOM     19  O   UNL     1       6.519  -4.370  -1.094  1.00  0.00    -0.337 OA
ATOM     20  C   UNL     1       6.603  -3.142  -3.124  1.00  0.00     0.180 C 
ATOM     21  C   UNL     1       5.902  -4.257  -2.358  1.00  0.00     0.179 C 
BRANCH  17  22
ATOM     22  C   UNL     1       8.049  -2.954   0.019  1.00  0.00     0.225 C 
BRANCH  22  23
ATOM     23  O   UNL     1       8.691  -3.570   1.104  1.00  0.00    -0.391 OA
ATOM     24  H   UNL     1       8.878  -2.866   1.778  1.00  0.00     0.210 HD
ENDBRANCH  22  23
ENDBRANCH  17  22
BRANCH  18  25
ATOM     25  O   UNL     1       8.726  -2.027  -2.589  1.00  0.00    -0.385 OA
ATOM     26  H   UNL     1       8.567  -1.551  -3.444  1.00  0.00     0.211 HD
ENDBRANCH  18  25
BRANCH  20  27
ATOM     27  O   UNL     1       6.003  -1.891  -2.866  1.00  0.00    -0.387 OA
ATOM     28  H   UNL     1       5.036  -2.036  -2.694  1.00  0.00     0.211 HD
ENDBRANCH  20  27
BRANCH  21  29
ATOM     29  C   UNL     1       5.964  -5.608  -3.086  1.00  0.00     0.191 C 
BRANCH  29  30
ATOM     30  O   UNL     1       6.686  -6.530  -2.318  1.00  0.00    -0.394 OA
ATOM     31  H   UNL     1       7.631  -6.227  -2.342  1.00  0.00     0.210 HD
ENDBRANCH  29  30
ENDBRANCH  21  29
ENDBRANCH   1  17
TORSDOF 13
ENDMDL
