MODEL 1
REMARK VINA RESULT:    -4.170      0.000      0.000
REMARK INTER + INTRA:          -5.733
REMARK INTER:                  -5.633
REMARK INTRA:                  -0.100
REMARK UNBOUND:                -0.100
REMARK SMILES [NH3+]CCCC[C@H]([NH3+])C(=O)[O-]
REMARK SMILES IDX 4 1 3 2 2 3 1 4 5 8 6 9 7 10 8 14 9 15 10 16
REMARK H PARENT 1 5 1 6 1 7 7 11 7 12 7 13
REMARK Flexibility Score: inf
ROOT
ATOM      1  C   UNL     1     -43.381 115.981   6.366  1.00  0.00     0.012 C 
ENDROOT
BRANCH   1   2
ATOM      2  C   UNL     1     -43.973 114.726   7.027  1.00  0.00     0.061 C 
BRANCH   2   3
ATOM      3  C   UNL     1     -42.978 114.026   7.966  1.00  0.00     0.258 C 
BRANCH   3   4
ATOM      4  N   UNL     1     -43.523 113.926   9.320  1.00  0.00    -0.358 N 
ATOM      5  H   UNL     1     -44.530 113.649   9.265  1.00  0.00     0.344 HD
ATOM      6  H   UNL     1     -43.453 114.850   9.805  1.00  0.00     0.344 HD
ATOM      7  H   UNL     1     -43.003 113.200   9.865  1.00  0.00     0.344 HD
ENDBRANCH   3   4
ENDBRANCH   2   3
ENDBRANCH   1   2
BRANCH   1   8
ATOM      8  C   UNL     1     -42.490 116.791   7.325  1.00  0.00     0.072 C 
BRANCH   8   9
ATOM      9  C   UNL     1     -42.833 118.296   7.304  1.00  0.00     0.227 C 
BRANCH   9  10
ATOM     10  N   UNL     1     -42.504 118.879   5.998  1.00  0.00    -0.350 N 
ATOM     11  H   UNL     1     -42.316 118.116   5.305  1.00  0.00     0.345 HD
ATOM     12  H   UNL     1     -41.641 119.465   6.078  1.00  0.00     0.345 HD
ATOM     13  H   UNL     1     -43.291 119.474   5.649  1.00  0.00     0.345 HD
ENDBRANCH   9  10
BRANCH   9  14
ATOM     14  C   UNL     1     -42.099 119.032   8.395  1.00  0.00     0.099 C 
ATOM     15  O   UNL     1     -40.865 118.846   8.564  1.00  0.00    -0.544 OA
ATOM     16  O   UNL     1     -42.776 119.925   9.218  1.00  0.00    -0.544 OA
ENDBRANCH   9  14
ENDBRANCH   8   9
ENDBRANCH   1   8
TORSDOF 7
ENDMDL
MODEL 2
REMARK VINA RESULT:    -4.055      9.918     10.471
REMARK INTER + INTRA:          -5.577
REMARK INTER:                  -5.381
REMARK INTRA:                  -0.197
REMARK UNBOUND:                -0.100
REMARK SMILES [NH3+]CCCC[C@H]([NH3+])C(=O)[O-]
REMARK SMILES IDX 4 1 3 2 2 3 1 4 5 8 6 9 7 10 8 14 9 15 10 16
REMARK H PARENT 1 5 1 6 1 7 7 11 7 12 7 13
REMARK Flexibility Score: inf
ROOT
ATOM      1  C   UNL     1     -45.381 122.471  15.606  1.00  0.00     0.012 C 
ENDROOT
BRANCH   1   2
ATOM      2  C   UNL     1     -46.671 122.222  14.808  1.00  0.00     0.061 C 
BRANCH   2   3
ATOM      3  C   UNL     1     -47.764 123.258  15.114  1.00  0.00     0.258 C 
BRANCH   3   4
ATOM      4  N   UNL     1     -48.496 123.617  13.898  1.00  0.00    -0.358 N 
ATOM      5  H   UNL     1     -48.135 124.531  13.539  1.00  0.00     0.344 HD
ATOM      6  H   UNL     1     -49.515 123.715  14.108  1.00  0.00     0.344 HD
ATOM      7  H   UNL     1     -48.354 122.886  13.164  1.00  0.00     0.344 HD
ENDBRANCH   3   4
ENDBRANCH   2   3
ENDBRANCH   1   2
BRANCH   1   8
ATOM      8  C   UNL     1     -44.209 122.920  14.715  1.00  0.00     0.072 C 
BRANCH   8   9
ATOM      9  C   UNL     1     -44.467 124.294  14.061  1.00  0.00     0.227 C 
BRANCH   9  10
ATOM     10  N   UNL     1     -43.576 124.490  12.911  1.00  0.00    -0.350 N 
ATOM     11  H   UNL     1     -44.121 124.863  12.099  1.00  0.00     0.345 HD
ATOM     12  H   UNL     1     -43.155 123.575  12.628  1.00  0.00     0.345 HD
ATOM     13  H   UNL     1     -42.808 125.161  13.148  1.00  0.00     0.345 HD
ENDBRANCH   9  10
BRANCH   9  14
ATOM     14  C   UNL     1     -44.277 125.409  15.055  1.00  0.00     0.099 C 
ATOM     15  O   UNL     1     -45.121 126.342  15.128  1.00  0.00    -0.544 OA
ATOM     16  O   UNL     1     -43.174 125.417  15.900  1.00  0.00    -0.544 OA
ENDBRANCH   9  14
ENDBRANCH   8   9
ENDBRANCH   1   8
TORSDOF 7
ENDMDL
MODEL 3
REMARK VINA RESULT:    -4.027      3.166      4.662
REMARK INTER + INTRA:          -5.539
REMARK INTER:                  -5.448
REMARK INTRA:                  -0.091
REMARK UNBOUND:                -0.100
REMARK SMILES [NH3+]CCCC[C@H]([NH3+])C(=O)[O-]
REMARK SMILES IDX 4 1 3 2 2 3 1 4 5 8 6 9 7 10 8 14 9 15 10 16
REMARK H PARENT 1 5 1 6 1 7 7 11 7 12 7 13
REMARK Flexibility Score: inf
ROOT
ATOM      1  C   UNL     1     -43.116 116.947   6.210  1.00  0.00     0.012 C 
ENDROOT
BRANCH   1   2
ATOM      2  C   UNL     1     -42.523 118.307   6.609  1.00  0.00     0.061 C 
BRANCH   2   3
ATOM      3  C   UNL     1     -42.528 118.531   8.130  1.00  0.00     0.258 C 
BRANCH   3   4
ATOM      4  N   UNL     1     -41.162 118.630   8.646  1.00  0.00    -0.358 N 
ATOM      5  H   UNL     1     -40.521 118.909   7.868  1.00  0.00     0.344 HD
ATOM      6  H   UNL     1     -40.853 117.706   9.024  1.00  0.00     0.344 HD
ATOM      7  H   UNL     1     -41.113 119.355   9.399  1.00  0.00     0.344 HD
ENDBRANCH   3   4
ENDBRANCH   2   3
ENDBRANCH   1   2
BRANCH   1   8
ATOM      8  C   UNL     1     -43.249 115.984   7.404  1.00  0.00     0.072 C 
BRANCH   8   9
ATOM      9  C   UNL     1     -43.319 114.508   6.956  1.00  0.00     0.227 C 
BRANCH   9  10
ATOM     10  N   UNL     1     -44.703 114.135   6.637  1.00  0.00    -0.350 N 
ATOM     11  H   UNL     1     -44.989 113.308   7.212  1.00  0.00     0.345 HD
ATOM     12  H   UNL     1     -44.775 113.870   5.628  1.00  0.00     0.345 HD
ATOM     13  H   UNL     1     -45.355 114.931   6.831  1.00  0.00     0.345 HD
ENDBRANCH   9  10
BRANCH   9  14
ATOM     14  C   UNL     1     -42.773 113.594   8.022  1.00  0.00     0.099 C 
ATOM     15  O   UNL     1     -41.604 113.136   7.924  1.00  0.00    -0.544 OA
ATOM     16  O   UNL     1     -43.552 113.252   9.121  1.00  0.00    -0.544 OA
ENDBRANCH   9  14
ENDBRANCH   8   9
ENDBRANCH   1   8
TORSDOF 7
ENDMDL
MODEL 4
REMARK VINA RESULT:    -3.980      9.847     11.183
REMARK INTER + INTRA:          -5.476
REMARK INTER:                  -4.995
REMARK INTRA:                  -0.482
REMARK UNBOUND:                -0.100
REMARK SMILES [NH3+]CCCC[C@H]([NH3+])C(=O)[O-]
REMARK SMILES IDX 4 1 3 2 2 3 1 4 5 8 6 9 7 10 8 14 9 15 10 16
REMARK H PARENT 1 5 1 6 1 7 7 11 7 12 7 13
REMARK Flexibility Score: inf
ROOT
ATOM      1  C   UNL     1     -45.444 126.096  15.440  1.00  0.00     0.012 C 
ENDROOT
BRANCH   1   2
ATOM      2  C   UNL     1     -45.185 126.189  13.928  1.00  0.00     0.061 C 
BRANCH   2   3
ATOM      3  C   UNL     1     -43.726 125.879  13.558  1.00  0.00     0.258 C 
BRANCH   3   4
ATOM      4  N   UNL     1     -43.628 124.603  12.850  1.00  0.00    -0.358 N 
ATOM      5  H   UNL     1     -44.280 123.915  13.292  1.00  0.00     0.344 HD
ATOM      6  H   UNL     1     -42.653 124.232  12.911  1.00  0.00     0.344 HD
ATOM      7  H   UNL     1     -43.898 124.726  11.846  1.00  0.00     0.344 HD
ENDBRANCH   3   4
ENDBRANCH   2   3
ENDBRANCH   1   2
BRANCH   1   8
ATOM      8  C   UNL     1     -46.471 125.008  15.801  1.00  0.00     0.072 C 
BRANCH   8   9
ATOM      9  C   UNL     1     -46.653 123.980  14.664  1.00  0.00     0.227 C 
BRANCH   9  10
ATOM     10  N   UNL     1     -48.077 123.809  14.351  1.00  0.00    -0.350 N 
ATOM     11  H   UNL     1     -48.374 124.524  13.645  1.00  0.00     0.345 HD
ATOM     12  H   UNL     1     -48.650 123.947  15.215  1.00  0.00     0.345 HD
ATOM     13  H   UNL     1     -48.259 122.852  13.968  1.00  0.00     0.345 HD
ENDBRANCH   9  10
BRANCH   9  14
ATOM     14  C   UNL     1     -46.045 122.652  15.034  1.00  0.00     0.099 C 
ATOM     15  O   UNL     1     -44.964 122.281  14.505  1.00  0.00    -0.544 OA
ATOM     16  O   UNL     1     -46.669 121.829  15.964  1.00  0.00    -0.544 OA
ENDBRANCH   9  14
ENDBRANCH   8   9
ENDBRANCH   1   8
TORSDOF 7
ENDMDL
MODEL 5
REMARK VINA RESULT:    -3.922      9.765     10.354
REMARK INTER + INTRA:          -5.397
REMARK INTER:                  -5.294
REMARK INTRA:                  -0.103
REMARK UNBOUND:                -0.100
REMARK SMILES [NH3+]CCCC[C@H]([NH3+])C(=O)[O-]
REMARK SMILES IDX 4 1 3 2 2 3 1 4 5 8 6 9 7 10 8 14 9 15 10 16
REMARK H PARENT 1 5 1 6 1 7 7 11 7 12 7 13
REMARK Flexibility Score: inf
ROOT
ATOM      1  C   UNL     1     -46.309 121.459  16.301  1.00  0.00     0.012 C 
ENDROOT
BRANCH   1   2
ATOM      2  C   UNL     1     -45.294 120.308  16.220  1.00  0.00     0.061 C 
BRANCH   2   3
ATOM      3  C   UNL     1     -45.428 119.318  17.388  1.00  0.00     0.258 C 
BRANCH   3   4
ATOM      4  N   UNL     1     -46.440 118.302  17.096  1.00  0.00    -0.358 N 
ATOM      5  H   UNL     1     -47.313 118.526  17.626  1.00  0.00     0.344 HD
ATOM      6  H   UNL     1     -46.098 117.359  17.391  1.00  0.00     0.344 HD
ATOM      7  H   UNL     1     -46.659 118.296  16.073  1.00  0.00     0.344 HD
ENDBRANCH   3   4
ENDBRANCH   2   3
ENDBRANCH   1   2
BRANCH   1   8
ATOM      8  C   UNL     1     -46.494 122.183  14.955  1.00  0.00     0.072 C 
BRANCH   8   9
ATOM      9  C   UNL     1     -47.139 123.575  15.127  1.00  0.00     0.227 C 
BRANCH   9  10
ATOM     10  N   UNL     1     -48.110 123.825  14.054  1.00  0.00    -0.350 N 
ATOM     11  H   UNL     1     -48.280 124.854  13.962  1.00  0.00     0.345 HD
ATOM     12  H   UNL     1     -49.020 123.364  14.284  1.00  0.00     0.345 HD
ATOM     13  H   UNL     1     -47.757 123.452  13.142  1.00  0.00     0.345 HD
ENDBRANCH   9  10
BRANCH   9  14
ATOM     14  C   UNL     1     -46.093 124.658  15.136  1.00  0.00     0.099 C 
ATOM     15  O   UNL     1     -46.336 125.767  15.683  1.00  0.00    -0.544 OA
ATOM     16  O   UNL     1     -44.853 124.442  14.549  1.00  0.00    -0.544 OA
ENDBRANCH   9  14
ENDBRANCH   8   9
ENDBRANCH   1   8
TORSDOF 7
ENDMDL
MODEL 6
REMARK VINA RESULT:    -3.901      9.542     10.801
REMARK INTER + INTRA:          -5.369
REMARK INTER:                  -4.828
REMARK INTRA:                  -0.541
REMARK UNBOUND:                -0.100
REMARK SMILES [NH3+]CCCC[C@H]([NH3+])C(=O)[O-]
REMARK SMILES IDX 4 1 3 2 2 3 1 4 5 8 6 9 7 10 8 14 9 15 10 16
REMARK H PARENT 1 5 1 6 1 7 7 11 7 12 7 13
REMARK Flexibility Score: inf
ROOT
ATOM      1  C   UNL     1     -46.395 122.048  15.461  1.00  0.00     0.012 C 
ENDROOT
BRANCH   1   2
ATOM      2  C   UNL     1     -44.969 121.515  15.245  1.00  0.00     0.061 C 
BRANCH   2   3
ATOM      3  C   UNL     1     -43.952 122.638  14.983  1.00  0.00     0.258 C 
BRANCH   3   4
ATOM      4  N   UNL     1     -44.006 123.072  13.587  1.00  0.00    -0.358 N 
ATOM      5  H   UNL     1     -44.795 122.584  13.106  1.00  0.00     0.344 HD
ATOM      6  H   UNL     1     -43.112 122.831  13.101  1.00  0.00     0.344 HD
ATOM      7  H   UNL     1     -44.168 124.105  13.537  1.00  0.00     0.344 HD
ENDBRANCH   3   4
ENDBRANCH   2   3
ENDBRANCH   1   2
BRANCH   1   8
ATOM      8  C   UNL     1     -46.425 123.340  16.297  1.00  0.00     0.072 C 
BRANCH   8   9
ATOM      9  C   UNL     1     -47.079 124.511  15.534  1.00  0.00     0.227 C 
BRANCH   9  10
ATOM     10  N   UNL     1     -47.628 124.046  14.254  1.00  0.00    -0.350 N 
ATOM     11  H   UNL     1     -48.094 123.117  14.384  1.00  0.00     0.345 HD
ATOM     12  H   UNL     1     -46.855 123.929  13.559  1.00  0.00     0.345 HD
ATOM     13  H   UNL     1     -48.325 124.732  13.880  1.00  0.00     0.345 HD
ENDBRANCH   9  10
BRANCH   9  14
ATOM     14  C   UNL     1     -46.089 125.621  15.296  1.00  0.00     0.099 C 
ATOM     15  O   UNL     1     -45.871 126.478  16.194  1.00  0.00    -0.544 OA
ATOM     16  O   UNL     1     -45.406 125.706  14.089  1.00  0.00    -0.544 OA
ENDBRANCH   9  14
ENDBRANCH   8   9
ENDBRANCH   1   8
TORSDOF 7
ENDMDL
MODEL 7
REMARK VINA RESULT:    -3.865      9.274     10.774
REMARK INTER + INTRA:          -5.321
REMARK INTER:                  -4.859
REMARK INTRA:                  -0.463
REMARK UNBOUND:                -0.100
REMARK SMILES [NH3+]CCCC[C@H]([NH3+])C(=O)[O-]
REMARK SMILES IDX 4 1 3 2 2 3 1 4 5 8 6 9 7 10 8 14 9 15 10 16
REMARK H PARENT 1 5 1 6 1 7 7 11 7 12 7 13
REMARK Flexibility Score: inf
ROOT
ATOM      1  C   UNL     1     -44.721 124.268  16.232  1.00  0.00     0.012 C 
ENDROOT
BRANCH   1   2
ATOM      2  C   UNL     1     -43.703 123.241  15.710  1.00  0.00     0.061 C 
BRANCH   2   3
ATOM      3  C   UNL     1     -44.186 122.522  14.441  1.00  0.00     0.258 C 
BRANCH   3   4
ATOM      4  N   UNL     1     -43.593 123.121  13.245  1.00  0.00    -0.358 N 
ATOM      5  H   UNL     1     -44.088 124.017  13.030  1.00  0.00     0.344 HD
ATOM      6  H   UNL     1     -43.697 122.474  12.430  1.00  0.00     0.344 HD
ATOM      7  H   UNL     1     -42.581 123.325  13.409  1.00  0.00     0.344 HD
ENDBRANCH   3   4
ENDBRANCH   2   3
ENDBRANCH   1   2
BRANCH   1   8
ATOM      8  C   UNL     1     -44.425 125.698  15.745  1.00  0.00     0.072 C 
BRANCH   8   9
ATOM      9  C   UNL     1     -45.377 126.136  14.612  1.00  0.00     0.227 C 
BRANCH   9  10
ATOM     10  N   UNL     1     -46.420 125.126  14.400  1.00  0.00    -0.350 N 
ATOM     11  H   UNL     1     -46.015 124.295  13.907  1.00  0.00     0.345 HD
ATOM     12  H   UNL     1     -47.181 125.521  13.800  1.00  0.00     0.345 HD
ATOM     13  H   UNL     1     -46.829 124.818  15.314  1.00  0.00     0.345 HD
ENDBRANCH   9  10
BRANCH   9  14
ATOM     14  C   UNL     1     -44.620 126.370  13.331  1.00  0.00     0.099 C 
ATOM     15  O   UNL     1     -43.376 126.176  13.286  1.00  0.00    -0.544 OA
ATOM     16  O   UNL     1     -45.288 126.797  12.189  1.00  0.00    -0.544 OA
ENDBRANCH   9  14
ENDBRANCH   8   9
ENDBRANCH   1   8
TORSDOF 7
ENDMDL
MODEL 8
REMARK VINA RESULT:    -3.736      9.936     11.251
REMARK INTER + INTRA:          -5.146
REMARK INTER:                  -4.970
REMARK INTRA:                  -0.176
REMARK UNBOUND:                -0.100
REMARK SMILES [NH3+]CCCC[C@H]([NH3+])C(=O)[O-]
REMARK SMILES IDX 4 1 3 2 2 3 1 4 5 8 6 9 7 10 8 14 9 15 10 16
REMARK H PARENT 1 5 1 6 1 7 7 11 7 12 7 13
REMARK Flexibility Score: inf
ROOT
ATOM      1  C   UNL     1     -45.378 126.009  14.675  1.00  0.00     0.012 C 
ENDROOT
BRANCH   1   2
ATOM      2  C   UNL     1     -44.393 126.338  13.541  1.00  0.00     0.061 C 
BRANCH   2   3
ATOM      3  C   UNL     1     -45.104 126.712  12.230  1.00  0.00     0.258 C 
BRANCH   3   4
ATOM      4  N   UNL     1     -44.771 128.079  11.829  1.00  0.00    -0.358 N 
ATOM      5  H   UNL     1     -45.532 128.723  12.145  1.00  0.00     0.344 HD
ATOM      6  H   UNL     1     -44.688 128.138  10.789  1.00  0.00     0.344 HD
ATOM      7  H   UNL     1     -43.872 128.376  12.274  1.00  0.00     0.344 HD
ENDBRANCH   3   4
ENDBRANCH   2   3
ENDBRANCH   1   2
BRANCH   1   8
ATOM      8  C   UNL     1     -45.449 124.502  14.980  1.00  0.00     0.072 C 
BRANCH   8   9
ATOM      9  C   UNL     1     -44.108 123.788  14.705  1.00  0.00     0.227 C 
BRANCH   9  10
ATOM     10  N   UNL     1     -44.302 122.677  13.766  1.00  0.00    -0.350 N 
ATOM     11  H   UNL     1     -44.029 121.775  14.221  1.00  0.00     0.345 HD
ATOM     12  H   UNL     1     -43.695 122.814  12.924  1.00  0.00     0.345 HD
ATOM     13  H   UNL     1     -45.302 122.620  13.462  1.00  0.00     0.345 HD
ENDBRANCH   9  10
BRANCH   9  14
ATOM     14  C   UNL     1     -43.495 123.279  15.984  1.00  0.00     0.099 C 
ATOM     15  O   UNL     1     -43.800 122.137  16.420  1.00  0.00    -0.544 OA
ATOM     16  O   UNL     1     -42.588 124.061  16.688  1.00  0.00    -0.544 OA
ENDBRANCH   9  14
ENDBRANCH   8   9
ENDBRANCH   1   8
TORSDOF 7
ENDMDL
MODEL 9
REMARK VINA RESULT:    -3.650      9.696     11.087
REMARK INTER + INTRA:          -5.030
REMARK INTER:                  -4.877
REMARK INTRA:                  -0.153
REMARK UNBOUND:                -0.100
REMARK SMILES [NH3+]CCCC[C@H]([NH3+])C(=O)[O-]
REMARK SMILES IDX 4 1 3 2 2 3 1 4 5 8 6 9 7 10 8 14 9 15 10 16
REMARK H PARENT 1 5 1 6 1 7 7 11 7 12 7 13
REMARK Flexibility Score: inf
ROOT
ATOM      1  C   UNL     1     -46.166 124.648  15.158  1.00  0.00     0.012 C 
ENDROOT
BRANCH   1   2
ATOM      2  C   UNL     1     -45.504 126.012  14.902  1.00  0.00     0.061 C 
BRANCH   2   3
ATOM      3  C   UNL     1     -44.630 126.017  13.637  1.00  0.00     0.258 C 
BRANCH   3   4
ATOM      4  N   UNL     1     -45.420 126.379  12.460  1.00  0.00    -0.358 N 
ATOM      5  H   UNL     1     -45.900 125.525  12.094  1.00  0.00     0.344 HD
ATOM      6  H   UNL     1     -44.796 126.762  11.714  1.00  0.00     0.344 HD
ATOM      7  H   UNL     1     -46.144 127.089  12.717  1.00  0.00     0.344 HD
ENDBRANCH   3   4
ENDBRANCH   2   3
ENDBRANCH   1   2
BRANCH   1   8
ATOM      8  C   UNL     1     -45.176 123.476  15.037  1.00  0.00     0.072 C 
BRANCH   8   9
ATOM      9  C   UNL     1     -45.893 122.132  14.791  1.00  0.00     0.227 C 
BRANCH   9  10
ATOM     10  N   UNL     1     -47.289 122.360  14.401  1.00  0.00    -0.350 N 
ATOM     11  H   UNL     1     -47.898 121.608  14.803  1.00  0.00     0.345 HD
ATOM     12  H   UNL     1     -47.377 122.326  13.359  1.00  0.00     0.345 HD
ATOM     13  H   UNL     1     -47.622 123.292  14.743  1.00  0.00     0.345 HD
ENDBRANCH   9  10
BRANCH   9  14
ATOM     14  C   UNL     1     -45.838 121.257  16.016  1.00  0.00     0.099 C 
ATOM     15  O   UNL     1     -45.273 120.132  15.966  1.00  0.00    -0.544 OA
ATOM     16  O   UNL     1     -46.404 121.686  17.211  1.00  0.00    -0.544 OA
ENDBRANCH   9  14
ENDBRANCH   8   9
ENDBRANCH   1   8
TORSDOF 7
ENDMDL
