MODEL 1
REMARK VINA RESULT:    -3.370      0.000      0.000
REMARK INTER + INTRA:          -6.241
REMARK INTER:                  -5.341
REMARK INTRA:                  -0.901
REMARK UNBOUND:                -0.901
REMARK SMILES CCCCCCCCCCCC(=O)[O-]
REMARK SMILES IDX 7 1 8 2 9 3 10 4 11 5 12 6 13 7 14 8 6 9 5 10 4 11 3 12 2 13
REMARK SMILES IDX 1 14
REMARK H PARENT
REMARK Flexibility Score: inf
ROOT
ATOM      1  C   UNL     1      31.993  10.751  23.386  1.00  0.00     0.000 C 
ENDROOT
BRANCH   1   2
ATOM      2  C   UNL     1      31.261   9.495  22.880  1.00  0.00     0.000 C 
BRANCH   2   3
ATOM      3  C   UNL     1      32.022   8.773  21.754  1.00  0.00     0.000 C 
BRANCH   3   4
ATOM      4  C   UNL     1      31.452   7.395  21.369  1.00  0.00     0.006 C 
BRANCH   4   5
ATOM      5  C   UNL     1      32.544   6.371  21.032  1.00  0.00     0.053 C 
BRANCH   5   6
ATOM      6  C   UNL     1      32.056   4.982  21.298  1.00  0.00     0.041 C 
ATOM      7  O   UNL     1      31.028   4.548  20.714  1.00  0.00    -0.550 OA
ATOM      8  O   UNL     1      32.766   4.147  22.152  1.00  0.00    -0.550 OA
ENDBRANCH   5   6
ENDBRANCH   4   5
ENDBRANCH   3   4
ENDBRANCH   2   3
ENDBRANCH   1   2
BRANCH   1   9
ATOM      9  C   UNL     1      32.849  11.414  22.296  1.00  0.00     0.000 C 
BRANCH   9  10
ATOM     10  C   UNL     1      34.087  12.125  22.871  1.00  0.00    -0.000 C 
BRANCH  10  11
ATOM     11  C   UNL     1      35.292  11.182  23.019  1.00  0.00    -0.000 C 
BRANCH  11  12
ATOM     12  C   UNL     1      35.481  10.271  21.795  1.00  0.00    -0.000 C 
BRANCH  12  13
ATOM     13  C   UNL     1      36.311   9.019  22.115  1.00  0.00    -0.003 C 
ATOM     14  C   UNL     1      35.954   7.830  21.224  1.00  0.00     0.004 C 
ENDBRANCH  12  13
ENDBRANCH  11  12
ENDBRANCH  10  11
ENDBRANCH   9  10
ENDBRANCH   1   9
TORSDOF 10
ENDMDL
MODEL 2
REMARK VINA RESULT:    -3.353      2.236      4.514
REMARK INTER + INTRA:          -6.214
REMARK INTER:                  -5.258
REMARK INTRA:                  -0.956
REMARK UNBOUND:                -0.901
REMARK SMILES CCCCCCCCCCCC(=O)[O-]
REMARK SMILES IDX 7 1 8 2 9 3 10 4 11 5 12 6 13 7 14 8 6 9 5 10 4 11 3 12 2 13
REMARK SMILES IDX 1 14
REMARK H PARENT
REMARK Flexibility Score: inf
ROOT
ATOM      1  C   UNL     1      34.615  11.279  23.510  1.00  0.00     0.000 C 
ENDROOT
BRANCH   1   2
ATOM      2  C   UNL     1      35.885  10.738  22.832  1.00  0.00     0.000 C 
BRANCH   2   3
ATOM      3  C   UNL     1      35.589   9.972  21.530  1.00  0.00     0.000 C 
BRANCH   3   4
ATOM      4  C   UNL     1      36.131   8.531  21.489  1.00  0.00     0.006 C 
BRANCH   4   5
ATOM      5  C   UNL     1      37.381   8.339  22.358  1.00  0.00     0.053 C 
BRANCH   5   6
ATOM      6  C   UNL     1      37.464   6.928  22.848  1.00  0.00     0.041 C 
ATOM      7  O   UNL     1      36.935   5.995  22.186  1.00  0.00    -0.550 OA
ATOM      8  O   UNL     1      38.168   6.634  24.009  1.00  0.00    -0.550 OA
ENDBRANCH   5   6
ENDBRANCH   4   5
ENDBRANCH   3   4
ENDBRANCH   2   3
ENDBRANCH   1   2
BRANCH   1   9
ATOM      9  C   UNL     1      33.753  12.124  22.558  1.00  0.00     0.000 C 
BRANCH   9  10
ATOM     10  C   UNL     1      32.302  11.620  22.474  1.00  0.00    -0.000 C 
BRANCH  10  11
ATOM     11  C   UNL     1      32.042  10.417  23.395  1.00  0.00    -0.000 C 
BRANCH  11  12
ATOM     12  C   UNL     1      31.215   9.317  22.709  1.00  0.00    -0.000 C 
BRANCH  12  13
ATOM     13  C   UNL     1      32.025   8.540  21.660  1.00  0.00    -0.003 C 
ATOM     14  C   UNL     1      31.508   7.118  21.449  1.00  0.00     0.004 C 
ENDBRANCH  12  13
ENDBRANCH  11  12
ENDBRANCH  10  11
ENDBRANCH   9  10
ENDBRANCH   1   9
TORSDOF 10
ENDMDL
MODEL 3
REMARK VINA RESULT:    -3.350      1.058      1.608
REMARK INTER + INTRA:          -6.210
REMARK INTER:                  -5.256
REMARK INTRA:                  -0.953
REMARK UNBOUND:                -0.901
REMARK SMILES CCCCCCCCCCCC(=O)[O-]
REMARK SMILES IDX 7 1 8 2 9 3 10 4 11 5 12 6 13 7 14 8 6 9 5 10 4 11 3 12 2 13
REMARK SMILES IDX 1 14
REMARK H PARENT
REMARK Flexibility Score: inf
ROOT
ATOM      1  C   UNL     1      32.664  11.603  22.269  1.00  0.00     0.000 C 
ENDROOT
BRANCH   1   2
ATOM      2  C   UNL     1      32.008  10.813  23.415  1.00  0.00     0.000 C 
BRANCH   2   3
ATOM      3  C   UNL     1      31.272   9.552  22.927  1.00  0.00     0.000 C 
BRANCH   3   4
ATOM      4  C   UNL     1      32.016   8.745  21.847  1.00  0.00     0.006 C 
BRANCH   4   5
ATOM      5  C   UNL     1      31.294   7.445  21.470  1.00  0.00     0.053 C 
BRANCH   5   6
ATOM      6  C   UNL     1      32.286   6.380  21.123  1.00  0.00     0.041 C 
ATOM      7  O   UNL     1      32.227   5.252  21.681  1.00  0.00    -0.550 OA
ATOM      8  O   UNL     1      33.245   6.615  20.145  1.00  0.00    -0.550 OA
ENDBRANCH   5   6
ENDBRANCH   4   5
ENDBRANCH   3   4
ENDBRANCH   2   3
ENDBRANCH   1   2
BRANCH   1   9
ATOM      9  C   UNL     1      34.062  12.125  22.638  1.00  0.00     0.000 C 
BRANCH   9  10
ATOM     10  C   UNL     1      34.937  11.047  23.301  1.00  0.00    -0.000 C 
BRANCH  10  11
ATOM     11  C   UNL     1      36.405  11.121  22.852  1.00  0.00    -0.000 C 
BRANCH  11  12
ATOM     12  C   UNL     1      36.695  10.225  21.636  1.00  0.00    -0.000 C 
BRANCH  12  13
ATOM     13  C   UNL     1      35.732   9.033  21.540  1.00  0.00    -0.003 C 
ATOM     14  C   UNL     1      36.434   7.689  21.728  1.00  0.00     0.004 C 
ENDBRANCH  12  13
ENDBRANCH  11  12
ENDBRANCH  10  11
ENDBRANCH   9  10
ENDBRANCH   1   9
TORSDOF 10
ENDMDL
MODEL 4
REMARK VINA RESULT:    -3.256      1.078      1.806
REMARK INTER + INTRA:          -6.060
REMARK INTER:                  -5.385
REMARK INTRA:                  -0.676
REMARK UNBOUND:                -0.901
REMARK SMILES CCCCCCCCCCCC(=O)[O-]
REMARK SMILES IDX 7 1 8 2 9 3 10 4 11 5 12 6 13 7 14 8 6 9 5 10 4 11 3 12 2 13
REMARK SMILES IDX 1 14
REMARK H PARENT
REMARK Flexibility Score: inf
ROOT
ATOM      1  C   UNL     1      31.243   9.453  22.863  1.00  0.00     0.000 C 
ENDROOT
BRANCH   1   2
ATOM      2  C   UNL     1      32.004   8.735  21.735  1.00  0.00     0.000 C 
BRANCH   2   3
ATOM      3  C   UNL     1      31.412   7.355  21.397  1.00  0.00     0.000 C 
BRANCH   3   4
ATOM      4  C   UNL     1      32.447   6.285  21.002  1.00  0.00     0.006 C 
BRANCH   4   5
ATOM      5  C   UNL     1      32.247   4.958  21.745  1.00  0.00     0.053 C 
BRANCH   5   6
ATOM      6  C   UNL     1      33.247   3.946  21.283  1.00  0.00     0.041 C 
ATOM      7  O   UNL     1      34.401   4.310  20.933  1.00  0.00    -0.550 OA
ATOM      8  O   UNL     1      32.923   2.595  21.287  1.00  0.00    -0.550 OA
ENDBRANCH   5   6
ENDBRANCH   4   5
ENDBRANCH   3   4
ENDBRANCH   2   3
ENDBRANCH   1   2
BRANCH   1   9
ATOM      9  C   UNL     1      31.954  10.732  23.333  1.00  0.00     0.000 C 
BRANCH   9  10
ATOM     10  C   UNL     1      32.823  11.361  22.229  1.00  0.00    -0.000 C 
BRANCH  10  11
ATOM     11  C   UNL     1      34.074  12.056  22.790  1.00  0.00    -0.000 C 
BRANCH  11  12
ATOM     12  C   UNL     1      35.147  11.056  23.252  1.00  0.00    -0.000 C 
BRANCH  12  13
ATOM     13  C   UNL     1      35.448   9.984  22.193  1.00  0.00    -0.003 C 
ATOM     14  C   UNL     1      36.806   9.316  22.398  1.00  0.00     0.004 C 
ENDBRANCH  12  13
ENDBRANCH  11  12
ENDBRANCH  10  11
ENDBRANCH   9  10
ENDBRANCH   1   9
TORSDOF 10
ENDMDL
MODEL 5
REMARK VINA RESULT:    -3.235      1.839      2.480
REMARK INTER + INTRA:          -6.026
REMARK INTER:                  -5.024
REMARK INTRA:                  -1.002
REMARK UNBOUND:                -0.901
REMARK SMILES CCCCCCCCCCCC(=O)[O-]
REMARK SMILES IDX 7 1 8 2 9 3 10 4 11 5 12 6 13 7 14 8 6 9 5 10 4 11 3 12 2 13
REMARK SMILES IDX 1 14
REMARK H PARENT
REMARK Flexibility Score: inf
ROOT
ATOM      1  C   UNL     1      31.248   9.483  22.941  1.00  0.00     0.000 C 
ENDROOT
BRANCH   1   2
ATOM      2  C   UNL     1      31.952   8.722  21.804  1.00  0.00     0.000 C 
BRANCH   2   3
ATOM      3  C   UNL     1      31.231   7.417  21.421  1.00  0.00     0.000 C 
BRANCH   3   4
ATOM      4  C   UNL     1      32.158   6.274  20.966  1.00  0.00     0.006 C 
BRANCH   4   5
ATOM      5  C   UNL     1      33.556   6.764  20.565  1.00  0.00     0.053 C 
BRANCH   5   6
ATOM      6  C   UNL     1      33.688   6.800  19.076  1.00  0.00     0.041 C 
ATOM      7  O   UNL     1      34.213   5.833  18.462  1.00  0.00    -0.550 OA
ATOM      8  O   UNL     1      33.185   7.879  18.359  1.00  0.00    -0.550 OA
ENDBRANCH   5   6
ENDBRANCH   4   5
ENDBRANCH   3   4
ENDBRANCH   2   3
ENDBRANCH   1   2
BRANCH   1   9
ATOM      9  C   UNL     1      32.032  10.725  23.393  1.00  0.00     0.000 C 
BRANCH   9  10
ATOM     10  C   UNL     1      32.531  11.569  22.207  1.00  0.00    -0.000 C 
BRANCH  10  11
ATOM     11  C   UNL     1      33.970  12.073  22.406  1.00  0.00    -0.000 C 
BRANCH  11  12
ATOM     12  C   UNL     1      34.736  11.264  23.466  1.00  0.00    -0.000 C 
BRANCH  12  13
ATOM     13  C   UNL     1      35.976  10.564  22.890  1.00  0.00    -0.003 C 
ATOM     14  C   UNL     1      35.635   9.600  21.754  1.00  0.00     0.004 C 
ENDBRANCH  12  13
ENDBRANCH  11  12
ENDBRANCH  10  11
ENDBRANCH   9  10
ENDBRANCH   1   9
TORSDOF 10
ENDMDL
MODEL 6
REMARK VINA RESULT:    -3.207      2.819      4.858
REMARK INTER + INTRA:          -5.983
REMARK INTER:                  -4.944
REMARK INTRA:                  -1.039
REMARK UNBOUND:                -0.901
REMARK SMILES CCCCCCCCCCCC(=O)[O-]
REMARK SMILES IDX 7 1 8 2 9 3 10 4 11 5 12 6 13 7 14 8 6 9 5 10 4 11 3 12 2 13
REMARK SMILES IDX 1 14
REMARK H PARENT
REMARK Flexibility Score: inf
ROOT
ATOM      1  C   UNL     1      32.633  11.408  21.945  1.00  0.00     0.000 C 
ENDROOT
BRANCH   1   2
ATOM      2  C   UNL     1      33.943  12.125  22.320  1.00  0.00     0.000 C 
BRANCH   2   3
ATOM      3  C   UNL     1      34.739  11.385  23.410  1.00  0.00     0.000 C 
BRANCH   3   4
ATOM      4  C   UNL     1      36.005  10.665  22.910  1.00  0.00     0.006 C 
BRANCH   4   5
ATOM      5  C   UNL     1      35.693   9.482  21.985  1.00  0.00     0.053 C 
BRANCH   5   6
ATOM      6  C   UNL     1      36.093   9.799  20.579  1.00  0.00     0.041 C 
ATOM      7  O   UNL     1      35.214  10.030  19.707  1.00  0.00    -0.550 OA
ATOM      8  O   UNL     1      37.438   9.890  20.242  1.00  0.00    -0.550 OA
ENDBRANCH   5   6
ENDBRANCH   4   5
ENDBRANCH   3   4
ENDBRANCH   2   3
ENDBRANCH   1   2
BRANCH   1   9
ATOM      9  C   UNL     1      31.901  10.841  23.171  1.00  0.00     0.000 C 
BRANCH   9  10
ATOM     10  C   UNL     1      31.249   9.476  22.888  1.00  0.00    -0.000 C 
BRANCH  10  11
ATOM     11  C   UNL     1      31.969   8.700  21.773  1.00  0.00    -0.000 C 
BRANCH  11  12
ATOM     12  C   UNL     1      31.246   7.395  21.402  1.00  0.00    -0.000 C 
BRANCH  12  13
ATOM     13  C   UNL     1      32.218   6.285  20.972  1.00  0.00    -0.003 C 
ATOM     14  C   UNL     1      33.597   6.822  20.593  1.00  0.00     0.004 C 
ENDBRANCH  12  13
ENDBRANCH  11  12
ENDBRANCH  10  11
ENDBRANCH   9  10
ENDBRANCH   1   9
TORSDOF 10
ENDMDL
MODEL 7
REMARK VINA RESULT:    -3.184      3.724      5.815
REMARK INTER + INTRA:          -5.945
REMARK INTER:                  -5.157
REMARK INTRA:                  -0.789
REMARK UNBOUND:                -0.901
REMARK SMILES CCCCCCCCCCCC(=O)[O-]
REMARK SMILES IDX 7 1 8 2 9 3 10 4 11 5 12 6 13 7 14 8 6 9 5 10 4 11 3 12 2 13
REMARK SMILES IDX 1 14
REMARK H PARENT
REMARK Flexibility Score: inf
ROOT
ATOM      1  C   UNL     1      34.024  11.790  22.263  1.00  0.00     0.000 C 
ENDROOT
BRANCH   1   2
ATOM      2  C   UNL     1      34.868  10.656  22.871  1.00  0.00     0.000 C 
BRANCH   2   3
ATOM      3  C   UNL     1      35.350   9.640  21.821  1.00  0.00     0.000 C 
BRANCH   3   4
ATOM      4  C   UNL     1      36.722   9.005  22.117  1.00  0.00     0.006 C 
BRANCH   4   5
ATOM      5  C   UNL     1      37.444   9.668  23.297  1.00  0.00     0.053 C 
BRANCH   5   6
ATOM      6  C   UNL     1      38.611  10.468  22.812  1.00  0.00     0.041 C 
ATOM      7  O   UNL     1      39.753  10.293  23.315  1.00  0.00    -0.550 OA
ATOM      8  O   UNL     1      38.450  11.371  21.768  1.00  0.00    -0.550 OA
ENDBRANCH   5   6
ENDBRANCH   4   5
ENDBRANCH   3   4
ENDBRANCH   2   3
ENDBRANCH   1   2
BRANCH   1   9
ATOM      9  C   UNL     1      32.532  11.432  22.174  1.00  0.00     0.000 C 
BRANCH   9  10
ATOM     10  C   UNL     1      32.052  10.611  23.383  1.00  0.00    -0.000 C 
BRANCH  10  11
ATOM     11  C   UNL     1      31.212   9.391  22.970  1.00  0.00    -0.000 C 
BRANCH  11  12
ATOM     12  C   UNL     1      31.825   8.627  21.785  1.00  0.00    -0.000 C 
BRANCH  12  13
ATOM     13  C   UNL     1      31.011   7.383  21.401  1.00  0.00    -0.003 C 
ATOM     14  C   UNL     1      31.842   6.102  21.428  1.00  0.00     0.004 C 
ENDBRANCH  12  13
ENDBRANCH  11  12
ENDBRANCH  10  11
ENDBRANCH   9  10
ENDBRANCH   1   9
TORSDOF 10
ENDMDL
MODEL 8
REMARK VINA RESULT:    -3.167      2.875      5.392
REMARK INTER + INTRA:          -5.918
REMARK INTER:                  -5.185
REMARK INTRA:                  -0.734
REMARK UNBOUND:                -0.901
REMARK SMILES CCCCCCCCCCCC(=O)[O-]
REMARK SMILES IDX 7 1 8 2 9 3 10 4 11 5 12 6 13 7 14 8 6 9 5 10 4 11 3 12 2 13
REMARK SMILES IDX 1 14
REMARK H PARENT
REMARK Flexibility Score: inf
ROOT
ATOM      1  C   UNL     1      31.977   8.726  21.808  1.00  0.00     0.000 C 
ENDROOT
BRANCH   1   2
ATOM      2  C   UNL     1      31.311   9.534  22.935  1.00  0.00     0.000 C 
BRANCH   2   3
ATOM      3  C   UNL     1      32.099  10.803  23.307  1.00  0.00     0.000 C 
BRANCH   3   4
ATOM      4  C   UNL     1      33.389  11.026  22.495  1.00  0.00     0.006 C 
BRANCH   4   5
ATOM      5  C   UNL     1      34.636  11.148  23.379  1.00  0.00     0.053 C 
BRANCH   5   6
ATOM      6  C   UNL     1      35.794  10.440  22.749  1.00  0.00     0.041 C 
ATOM      7  O   UNL     1      35.604   9.400  22.064  1.00  0.00    -0.550 OA
ATOM      8  O   UNL     1      37.078  10.956  22.876  1.00  0.00    -0.550 OA
ENDBRANCH   5   6
ENDBRANCH   4   5
ENDBRANCH   3   4
ENDBRANCH   2   3
ENDBRANCH   1   2
BRANCH   1   9
ATOM      9  C   UNL     1      31.213   7.435  21.478  1.00  0.00     0.000 C 
BRANCH   9  10
ATOM     10  C   UNL     1      31.354   7.029  20.000  1.00  0.00    -0.000 C 
BRANCH  10  11
ATOM     11  C   UNL     1      32.012   5.650  19.829  1.00  0.00    -0.000 C 
BRANCH  11  12
ATOM     12  C   UNL     1      33.542   5.705  19.971  1.00  0.00    -0.000 C 
BRANCH  12  13
ATOM     13  C   UNL     1      34.042   4.988  21.234  1.00  0.00    -0.003 C 
ATOM     14  C   UNL     1      32.939   4.204  21.943  1.00  0.00     0.004 C 
ENDBRANCH  12  13
ENDBRANCH  11  12
ENDBRANCH  10  11
ENDBRANCH   9  10
ENDBRANCH   1   9
TORSDOF 10
ENDMDL
MODEL 9
REMARK VINA RESULT:    -3.165      1.405      3.305
REMARK INTER + INTRA:          -5.916
REMARK INTER:                  -4.758
REMARK INTRA:                  -1.158
REMARK UNBOUND:                -0.901
REMARK SMILES CCCCCCCCCCCC(=O)[O-]
REMARK SMILES IDX 7 1 8 2 9 3 10 4 11 5 12 6 13 7 14 8 6 9 5 10 4 11 3 12 2 13
REMARK SMILES IDX 1 14
REMARK H PARENT
REMARK Flexibility Score: inf
ROOT
ATOM      1  C   UNL     1      35.581   9.327  21.465  1.00  0.00     0.000 C 
ENDROOT
BRANCH   1   2
ATOM      2  C   UNL     1      35.383   9.692  19.983  1.00  0.00     0.000 C 
BRANCH   2   3
ATOM      3  C   UNL     1      34.001   9.281  19.445  1.00  0.00     0.000 C 
BRANCH   3   4
ATOM      4  C   UNL     1      33.227   8.292  20.337  1.00  0.00     0.006 C 
BRANCH   4   5
ATOM      5  C   UNL     1      33.146   6.883  19.735  1.00  0.00     0.053 C 
BRANCH   5   6
ATOM      6  C   UNL     1      32.068   6.091  20.406  1.00  0.00     0.041 C 
ATOM      7  O   UNL     1      32.234   4.864  20.635  1.00  0.00    -0.550 OA
ATOM      8  O   UNL     1      30.902   6.719  20.824  1.00  0.00    -0.550 OA
ENDBRANCH   5   6
ENDBRANCH   4   5
ENDBRANCH   3   4
ENDBRANCH   2   3
ENDBRANCH   1   2
BRANCH   1   9
ATOM      9  C   UNL     1      35.973  10.540  22.323  1.00  0.00     0.000 C 
BRANCH   9  10
ATOM     10  C   UNL     1      34.819  11.026  23.217  1.00  0.00    -0.000 C 
BRANCH  10  11
ATOM     11  C   UNL     1      33.959  12.102  22.535  1.00  0.00    -0.000 C 
BRANCH  11  12
ATOM     12  C   UNL     1      32.471  11.716  22.475  1.00  0.00    -0.000 C 
BRANCH  12  13
ATOM     13  C   UNL     1      32.103  10.630  23.497  1.00  0.00    -0.003 C 
ATOM     14  C   UNL     1      31.265   9.507  22.888  1.00  0.00     0.004 C 
ENDBRANCH  12  13
ENDBRANCH  11  12
ENDBRANCH  10  11
ENDBRANCH   9  10
ENDBRANCH   1   9
TORSDOF 10
ENDMDL
