MODEL 1
REMARK VINA RESULT:    -7.308      0.000      0.000
REMARK INTER + INTRA:          -7.949
REMARK INTER:                  -7.949
REMARK INTRA:                   0.000
REMARK UNBOUND:                 0.000
REMARK SMILES Cc1cc(O)c2c(c1)C(=O)c1cc(O)cc(O)c1C2=O
REMARK SMILES IDX 1 1 2 2 8 3 7 4 6 5 4 6 3 7 19 8 20 9 18 10 11 11 9 12 10 13
REMARK SMILES IDX 12 14 13 15 15 16 16 17 5 18 17 20 14 22
REMARK H PARENT 5 19 17 21 14 23
REMARK Flexibility Score: inf
ROOT
ATOM      1  C   UNL     1      -6.927   9.763  -0.493  1.00  0.00     0.044 C 
ATOM      2  C   UNL     1      -7.202   8.419  -1.100  1.00  0.00    -0.047 A 
ATOM      3  C   UNL     1      -6.462   7.980  -2.203  1.00  0.00     0.016 A 
ATOM      4  C   UNL     1      -6.694   6.712  -2.762  1.00  0.00     0.038 A 
ATOM      5  C   UNL     1      -7.682   5.868  -2.206  1.00  0.00     0.076 A 
ATOM      6  C   UNL     1      -8.368   6.284  -1.036  1.00  0.00     0.127 A 
ATOM      7  C   UNL     1      -8.135   7.559  -0.511  1.00  0.00     0.050 A 
ATOM      8  C   UNL     1      -8.000   4.600  -2.911  1.00  0.00     0.201 C 
ATOM      9  O   UNL     1      -9.162   4.119  -2.841  1.00  0.00    -0.288 OA
ATOM     10  C   UNL     1      -7.008   4.004  -3.843  1.00  0.00     0.076 A 
ATOM     11  C   UNL     1      -6.020   4.850  -4.396  1.00  0.00     0.041 A 
ATOM     12  C   UNL     1      -5.901   6.251  -3.927  1.00  0.00     0.194 C 
ATOM     13  O   UNL     1      -5.107   7.045  -4.504  1.00  0.00    -0.289 OA
ATOM     14  C   UNL     1      -5.151   4.358  -5.384  1.00  0.00     0.059 A 
ATOM     15  C   UNL     1      -5.246   3.031  -5.814  1.00  0.00     0.120 A 
ATOM     16  C   UNL     1      -6.193   2.183  -5.243  1.00  0.00     0.093 A 
ATOM     17  C   UNL     1      -7.056   2.643  -4.243  1.00  0.00     0.131 A 
ENDROOT
BRANCH   6  18
ATOM     18  O   UNL     1      -9.256   5.456  -0.347  1.00  0.00    -0.507 OA
ATOM     19  H   UNL     1      -9.704   4.650  -0.761  1.00  0.00     0.293 HD
ENDBRANCH   6  18
BRANCH  17  20
ATOM     20  O   UNL     1      -7.914   1.712  -3.654  1.00  0.00    -0.507 OA
ATOM     21  H   UNL     1      -8.887   1.610  -3.909  1.00  0.00     0.293 HD
ENDBRANCH  17  20
BRANCH  15  22
ATOM     22  O   UNL     1      -4.394   2.543  -6.803  1.00  0.00    -0.508 OA
ATOM     23  H   UNL     1      -4.734   1.944  -7.546  1.00  0.00     0.293 HD
ENDBRANCH  15  22
TORSDOF 3
ENDMDL
MODEL 2
REMARK VINA RESULT:    -7.179     12.054     14.129
REMARK INTER + INTRA:          -7.809
REMARK INTER:                  -7.809
REMARK INTRA:                   0.000
REMARK UNBOUND:                 0.000
REMARK SMILES Cc1cc(O)c2c(c1)C(=O)c1cc(O)cc(O)c1C2=O
REMARK SMILES IDX 1 1 2 2 8 3 7 4 6 5 4 6 3 7 19 8 20 9 18 10 11 11 9 12 10 13
REMARK SMILES IDX 12 14 13 15 15 16 16 17 5 18 17 20 14 22
REMARK H PARENT 5 19 17 21 14 23
REMARK Flexibility Score: inf
ROOT
ATOM      1  C   UNL     1      -8.006  -5.002  -1.058  1.00  0.00     0.044 C 
ATOM      2  C   UNL     1      -7.917  -5.481   0.361  1.00  0.00    -0.047 A 
ATOM      3  C   UNL     1      -6.770  -5.223   1.120  1.00  0.00     0.016 A 
ATOM      4  C   UNL     1      -6.688  -5.643   2.459  1.00  0.00     0.038 A 
ATOM      5  C   UNL     1      -7.772  -6.334   3.047  1.00  0.00     0.076 A 
ATOM      6  C   UNL     1      -8.962  -6.517   2.299  1.00  0.00     0.127 A 
ATOM      7  C   UNL     1      -9.013  -6.108   0.963  1.00  0.00     0.050 A 
ATOM      8  C   UNL     1      -7.591  -6.891   4.412  1.00  0.00     0.201 C 
ATOM      9  O   UNL     1      -8.213  -7.933   4.750  1.00  0.00    -0.288 OA
ATOM     10  C   UNL     1      -6.542  -6.333   5.305  1.00  0.00     0.076 A 
ATOM     11  C   UNL     1      -5.462  -5.641   4.713  1.00  0.00     0.041 A 
ATOM     12  C   UNL     1      -5.472  -5.359   3.258  1.00  0.00     0.194 C 
ATOM     13  O   UNL     1      -4.456  -4.856   2.705  1.00  0.00    -0.289 OA
ATOM     14  C   UNL     1      -4.383  -5.218   5.509  1.00  0.00     0.059 A 
ATOM     15  C   UNL     1      -4.378  -5.463   6.885  1.00  0.00     0.120 A 
ATOM     16  C   UNL     1      -5.461  -6.110   7.478  1.00  0.00     0.093 A 
ATOM     17  C   UNL     1      -6.556  -6.522   6.711  1.00  0.00     0.131 A 
ENDROOT
BRANCH   6  18
ATOM     18  O   UNL     1     -10.124  -7.065   2.849  1.00  0.00    -0.507 OA
ATOM     19  H   UNL     1     -11.048  -6.911   2.469  1.00  0.00     0.293 HD
ENDBRANCH   6  18
BRANCH  17  20
ATOM     20  O   UNL     1      -7.643  -7.080   7.388  1.00  0.00    -0.507 OA
ATOM     21  H   UNL     1      -7.558  -7.833   8.056  1.00  0.00     0.293 HD
ENDBRANCH  17  20
BRANCH  15  22
ATOM     22  O   UNL     1      -3.305  -5.057   7.675  1.00  0.00    -0.508 OA
ATOM     23  H   UNL     1      -2.586  -5.708   7.968  1.00  0.00     0.293 HD
ENDBRANCH  15  22
TORSDOF 3
ENDMDL
MODEL 3
REMARK VINA RESULT:    -7.052      1.552      3.665
REMARK INTER + INTRA:          -7.671
REMARK INTER:                  -7.671
REMARK INTRA:                   0.000
REMARK UNBOUND:                 0.000
REMARK SMILES Cc1cc(O)c2c(c1)C(=O)c1cc(O)cc(O)c1C2=O
REMARK SMILES IDX 1 1 2 2 8 3 7 4 6 5 4 6 3 7 19 8 20 9 18 10 11 11 9 12 10 13
REMARK SMILES IDX 12 14 13 15 15 16 16 17 5 18 17 20 14 22
REMARK H PARENT 5 19 17 21 14 23
REMARK Flexibility Score: inf
ROOT
ATOM      1  C   UNL     1      -7.159   9.695  -2.155  1.00  0.00     0.044 C 
ATOM      2  C   UNL     1      -6.856   8.373  -2.794  1.00  0.00    -0.047 A 
ATOM      3  C   UNL     1      -7.773   7.320  -2.702  1.00  0.00     0.016 A 
ATOM      4  C   UNL     1      -7.511   6.085  -3.321  1.00  0.00     0.038 A 
ATOM      5  C   UNL     1      -6.310   5.902  -4.044  1.00  0.00     0.076 A 
ATOM      6  C   UNL     1      -5.425   6.999  -4.205  1.00  0.00     0.127 A 
ATOM      7  C   UNL     1      -5.698   8.211  -3.563  1.00  0.00     0.050 A 
ATOM      8  C   UNL     1      -6.000   4.543  -4.557  1.00  0.00     0.201 C 
ATOM      9  O   UNL     1      -4.801   4.177  -4.676  1.00  0.00    -0.288 OA
ATOM     10  C   UNL     1      -7.097   3.558  -4.749  1.00  0.00     0.076 A 
ATOM     11  C   UNL     1      -8.297   3.746  -4.026  1.00  0.00     0.041 A 
ATOM     12  C   UNL     1      -8.491   4.978  -3.225  1.00  0.00     0.194 C 
ATOM     13  O   UNL     1      -9.503   5.093  -2.479  1.00  0.00    -0.289 OA
ATOM     14  C   UNL     1      -9.303   2.766  -4.075  1.00  0.00     0.059 A 
ATOM     15  C   UNL     1      -9.132   1.613  -4.846  1.00  0.00     0.120 A 
ATOM     16  C   UNL     1      -7.967   1.443  -5.592  1.00  0.00     0.093 A 
ATOM     17  C   UNL     1      -6.960   2.414  -5.577  1.00  0.00     0.131 A 
ENDROOT
BRANCH   6  18
ATOM     18  O   UNL     1      -4.290   6.941  -5.017  1.00  0.00    -0.507 OA
ATOM     19  H   UNL     1      -4.313   7.078  -6.018  1.00  0.00     0.293 HD
ENDBRANCH   6  18
BRANCH  17  20
ATOM     20  O   UNL     1      -5.864   2.217  -6.420  1.00  0.00    -0.507 OA
ATOM     21  H   UNL     1      -5.928   1.772  -7.325  1.00  0.00     0.293 HD
ENDBRANCH  17  20
BRANCH  15  22
ATOM     22  O   UNL     1     -10.123   0.633  -4.886  1.00  0.00    -0.508 OA
ATOM     23  H   UNL     1     -10.052  -0.166  -5.505  1.00  0.00     0.293 HD
ENDBRANCH  15  22
TORSDOF 3
ENDMDL
MODEL 4
REMARK VINA RESULT:    -6.827     12.099     13.443
REMARK INTER + INTRA:          -7.426
REMARK INTER:                  -7.426
REMARK INTRA:                   0.000
REMARK UNBOUND:                 0.000
REMARK SMILES Cc1cc(O)c2c(c1)C(=O)c1cc(O)cc(O)c1C2=O
REMARK SMILES IDX 1 1 2 2 8 3 7 4 6 5 4 6 3 7 19 8 20 9 18 10 11 11 9 12 10 13
REMARK SMILES IDX 12 14 13 15 15 16 16 17 5 18 17 20 14 22
REMARK H PARENT 5 19 17 21 14 23
REMARK Flexibility Score: inf
ROOT
ATOM      1  C   UNL     1      -6.062  -5.881   9.775  1.00  0.00     0.044 C 
ATOM      2  C   UNL     1      -6.459  -5.651   8.347  1.00  0.00    -0.047 A 
ATOM      3  C   UNL     1      -5.481  -5.570   7.349  1.00  0.00     0.016 A 
ATOM      4  C   UNL     1      -5.844  -5.383   6.005  1.00  0.00     0.038 A 
ATOM      5  C   UNL     1      -7.208  -5.276   5.653  1.00  0.00     0.076 A 
ATOM      6  C   UNL     1      -8.196  -5.444   6.656  1.00  0.00     0.127 A 
ATOM      7  C   UNL     1      -7.811  -5.609   7.990  1.00  0.00     0.050 A 
ATOM      8  C   UNL     1      -7.546  -4.931   4.248  1.00  0.00     0.201 C 
ATOM      9  O   UNL     1      -8.598  -4.285   3.997  1.00  0.00    -0.288 OA
ATOM     10  C   UNL     1      -6.557  -5.182   3.168  1.00  0.00     0.076 A 
ATOM     11  C   UNL     1      -5.194  -5.291   3.523  1.00  0.00     0.041 A 
ATOM     12  C   UNL     1      -4.802  -5.305   4.953  1.00  0.00     0.194 C 
ATOM     13  O   UNL     1      -3.582  -5.275   5.274  1.00  0.00    -0.289 OA
ATOM     14  C   UNL     1      -4.215  -5.391   2.520  1.00  0.00     0.059 A 
ATOM     15  C   UNL     1      -4.582  -5.399   1.171  1.00  0.00     0.120 A 
ATOM     16  C   UNL     1      -5.929  -5.332   0.818  1.00  0.00     0.093 A 
ATOM     17  C   UNL     1      -6.923  -5.253   1.798  1.00  0.00     0.131 A 
ENDROOT
BRANCH   6  18
ATOM     18  O   UNL     1      -9.563  -5.490   6.371  1.00  0.00    -0.507 OA
ATOM     19  H   UNL     1     -10.068  -6.348   6.195  1.00  0.00     0.293 HD
ENDBRANCH   6  18
BRANCH  17  20
ATOM     20  O   UNL     1      -8.252  -5.282   1.371  1.00  0.00    -0.507 OA
ATOM     21  H   UNL     1      -8.640  -4.628   0.705  1.00  0.00     0.293 HD
ENDBRANCH  17  20
BRANCH  15  22
ATOM     22  O   UNL     1      -3.613  -5.486   0.172  1.00  0.00    -0.508 OA
ATOM     23  H   UNL     1      -2.682  -5.108   0.303  1.00  0.00     0.293 HD
ENDBRANCH  15  22
TORSDOF 3
ENDMDL
MODEL 5
REMARK VINA RESULT:    -6.592      1.632      6.172
REMARK INTER + INTRA:          -7.170
REMARK INTER:                  -7.170
REMARK INTRA:                   0.000
REMARK UNBOUND:                 0.000
REMARK SMILES Cc1cc(O)c2c(c1)C(=O)c1cc(O)cc(O)c1C2=O
REMARK SMILES IDX 1 1 2 2 8 3 7 4 6 5 4 6 3 7 19 8 20 9 18 10 11 11 9 12 10 13
REMARK SMILES IDX 12 14 13 15 15 16 16 17 5 18 17 20 14 22
REMARK H PARENT 5 19 17 21 14 23
REMARK Flexibility Score: inf
ROOT
ATOM      1  C   UNL     1      -8.847   1.002  -5.747  1.00  0.00     0.044 C 
ATOM      2  C   UNL     1      -8.045   2.215  -5.380  1.00  0.00    -0.047 A 
ATOM      3  C   UNL     1      -8.641   3.265  -4.673  1.00  0.00     0.016 A 
ATOM      4  C   UNL     1      -7.892   4.394  -4.300  1.00  0.00     0.038 A 
ATOM      5  C   UNL     1      -6.522   4.473  -4.640  1.00  0.00     0.076 A 
ATOM      6  C   UNL     1      -5.905   3.369  -5.282  1.00  0.00     0.127 A 
ATOM      7  C   UNL     1      -6.675   2.265  -5.661  1.00  0.00     0.050 A 
ATOM      8  C   UNL     1      -5.801   5.741  -4.361  1.00  0.00     0.201 C 
ATOM      9  O   UNL     1      -4.841   6.091  -5.098  1.00  0.00    -0.288 OA
ATOM     10  C   UNL     1      -6.329   6.680  -3.338  1.00  0.00     0.076 A 
ATOM     11  C   UNL     1      -7.698   6.597  -2.998  1.00  0.00     0.041 A 
ATOM     12  C   UNL     1      -8.529   5.499  -3.545  1.00  0.00     0.194 C 
ATOM     13  O   UNL     1      -9.776   5.492  -3.347  1.00  0.00    -0.289 OA
ATOM     14  C   UNL     1      -8.264   7.554  -2.138  1.00  0.00     0.059 A 
ATOM     15  C   UNL     1      -7.479   8.579  -1.604  1.00  0.00     0.120 A 
ATOM     16  C   UNL     1      -6.119   8.641  -1.904  1.00  0.00     0.093 A 
ATOM     17  C   UNL     1      -5.527   7.689  -2.741  1.00  0.00     0.131 A 
ENDROOT
BRANCH   6  18
ATOM     18  O   UNL     1      -4.531   3.309  -5.527  1.00  0.00    -0.507 OA
ATOM     19  H   UNL     1      -3.832   3.632  -4.872  1.00  0.00     0.293 HD
ENDBRANCH   6  18
BRANCH  17  20
ATOM     20  O   UNL     1      -4.144   7.762  -2.922  1.00  0.00    -0.507 OA
ATOM     21  H   UNL     1      -3.487   7.883  -2.165  1.00  0.00     0.293 HD
ENDBRANCH  17  20
BRANCH  15  22
ATOM     22  O   UNL     1      -8.039   9.537  -0.761  1.00  0.00    -0.508 OA
ATOM     23  H   UNL     1      -8.393   9.293   0.157  1.00  0.00     0.293 HD
ENDBRANCH  15  22
TORSDOF 3
ENDMDL
MODEL 6
REMARK VINA RESULT:    -6.455     10.662     12.666
REMARK INTER + INTRA:          -7.021
REMARK INTER:                  -7.021
REMARK INTRA:                   0.000
REMARK UNBOUND:                 0.000
REMARK SMILES Cc1cc(O)c2c(c1)C(=O)c1cc(O)cc(O)c1C2=O
REMARK SMILES IDX 1 1 2 2 8 3 7 4 6 5 4 6 3 7 19 8 20 9 18 10 11 11 9 12 10 13
REMARK SMILES IDX 12 14 13 15 15 16 16 17 5 18 17 20 14 22
REMARK H PARENT 5 19 17 21 14 23
REMARK Flexibility Score: inf
ROOT
ATOM      1  C   UNL     1       2.732   9.941  -5.747  1.00  0.00     0.044 C 
ATOM      2  C   UNL     1       3.213   8.555  -6.058  1.00  0.00    -0.047 A 
ATOM      3  C   UNL     1       4.340   8.039  -5.410  1.00  0.00     0.016 A 
ATOM      4  C   UNL     1       4.783   6.732  -5.673  1.00  0.00     0.038 A 
ATOM      5  C   UNL     1       4.084   5.926  -6.602  1.00  0.00     0.076 A 
ATOM      6  C   UNL     1       2.894   6.425  -7.191  1.00  0.00     0.127 A 
ATOM      7  C   UNL     1       2.485   7.736  -6.929  1.00  0.00     0.050 A 
ATOM      8  C   UNL     1       4.666   4.609  -6.964  1.00  0.00     0.201 C 
ATOM      9  O   UNL     1       4.462   4.129  -8.111  1.00  0.00    -0.288 OA
ATOM     10  C   UNL     1       5.633   3.951  -6.048  1.00  0.00     0.076 A 
ATOM     11  C   UNL     1       6.328   4.758  -5.120  1.00  0.00     0.041 A 
ATOM     12  C   UNL     1       5.974   6.191  -4.977  1.00  0.00     0.194 C 
ATOM     13  O   UNL     1       6.673   6.944  -4.244  1.00  0.00    -0.289 OA
ATOM     14  C   UNL     1       7.348   4.199  -4.332  1.00  0.00     0.059 A 
ATOM     15  C   UNL     1       7.671   2.844  -4.449  1.00  0.00     0.120 A 
ATOM     16  C   UNL     1       6.960   2.035  -5.335  1.00  0.00     0.093 A 
ATOM     17  C   UNL     1       5.927   2.564  -6.115  1.00  0.00     0.131 A 
ENDROOT
BRANCH   6  18
ATOM     18  O   UNL     1       2.073   5.645  -8.009  1.00  0.00    -0.507 OA
ATOM     19  H   UNL     1       2.110   4.635  -8.037  1.00  0.00     0.293 HD
ENDBRANCH   6  18
BRANCH  17  20
ATOM     20  O   UNL     1       5.201   1.674  -6.910  1.00  0.00    -0.507 OA
ATOM     21  H   UNL     1       4.916   1.877  -7.858  1.00  0.00     0.293 HD
ENDBRANCH  17  20
BRANCH  15  22
ATOM     22  O   UNL     1       8.690   2.288  -3.678  1.00  0.00    -0.508 OA
ATOM     23  H   UNL     1       8.502   1.856  -2.781  1.00  0.00     0.293 HD
ENDBRANCH  15  22
TORSDOF 3
ENDMDL
MODEL 7
REMARK VINA RESULT:    -6.416     11.912     14.184
REMARK INTER + INTRA:          -6.979
REMARK INTER:                  -6.979
REMARK INTRA:                   0.000
REMARK UNBOUND:                 0.000
REMARK SMILES Cc1cc(O)c2c(c1)C(=O)c1cc(O)cc(O)c1C2=O
REMARK SMILES IDX 1 1 2 2 8 3 7 4 6 5 4 6 3 7 19 8 20 9 18 10 11 11 9 12 10 13
REMARK SMILES IDX 12 14 13 15 15 16 16 17 5 18 17 20 14 22
REMARK H PARENT 5 19 17 21 14 23
REMARK Flexibility Score: inf
ROOT
ATOM      1  C   UNL     1      -8.299  -4.951  -0.567  1.00  0.00     0.044 C 
ATOM      2  C   UNL     1      -7.471  -5.063   0.679  1.00  0.00    -0.047 A 
ATOM      3  C   UNL     1      -8.064  -4.900   1.935  1.00  0.00     0.016 A 
ATOM      4  C   UNL     1      -7.302  -5.031   3.109  1.00  0.00     0.038 A 
ATOM      5  C   UNL     1      -5.924  -5.330   3.024  1.00  0.00     0.076 A 
ATOM      6  C   UNL     1      -5.348  -5.577   1.751  1.00  0.00     0.127 A 
ATOM      7  C   UNL     1      -6.121  -5.421   0.597  1.00  0.00     0.050 A 
ATOM      8  C   UNL     1      -5.123  -5.313   4.274  1.00  0.00     0.201 C 
ATOM      9  O   UNL     1      -3.902  -5.003   4.232  1.00  0.00    -0.288 OA
ATOM     10  C   UNL     1      -5.800  -5.478   5.587  1.00  0.00     0.076 A 
ATOM     11  C   UNL     1      -7.179  -5.181   5.669  1.00  0.00     0.041 A 
ATOM     12  C   UNL     1      -7.940  -4.864   4.437  1.00  0.00     0.194 C 
ATOM     13  O   UNL     1      -9.138  -4.475   4.518  1.00  0.00    -0.289 OA
ATOM     14  C   UNL     1      -7.824  -5.192   6.917  1.00  0.00     0.059 A 
ATOM     15  C   UNL     1      -7.114  -5.510   8.079  1.00  0.00     0.120 A 
ATOM     16  C   UNL     1      -5.763  -5.843   7.997  1.00  0.00     0.093 A 
ATOM     17  C   UNL     1      -5.103  -5.860   6.763  1.00  0.00     0.131 A 
ENDROOT
BRANCH   6  18
ATOM     18  O   UNL     1      -4.030  -6.012   1.590  1.00  0.00    -0.507 OA
ATOM     19  H   UNL     1      -3.709  -6.536   0.787  1.00  0.00     0.293 HD
ENDBRANCH   6  18
BRANCH  17  20
ATOM     20  O   UNL     1      -3.775  -6.292   6.749  1.00  0.00    -0.507 OA
ATOM     21  H   UNL     1      -3.204  -6.370   7.579  1.00  0.00     0.293 HD
ENDBRANCH  17  20
BRANCH  15  22
ATOM     22  O   UNL     1      -7.747  -5.510   9.320  1.00  0.00    -0.508 OA
ATOM     23  H   UNL     1      -7.973  -6.373   9.800  1.00  0.00     0.293 HD
ENDBRANCH  15  22
TORSDOF 3
ENDMDL
MODEL 8
REMARK VINA RESULT:    -6.248     13.766     15.002
REMARK INTER + INTRA:          -6.796
REMARK INTER:                  -6.796
REMARK INTRA:                   0.000
REMARK UNBOUND:                 0.000
REMARK SMILES Cc1cc(O)c2c(c1)C(=O)c1cc(O)cc(O)c1C2=O
REMARK SMILES IDX 1 1 2 2 8 3 7 4 6 5 4 6 3 7 19 8 20 9 18 10 11 11 9 12 10 13
REMARK SMILES IDX 12 14 13 15 15 16 16 17 5 18 17 20 14 22
REMARK H PARENT 5 19 17 21 14 23
REMARK Flexibility Score: inf
ROOT
ATOM      1  C   UNL     1      -3.342  -6.773  10.757  1.00  0.00     0.044 C 
ATOM      2  C   UNL     1      -4.430  -6.416   9.789  1.00  0.00    -0.047 A 
ATOM      3  C   UNL     1      -4.118  -6.112   8.459  1.00  0.00     0.016 A 
ATOM      4  C   UNL     1      -5.133  -5.803   7.538  1.00  0.00     0.038 A 
ATOM      5  C   UNL     1      -6.484  -5.798   7.954  1.00  0.00     0.076 A 
ATOM      6  C   UNL     1      -6.800  -6.190   9.280  1.00  0.00     0.127 A 
ATOM      7  C   UNL     1      -5.771  -6.473  10.184  1.00  0.00     0.050 A 
ATOM      8  C   UNL     1      -7.513  -5.324   6.994  1.00  0.00     0.201 C 
ATOM      9  O   UNL     1      -8.559  -4.767   7.421  1.00  0.00    -0.288 OA
ATOM     10  C   UNL     1      -7.224  -5.337   5.536  1.00  0.00     0.076 A 
ATOM     11  C   UNL     1      -5.873  -5.344   5.123  1.00  0.00     0.041 A 
ATOM     12  C   UNL     1      -4.794  -5.489   6.129  1.00  0.00     0.194 C 
ATOM     13  O   UNL     1      -3.586  -5.369   5.782  1.00  0.00    -0.289 OA
ATOM     14  C   UNL     1      -5.558  -5.219   3.759  1.00  0.00     0.059 A 
ATOM     15  C   UNL     1      -6.572  -5.102   2.805  1.00  0.00     0.120 A 
ATOM     16  C   UNL     1      -7.907  -5.135   3.205  1.00  0.00     0.093 A 
ATOM     17  C   UNL     1      -8.247  -5.280   4.554  1.00  0.00     0.131 A 
ENDROOT
BRANCH   6  18
ATOM     18  O   UNL     1      -8.113  -6.345   9.729  1.00  0.00    -0.507 OA
ATOM     19  H   UNL     1      -8.445  -5.991  10.616  1.00  0.00     0.293 HD
ENDBRANCH   6  18
BRANCH  17  20
ATOM     20  O   UNL     1      -9.603  -5.398   4.867  1.00  0.00    -0.507 OA
ATOM     21  H   UNL     1     -10.068  -6.282   5.017  1.00  0.00     0.293 HD
ENDBRANCH  17  20
BRANCH  15  22
ATOM     22  O   UNL     1      -6.264  -4.965   1.453  1.00  0.00    -0.508 OA
ATOM     23  H   UNL     1      -6.782  -5.461   0.739  1.00  0.00     0.293 HD
ENDBRANCH  15  22
TORSDOF 3
ENDMDL
MODEL 9
REMARK VINA RESULT:    -6.164      1.655      2.410
REMARK INTER + INTRA:          -6.705
REMARK INTER:                  -6.705
REMARK INTRA:                   0.000
REMARK UNBOUND:                 0.000
REMARK SMILES Cc1cc(O)c2c(c1)C(=O)c1cc(O)cc(O)c1C2=O
REMARK SMILES IDX 1 1 2 2 8 3 7 4 6 5 4 6 3 7 19 8 20 9 18 10 11 11 9 12 10 13
REMARK SMILES IDX 12 14 13 15 15 16 16 17 5 18 17 20 14 22
REMARK H PARENT 5 19 17 21 14 23
REMARK Flexibility Score: inf
ROOT
ATOM      1  C   UNL     1      -3.850   9.743  -2.819  1.00  0.00     0.044 C 
ATOM      2  C   UNL     1      -4.995   8.776  -2.887  1.00  0.00    -0.047 A 
ATOM      3  C   UNL     1      -4.906   7.636  -3.693  1.00  0.00     0.016 A 
ATOM      4  C   UNL     1      -5.962   6.709  -3.743  1.00  0.00     0.038 A 
ATOM      5  C   UNL     1      -7.126   6.928  -2.972  1.00  0.00     0.076 A 
ATOM      6  C   UNL     1      -7.174   8.040  -2.093  1.00  0.00     0.127 A 
ATOM      7  C   UNL     1      -6.120   8.959  -2.076  1.00  0.00     0.050 A 
ATOM      8  C   UNL     1      -8.277   6.009  -3.163  1.00  0.00     0.201 C 
ATOM      9  O   UNL     1      -9.451   6.432  -2.989  1.00  0.00    -0.288 OA
ATOM     10  C   UNL     1      -8.055   4.656  -3.736  1.00  0.00     0.076 A 
ATOM     11  C   UNL     1      -6.888   4.440  -4.504  1.00  0.00     0.041 A 
ATOM     12  C   UNL     1      -5.856   5.500  -4.594  1.00  0.00     0.194 C 
ATOM     13  O   UNL     1      -4.876   5.363  -5.377  1.00  0.00    -0.289 OA
ATOM     14  C   UNL     1      -6.709   3.218  -5.175  1.00  0.00     0.059 A 
ATOM     15  C   UNL     1      -7.670   2.208  -5.076  1.00  0.00     0.120 A 
ATOM     16  C   UNL     1      -8.802   2.403  -4.286  1.00  0.00     0.093 A 
ATOM     17  C   UNL     1      -8.994   3.602  -3.592  1.00  0.00     0.131 A 
ENDROOT
BRANCH   6  18
ATOM     18  O   UNL     1      -8.226   8.251  -1.199  1.00  0.00    -0.507 OA
ATOM     19  H   UNL     1      -9.098   7.739  -1.231  1.00  0.00     0.293 HD
ENDBRANCH   6  18
BRANCH  17  20
ATOM     20  O   UNL     1     -10.105   3.688  -2.750  1.00  0.00    -0.507 OA
ATOM     21  H   UNL     1     -10.205   3.150  -1.900  1.00  0.00     0.293 HD
ENDBRANCH  17  20
BRANCH  15  22
ATOM     22  O   UNL     1      -7.502   1.000  -5.750  1.00  0.00    -0.508 OA
ATOM     23  H   UNL     1      -8.159   0.692  -6.457  1.00  0.00     0.293 HD
ENDBRANCH  15  22
TORSDOF 3
ENDMDL
