MODEL 1
REMARK VINA RESULT:     1.293      0.000      0.000
REMARK INTER + INTRA:           2.319
REMARK INTER:                   1.482
REMARK INTRA:                   0.837
REMARK UNBOUND:                 0.837
REMARK SMILES O=C([O-])C=Cc1ccc(O)cc1
REMARK SMILES IDX 6 1 7 2 12 3 8 4 11 5 9 6 5 7 4 8 2 9 1 10 3 11 10 12
REMARK H PARENT 10 13
REMARK Flexibility Score: inf
ROOT
ATOM      1  C   UNL     1     -31.117  39.849 -26.116  1.00  0.00    -0.025 A 
ATOM      2  C   UNL     1     -30.441  41.082 -26.092  1.00  0.00     0.012 A 
ATOM      3  C   UNL     1     -30.374  38.660 -26.094  1.00  0.00     0.012 A 
ATOM      4  C   UNL     1     -29.044  41.120 -26.101  1.00  0.00     0.047 A 
ATOM      5  C   UNL     1     -28.976  38.700 -26.104  1.00  0.00     0.047 A 
ATOM      6  C   UNL     1     -28.308  39.928 -26.111  1.00  0.00     0.115 A 
ENDROOT
BRANCH   1   7
ATOM      7  C   UNL     1     -32.592  39.783 -26.052  1.00  0.00     0.010 C 
ATOM      8  C   UNL     1     -33.332  39.952 -24.946  1.00  0.00     0.025 C 
BRANCH   8   9
ATOM      9  C   UNL     1     -32.830  40.409 -23.635  1.00  0.00     0.064 C 
ATOM     10  O   UNL     1     -33.453  40.166 -22.569  1.00  0.00    -0.545 OA
ATOM     11  O   UNL     1     -31.607  41.064 -23.570  1.00  0.00    -0.545 OA
ENDBRANCH   8   9
ENDBRANCH   1   7
BRANCH   6  12
ATOM     12  O   UNL     1     -26.915  39.953 -26.122  1.00  0.00    -0.508 OA
ATOM     13  H   UNL     1     -26.370  39.100 -26.068  1.00  0.00     0.293 HD
ENDBRANCH   6  12
TORSDOF 3
ENDMDL
MODEL 2
REMARK VINA RESULT:     1.757      2.519      2.911
REMARK INTER + INTRA:           2.851
REMARK INTER:                   2.745
REMARK INTRA:                   0.106
REMARK UNBOUND:                 0.837
REMARK SMILES O=C([O-])C=Cc1ccc(O)cc1
REMARK SMILES IDX 6 1 7 2 12 3 8 4 11 5 9 6 5 7 4 8 2 9 1 10 3 11 10 12
REMARK H PARENT 10 13
REMARK Flexibility Score: inf
ROOT
ATOM      1  C   UNL     1     -30.545  41.103 -24.883  1.00  0.00    -0.025 A 
ATOM      2  C   UNL     1     -30.523  41.102 -23.476  1.00  0.00     0.012 A 
ATOM      3  C   UNL     1     -29.333  41.062 -25.587  1.00  0.00     0.012 A 
ATOM      4  C   UNL     1     -29.305  41.113 -22.790  1.00  0.00     0.047 A 
ATOM      5  C   UNL     1     -28.116  41.073 -24.899  1.00  0.00     0.047 A 
ATOM      6  C   UNL     1     -28.097  41.102 -23.501  1.00  0.00     0.115 A 
ENDROOT
BRANCH   1   7
ATOM      7  C   UNL     1     -31.818  41.037 -25.628  1.00  0.00     0.010 C 
ATOM      8  C   UNL     1     -32.374  39.920 -26.125  1.00  0.00     0.025 C 
BRANCH   8   9
ATOM      9  C   UNL     1     -31.914  38.542 -25.866  1.00  0.00     0.064 C 
ATOM     10  O   UNL     1     -32.709  37.641 -25.490  1.00  0.00    -0.545 OA
ATOM     11  O   UNL     1     -30.587  38.214 -26.111  1.00  0.00    -0.545 OA
ENDBRANCH   8   9
ENDBRANCH   1   7
BRANCH   6  12
ATOM     12  O   UNL     1     -26.877  41.115 -22.829  1.00  0.00    -0.508 OA
ATOM     13  H   UNL     1     -26.588  41.910 -22.271  1.00  0.00     0.293 HD
ENDBRANCH   6  12
TORSDOF 3
ENDMDL
MODEL 3
REMARK VINA RESULT:     2.767      1.689      4.444
REMARK INTER + INTRA:           4.008
REMARK INTER:                   3.642
REMARK INTRA:                   0.367
REMARK UNBOUND:                 0.837
REMARK SMILES O=C([O-])C=Cc1ccc(O)cc1
REMARK SMILES IDX 6 1 7 2 12 3 8 4 11 5 9 6 5 7 4 8 2 9 1 10 3 11 10 12
REMARK H PARENT 10 13
REMARK Flexibility Score: inf
ROOT
ATOM      1  C   UNL     1     -30.381  39.001 -25.970  1.00  0.00    -0.025 A 
ATOM      2  C   UNL     1     -30.444  40.398 -26.120  1.00  0.00     0.012 A 
ATOM      3  C   UNL     1     -31.568  38.280 -25.772  1.00  0.00     0.012 A 
ATOM      4  C   UNL     1     -31.669  41.064 -26.020  1.00  0.00     0.047 A 
ATOM      5  C   UNL     1     -32.792  38.948 -25.672  1.00  0.00     0.047 A 
ATOM      6  C   UNL     1     -32.847  40.340 -25.792  1.00  0.00     0.115 A 
ENDROOT
BRANCH   1   7
ATOM      7  C   UNL     1     -29.107  38.271 -26.125  1.00  0.00     0.010 C 
ATOM      8  C   UNL     1     -27.885  38.781 -25.905  1.00  0.00     0.025 C 
BRANCH   8   9
ATOM      9  C   UNL     1     -27.596  40.096 -25.301  1.00  0.00     0.064 C 
ATOM     10  O   UNL     1     -27.702  40.289 -24.061  1.00  0.00    -0.545 OA
ATOM     11  O   UNL     1     -27.131  41.125 -26.110  1.00  0.00    -0.545 OA
ENDBRANCH   8   9
ENDBRANCH   1   7
BRANCH   6  12
ATOM     12  O   UNL     1     -34.074  40.992 -25.689  1.00  0.00    -0.508 OA
ATOM     13  H   UNL     1     -34.848  40.584 -25.179  1.00  0.00     0.293 HD
ENDBRANCH   6  12
TORSDOF 3
ENDMDL
