MODEL 1
REMARK VINA RESULT:    -6.496      0.000      0.000
REMARK INTER + INTRA:          -8.053
REMARK INTER:                  -7.825
REMARK INTRA:                  -0.227
REMARK UNBOUND:                -0.227
REMARK SMILES O=c1c(O)c(-c2ccc(O)c(O)c2)oc2cc(O)cc(O)c12
REMARK SMILES IDX 5 1 3 2 2 3 1 4 22 5 20 6 19 7 17 8 16 9 15 10 14 11 6 12
REMARK SMILES IDX 7 13 8 14 9 15 13 16 11 17 10 18 12 20 4 22 21 24 18 26
REMARK H PARENT 10 19 12 21 4 23 21 25 18 27
REMARK Flexibility Score: inf
ROOT
ATOM      1  C   UNL     1      15.784  20.736 -11.673  1.00  0.00     0.180 A 
ATOM      2  C   UNL     1      16.738  20.683 -10.641  1.00  0.00     0.208 A 
ATOM      3  C   UNL     1      18.076  20.991 -10.934  1.00  0.00     0.238 A 
ATOM      4  O   UNL     1      18.933  20.890 -10.019  1.00  0.00    -0.285 OA
ATOM      5  C   UNL     1      18.441  21.363 -12.250  1.00  0.00     0.111 A 
ATOM      6  C   UNL     1      19.759  21.735 -12.651  1.00  0.00     0.134 A 
ATOM      7  C   UNL     1      20.033  21.957 -14.007  1.00  0.00     0.093 A 
ATOM      8  C   UNL     1      19.019  21.887 -14.966  1.00  0.00     0.123 A 
ATOM      9  C   UNL     1      17.718  21.583 -14.577  1.00  0.00     0.094 A 
ATOM     10  C   UNL     1      17.422  21.320 -13.237  1.00  0.00     0.146 A 
ATOM     11  O   UNL     1      16.169  21.024 -12.910  1.00  0.00    -0.452 OA
ENDROOT
BRANCH   1  12
ATOM     12  C   UNL     1      14.351  20.449 -11.435  1.00  0.00     0.025 A 
ATOM     13  C   UNL     1      13.548  21.312 -10.670  1.00  0.00     0.016 A 
ATOM     14  C   UNL     1      12.192  21.032 -10.480  1.00  0.00     0.051 A 
ATOM     15  C   UNL     1      11.615  19.896 -11.062  1.00  0.00     0.157 A 
ATOM     16  C   UNL     1      13.763  19.322 -12.035  1.00  0.00     0.062 A 
ATOM     17  C   UNL     1      12.406  19.040 -11.846  1.00  0.00     0.158 A 
BRANCH  15  18
ATOM     18  O   UNL     1      10.263  19.620 -10.869  1.00  0.00    -0.504 OA
ATOM     19  H   UNL     1       9.563  20.352 -10.896  1.00  0.00     0.293 HD
ENDBRANCH  15  18
BRANCH  17  20
ATOM     20  O   UNL     1      11.861  17.905 -12.445  1.00  0.00    -0.504 OA
ATOM     21  H   UNL     1      12.425  17.254 -12.979  1.00  0.00     0.293 HD
ENDBRANCH  17  20
ENDBRANCH   1  12
BRANCH   2  22
ATOM     22  O   UNL     1      16.360  20.292  -9.353  1.00  0.00    -0.502 OA
ATOM     23  H   UNL     1      16.073  20.957  -8.645  1.00  0.00     0.293 HD
ENDBRANCH   2  22
BRANCH   6  24
ATOM     24  O   UNL     1      20.822  21.924 -11.762  1.00  0.00    -0.507 OA
ATOM     25  H   UNL     1      21.437  22.723 -11.764  1.00  0.00     0.293 HD
ENDBRANCH   6  24
BRANCH   8  26
ATOM     26  O   UNL     1      19.296  22.125 -16.310  1.00  0.00    -0.508 OA
ATOM     27  H   UNL     1      20.212  21.943 -16.703  1.00  0.00     0.293 HD
ENDBRANCH   8  26
TORSDOF 6
ENDMDL
MODEL 2
REMARK VINA RESULT:    -6.369      2.235      7.689
REMARK INTER + INTRA:          -7.900
REMARK INTER:                  -7.574
REMARK INTRA:                  -0.326
REMARK UNBOUND:                -0.227
REMARK SMILES O=c1c(O)c(-c2ccc(O)c(O)c2)oc2cc(O)cc(O)c12
REMARK SMILES IDX 5 1 3 2 2 3 1 4 22 5 20 6 19 7 17 8 16 9 15 10 14 11 6 12
REMARK SMILES IDX 7 13 8 14 9 15 13 16 11 17 10 18 12 20 4 22 21 24 18 26
REMARK H PARENT 10 19 12 21 4 23 21 25 18 27
REMARK Flexibility Score: inf
ROOT
ATOM      1  C   UNL     1      13.150  19.966 -11.253  1.00  0.00     0.180 A 
ATOM      2  C   UNL     1      12.260  20.771 -10.519  1.00  0.00     0.208 A 
ATOM      3  C   UNL     1      11.074  20.202 -10.031  1.00  0.00     0.238 A 
ATOM      4  O   UNL     1      10.257  20.940  -9.422  1.00  0.00    -0.285 OA
ATOM      5  C   UNL     1      10.798  18.834 -10.269  1.00  0.00     0.111 A 
ATOM      6  C   UNL     1       9.645  18.144  -9.786  1.00  0.00     0.134 A 
ATOM      7  C   UNL     1       9.409  16.824 -10.193  1.00  0.00     0.093 A 
ATOM      8  C   UNL     1      10.320  16.150 -11.009  1.00  0.00     0.123 A 
ATOM      9  C   UNL     1      11.477  16.795 -11.436  1.00  0.00     0.094 A 
ATOM     10  C   UNL     1      11.721  18.123 -11.078  1.00  0.00     0.146 A 
ATOM     11  O   UNL     1      12.832  18.704 -11.515  1.00  0.00    -0.452 OA
ENDROOT
BRANCH   1  12
ATOM     12  C   UNL     1      14.433  20.488 -11.778  1.00  0.00     0.025 A 
ATOM     13  C   UNL     1      15.585  20.543 -10.975  1.00  0.00     0.016 A 
ATOM     14  C   UNL     1      16.790  21.017 -11.500  1.00  0.00     0.051 A 
ATOM     15  C   UNL     1      16.866  21.429 -12.837  1.00  0.00     0.157 A 
ATOM     16  C   UNL     1      14.519  20.881 -13.125  1.00  0.00     0.062 A 
ATOM     17  C   UNL     1      15.725  21.356 -13.653  1.00  0.00     0.158 A 
BRANCH  15  18
ATOM     18  O   UNL     1      18.070  21.902 -13.358  1.00  0.00    -0.504 OA
ATOM     19  H   UNL     1      18.225  22.889 -13.522  1.00  0.00     0.293 HD
ENDBRANCH  15  18
BRANCH  17  20
ATOM     20  O   UNL     1      15.769  21.750 -14.990  1.00  0.00    -0.504 OA
ATOM     21  H   UNL     1      14.931  21.846 -15.551  1.00  0.00     0.293 HD
ENDBRANCH  17  20
ENDBRANCH   1  12
BRANCH   2  22
ATOM     22  O   UNL     1      12.542  22.124 -10.315  1.00  0.00    -0.502 OA
ATOM     23  H   UNL     1      12.591  22.791 -11.075  1.00  0.00     0.293 HD
ENDBRANCH   2  22
BRANCH   6  24
ATOM     24  O   UNL     1       8.722  18.696  -8.893  1.00  0.00    -0.507 OA
ATOM     25  H   UNL     1       8.963  19.274  -8.102  1.00  0.00     0.293 HD
ENDBRANCH   6  24
BRANCH   8  26
ATOM     26  O   UNL     1      10.086  14.832 -11.396  1.00  0.00    -0.508 OA
ATOM     27  H   UNL     1       9.503  14.213 -10.845  1.00  0.00     0.293 HD
ENDBRANCH   8  26
TORSDOF 6
ENDMDL
MODEL 3
REMARK VINA RESULT:    -6.347      2.242      3.787
REMARK INTER + INTRA:          -7.873
REMARK INTER:                  -7.556
REMARK INTRA:                  -0.316
REMARK UNBOUND:                -0.227
REMARK SMILES O=c1c(O)c(-c2ccc(O)c(O)c2)oc2cc(O)cc(O)c12
REMARK SMILES IDX 5 1 3 2 2 3 1 4 22 5 20 6 19 7 17 8 16 9 15 10 14 11 6 12
REMARK SMILES IDX 7 13 8 14 9 15 13 16 11 17 10 18 12 20 4 22 21 24 18 26
REMARK H PARENT 10 19 12 21 4 23 21 25 18 27
REMARK Flexibility Score: inf
ROOT
ATOM      1  C   UNL     1      12.733  19.873 -10.249  1.00  0.00     0.180 A 
ATOM      2  C   UNL     1      13.638  20.040  -9.186  1.00  0.00     0.208 A 
ATOM      3  C   UNL     1      14.911  20.569  -9.452  1.00  0.00     0.238 A 
ATOM      4  O   UNL     1      15.735  20.666  -8.506  1.00  0.00    -0.285 OA
ATOM      5  C   UNL     1      15.257  20.939 -10.774  1.00  0.00     0.111 A 
ATOM      6  C   UNL     1      16.504  21.522 -11.152  1.00  0.00     0.134 A 
ATOM      7  C   UNL     1      16.788  21.727 -12.508  1.00  0.00     0.093 A 
ATOM      8  C   UNL     1      15.843  21.431 -13.494  1.00  0.00     0.123 A 
ATOM      9  C   UNL     1      14.602  20.918 -13.131  1.00  0.00     0.094 A 
ATOM     10  C   UNL     1      14.303  20.668 -11.789  1.00  0.00     0.146 A 
ATOM     11  O   UNL     1      13.110  20.168 -11.486  1.00  0.00    -0.452 OA
ENDROOT
BRANCH   1  12
ATOM     12  C   UNL     1      11.364  19.345 -10.042  1.00  0.00     0.025 A 
ATOM     13  C   UNL     1      11.109  17.963 -10.012  1.00  0.00     0.016 A 
ATOM     14  C   UNL     1       9.814  17.489  -9.791  1.00  0.00     0.051 A 
ATOM     15  C   UNL     1       8.758  18.386  -9.582  1.00  0.00     0.157 A 
ATOM     16  C   UNL     1      10.306  20.240  -9.810  1.00  0.00     0.062 A 
ATOM     17  C   UNL     1       9.008  19.768  -9.588  1.00  0.00     0.158 A 
BRANCH  15  18
ATOM     18  O   UNL     1       7.467  17.909  -9.362  1.00  0.00    -0.504 OA
ATOM     19  H   UNL     1       6.722  18.520  -9.048  1.00  0.00     0.293 HD
ENDBRANCH  15  18
BRANCH  17  20
ATOM     20  O   UNL     1       7.981  20.687  -9.376  1.00  0.00    -0.504 OA
ATOM     21  H   UNL     1       8.163  21.641  -9.088  1.00  0.00     0.293 HD
ENDBRANCH  17  20
ENDBRANCH   1  12
BRANCH   2  22
ATOM     22  O   UNL     1      13.284  19.648  -7.892  1.00  0.00    -0.502 OA
ATOM     23  H   UNL     1      12.351  19.779  -7.520  1.00  0.00     0.293 HD
ENDBRANCH   2  22
BRANCH   6  24
ATOM     24  O   UNL     1      17.479  21.939 -10.241  1.00  0.00    -0.507 OA
ATOM     25  H   UNL     1      18.468  21.980 -10.437  1.00  0.00     0.293 HD
ENDBRANCH   6  24
BRANCH   8  26
ATOM     26  O   UNL     1      16.128  21.653 -14.840  1.00  0.00    -0.508 OA
ATOM     27  H   UNL     1      16.423  22.562 -15.177  1.00  0.00     0.293 HD
ENDBRANCH   8  26
TORSDOF 6
ENDMDL
MODEL 4
REMARK VINA RESULT:    -6.316      1.211      2.946
REMARK INTER + INTRA:          -7.835
REMARK INTER:                  -7.623
REMARK INTRA:                  -0.212
REMARK UNBOUND:                -0.227
REMARK SMILES O=c1c(O)c(-c2ccc(O)c(O)c2)oc2cc(O)cc(O)c12
REMARK SMILES IDX 5 1 3 2 2 3 1 4 22 5 20 6 19 7 17 8 16 9 15 10 14 11 6 12
REMARK SMILES IDX 7 13 8 14 9 15 13 16 11 17 10 18 12 20 4 22 21 24 18 26
REMARK H PARENT 10 19 12 21 4 23 21 25 18 27
REMARK Flexibility Score: inf
ROOT
ATOM      1  C   UNL     1      15.905  20.883 -11.931  1.00  0.00     0.180 A 
ATOM      2  C   UNL     1      16.314  21.365 -13.187  1.00  0.00     0.208 A 
ATOM      3  C   UNL     1      17.673  21.644 -13.399  1.00  0.00     0.238 A 
ATOM      4  O   UNL     1      18.026  22.125 -14.507  1.00  0.00    -0.285 OA
ATOM      5  C   UNL     1      18.608  21.425 -12.359  1.00  0.00     0.111 A 
ATOM      6  C   UNL     1      20.015  21.636 -12.476  1.00  0.00     0.134 A 
ATOM      7  C   UNL     1      20.829  21.512 -11.343  1.00  0.00     0.093 A 
ATOM      8  C   UNL     1      20.295  21.119 -10.113  1.00  0.00     0.123 A 
ATOM      9  C   UNL     1      18.933  20.854 -10.002  1.00  0.00     0.094 A 
ATOM     10  C   UNL     1      18.090  21.004 -11.106  1.00  0.00     0.146 A 
ATOM     11  O   UNL     1      16.795  20.750 -10.956  1.00  0.00    -0.452 OA
ENDROOT
BRANCH   1  12
ATOM     12  C   UNL     1      14.493  20.542 -11.641  1.00  0.00     0.025 A 
ATOM     13  C   UNL     1      13.706  21.340 -10.792  1.00  0.00     0.016 A 
ATOM     14  C   UNL     1      12.370  21.011 -10.553  1.00  0.00     0.051 A 
ATOM     15  C   UNL     1      11.795  19.891 -11.168  1.00  0.00     0.157 A 
ATOM     16  C   UNL     1      13.907  19.432 -12.272  1.00  0.00     0.062 A 
ATOM     17  C   UNL     1      12.568  19.101 -12.035  1.00  0.00     0.158 A 
BRANCH  15  18
ATOM     18  O   UNL     1      10.462  19.566 -10.926  1.00  0.00    -0.504 OA
ATOM     19  H   UNL     1      10.152  18.603 -10.867  1.00  0.00     0.293 HD
ENDBRANCH  15  18
BRANCH  17  20
ATOM     20  O   UNL     1      12.025  17.985 -12.668  1.00  0.00    -0.504 OA
ATOM     21  H   UNL     1      11.024  17.861 -12.777  1.00  0.00     0.293 HD
ENDBRANCH  17  20
ENDBRANCH   1  12
BRANCH   2  22
ATOM     22  O   UNL     1      15.372  21.594 -14.194  1.00  0.00    -0.502 OA
ATOM     23  H   UNL     1      15.517  21.301 -15.152  1.00  0.00     0.293 HD
ENDBRANCH   2  22
BRANCH   6  24
ATOM     24  O   UNL     1      20.662  21.940 -13.677  1.00  0.00    -0.507 OA
ATOM     25  H   UNL     1      20.978  21.257 -14.349  1.00  0.00     0.293 HD
ENDBRANCH   6  24
BRANCH   8  26
ATOM     26  O   UNL     1      21.114  20.983  -8.994  1.00  0.00    -0.508 OA
ATOM     27  H   UNL     1      22.011  20.514  -9.047  1.00  0.00     0.293 HD
ENDBRANCH   8  26
TORSDOF 6
ENDMDL
MODEL 5
REMARK VINA RESULT:    -6.263      2.289      7.902
REMARK INTER + INTRA:          -7.771
REMARK INTER:                  -7.456
REMARK INTRA:                  -0.315
REMARK UNBOUND:                -0.227
REMARK SMILES O=c1c(O)c(-c2ccc(O)c(O)c2)oc2cc(O)cc(O)c12
REMARK SMILES IDX 5 1 3 2 2 3 1 4 22 5 20 6 19 7 17 8 16 9 15 10 14 11 6 12
REMARK SMILES IDX 7 13 8 14 9 15 13 16 11 17 10 18 12 20 4 22 21 24 18 26
REMARK H PARENT 10 19 12 21 4 23 21 25 18 27
REMARK Flexibility Score: inf
ROOT
ATOM      1  C   UNL     1      12.957  19.794 -11.102  1.00  0.00     0.180 A 
ATOM      2  C   UNL     1      12.067  20.653 -10.431  1.00  0.00     0.208 A 
ATOM      3  C   UNL     1      10.859  20.133  -9.941  1.00  0.00     0.238 A 
ATOM      4  O   UNL     1      10.044  20.916  -9.390  1.00  0.00    -0.285 OA
ATOM      5  C   UNL     1      10.562  18.759 -10.114  1.00  0.00     0.111 A 
ATOM      6  C   UNL     1       9.386  18.116  -9.623  1.00  0.00     0.134 A 
ATOM      7  C   UNL     1       9.133  16.782  -9.966  1.00  0.00     0.093 A 
ATOM      8  C   UNL     1      10.048  16.049 -10.726  1.00  0.00     0.123 A 
ATOM      9  C   UNL     1      11.227  16.649 -11.159  1.00  0.00     0.094 A 
ATOM     10  C   UNL     1      11.489  17.989 -10.864  1.00  0.00     0.146 A 
ATOM     11  O   UNL     1      12.621  18.527 -11.305  1.00  0.00    -0.452 OA
ENDROOT
BRANCH   1  12
ATOM     12  C   UNL     1      14.261  20.265 -11.624  1.00  0.00     0.025 A 
ATOM     13  C   UNL     1      14.368  20.874 -12.886  1.00  0.00     0.016 A 
ATOM     14  C   UNL     1      15.606  21.331 -13.346  1.00  0.00     0.051 A 
ATOM     15  C   UNL     1      16.750  21.201 -12.549  1.00  0.00     0.157 A 
ATOM     16  C   UNL     1      15.407  20.156 -10.818  1.00  0.00     0.062 A 
ATOM     17  C   UNL     1      16.647  20.614 -11.277  1.00  0.00     0.158 A 
BRANCH  15  18
ATOM     18  O   UNL     1      17.983  21.657 -13.012  1.00  0.00    -0.504 OA
ATOM     19  H   UNL     1      18.855  21.299 -12.641  1.00  0.00     0.293 HD
ENDBRANCH  15  18
BRANCH  17  20
ATOM     20  O   UNL     1      17.766  20.476 -10.456  1.00  0.00    -0.504 OA
ATOM     21  H   UNL     1      18.523  21.150 -10.459  1.00  0.00     0.293 HD
ENDBRANCH  17  20
ENDBRANCH   1  12
BRANCH   2  22
ATOM     22  O   UNL     1      12.370  22.010 -10.291  1.00  0.00    -0.502 OA
ATOM     23  H   UNL     1      12.753  22.396  -9.437  1.00  0.00     0.293 HD
ENDBRANCH   2  22
BRANCH   6  24
ATOM     24  O   UNL     1       8.454  18.731  -8.782  1.00  0.00    -0.507 OA
ATOM     25  H   UNL     1       8.623  19.576  -8.257  1.00  0.00     0.293 HD
ENDBRANCH   6  24
BRANCH   8  26
ATOM     26  O   UNL     1       9.797  14.717 -11.049  1.00  0.00    -0.508 OA
ATOM     27  H   UNL     1       9.222  14.127 -10.458  1.00  0.00     0.293 HD
ENDBRANCH   8  26
TORSDOF 6
ENDMDL
MODEL 6
REMARK VINA RESULT:    -5.983      2.992      5.573
REMARK INTER + INTRA:          -7.435
REMARK INTER:                  -7.158
REMARK INTRA:                  -0.277
REMARK UNBOUND:                -0.227
REMARK SMILES O=c1c(O)c(-c2ccc(O)c(O)c2)oc2cc(O)cc(O)c12
REMARK SMILES IDX 5 1 3 2 2 3 1 4 22 5 20 6 19 7 17 8 16 9 15 10 14 11 6 12
REMARK SMILES IDX 7 13 8 14 9 15 13 16 11 17 10 18 12 20 4 22 21 24 18 26
REMARK H PARENT 10 19 12 21 4 23 21 25 18 27
REMARK Flexibility Score: inf
ROOT
ATOM      1  C   UNL     1      11.791  18.979 -10.478  1.00  0.00     0.180 A 
ATOM      2  C   UNL     1      12.269  18.929 -11.800  1.00  0.00     0.208 A 
ATOM      3  C   UNL     1      13.514  19.505 -12.097  1.00  0.00     0.238 A 
ATOM      4  O   UNL     1      13.911  19.504 -13.290  1.00  0.00    -0.285 OA
ATOM      5  C   UNL     1      14.273  20.111 -11.066  1.00  0.00     0.111 A 
ATOM      6  C   UNL     1      15.565  20.691 -11.246  1.00  0.00     0.134 A 
ATOM      7  C   UNL     1      16.167  21.379 -10.184  1.00  0.00     0.093 A 
ATOM      8  C   UNL     1      15.552  21.449  -8.932  1.00  0.00     0.123 A 
ATOM      9  C   UNL     1      14.319  20.836  -8.730  1.00  0.00     0.094 A 
ATOM     10  C   UNL     1      13.677  20.174  -9.780  1.00  0.00     0.146 A 
ATOM     11  O   UNL     1      12.496  19.612  -9.548  1.00  0.00    -0.452 OA
ENDROOT
BRANCH   1  12
ATOM     12  C   UNL     1      10.499  18.371 -10.084  1.00  0.00     0.025 A 
ATOM     13  C   UNL     1      10.354  16.979  -9.957  1.00  0.00     0.016 A 
ATOM     14  C   UNL     1       9.131  16.431  -9.561  1.00  0.00     0.051 A 
ATOM     15  C   UNL     1       8.042  17.263  -9.271  1.00  0.00     0.157 A 
ATOM     16  C   UNL     1       9.411  19.204  -9.772  1.00  0.00     0.062 A 
ATOM     17  C   UNL     1       8.186  18.657  -9.374  1.00  0.00     0.158 A 
BRANCH  15  18
ATOM     18  O   UNL     1       6.825  16.712  -8.876  1.00  0.00    -0.504 OA
ATOM     19  H   UNL     1       6.010  17.291  -8.709  1.00  0.00     0.293 HD
ENDBRANCH  15  18
BRANCH  17  20
ATOM     20  O   UNL     1       7.124  19.513  -9.086  1.00  0.00    -0.504 OA
ATOM     21  H   UNL     1       6.360  19.661  -9.735  1.00  0.00     0.293 HD
ENDBRANCH  17  20
ENDBRANCH   1  12
BRANCH   2  22
ATOM     22  O   UNL     1      11.494  18.345 -12.806  1.00  0.00    -0.502 OA
ATOM     23  H   UNL     1      11.901  17.927 -13.633  1.00  0.00     0.293 HD
ENDBRANCH   2  22
BRANCH   6  24
ATOM     24  O   UNL     1      16.305  20.597 -12.428  1.00  0.00    -0.507 OA
ATOM     25  H   UNL     1      17.071  19.956 -12.577  1.00  0.00     0.293 HD
ENDBRANCH   6  24
BRANCH   8  26
ATOM     26  O   UNL     1      16.165  22.122  -7.877  1.00  0.00    -0.508 OA
ATOM     27  H   UNL     1      15.623  22.578  -7.152  1.00  0.00     0.293 HD
ENDBRANCH   8  26
TORSDOF 6
ENDMDL
MODEL 7
REMARK VINA RESULT:    -5.930      2.793      8.432
REMARK INTER + INTRA:          -7.370
REMARK INTER:                  -7.047
REMARK INTRA:                  -0.323
REMARK UNBOUND:                -0.227
REMARK SMILES O=c1c(O)c(-c2ccc(O)c(O)c2)oc2cc(O)cc(O)c12
REMARK SMILES IDX 5 1 3 2 2 3 1 4 22 5 20 6 19 7 17 8 16 9 15 10 14 11 6 12
REMARK SMILES IDX 7 13 8 14 9 15 13 16 11 17 10 18 12 20 4 22 21 24 18 26
REMARK H PARENT 10 19 12 21 4 23 21 25 18 27
REMARK Flexibility Score: inf
ROOT
ATOM      1  C   UNL     1      12.371  19.174 -10.589  1.00  0.00     0.180 A 
ATOM      2  C   UNL     1      11.311  20.005 -10.184  1.00  0.00     0.208 A 
ATOM      3  C   UNL     1      10.133  19.416  -9.698  1.00  0.00     0.238 A 
ATOM      4  O   UNL     1       9.169  20.162  -9.388  1.00  0.00    -0.285 OA
ATOM      5  C   UNL     1      10.035  18.006  -9.609  1.00  0.00     0.111 A 
ATOM      6  C   UNL     1       8.903  17.304  -9.094  1.00  0.00     0.134 A 
ATOM      7  C   UNL     1       8.862  15.906  -9.175  1.00  0.00     0.093 A 
ATOM      8  C   UNL     1       9.941  15.184  -9.691  1.00  0.00     0.123 A 
ATOM      9  C   UNL     1      11.074  15.857 -10.140  1.00  0.00     0.094 A 
ATOM     10  C   UNL     1      11.129  17.252 -10.106  1.00  0.00     0.146 A 
ATOM     11  O   UNL     1      12.224  17.856 -10.554  1.00  0.00    -0.452 OA
ENDROOT
BRANCH   1  12
ATOM     12  C   UNL     1      13.654  19.722 -11.088  1.00  0.00     0.025 A 
ATOM     13  C   UNL     1      13.856  19.986 -12.453  1.00  0.00     0.016 A 
ATOM     14  C   UNL     1      15.066  20.526 -12.896  1.00  0.00     0.051 A 
ATOM     15  C   UNL     1      16.086  20.823 -11.983  1.00  0.00     0.157 A 
ATOM     16  C   UNL     1      14.671  20.042 -10.172  1.00  0.00     0.062 A 
ATOM     17  C   UNL     1      15.884  20.583 -10.613  1.00  0.00     0.158 A 
BRANCH  15  18
ATOM     18  O   UNL     1      17.292  21.360 -12.429  1.00  0.00    -0.504 OA
ATOM     19  H   UNL     1      18.174  21.118 -11.994  1.00  0.00     0.293 HD
ENDBRANCH  15  18
BRANCH  17  20
ATOM     20  O   UNL     1      16.875  20.875  -9.678  1.00  0.00    -0.504 OA
ATOM     21  H   UNL     1      17.852  20.658  -9.842  1.00  0.00     0.293 HD
ENDBRANCH  17  20
ENDBRANCH   1  12
BRANCH   2  22
ATOM     22  O   UNL     1      11.421  21.393 -10.300  1.00  0.00    -0.502 OA
ATOM     23  H   UNL     1      10.932  22.031  -9.685  1.00  0.00     0.293 HD
ENDBRANCH   2  22
BRANCH   6  24
ATOM     24  O   UNL     1       7.814  17.925  -8.476  1.00  0.00    -0.507 OA
ATOM     25  H   UNL     1       7.867  18.779  -7.940  1.00  0.00     0.293 HD
ENDBRANCH   6  24
BRANCH   8  26
ATOM     26  O   UNL     1       9.900  13.792  -9.753  1.00  0.00    -0.508 OA
ATOM     27  H   UNL     1       9.239  13.308 -10.349  1.00  0.00     0.293 HD
ENDBRANCH   8  26
TORSDOF 6
ENDMDL
MODEL 8
REMARK VINA RESULT:    -5.683      2.720      5.013
REMARK INTER + INTRA:          -7.073
REMARK INTER:                  -6.871
REMARK INTRA:                  -0.202
REMARK UNBOUND:                -0.227
REMARK SMILES O=c1c(O)c(-c2ccc(O)c(O)c2)oc2cc(O)cc(O)c12
REMARK SMILES IDX 5 1 3 2 2 3 1 4 22 5 20 6 19 7 17 8 16 9 15 10 14 11 6 12
REMARK SMILES IDX 7 13 8 14 9 15 13 16 11 17 10 18 12 20 4 22 21 24 18 26
REMARK H PARENT 10 19 12 21 4 23 21 25 18 27
REMARK Flexibility Score: inf
ROOT
ATOM      1  C   UNL     1      12.270  19.169 -10.588  1.00  0.00     0.180 A 
ATOM      2  C   UNL     1      12.681  19.207 -11.933  1.00  0.00     0.208 A 
ATOM      3  C   UNL     1      13.912  19.801 -12.252  1.00  0.00     0.238 A 
ATOM      4  O   UNL     1      14.250  19.880 -13.461  1.00  0.00    -0.285 OA
ATOM      5  C   UNL     1      14.724  20.335 -11.222  1.00  0.00     0.111 A 
ATOM      6  C   UNL     1      16.008  20.924 -11.426  1.00  0.00     0.134 A 
ATOM      7  C   UNL     1      16.665  21.539 -10.352  1.00  0.00     0.093 A 
ATOM      8  C   UNL     1      16.114  21.526  -9.069  1.00  0.00     0.123 A 
ATOM      9  C   UNL     1      14.889  20.901  -8.848  1.00  0.00     0.094 A 
ATOM     10  C   UNL     1      14.193  20.313  -9.906  1.00  0.00     0.146 A 
ATOM     11  O   UNL     1      13.023  19.736  -9.655  1.00  0.00    -0.452 OA
ENDROOT
BRANCH   1  12
ATOM     12  C   UNL     1      10.997  18.537 -10.172  1.00  0.00     0.025 A 
ATOM     13  C   UNL     1       9.912  19.305  -9.717  1.00  0.00     0.016 A 
ATOM     14  C   UNL     1       8.713  18.688  -9.353  1.00  0.00     0.051 A 
ATOM     15  C   UNL     1       8.574  17.297  -9.452  1.00  0.00     0.157 A 
ATOM     16  C   UNL     1      10.846  17.145 -10.291  1.00  0.00     0.062 A 
ATOM     17  C   UNL     1       9.646  16.524  -9.928  1.00  0.00     0.158 A 
BRANCH  15  18
ATOM     18  O   UNL     1       7.376  16.685  -9.087  1.00  0.00    -0.504 OA
ATOM     19  H   UNL     1       6.657  17.186  -8.580  1.00  0.00     0.293 HD
ENDBRANCH  15  18
BRANCH  17  20
ATOM     20  O   UNL     1       9.537  15.139 -10.045  1.00  0.00    -0.504 OA
ATOM     21  H   UNL     1       9.828  14.511  -9.305  1.00  0.00     0.293 HD
ENDBRANCH  17  20
ENDBRANCH   1  12
BRANCH   2  22
ATOM     22  O   UNL     1      11.855  18.693 -12.936  1.00  0.00    -0.502 OA
ATOM     23  H   UNL     1      12.222  18.280 -13.784  1.00  0.00     0.293 HD
ENDBRANCH   2  22
BRANCH   6  24
ATOM     24  O   UNL     1      16.689  20.910 -12.647  1.00  0.00    -0.507 OA
ATOM     25  H   UNL     1      17.500  20.344 -12.846  1.00  0.00     0.293 HD
ENDBRANCH   6  24
BRANCH   8  26
ATOM     26  O   UNL     1      16.781  22.125  -8.003  1.00  0.00    -0.508 OA
ATOM     27  H   UNL     1      17.578  22.733  -8.150  1.00  0.00     0.293 HD
ENDBRANCH   8  26
TORSDOF 6
ENDMDL
MODEL 9
REMARK VINA RESULT:    -5.518      2.440      7.545
REMARK INTER + INTRA:          -6.874
REMARK INTER:                  -6.916
REMARK INTRA:                   0.042
REMARK UNBOUND:                -0.227
REMARK SMILES O=c1c(O)c(-c2ccc(O)c(O)c2)oc2cc(O)cc(O)c12
REMARK SMILES IDX 5 1 3 2 2 3 1 4 22 5 20 6 19 7 17 8 16 9 15 10 14 11 6 12
REMARK SMILES IDX 7 13 8 14 9 15 13 16 11 17 10 18 12 20 4 22 21 24 18 26
REMARK H PARENT 10 19 12 21 4 23 21 25 18 27
REMARK Flexibility Score: inf
ROOT
ATOM      1  C   UNL     1      13.699  19.737 -10.534  1.00  0.00     0.180 A 
ATOM      2  C   UNL     1      13.923  18.628  -9.698  1.00  0.00     0.208 A 
ATOM      3  C   UNL     1      12.835  18.054  -9.022  1.00  0.00     0.238 A 
ATOM      4  O   UNL     1      13.050  17.097  -8.235  1.00  0.00    -0.285 OA
ATOM      5  C   UNL     1      11.535  18.585  -9.202  1.00  0.00     0.111 A 
ATOM      6  C   UNL     1      10.354  18.058  -8.597  1.00  0.00     0.134 A 
ATOM      7  C   UNL     1       9.140  18.742  -8.740  1.00  0.00     0.093 A 
ATOM      8  C   UNL     1       9.053  19.898  -9.521  1.00  0.00     0.123 A 
ATOM      9  C   UNL     1      10.187  20.387 -10.163  1.00  0.00     0.094 A 
ATOM     10  C   UNL     1      11.420  19.747 -10.009  1.00  0.00     0.146 A 
ATOM     11  O   UNL     1      12.480  20.252 -10.630  1.00  0.00    -0.452 OA
ENDROOT
BRANCH   1  12
ATOM     12  C   UNL     1      14.792  20.379 -11.299  1.00  0.00     0.025 A 
ATOM     13  C   UNL     1      16.012  20.719 -10.689  1.00  0.00     0.016 A 
ATOM     14  C   UNL     1      17.037  21.303 -11.437  1.00  0.00     0.051 A 
ATOM     15  C   UNL     1      16.866  21.542 -12.807  1.00  0.00     0.157 A 
ATOM     16  C   UNL     1      14.633  20.601 -12.678  1.00  0.00     0.062 A 
ATOM     17  C   UNL     1      15.659  21.185 -13.429  1.00  0.00     0.158 A 
BRANCH  15  18
ATOM     18  O   UNL     1      17.891  22.125 -13.550  1.00  0.00    -0.504 OA
ATOM     19  H   UNL     1      17.762  22.383 -14.521  1.00  0.00     0.293 HD
ENDBRANCH  15  18
BRANCH  17  20
ATOM     20  O   UNL     1      15.459  21.403 -14.792  1.00  0.00    -0.504 OA
ATOM     21  H   UNL     1      15.603  22.311 -15.219  1.00  0.00     0.293 HD
ENDBRANCH  17  20
ENDBRANCH   1  12
BRANCH   2  22
ATOM     22  O   UNL     1      15.218  18.133  -9.519  1.00  0.00    -0.502 OA
ATOM     23  H   UNL     1      15.511  17.233  -9.878  1.00  0.00     0.293 HD
ENDBRANCH   2  22
BRANCH   6  24
ATOM     24  O   UNL     1      10.314  16.862  -7.875  1.00  0.00    -0.507 OA
ATOM     25  H   UNL     1      10.157  15.951  -8.280  1.00  0.00     0.293 HD
ENDBRANCH   6  24
BRANCH   8  26
ATOM     26  O   UNL     1       7.839  20.564  -9.671  1.00  0.00    -0.508 OA
ATOM     27  H   UNL     1       7.657  21.161 -10.470  1.00  0.00     0.293 HD
ENDBRANCH   8  26
TORSDOF 6
ENDMDL
