MODEL 1
REMARK VINA RESULT:    -4.420      0.000      0.000
REMARK INTER + INTRA:          -5.143
REMARK INTER:                  -4.937
REMARK INTRA:                  -0.205
REMARK UNBOUND:                -0.205
REMARK SMILES CC(C)c1ccc(C(=O)[O-])cc1
REMARK SMILES IDX 7 1 6 2 11 3 5 4 12 5 4 6 8 7 9 8 10 9 2 10 1 11 3 12
REMARK H PARENT
REMARK Flexibility Score: inf
ROOT
ATOM      1  C   UNL     1     -33.760   7.123  -1.588  1.00  0.00    -0.003 A 
ATOM      2  C   UNL     1     -33.166   8.073  -2.436  1.00  0.00     0.010 A 
ATOM      3  C   UNL     1     -35.158   6.973  -1.607  1.00  0.00     0.010 A 
ATOM      4  C   UNL     1     -33.953   8.857  -3.285  1.00  0.00     0.004 A 
ATOM      5  C   UNL     1     -35.943   7.757  -2.456  1.00  0.00     0.004 A 
ATOM      6  C   UNL     1     -35.352   8.706  -3.305  1.00  0.00    -0.045 A 
ENDROOT
BRANCH   1   7
ATOM      7  C   UNL     1     -32.923   6.296  -0.691  1.00  0.00     0.071 C 
ATOM      8  O   UNL     1     -33.171   5.071  -0.535  1.00  0.00    -0.545 OA
ATOM      9  O   UNL     1     -31.852   6.860  -0.008  1.00  0.00    -0.545 OA
ENDBRANCH   1   7
BRANCH   6  10
ATOM     10  C   UNL     1     -36.217   9.550  -4.221  1.00  0.00     0.013 C 
ATOM     11  C   UNL     1     -35.603   9.654  -5.622  1.00  0.00     0.012 C 
ATOM     12  C   UNL     1     -36.465  10.940  -3.623  1.00  0.00     0.012 C 
ENDBRANCH   6  10
TORSDOF 2
ENDMDL
MODEL 2
REMARK VINA RESULT:    -4.323      3.019      5.226
REMARK INTER + INTRA:          -5.034
REMARK INTER:                  -4.830
REMARK INTRA:                  -0.204
REMARK UNBOUND:                -0.205
REMARK SMILES CC(C)c1ccc(C(=O)[O-])cc1
REMARK SMILES IDX 7 1 6 2 11 3 5 4 12 5 4 6 8 7 9 8 10 9 2 10 1 11 3 12
REMARK H PARENT
REMARK Flexibility Score: inf
ROOT
ATOM      1  C   UNL     1     -35.254   8.853  -3.274  1.00  0.00    -0.003 A 
ATOM      2  C   UNL     1     -35.949   7.902  -2.508  1.00  0.00     0.010 A 
ATOM      3  C   UNL     1     -33.853   8.910  -3.182  1.00  0.00     0.010 A 
ATOM      4  C   UNL     1     -35.256   7.026  -1.666  1.00  0.00     0.004 A 
ATOM      5  C   UNL     1     -33.162   8.035  -2.340  1.00  0.00     0.004 A 
ATOM      6  C   UNL     1     -33.853   7.083  -1.574  1.00  0.00    -0.045 A 
ENDROOT
BRANCH   1   7
ATOM      7  C   UNL     1     -35.992   9.778  -4.164  1.00  0.00     0.071 C 
ATOM      8  O   UNL     1     -36.041   9.568  -5.405  1.00  0.00    -0.545 OA
ATOM      9  O   UNL     1     -36.640  10.891  -3.641  1.00  0.00    -0.545 OA
ENDBRANCH   1   7
BRANCH   6  10
ATOM     10  C   UNL     1     -33.089   6.139  -0.665  1.00  0.00     0.013 C 
ATOM     11  C   UNL     1     -31.746   6.744  -0.241  1.00  0.00     0.012 C 
ATOM     12  C   UNL     1     -32.893   4.770  -1.328  1.00  0.00     0.012 C 
ENDBRANCH   6  10
TORSDOF 2
ENDMDL
MODEL 3
REMARK VINA RESULT:    -4.291     10.955     12.374
REMARK INTER + INTRA:          -4.998
REMARK INTER:                  -4.789
REMARK INTRA:                  -0.210
REMARK UNBOUND:                -0.205
REMARK SMILES CC(C)c1ccc(C(=O)[O-])cc1
REMARK SMILES IDX 7 1 6 2 11 3 5 4 12 5 4 6 8 7 9 8 10 9 2 10 1 11 3 12
REMARK H PARENT
REMARK Flexibility Score: inf
ROOT
ATOM      1  C   UNL     1     -34.433  -4.073  -1.264  1.00  0.00    -0.003 A 
ATOM      2  C   UNL     1     -35.734  -4.422  -0.867  1.00  0.00     0.010 A 
ATOM      3  C   UNL     1     -33.699  -3.168  -0.478  1.00  0.00     0.010 A 
ATOM      4  C   UNL     1     -36.291  -3.876   0.294  1.00  0.00     0.004 A 
ATOM      5  C   UNL     1     -34.257  -2.623   0.682  1.00  0.00     0.004 A 
ATOM      6  C   UNL     1     -35.558  -2.970   1.082  1.00  0.00    -0.045 A 
ENDROOT
BRANCH   1   7
ATOM      7  C   UNL     1     -33.847  -4.653  -2.494  1.00  0.00     0.071 C 
ATOM      8  O   UNL     1     -34.282  -5.741  -2.957  1.00  0.00    -0.545 OA
ATOM      9  O   UNL     1     -32.808  -4.006  -3.152  1.00  0.00    -0.545 OA
ENDBRANCH   1   7
BRANCH   6  10
ATOM     10  C   UNL     1     -36.150  -2.371   2.344  1.00  0.00     0.013 C 
ATOM     11  C   UNL     1     -37.125  -3.346   3.014  1.00  0.00     0.012 C 
ATOM     12  C   UNL     1     -36.828  -1.027   2.052  1.00  0.00     0.012 C 
ENDBRANCH   6  10
TORSDOF 2
ENDMDL
MODEL 4
REMARK VINA RESULT:    -4.232      7.313      9.640
REMARK INTER + INTRA:          -4.933
REMARK INTER:                  -4.720
REMARK INTRA:                  -0.212
REMARK UNBOUND:                -0.205
REMARK SMILES CC(C)c1ccc(C(=O)[O-])cc1
REMARK SMILES IDX 7 1 6 2 11 3 5 4 12 5 4 6 8 7 9 8 10 9 2 10 1 11 3 12
REMARK H PARENT
REMARK Flexibility Score: inf
ROOT
ATOM      1  C   UNL     1     -28.984   3.177  -0.272  1.00  0.00    -0.003 A 
ATOM      2  C   UNL     1     -28.295   4.282  -0.798  1.00  0.00     0.010 A 
ATOM      3  C   UNL     1     -28.390   2.432   0.762  1.00  0.00     0.010 A 
ATOM      4  C   UNL     1     -27.037   4.635  -0.301  1.00  0.00     0.004 A 
ATOM      5  C   UNL     1     -27.133   2.786   1.259  1.00  0.00     0.004 A 
ATOM      6  C   UNL     1     -26.442   3.891   0.735  1.00  0.00    -0.045 A 
ENDROOT
BRANCH   1   7
ATOM      7  C   UNL     1     -30.316   2.806  -0.801  1.00  0.00     0.071 C 
ATOM      8  O   UNL     1     -31.051   1.998  -0.174  1.00  0.00    -0.545 OA
ATOM      9  O   UNL     1     -30.773   3.345  -1.998  1.00  0.00    -0.545 OA
ENDBRANCH   1   7
BRANCH   6  10
ATOM     10  C   UNL     1     -25.078   4.264   1.284  1.00  0.00     0.013 C 
ATOM     11  C   UNL     1     -24.356   3.037   1.852  1.00  0.00     0.012 C 
ATOM     12  C   UNL     1     -25.189   5.375   2.335  1.00  0.00     0.012 C 
ENDBRANCH   6  10
TORSDOF 2
ENDMDL
MODEL 5
REMARK VINA RESULT:    -4.169      8.555     10.416
REMARK INTER + INTRA:          -4.862
REMARK INTER:                  -4.646
REMARK INTRA:                  -0.216
REMARK UNBOUND:                -0.205
REMARK SMILES CC(C)c1ccc(C(=O)[O-])cc1
REMARK SMILES IDX 7 1 6 2 11 3 5 4 12 5 4 6 8 7 9 8 10 9 2 10 1 11 3 12
REMARK H PARENT
REMARK Flexibility Score: inf
ROOT
ATOM      1  C   UNL     1     -25.074   2.635   2.052  1.00  0.00    -0.003 A 
ATOM      2  C   UNL     1     -24.853   3.809   1.314  1.00  0.00     0.010 A 
ATOM      3  C   UNL     1     -26.343   2.031   2.007  1.00  0.00     0.010 A 
ATOM      4  C   UNL     1     -25.879   4.370   0.548  1.00  0.00     0.004 A 
ATOM      5  C   UNL     1     -27.368   2.592   1.242  1.00  0.00     0.004 A 
ATOM      6  C   UNL     1     -27.149   3.766   0.502  1.00  0.00    -0.045 A 
ENDROOT
BRANCH   1   7
ATOM      7  C   UNL     1     -23.984   2.045   2.862  1.00  0.00     0.071 C 
ATOM      8  O   UNL     1     -23.758   0.806   2.824  1.00  0.00    -0.545 OA
ATOM      9  O   UNL     1     -23.197   2.850   3.675  1.00  0.00    -0.545 OA
ENDBRANCH   1   7
BRANCH   6  10
ATOM     10  C   UNL     1     -28.272   4.363  -0.325  1.00  0.00     0.013 C 
ATOM     11  C   UNL     1     -29.199   3.271  -0.869  1.00  0.00     0.012 C 
ATOM     12  C   UNL     1     -27.719   5.234  -1.460  1.00  0.00     0.012 C 
ENDBRANCH   6  10
TORSDOF 2
ENDMDL
MODEL 6
REMARK VINA RESULT:    -4.161      2.178      3.134
REMARK INTER + INTRA:          -4.853
REMARK INTER:                  -4.639
REMARK INTRA:                  -0.214
REMARK UNBOUND:                -0.205
REMARK SMILES CC(C)c1ccc(C(=O)[O-])cc1
REMARK SMILES IDX 7 1 6 2 11 3 5 4 12 5 4 6 8 7 9 8 10 9 2 10 1 11 3 12
REMARK H PARENT
REMARK Flexibility Score: inf
ROOT
ATOM      1  C   UNL     1     -31.331   7.177  -1.398  1.00  0.00    -0.003 A 
ATOM      2  C   UNL     1     -31.749   8.027  -2.436  1.00  0.00     0.010 A 
ATOM      3  C   UNL     1     -32.301   6.497  -0.641  1.00  0.00     0.010 A 
ATOM      4  C   UNL     1     -33.110   8.193  -2.711  1.00  0.00     0.004 A 
ATOM      5  C   UNL     1     -33.660   6.664  -0.917  1.00  0.00     0.004 A 
ATOM      6  C   UNL     1     -34.081   7.512  -1.955  1.00  0.00    -0.045 A 
ENDROOT
BRANCH   1   7
ATOM      7  C   UNL     1     -29.889   7.005  -1.110  1.00  0.00     0.071 C 
ATOM      8  O   UNL     1     -29.452   5.908  -0.672  1.00  0.00    -0.545 OA
ATOM      9  O   UNL     1     -28.999   8.051  -1.318  1.00  0.00    -0.545 OA
ENDBRANCH   1   7
BRANCH   6  10
ATOM     10  C   UNL     1     -35.561   7.683  -2.243  1.00  0.00     0.013 C 
ATOM     11  C   UNL     1     -36.416   6.981  -1.182  1.00  0.00     0.012 C 
ATOM     12  C   UNL     1     -35.911   7.186  -3.652  1.00  0.00     0.012 C 
ENDBRANCH   6  10
TORSDOF 2
ENDMDL
MODEL 7
REMARK VINA RESULT:    -4.090      7.551      8.803
REMARK INTER + INTRA:          -4.773
REMARK INTER:                  -4.565
REMARK INTRA:                  -0.208
REMARK UNBOUND:                -0.205
REMARK SMILES CC(C)c1ccc(C(=O)[O-])cc1
REMARK SMILES IDX 7 1 6 2 11 3 5 4 12 5 4 6 8 7 9 8 10 9 2 10 1 11 3 12
REMARK H PARENT
REMARK Flexibility Score: inf
ROOT
ATOM      1  C   UNL     1     -27.245   2.959   1.408  1.00  0.00    -0.003 A 
ATOM      2  C   UNL     1     -28.364   2.390   0.777  1.00  0.00     0.010 A 
ATOM      3  C   UNL     1     -26.610   4.059   0.807  1.00  0.00     0.010 A 
ATOM      4  C   UNL     1     -28.837   2.910  -0.432  1.00  0.00     0.004 A 
ATOM      5  C   UNL     1     -27.083   4.578  -0.400  1.00  0.00     0.004 A 
ATOM      6  C   UNL     1     -28.202   4.012  -1.033  1.00  0.00    -0.045 A 
ENDROOT
BRANCH   1   7
ATOM      7  C   UNL     1     -26.748   2.404   2.687  1.00  0.00     0.071 C 
ATOM      8  O   UNL     1     -25.995   1.394   2.697  1.00  0.00    -0.545 OA
ATOM      9  O   UNL     1     -27.106   2.990   3.895  1.00  0.00    -0.545 OA
ENDBRANCH   1   7
BRANCH   6  10
ATOM     10  C   UNL     1     -28.705   4.587  -2.344  1.00  0.00     0.013 C 
ATOM     11  C   UNL     1     -28.623   3.550  -3.470  1.00  0.00     0.012 C 
ATOM     12  C   UNL     1     -27.945   5.866  -2.715  1.00  0.00     0.012 C 
ENDBRANCH   6  10
TORSDOF 2
ENDMDL
MODEL 8
REMARK VINA RESULT:    -4.086      2.536      3.896
REMARK INTER + INTRA:          -4.770
REMARK INTER:                  -4.565
REMARK INTRA:                  -0.205
REMARK UNBOUND:                -0.205
REMARK SMILES CC(C)c1ccc(C(=O)[O-])cc1
REMARK SMILES IDX 7 1 6 2 11 3 5 4 12 5 4 6 8 7 9 8 10 9 2 10 1 11 3 12
REMARK H PARENT
REMARK Flexibility Score: inf
ROOT
ATOM      1  C   UNL     1     -32.362   4.163  -0.041  1.00  0.00    -0.003 A 
ATOM      2  C   UNL     1     -31.880   5.477  -0.158  1.00  0.00     0.010 A 
ATOM      3  C   UNL     1     -33.692   3.890  -0.405  1.00  0.00     0.010 A 
ATOM      4  C   UNL     1     -32.712   6.498  -0.628  1.00  0.00     0.004 A 
ATOM      5  C   UNL     1     -34.522   4.911  -0.875  1.00  0.00     0.004 A 
ATOM      6  C   UNL     1     -34.043   6.226  -0.993  1.00  0.00    -0.045 A 
ENDROOT
BRANCH   1   7
ATOM      7  C   UNL     1     -31.478   3.085   0.457  1.00  0.00     0.071 C 
ATOM      8  O   UNL     1     -31.580   2.671   1.642  1.00  0.00    -0.545 OA
ATOM      9  O   UNL     1     -30.523   2.516  -0.376  1.00  0.00    -0.545 OA
ENDBRANCH   1   7
BRANCH   6  10
ATOM     10  C   UNL     1     -34.955   7.324  -1.505  1.00  0.00     0.013 C 
ATOM     11  C   UNL     1     -36.430   6.947  -1.324  1.00  0.00     0.012 C 
ATOM     12  C   UNL     1     -34.647   7.662  -2.969  1.00  0.00     0.012 C 
ENDBRANCH   6  10
TORSDOF 2
ENDMDL
MODEL 9
REMARK VINA RESULT:    -4.077      8.314     11.734
REMARK INTER + INTRA:          -4.759
REMARK INTER:                  -4.554
REMARK INTRA:                  -0.205
REMARK UNBOUND:                -0.205
REMARK SMILES CC(C)c1ccc(C(=O)[O-])cc1
REMARK SMILES IDX 7 1 6 2 11 3 5 4 12 5 4 6 8 7 9 8 10 9 2 10 1 11 3 12
REMARK H PARENT
REMARK Flexibility Score: inf
ROOT
ATOM      1  C   UNL     1     -26.807   3.839   0.469  1.00  0.00    -0.003 A 
ATOM      2  C   UNL     1     -27.250   2.694   1.152  1.00  0.00     0.010 A 
ATOM      3  C   UNL     1     -25.511   4.323   0.719  1.00  0.00     0.010 A 
ATOM      4  C   UNL     1     -26.415   2.047   2.067  1.00  0.00     0.004 A 
ATOM      5  C   UNL     1     -24.677   3.675   1.633  1.00  0.00     0.004 A 
ATOM      6  C   UNL     1     -25.117   2.530   2.317  1.00  0.00    -0.045 A 
ENDROOT
BRANCH   1   7
ATOM      7  C   UNL     1     -27.695   4.522  -0.499  1.00  0.00     0.071 C 
ATOM      8  O   UNL     1     -28.093   3.923  -1.534  1.00  0.00    -0.545 OA
ATOM      9  O   UNL     1     -28.101   5.833  -0.279  1.00  0.00    -0.545 OA
ENDBRANCH   1   7
BRANCH   6  10
ATOM     10  C   UNL     1     -24.200   1.837   3.307  1.00  0.00     0.013 C 
ATOM     11  C   UNL     1     -23.208   2.826   3.929  1.00  0.00     0.012 C 
ATOM     12  C   UNL     1     -23.468   0.659   2.652  1.00  0.00     0.012 C 
ENDBRANCH   6  10
TORSDOF 2
ENDMDL
