MODEL 1
REMARK VINA RESULT:    -4.780      0.000      0.000
REMARK INTER + INTRA:          -6.322
REMARK INTER:                  -6.177
REMARK INTRA:                  -0.146
REMARK UNBOUND:                -0.146
REMARK SMILES C=CC(=O)CCCCC
REMARK SMILES IDX 6 1 7 2 8 3 9 4 5 5 3 6 4 7 2 8 1 9
REMARK H PARENT
REMARK Flexibility Score: inf
ROOT
ATOM      1  C   UNL     1      16.245  17.942  30.086  1.00  0.00     0.008 C 
ENDROOT
BRANCH   1   2
ATOM      2  C   UNL     1      15.360  18.594  29.010  1.00  0.00     0.000 C 
BRANCH   2   3
ATOM      3  C   UNL     1      15.347  20.128  29.108  1.00  0.00    -0.003 C 
ATOM      4  C   UNL     1      15.357  20.629  30.551  1.00  0.00     0.004 C 
ENDBRANCH   2   3
ENDBRANCH   1   2
BRANCH   1   5
ATOM      5  C   UNL     1      16.367  16.421  29.890  1.00  0.00     0.080 C 
BRANCH   5   6
ATOM      6  C   UNL     1      17.782  15.900  30.020  1.00  0.00     0.155 C 
ATOM      7  O   UNL     1      18.752  16.629  29.680  1.00  0.00    -0.295 OA
BRANCH   6   8
ATOM      8  C   UNL     1      18.074  14.528  30.484  1.00  0.00     0.039 C 
ATOM      9  C   UNL     1      17.814  14.094  31.717  1.00  0.00     0.012 C 
ENDBRANCH   6   8
ENDBRANCH   5   6
ENDBRANCH   1   5
TORSDOF 5
ENDMDL
MODEL 2
REMARK VINA RESULT:    -4.663      1.638      2.035
REMARK INTER + INTRA:          -6.172
REMARK INTER:                  -5.912
REMARK INTRA:                  -0.260
REMARK UNBOUND:                -0.146
REMARK SMILES C=CC(=O)CCCCC
REMARK SMILES IDX 6 1 7 2 8 3 9 4 5 5 3 6 4 7 2 8 1 9
REMARK H PARENT
REMARK Flexibility Score: inf
ROOT
ATOM      1  C   UNL     1      17.022  17.253  30.610  1.00  0.00     0.008 C 
ENDROOT
BRANCH   1   2
ATOM      2  C   UNL     1      15.853  17.774  29.756  1.00  0.00     0.000 C 
BRANCH   2   3
ATOM      3  C   UNL     1      15.725  19.305  29.805  1.00  0.00    -0.003 C 
ATOM      4  C   UNL     1      15.232  19.899  28.487  1.00  0.00     0.004 C 
ENDBRANCH   2   3
ENDBRANCH   1   2
BRANCH   1   5
ATOM      5  C   UNL     1      17.770  16.098  29.922  1.00  0.00     0.080 C 
BRANCH   5   6
ATOM      6  C   UNL     1      17.459  14.737  30.505  1.00  0.00     0.155 C 
ATOM      7  O   UNL     1      18.310  14.156  31.232  1.00  0.00    -0.295 OA
BRANCH   6   8
ATOM      8  C   UNL     1      16.200  14.023  30.206  1.00  0.00     0.039 C 
ATOM      9  C   UNL     1      15.709  13.875  28.976  1.00  0.00     0.012 C 
ENDBRANCH   6   8
ENDBRANCH   5   6
ENDBRANCH   1   5
TORSDOF 5
ENDMDL
MODEL 3
REMARK VINA RESULT:    -4.463      1.845      5.309
REMARK INTER + INTRA:          -5.913
REMARK INTER:                  -5.802
REMARK INTRA:                  -0.111
REMARK UNBOUND:                -0.146
REMARK SMILES C=CC(=O)CCCCC
REMARK SMILES IDX 6 1 7 2 8 3 9 4 5 5 3 6 4 7 2 8 1 9
REMARK H PARENT
REMARK Flexibility Score: inf
ROOT
ATOM      1  C   UNL     1      16.533  17.604  30.101  1.00  0.00     0.008 C 
ENDROOT
BRANCH   1   2
ATOM      2  C   UNL     1      16.562  16.071  29.980  1.00  0.00     0.000 C 
BRANCH   2   3
ATOM      3  C   UNL     1      17.865  15.462  30.521  1.00  0.00    -0.003 C 
ATOM      4  C   UNL     1      17.816  13.937  30.601  1.00  0.00     0.004 C 
ENDBRANCH   2   3
ENDBRANCH   1   2
BRANCH   1   5
ATOM      5  C   UNL     1      15.401  18.229  29.268  1.00  0.00     0.080 C 
BRANCH   5   6
ATOM      6  C   UNL     1      15.387  19.742  29.295  1.00  0.00     0.155 C 
ATOM      7  O   UNL     1      15.396  20.389  28.213  1.00  0.00    -0.295 OA
BRANCH   6   8
ATOM      8  C   UNL     1      15.421  20.505  30.560  1.00  0.00     0.039 C 
ATOM      9  C   UNL     1      14.983  21.758  30.679  1.00  0.00     0.012 C 
ENDBRANCH   6   8
ENDBRANCH   5   6
ENDBRANCH   1   5
TORSDOF 5
ENDMDL
MODEL 4
REMARK VINA RESULT:    -4.214      1.942      5.408
REMARK INTER + INTRA:          -5.592
REMARK INTER:                  -5.489
REMARK INTRA:                  -0.102
REMARK UNBOUND:                -0.146
REMARK SMILES C=CC(=O)CCCCC
REMARK SMILES IDX 6 1 7 2 8 3 9 4 5 5 3 6 4 7 2 8 1 9
REMARK H PARENT
REMARK Flexibility Score: inf
ROOT
ATOM      1  C   UNL     1      16.482  17.716  30.051  1.00  0.00     0.008 C 
ENDROOT
BRANCH   1   2
ATOM      2  C   UNL     1      16.481  16.198  29.804  1.00  0.00     0.000 C 
BRANCH   2   3
ATOM      3  C   UNL     1      17.543  15.464  30.638  1.00  0.00    -0.003 C 
ATOM      4  C   UNL     1      17.232  13.980  30.818  1.00  0.00     0.004 C 
ENDBRANCH   2   3
ENDBRANCH   1   2
BRANCH   1   5
ATOM      5  C   UNL     1      15.379  18.432  29.252  1.00  0.00     0.080 C 
BRANCH   5   6
ATOM      6  C   UNL     1      15.388  19.937  29.413  1.00  0.00     0.155 C 
ATOM      7  O   UNL     1      15.495  20.444  30.562  1.00  0.00    -0.295 OA
BRANCH   6   8
ATOM      8  C   UNL     1      15.218  20.851  28.265  1.00  0.00     0.039 C 
ATOM      9  C   UNL     1      14.685  20.484  27.100  1.00  0.00     0.012 C 
ENDBRANCH   6   8
ENDBRANCH   5   6
ENDBRANCH   1   5
TORSDOF 5
ENDMDL
MODEL 5
REMARK VINA RESULT:    -3.927      3.287      6.398
REMARK INTER + INTRA:          -5.221
REMARK INTER:                  -5.114
REMARK INTRA:                  -0.107
REMARK UNBOUND:                -0.146
REMARK SMILES C=CC(=O)CCCCC
REMARK SMILES IDX 6 1 7 2 8 3 9 4 5 5 3 6 4 7 2 8 1 9
REMARK H PARENT
REMARK Flexibility Score: inf
ROOT
ATOM      1  C   UNL     1      15.397  19.961  29.210  1.00  0.00     0.008 C 
ENDROOT
BRANCH   1   2
ATOM      2  C   UNL     1      15.402  18.423  29.221  1.00  0.00     0.000 C 
BRANCH   2   3
ATOM      3  C   UNL     1      16.483  17.843  30.147  1.00  0.00    -0.003 C 
ATOM      4  C   UNL     1      16.641  16.331  29.996  1.00  0.00     0.004 C 
ENDBRANCH   2   3
ENDBRANCH   1   2
BRANCH   1   5
ATOM      5  C   UNL     1      15.070  20.529  27.818  1.00  0.00     0.080 C 
BRANCH   5   6
ATOM      6  C   UNL     1      14.800  22.017  27.815  1.00  0.00     0.155 C 
ATOM      7  O   UNL     1      13.967  22.506  28.626  1.00  0.00    -0.295 OA
BRANCH   6   8
ATOM      8  C   UNL     1      15.440  22.930  26.845  1.00  0.00     0.039 C 
ATOM      9  C   UNL     1      15.926  22.536  25.669  1.00  0.00     0.012 C 
ENDBRANCH   6   8
ENDBRANCH   5   6
ENDBRANCH   1   5
TORSDOF 5
ENDMDL
MODEL 6
REMARK VINA RESULT:    -3.915      5.210      6.507
REMARK INTER + INTRA:          -5.205
REMARK INTER:                  -4.929
REMARK INTRA:                  -0.276
REMARK UNBOUND:                -0.146
REMARK SMILES C=CC(=O)CCCCC
REMARK SMILES IDX 6 1 7 2 8 3 9 4 5 5 3 6 4 7 2 8 1 9
REMARK H PARENT
REMARK Flexibility Score: inf
ROOT
ATOM      1  C   UNL     1      14.937  20.872  27.813  1.00  0.00     0.008 C 
ENDROOT
BRANCH   1   2
ATOM      2  C   UNL     1      14.483  22.171  28.499  1.00  0.00     0.000 C 
BRANCH   2   3
ATOM      3  C   UNL     1      14.710  22.146  30.019  1.00  0.00    -0.003 C 
ATOM      4  C   UNL     1      15.293  20.822  30.508  1.00  0.00     0.004 C 
ENDBRANCH   2   3
ENDBRANCH   1   2
BRANCH   1   5
ATOM      5  C   UNL     1      14.902  20.985  26.279  1.00  0.00     0.080 C 
BRANCH   5   6
ATOM      6  C   UNL     1      15.820  22.052  25.725  1.00  0.00     0.155 C 
ATOM      7  O   UNL     1      15.349  22.975  25.007  1.00  0.00    -0.295 OA
BRANCH   6   8
ATOM      8  C   UNL     1      17.281  22.025  25.948  1.00  0.00     0.039 C 
ATOM      9  C   UNL     1      18.152  21.511  25.080  1.00  0.00     0.012 C 
ENDBRANCH   6   8
ENDBRANCH   5   6
ENDBRANCH   1   5
TORSDOF 5
ENDMDL
MODEL 7
REMARK VINA RESULT:    -3.898      1.546      2.152
REMARK INTER + INTRA:          -5.183
REMARK INTER:                  -5.103
REMARK INTRA:                  -0.081
REMARK UNBOUND:                -0.146
REMARK SMILES C=CC(=O)CCCCC
REMARK SMILES IDX 6 1 7 2 8 3 9 4 5 5 3 6 4 7 2 8 1 9
REMARK H PARENT
REMARK Flexibility Score: inf
ROOT
ATOM      1  C   UNL     1      15.240  18.555  29.121  1.00  0.00     0.008 C 
ENDROOT
BRANCH   1   2
ATOM      2  C   UNL     1      15.425  20.037  28.756  1.00  0.00     0.000 C 
BRANCH   2   3
ATOM      3  C   UNL     1      14.774  20.399  27.411  1.00  0.00    -0.003 C 
ATOM      4  C   UNL     1      15.621  21.365  26.585  1.00  0.00     0.004 C 
ENDBRANCH   2   3
ENDBRANCH   1   2
BRANCH   1   5
ATOM      5  C   UNL     1      16.327  18.057  30.088  1.00  0.00     0.080 C 
BRANCH   5   6
ATOM      6  C   UNL     1      16.595  16.571  29.994  1.00  0.00     0.155 C 
ATOM      7  O   UNL     1      15.793  15.828  29.366  1.00  0.00    -0.295 OA
BRANCH   6   8
ATOM      8  C   UNL     1      17.746  15.936  30.667  1.00  0.00     0.039 C 
ATOM      9  C   UNL     1      17.961  14.621  30.682  1.00  0.00     0.012 C 
ENDBRANCH   6   8
ENDBRANCH   5   6
ENDBRANCH   1   5
TORSDOF 5
ENDMDL
MODEL 8
REMARK VINA RESULT:    -3.783      4.588      6.507
REMARK INTER + INTRA:          -5.034
REMARK INTER:                  -4.626
REMARK INTRA:                  -0.408
REMARK UNBOUND:                -0.146
REMARK SMILES C=CC(=O)CCCCC
REMARK SMILES IDX 6 1 7 2 8 3 9 4 5 5 3 6 4 7 2 8 1 9
REMARK H PARENT
REMARK Flexibility Score: inf
ROOT
ATOM      1  C   UNL     1      15.332  20.266  28.606  1.00  0.00     0.008 C 
ENDROOT
BRANCH   1   2
ATOM      2  C   UNL     1      15.353  20.481  30.129  1.00  0.00     0.000 C 
BRANCH   2   3
ATOM      3  C   UNL     1      14.722  21.819  30.544  1.00  0.00    -0.003 C 
ATOM      4  C   UNL     1      15.618  22.630  31.480  1.00  0.00     0.004 C 
ENDBRANCH   2   3
ENDBRANCH   1   2
BRANCH   1   5
ATOM      5  C   UNL     1      14.618  21.413  27.870  1.00  0.00     0.080 C 
BRANCH   5   6
ATOM      6  C   UNL     1      15.476  22.094  26.826  1.00  0.00     0.155 C 
ATOM      7  O   UNL     1      16.234  21.406  26.090  1.00  0.00    -0.295 OA
BRANCH   6   8
ATOM      8  C   UNL     1      15.505  23.563  26.669  1.00  0.00     0.039 C 
ATOM      9  C   UNL     1      15.813  24.405  27.654  1.00  0.00     0.012 C 
ENDBRANCH   6   8
ENDBRANCH   5   6
ENDBRANCH   1   5
TORSDOF 5
ENDMDL
MODEL 9
REMARK VINA RESULT:    -3.780      4.720      5.866
REMARK INTER + INTRA:          -5.030
REMARK INTER:                  -4.633
REMARK INTRA:                  -0.397
REMARK UNBOUND:                -0.146
REMARK SMILES C=CC(=O)CCCCC
REMARK SMILES IDX 6 1 7 2 8 3 9 4 5 5 3 6 4 7 2 8 1 9
REMARK H PARENT
REMARK Flexibility Score: inf
ROOT
ATOM      1  C   UNL     1      15.920  21.451  26.271  1.00  0.00     0.008 C 
ENDROOT
BRANCH   1   2
ATOM      2  C   UNL     1      15.664  22.889  25.789  1.00  0.00     0.000 C 
BRANCH   2   3
ATOM      3  C   UNL     1      16.056  23.941  26.839  1.00  0.00    -0.003 C 
ATOM      4  C   UNL     1      14.859  24.735  27.357  1.00  0.00     0.004 C 
ENDBRANCH   2   3
ENDBRANCH   1   2
BRANCH   1   5
ATOM      5  C   UNL     1      14.737  20.894  27.081  1.00  0.00     0.080 C 
BRANCH   5   6
ATOM      6  C   UNL     1      15.065  20.631  28.535  1.00  0.00     0.155 C 
ATOM      7  O   UNL     1      15.435  19.482  28.897  1.00  0.00    -0.295 OA
BRANCH   6   8
ATOM      8  C   UNL     1      14.910  21.669  29.575  1.00  0.00     0.039 C 
ATOM      9  C   UNL     1      15.043  21.434  30.880  1.00  0.00     0.012 C 
ENDBRANCH   6   8
ENDBRANCH   5   6
ENDBRANCH   1   5
TORSDOF 5
ENDMDL
