MODEL 1
REMARK VINA RESULT:    -4.370      0.000      0.000
REMARK INTER + INTRA:          -5.156
REMARK INTER:                  -5.136
REMARK INTRA:                  -0.020
REMARK UNBOUND:                -0.020
REMARK SMILES O=C([O-])CCC(=O)[O-]
REMARK SMILES IDX 4 1 2 2 1 3 3 4 5 5 6 6 7 7 8 8
REMARK H PARENT
REMARK Flexibility Score: inf
ROOT
ATOM      1  C   UNL     1       8.789  -0.554  -9.013  1.00  0.00     0.059 C 
ENDROOT
BRANCH   1   2
ATOM      2  C   UNL     1       8.660   0.803  -8.394  1.00  0.00     0.042 C 
ATOM      3  O   UNL     1       7.696   1.552  -8.704  1.00  0.00    -0.550 OA
ATOM      4  O   UNL     1       9.581   1.225  -7.443  1.00  0.00    -0.550 OA
ENDBRANCH   1   2
BRANCH   1   5
ATOM      5  C   UNL     1      10.125  -0.717  -9.744  1.00  0.00     0.059 C 
BRANCH   5   6
ATOM      6  C   UNL     1      10.057  -0.192 -11.146  1.00  0.00     0.042 C 
ATOM      7  O   UNL     1      10.123  -0.985 -12.122  1.00  0.00    -0.550 OA
ATOM      8  O   UNL     1       9.876   1.167 -11.373  1.00  0.00    -0.550 OA
ENDBRANCH   5   6
ENDBRANCH   1   5
TORSDOF 3
ENDMDL
MODEL 2
REMARK VINA RESULT:    -3.782     20.295     21.842
REMARK INTER + INTRA:          -4.466
REMARK INTER:                  -4.436
REMARK INTRA:                  -0.030
REMARK UNBOUND:                -0.020
REMARK SMILES O=C([O-])CCC(=O)[O-]
REMARK SMILES IDX 4 1 2 2 1 3 3 4 5 5 6 6 7 7 8 8
REMARK H PARENT
REMARK Flexibility Score: inf
ROOT
ATOM      1  C   UNL     1      -4.698  -1.649   6.503  1.00  0.00     0.059 C 
ENDROOT
BRANCH   1   2
ATOM      2  C   UNL     1      -4.392  -2.648   5.430  1.00  0.00     0.042 C 
ATOM      3  O   UNL     1      -5.324  -3.147   4.745  1.00  0.00    -0.550 OA
ATOM      4  O   UNL     1      -3.075  -2.997   5.158  1.00  0.00    -0.550 OA
ENDBRANCH   1   2
BRANCH   1   5
ATOM      5  C   UNL     1      -5.547  -0.490   5.972  1.00  0.00     0.059 C 
BRANCH   5   6
ATOM      6  C   UNL     1      -5.679   0.608   6.982  1.00  0.00     0.042 C 
ATOM      7  O   UNL     1      -4.654   1.207   7.403  1.00  0.00    -0.550 OA
ATOM      8  O   UNL     1      -6.936   1.001   7.425  1.00  0.00    -0.550 OA
ENDBRANCH   5   6
ENDBRANCH   1   5
TORSDOF 3
ENDMDL
MODEL 3
REMARK VINA RESULT:    -3.778     20.469     22.019
REMARK INTER + INTRA:          -4.461
REMARK INTER:                  -4.401
REMARK INTRA:                  -0.060
REMARK UNBOUND:                -0.020
REMARK SMILES O=C([O-])CCC(=O)[O-]
REMARK SMILES IDX 4 1 2 2 1 3 3 4 5 5 6 6 7 7 8 8
REMARK H PARENT
REMARK Flexibility Score: inf
ROOT
ATOM      1  C   UNL     1      -5.592  -0.354   6.130  1.00  0.00     0.059 C 
ENDROOT
BRANCH   1   2
ATOM      2  C   UNL     1      -6.821  -0.052   6.930  1.00  0.00     0.042 C 
ATOM      3  O   UNL     1      -7.648  -0.966   7.191  1.00  0.00    -0.550 OA
ATOM      4  O   UNL     1      -7.035   1.230   7.422  1.00  0.00    -0.550 OA
ENDBRANCH   1   2
BRANCH   1   5
ATOM      5  C   UNL     1      -5.628  -1.772   5.552  1.00  0.00     0.059 C 
BRANCH   5   6
ATOM      6  C   UNL     1      -4.279  -2.423   5.595  1.00  0.00     0.042 C 
ATOM      7  O   UNL     1      -3.433  -2.069   6.458  1.00  0.00    -0.550 OA
ATOM      8  O   UNL     1      -3.972  -3.449   4.710  1.00  0.00    -0.550 OA
ENDBRANCH   5   6
ENDBRANCH   1   5
TORSDOF 3
ENDMDL
MODEL 4
REMARK VINA RESULT:    -3.742     20.863     21.965
REMARK INTER + INTRA:          -4.418
REMARK INTER:                  -4.360
REMARK INTRA:                  -0.058
REMARK UNBOUND:                -0.020
REMARK SMILES O=C([O-])CCC(=O)[O-]
REMARK SMILES IDX 4 1 2 2 1 3 3 4 5 5 6 6 7 7 8 8
REMARK H PARENT
REMARK Flexibility Score: inf
ROOT
ATOM      1  C   UNL     1      -5.721  -0.734   7.289  1.00  0.00     0.059 C 
ENDROOT
BRANCH   1   2
ATOM      2  C   UNL     1      -5.864   0.756   7.334  1.00  0.00     0.042 C 
ATOM      3  O   UNL     1      -6.991   1.278   7.543  1.00  0.00    -0.550 OA
ATOM      4  O   UNL     1      -4.747   1.568   7.188  1.00  0.00    -0.550 OA
ENDBRANCH   1   2
BRANCH   1   5
ATOM      5  C   UNL     1      -5.989  -1.285   5.884  1.00  0.00     0.059 C 
BRANCH   5   6
ATOM      6  C   UNL     1      -4.947  -2.279   5.471  1.00  0.00     0.042 C 
ATOM      7  O   UNL     1      -5.247  -3.226   4.697  1.00  0.00    -0.550 OA
ATOM      8  O   UNL     1      -3.635  -2.133   5.905  1.00  0.00    -0.550 OA
ENDBRANCH   5   6
ENDBRANCH   1   5
TORSDOF 3
ENDMDL
MODEL 5
REMARK VINA RESULT:    -3.737     20.886     22.224
REMARK INTER + INTRA:          -4.412
REMARK INTER:                  -4.347
REMARK INTRA:                  -0.066
REMARK UNBOUND:                -0.020
REMARK SMILES O=C([O-])CCC(=O)[O-]
REMARK SMILES IDX 4 1 2 2 1 3 3 4 5 5 6 6 7 7 8 8
REMARK H PARENT
REMARK Flexibility Score: inf
ROOT
ATOM      1  C   UNL     1      -5.971  -1.342   5.913  1.00  0.00     0.059 C 
ENDROOT
BRANCH   1   2
ATOM      2  C   UNL     1      -4.867  -2.266   5.500  1.00  0.00     0.042 C 
ATOM      3  O   UNL     1      -3.706  -2.113   5.965  1.00  0.00    -0.550 OA
ATOM      4  O   UNL     1      -5.128  -3.319   4.633  1.00  0.00    -0.550 OA
ENDBRANCH   1   2
BRANCH   1   5
ATOM      5  C   UNL     1      -5.729  -0.761   7.309  1.00  0.00     0.059 C 
BRANCH   5   6
ATOM      6  C   UNL     1      -5.896   0.728   7.326  1.00  0.00     0.042 C 
ATOM      7  O   UNL     1      -7.036   1.236   7.496  1.00  0.00    -0.550 OA
ATOM      8  O   UNL     1      -4.786   1.555   7.199  1.00  0.00    -0.550 OA
ENDBRANCH   5   6
ENDBRANCH   1   5
TORSDOF 3
ENDMDL
MODEL 6
REMARK VINA RESULT:    -3.538     18.806     20.094
REMARK INTER + INTRA:          -4.178
REMARK INTER:                  -4.140
REMARK INTRA:                  -0.038
REMARK UNBOUND:                -0.020
REMARK SMILES O=C([O-])CCC(=O)[O-]
REMARK SMILES IDX 4 1 2 2 1 3 3 4 5 5 6 6 7 7 8 8
REMARK H PARENT
REMARK Flexibility Score: inf
ROOT
ATOM      1  C   UNL     1      -1.915  -9.588   1.890  1.00  0.00     0.059 C 
ENDROOT
BRANCH   1   2
ATOM      2  C   UNL     1      -2.037 -10.075   0.479  1.00  0.00     0.042 C 
ATOM      3  O   UNL     1      -2.888 -10.955   0.183  1.00  0.00    -0.550 OA
ATOM      4  O   UNL     1      -1.239  -9.527  -0.518  1.00  0.00    -0.550 OA
ENDBRANCH   1   2
BRANCH   1   5
ATOM      5  C   UNL     1      -2.784 -10.409   2.848  1.00  0.00     0.059 C 
BRANCH   5   6
ATOM      6  C   UNL     1      -2.856  -9.782   4.206  1.00  0.00     0.042 C 
ATOM      7  O   UNL     1      -3.455 -10.370   5.145  1.00  0.00    -0.550 OA
ATOM      8  O   UNL     1      -2.225  -8.568   4.447  1.00  0.00    -0.550 OA
ENDBRANCH   5   6
ENDBRANCH   1   5
TORSDOF 3
ENDMDL
MODEL 7
REMARK VINA RESULT:    -3.525     20.375     21.120
REMARK INTER + INTRA:          -4.163
REMARK INTER:                  -4.053
REMARK INTRA:                  -0.110
REMARK UNBOUND:                -0.020
REMARK SMILES O=C([O-])CCC(=O)[O-]
REMARK SMILES IDX 4 1 2 2 1 3 3 4 5 5 6 6 7 7 8 8
REMARK H PARENT
REMARK Flexibility Score: inf
ROOT
ATOM      1  C   UNL     1      -4.568  -4.801   5.743  1.00  0.00     0.059 C 
ENDROOT
BRANCH   1   2
ATOM      2  C   UNL     1      -3.168  -5.178   6.118  1.00  0.00     0.042 C 
ATOM      3  O   UNL     1      -2.709  -4.862   7.248  1.00  0.00    -0.550 OA
ATOM      4  O   UNL     1      -2.384  -5.912   5.237  1.00  0.00    -0.550 OA
ENDBRANCH   1   2
BRANCH   1   5
ATOM      5  C   UNL     1      -4.591  -3.673   4.706  1.00  0.00     0.059 C 
BRANCH   5   6
ATOM      6  C   UNL     1      -4.982  -2.364   5.321  1.00  0.00     0.042 C 
ATOM      7  O   UNL     1      -6.106  -1.856   5.067  1.00  0.00    -0.550 OA
ATOM      8  O   UNL     1      -4.123  -1.727   6.208  1.00  0.00    -0.550 OA
ENDBRANCH   5   6
ENDBRANCH   1   5
TORSDOF 3
ENDMDL
MODEL 8
REMARK VINA RESULT:    -3.442     20.015     20.731
REMARK INTER + INTRA:          -4.065
REMARK INTER:                  -3.954
REMARK INTRA:                  -0.111
REMARK UNBOUND:                -0.020
REMARK SMILES O=C([O-])CCC(=O)[O-]
REMARK SMILES IDX 4 1 2 2 1 3 3 4 5 5 6 6 7 7 8 8
REMARK H PARENT
REMARK Flexibility Score: inf
ROOT
ATOM      1  C   UNL     1      -4.794  -3.621   4.782  1.00  0.00     0.059 C 
ENDROOT
BRANCH   1   2
ATOM      2  C   UNL     1      -5.214  -2.305   5.361  1.00  0.00     0.042 C 
ATOM      3  O   UNL     1      -6.365  -1.850   5.130  1.00  0.00    -0.550 OA
ATOM      4  O   UNL     1      -4.349  -1.601   6.189  1.00  0.00    -0.550 OA
ENDBRANCH   1   2
BRANCH   1   5
ATOM      5  C   UNL     1      -4.227  -4.556   5.855  1.00  0.00     0.059 C 
BRANCH   5   6
ATOM      6  C   UNL     1      -2.758  -4.784   5.670  1.00  0.00     0.042 C 
ATOM      7  O   UNL     1      -2.330  -5.925   5.354  1.00  0.00    -0.550 OA
ATOM      8  O   UNL     1      -1.866  -3.727   5.804  1.00  0.00    -0.550 OA
ENDBRANCH   5   6
ENDBRANCH   1   5
TORSDOF 3
ENDMDL
MODEL 9
REMARK VINA RESULT:    -3.387      1.901      2.906
REMARK INTER + INTRA:          -4.002
REMARK INTER:                  -3.952
REMARK INTRA:                  -0.050
REMARK UNBOUND:                -0.020
REMARK SMILES O=C([O-])CCC(=O)[O-]
REMARK SMILES IDX 4 1 2 2 1 3 3 4 5 5 6 6 7 7 8 8
REMARK H PARENT
REMARK Flexibility Score: inf
ROOT
ATOM      1  C   UNL     1       8.154   1.638  -8.824  1.00  0.00     0.059 C 
ENDROOT
BRANCH   1   2
ATOM      2  C   UNL     1       8.307   2.364 -10.124  1.00  0.00     0.042 C 
ATOM      3  O   UNL     1       9.371   2.254 -10.790  1.00  0.00    -0.550 OA
ATOM      4  O   UNL     1       7.262   3.132 -10.621  1.00  0.00    -0.550 OA
ENDBRANCH   1   2
BRANCH   1   5
ATOM      5  C   UNL     1       9.375   0.766  -8.516  1.00  0.00     0.059 C 
BRANCH   5   6
ATOM      6  C   UNL     1       9.253  -0.595  -9.130  1.00  0.00     0.042 C 
ATOM      7  O   UNL     1       8.337  -1.376  -8.762  1.00  0.00    -0.550 OA
ATOM      8  O   UNL     1      10.125  -0.984 -10.140  1.00  0.00    -0.550 OA
ENDBRANCH   5   6
ENDBRANCH   1   5
TORSDOF 3
ENDMDL
