MODEL 1
REMARK VINA RESULT:    -4.775      0.000      0.000
REMARK INTER + INTRA:          -9.522
REMARK INTER:                  -8.404
REMARK INTRA:                  -1.118
REMARK UNBOUND:                -1.118
REMARK SMILES CCCCCCCCCCCCCCC(=O)[O-]
REMARK SMILES IDX 9 1 10 2 11 3 12 4 13 5 14 6 15 7 16 8 17 9 8 10 7 11 6 12
REMARK SMILES IDX 5 13 4 14 3 15 2 16 1 17
REMARK H PARENT
REMARK Flexibility Score: inf
ROOT
ATOM      1  C   UNL     1       5.643   5.961 -22.703  1.00  0.00     0.000 C 
ENDROOT
BRANCH   1   2
ATOM      2  C   UNL     1       6.916   6.346 -23.483  1.00  0.00     0.000 C 
BRANCH   2   3
ATOM      3  C   UNL     1       6.851   7.707 -24.207  1.00  0.00     0.000 C 
BRANCH   3   4
ATOM      4  C   UNL     1       5.885   7.765 -25.403  1.00  0.00     0.000 C 
BRANCH   4   5
ATOM      5  C   UNL     1       6.497   7.193 -26.693  1.00  0.00     0.006 C 
BRANCH   5   6
ATOM      6  C   UNL     1       5.591   6.141 -27.345  1.00  0.00     0.053 C 
BRANCH   6   7
ATOM      7  C   UNL     1       6.076   4.748 -27.082  1.00  0.00     0.041 C 
ATOM      8  O   UNL     1       5.813   4.180 -25.990  1.00  0.00    -0.550 OA
ATOM      9  O   UNL     1       6.845   4.089 -28.034  1.00  0.00    -0.550 OA
ENDBRANCH   6   7
ENDBRANCH   5   6
ENDBRANCH   4   5
ENDBRANCH   3   4
ENDBRANCH   2   3
ENDBRANCH   1   2
BRANCH   1  10
ATOM     10  C   UNL     1       5.747   6.119 -21.173  1.00  0.00     0.000 C 
BRANCH  10  11
ATOM     11  C   UNL     1       4.999   5.049 -20.353  1.00  0.00    -0.000 C 
BRANCH  11  12
ATOM     12  C   UNL     1       4.903   5.334 -18.844  1.00  0.00    -0.000 C 
BRANCH  12  13
ATOM     13  C   UNL     1       3.460   5.555 -18.367  1.00  0.00    -0.000 C 
BRANCH  13  14
ATOM     14  C   UNL     1       2.479   5.503 -19.544  1.00  0.00    -0.000 C 
BRANCH  14  15
ATOM     15  C   UNL     1       1.563   6.733 -19.551  1.00  0.00    -0.000 C 
BRANCH  15  16
ATOM     16  C   UNL     1       0.916   6.928 -20.927  1.00  0.00    -0.003 C 
ATOM     17  C   UNL     1       1.699   6.198 -22.014  1.00  0.00     0.004 C 
ENDBRANCH  15  16
ENDBRANCH  14  15
ENDBRANCH  13  14
ENDBRANCH  12  13
ENDBRANCH  11  12
ENDBRANCH  10  11
ENDBRANCH   1  10
TORSDOF 13
ENDMDL
MODEL 2
REMARK VINA RESULT:    -4.603     16.231     17.805
REMARK INTER + INTRA:          -9.219
REMARK INTER:                  -8.245
REMARK INTRA:                  -0.974
REMARK UNBOUND:                -1.118
REMARK SMILES CCCCCCCCCCCCCCC(=O)[O-]
REMARK SMILES IDX 9 1 10 2 11 3 12 4 13 5 14 6 15 7 16 8 17 9 8 10 7 11 6 12
REMARK SMILES IDX 5 13 4 14 3 15 2 16 1 17
REMARK H PARENT
REMARK Flexibility Score: inf
ROOT
ATOM      1  C   UNL     1     -12.542  -1.434 -22.312  1.00  0.00     0.000 C 
ENDROOT
BRANCH   1   2
ATOM      2  C   UNL     1     -13.113  -2.292 -23.458  1.00  0.00     0.000 C 
BRANCH   2   3
ATOM      3  C   UNL     1     -12.057  -2.943 -24.375  1.00  0.00     0.000 C 
BRANCH   3   4
ATOM      4  C   UNL     1     -12.491  -3.132 -25.839  1.00  0.00     0.000 C 
BRANCH   4   5
ATOM      5  C   UNL     1     -12.086  -1.951 -26.738  1.00  0.00     0.006 C 
BRANCH   5   6
ATOM      6  C   UNL     1     -10.874  -1.190 -26.184  1.00  0.00     0.053 C 
BRANCH   6   7
ATOM      7  C   UNL     1     -11.212   0.232 -25.858  1.00  0.00     0.041 C 
ATOM      8  O   UNL     1     -12.372   0.538 -25.476  1.00  0.00    -0.550 OA
ATOM      9  O   UNL     1     -10.251   1.225 -26.005  1.00  0.00    -0.550 OA
ENDBRANCH   6   7
ENDBRANCH   5   6
ENDBRANCH   4   5
ENDBRANCH   3   4
ENDBRANCH   2   3
ENDBRANCH   1   2
BRANCH   1  10
ATOM     10  C   UNL     1     -11.013  -1.239 -22.347  1.00  0.00     0.000 C 
BRANCH  10  11
ATOM     11  C   UNL     1     -10.428  -0.443 -21.164  1.00  0.00    -0.000 C 
BRANCH  11  12
ATOM     12  C   UNL     1     -11.456   0.365 -20.351  1.00  0.00    -0.000 C 
BRANCH  12  13
ATOM     13  C   UNL     1     -11.363   0.103 -18.840  1.00  0.00    -0.000 C 
BRANCH  13  14
ATOM     14  C   UNL     1     -10.287   0.983 -18.195  1.00  0.00    -0.000 C 
BRANCH  14  15
ATOM     15  C   UNL     1      -9.707   0.315 -16.943  1.00  0.00    -0.000 C 
BRANCH  15  16
ATOM     16  C   UNL     1      -9.154   1.359 -15.968  1.00  0.00    -0.003 C 
ATOM     17  C   UNL     1      -9.540   1.030 -14.529  1.00  0.00     0.004 C 
ENDBRANCH  15  16
ENDBRANCH  14  15
ENDBRANCH  13  14
ENDBRANCH  12  13
ENDBRANCH  11  12
ENDBRANCH  10  11
ENDBRANCH   1  10
TORSDOF 13
ENDMDL
MODEL 3
REMARK VINA RESULT:    -4.601     14.614     17.235
REMARK INTER + INTRA:          -9.216
REMARK INTER:                  -7.386
REMARK INTRA:                  -1.830
REMARK UNBOUND:                -1.118
REMARK SMILES CCCCCCCCCCCCCCC(=O)[O-]
REMARK SMILES IDX 9 1 10 2 11 3 12 4 13 5 14 6 15 7 16 8 17 9 8 10 7 11 6 12
REMARK SMILES IDX 5 13 4 14 3 15 2 16 1 17
REMARK H PARENT
REMARK Flexibility Score: inf
ROOT
ATOM      1  C   UNL     1     -10.340  -1.051 -26.745  1.00  0.00     0.000 C 
ENDROOT
BRANCH   1   2
ATOM      2  C   UNL     1     -10.012  -0.149 -25.538  1.00  0.00     0.000 C 
BRANCH   2   3
ATOM      3  C   UNL     1      -9.057  -0.772 -24.499  1.00  0.00     0.000 C 
BRANCH   3   4
ATOM      4  C   UNL     1      -9.132  -0.154 -23.091  1.00  0.00     0.000 C 
BRANCH   4   5
ATOM      5  C   UNL     1      -8.115  -0.769 -22.115  1.00  0.00     0.006 C 
BRANCH   5   6
ATOM      6  C   UNL     1      -6.739  -0.969 -22.763  1.00  0.00     0.053 C 
BRANCH   6   7
ATOM      7  C   UNL     1      -6.003  -2.126 -22.161  1.00  0.00     0.041 C 
ATOM      8  O   UNL     1      -5.369  -2.928 -22.896  1.00  0.00    -0.550 OA
ATOM      9  O   UNL     1      -6.043  -2.336 -20.787  1.00  0.00    -0.550 OA
ENDBRANCH   6   7
ENDBRANCH   5   6
ENDBRANCH   4   5
ENDBRANCH   3   4
ENDBRANCH   2   3
ENDBRANCH   1   2
BRANCH   1  10
ATOM     10  C   UNL     1     -11.844  -1.281 -26.993  1.00  0.00     0.000 C 
BRANCH  10  11
ATOM     11  C   UNL     1     -12.389  -2.634 -26.494  1.00  0.00    -0.000 C 
BRANCH  11  12
ATOM     12  C   UNL     1     -13.015  -2.606 -25.088  1.00  0.00    -0.000 C 
BRANCH  12  13
ATOM     13  C   UNL     1     -12.004  -2.929 -23.977  1.00  0.00    -0.000 C 
BRANCH  13  14
ATOM     14  C   UNL     1     -12.378  -2.220 -22.670  1.00  0.00    -0.000 C 
BRANCH  14  15
ATOM     15  C   UNL     1     -12.810  -0.773 -22.933  1.00  0.00    -0.000 C 
BRANCH  15  16
ATOM     16  C   UNL     1     -12.650   0.086 -21.675  1.00  0.00    -0.003 C 
ATOM     17  C   UNL     1     -11.916  -0.676 -20.576  1.00  0.00     0.004 C 
ENDBRANCH  15  16
ENDBRANCH  14  15
ENDBRANCH  13  14
ENDBRANCH  12  13
ENDBRANCH  11  12
ENDBRANCH  10  11
ENDBRANCH   1  10
TORSDOF 13
ENDMDL
MODEL 4
REMARK VINA RESULT:    -4.592     18.552     20.738
REMARK INTER + INTRA:          -9.199
REMARK INTER:                  -7.719
REMARK INTRA:                  -1.481
REMARK UNBOUND:                -1.118
REMARK SMILES CCCCCCCCCCCCCCC(=O)[O-]
REMARK SMILES IDX 9 1 10 2 11 3 12 4 13 5 14 6 15 7 16 8 17 9 8 10 7 11 6 12
REMARK SMILES IDX 5 13 4 14 3 15 2 16 1 17
REMARK H PARENT
REMARK Flexibility Score: inf
ROOT
ATOM      1  C   UNL     1     -10.576   7.068 -10.957  1.00  0.00     0.000 C 
ENDROOT
BRANCH   1   2
ATOM      2  C   UNL     1     -11.645   6.748 -12.020  1.00  0.00     0.000 C 
BRANCH   2   3
ATOM      3  C   UNL     1     -13.063   6.502 -11.466  1.00  0.00     0.000 C 
BRANCH   3   4
ATOM      4  C   UNL     1     -13.116   5.838 -10.079  1.00  0.00     0.000 C 
BRANCH   4   5
ATOM      5  C   UNL     1     -12.794   4.334 -10.125  1.00  0.00     0.006 C 
BRANCH   5   6
ATOM      6  C   UNL     1     -12.001   3.874  -8.894  1.00  0.00     0.053 C 
BRANCH   6   7
ATOM      7  C   UNL     1     -11.620   2.429  -8.986  1.00  0.00     0.041 C 
ATOM      8  O   UNL     1     -10.436   2.100  -9.258  1.00  0.00    -0.550 OA
ATOM      9  O   UNL     1     -12.582   1.444  -8.798  1.00  0.00    -0.550 OA
ENDBRANCH   6   7
ENDBRANCH   5   6
ENDBRANCH   4   5
ENDBRANCH   3   4
ENDBRANCH   2   3
ENDBRANCH   1   2
BRANCH   1  10
ATOM     10  C   UNL     1      -9.595   8.193 -11.341  1.00  0.00     0.000 C 
BRANCH  10  11
ATOM     11  C   UNL     1      -8.749   8.749 -10.178  1.00  0.00    -0.000 C 
BRANCH  11  12
ATOM     12  C   UNL     1      -7.253   8.391 -10.231  1.00  0.00    -0.000 C 
BRANCH  12  13
ATOM     13  C   UNL     1      -6.685   7.986  -8.863  1.00  0.00    -0.000 C 
BRANCH  13  14
ATOM     14  C   UNL     1      -7.785   7.419  -7.957  1.00  0.00    -0.000 C 
BRANCH  14  15
ATOM     15  C   UNL     1      -7.698   5.891  -7.876  1.00  0.00    -0.000 C 
BRANCH  15  16
ATOM     16  C   UNL     1      -8.600   5.232  -8.925  1.00  0.00    -0.003 C 
ATOM     17  C   UNL     1      -7.776   4.501  -9.981  1.00  0.00     0.004 C 
ENDBRANCH  15  16
ENDBRANCH  14  15
ENDBRANCH  13  14
ENDBRANCH  12  13
ENDBRANCH  11  12
ENDBRANCH  10  11
ENDBRANCH   1  10
TORSDOF 13
ENDMDL
MODEL 5
REMARK VINA RESULT:    -4.591     16.072     18.699
REMARK INTER + INTRA:          -9.198
REMARK INTER:                  -7.270
REMARK INTRA:                  -1.928
REMARK UNBOUND:                -1.118
REMARK SMILES CCCCCCCCCCCCCCC(=O)[O-]
REMARK SMILES IDX 9 1 10 2 11 3 12 4 13 5 14 6 15 7 16 8 17 9 8 10 7 11 6 12
REMARK SMILES IDX 5 13 4 14 3 15 2 16 1 17
REMARK H PARENT
REMARK Flexibility Score: inf
ROOT
ATOM      1  C   UNL     1     -12.014  -2.941 -24.113  1.00  0.00     0.000 C 
ENDROOT
BRANCH   1   2
ATOM      2  C   UNL     1     -12.425  -2.478 -22.702  1.00  0.00     0.000 C 
BRANCH   2   3
ATOM      3  C   UNL     1     -13.015  -1.054 -22.629  1.00  0.00     0.000 C 
BRANCH   3   4
ATOM      4  C   UNL     1     -13.093  -0.452 -21.215  1.00  0.00     0.000 C 
BRANCH   4   5
ATOM      5  C   UNL     1     -11.754  -0.522 -20.461  1.00  0.00     0.006 C 
BRANCH   5   6
ATOM      6  C   UNL     1     -11.746   0.370 -19.212  1.00  0.00     0.053 C 
BRANCH   6   7
ATOM      7  C   UNL     1     -10.924   1.605 -19.416  1.00  0.00     0.041 C 
ATOM      8  O   UNL     1     -10.287   1.774 -20.488  1.00  0.00    -0.550 OA
ATOM      9  O   UNL     1     -10.840   2.558 -18.407  1.00  0.00    -0.550 OA
ENDBRANCH   6   7
ENDBRANCH   5   6
ENDBRANCH   4   5
ENDBRANCH   3   4
ENDBRANCH   2   3
ENDBRANCH   1   2
BRANCH   1  10
ATOM     10  C   UNL     1     -13.019  -2.593 -25.229  1.00  0.00     0.000 C 
BRANCH  10  11
ATOM     11  C   UNL     1     -12.395  -2.345 -26.617  1.00  0.00    -0.000 C 
BRANCH  11  12
ATOM     12  C   UNL     1     -11.707  -0.979 -26.788  1.00  0.00    -0.000 C 
BRANCH  12  13
ATOM     13  C   UNL     1     -10.200  -1.098 -27.062  1.00  0.00    -0.000 C 
BRANCH  13  14
ATOM     14  C   UNL     1      -9.385  -0.419 -25.956  1.00  0.00    -0.000 C 
BRANCH  14  15
ATOM     15  C   UNL     1     -10.273   0.485 -25.093  1.00  0.00    -0.000 C 
BRANCH  15  16
ATOM     16  C   UNL     1      -9.888   0.384 -23.613  1.00  0.00    -0.003 C 
ATOM     17  C   UNL     1      -9.060  -0.868 -23.343  1.00  0.00     0.004 C 
ENDBRANCH  15  16
ENDBRANCH  14  15
ENDBRANCH  13  14
ENDBRANCH  12  13
ENDBRANCH  11  12
ENDBRANCH  10  11
ENDBRANCH   1  10
TORSDOF 13
ENDMDL
MODEL 6
REMARK VINA RESULT:    -4.515     16.108     18.657
REMARK INTER + INTRA:          -9.065
REMARK INTER:                  -7.292
REMARK INTRA:                  -1.772
REMARK UNBOUND:                -1.118
REMARK SMILES CCCCCCCCCCCCCCC(=O)[O-]
REMARK SMILES IDX 9 1 10 2 11 3 12 4 13 5 14 6 15 7 16 8 17 9 8 10 7 11 6 12
REMARK SMILES IDX 5 13 4 14 3 15 2 16 1 17
REMARK H PARENT
REMARK Flexibility Score: inf
ROOT
ATOM      1  C   UNL     1     -12.305  -2.764 -26.322  1.00  0.00     0.000 C 
ENDROOT
BRANCH   1   2
ATOM      2  C   UNL     1     -13.057  -2.591 -24.987  1.00  0.00     0.000 C 
BRANCH   2   3
ATOM      3  C   UNL     1     -12.167  -2.629 -23.728  1.00  0.00     0.000 C 
BRANCH   3   4
ATOM      4  C   UNL     1     -12.787  -1.994 -22.470  1.00  0.00     0.000 C 
BRANCH   4   5
ATOM      5  C   UNL     1     -11.745  -1.301 -21.576  1.00  0.00     0.006 C 
BRANCH   5   6
ATOM      6  C   UNL     1     -12.393  -0.330 -20.579  1.00  0.00     0.053 C 
BRANCH   6   7
ATOM      7  C   UNL     1     -11.367   0.408 -19.775  1.00  0.00     0.041 C 
ATOM      8  O   UNL     1     -10.567   1.199 -20.340  1.00  0.00    -0.550 OA
ATOM      9  O   UNL     1     -11.277   0.199 -18.404  1.00  0.00    -0.550 OA
ENDBRANCH   6   7
ENDBRANCH   5   6
ENDBRANCH   4   5
ENDBRANCH   3   4
ENDBRANCH   2   3
ENDBRANCH   1   2
BRANCH   1  10
ATOM     10  C   UNL     1     -11.881  -1.447 -27.003  1.00  0.00     0.000 C 
BRANCH  10  11
ATOM     11  C   UNL     1     -10.377  -1.119 -26.913  1.00  0.00    -0.000 C 
BRANCH  11  12
ATOM     12  C   UNL     1      -9.874  -0.753 -25.505  1.00  0.00    -0.000 C 
BRANCH  12  13
ATOM     13  C   UNL     1      -9.406   0.707 -25.399  1.00  0.00    -0.000 C 
BRANCH  13  14
ATOM     14  C   UNL     1     -10.573   1.676 -25.618  1.00  0.00    -0.000 C 
BRANCH  14  15
ATOM     15  C   UNL     1     -10.981   2.352 -24.304  1.00  0.00    -0.000 C 
BRANCH  15  16
ATOM     16  C   UNL     1     -12.213   1.674 -23.695  1.00  0.00    -0.003 C 
ATOM     17  C   UNL     1     -13.125   1.109 -24.780  1.00  0.00     0.004 C 
ENDBRANCH  15  16
ENDBRANCH  14  15
ENDBRANCH  13  14
ENDBRANCH  12  13
ENDBRANCH  11  12
ENDBRANCH  10  11
ENDBRANCH   1  10
TORSDOF 13
ENDMDL
MODEL 7
REMARK VINA RESULT:    -4.483     15.067     18.104
REMARK INTER + INTRA:          -9.008
REMARK INTER:                  -7.132
REMARK INTRA:                  -1.876
REMARK UNBOUND:                -1.118
REMARK SMILES CCCCCCCCCCCCCCC(=O)[O-]
REMARK SMILES IDX 9 1 10 2 11 3 12 4 13 5 14 6 15 7 16 8 17 9 8 10 7 11 6 12
REMARK SMILES IDX 5 13 4 14 3 15 2 16 1 17
REMARK H PARENT
REMARK Flexibility Score: inf
ROOT
ATOM      1  C   UNL     1     -12.552  -2.002 -22.140  1.00  0.00     0.000 C 
ENDROOT
BRANCH   1   2
ATOM      2  C   UNL     1     -13.125  -0.647 -21.679  1.00  0.00     0.000 C 
BRANCH   2   3
ATOM      3  C   UNL     1     -12.188   0.184 -20.778  1.00  0.00     0.000 C 
BRANCH   3   4
ATOM      4  C   UNL     1     -10.763  -0.375 -20.626  1.00  0.00     0.000 C 
BRANCH   4   5
ATOM      5  C   UNL     1      -9.740   0.348 -21.518  1.00  0.00     0.006 C 
BRANCH   5   6
ATOM      6  C   UNL     1      -8.978  -0.623 -22.430  1.00  0.00     0.053 C 
BRANCH   6   7
ATOM      7  C   UNL     1      -7.538  -0.744 -22.036  1.00  0.00     0.041 C 
ATOM      8  O   UNL     1      -6.828  -1.672 -22.503  1.00  0.00    -0.550 OA
ATOM      9  O   UNL     1      -6.989   0.154 -21.128  1.00  0.00    -0.550 OA
ENDBRANCH   6   7
ENDBRANCH   5   6
ENDBRANCH   4   5
ENDBRANCH   3   4
ENDBRANCH   2   3
ENDBRANCH   1   2
BRANCH   1  10
ATOM     10  C   UNL     1     -13.014  -2.460 -23.538  1.00  0.00     0.000 C 
BRANCH  10  11
ATOM     11  C   UNL     1     -11.884  -2.651 -24.570  1.00  0.00    -0.000 C 
BRANCH  11  12
ATOM     12  C   UNL     1     -12.356  -2.933 -26.007  1.00  0.00    -0.000 C 
BRANCH  12  13
ATOM     13  C   UNL     1     -11.997  -1.805 -26.986  1.00  0.00    -0.000 C 
BRANCH  13  14
ATOM     14  C   UNL     1     -11.670  -0.509 -26.236  1.00  0.00    -0.000 C 
BRANCH  14  15
ATOM     15  C   UNL     1     -12.839   0.481 -26.312  1.00  0.00    -0.000 C 
BRANCH  15  16
ATOM     16  C   UNL     1     -13.082   1.150 -24.954  1.00  0.00    -0.003 C 
ATOM     17  C   UNL     1     -11.769   1.593 -24.315  1.00  0.00     0.004 C 
ENDBRANCH  15  16
ENDBRANCH  14  15
ENDBRANCH  13  14
ENDBRANCH  12  13
ENDBRANCH  11  12
ENDBRANCH  10  11
ENDBRANCH   1  10
TORSDOF 13
ENDMDL
MODEL 8
REMARK VINA RESULT:    -4.433     17.580     20.148
REMARK INTER + INTRA:          -8.920
REMARK INTER:                  -7.087
REMARK INTRA:                  -1.833
REMARK UNBOUND:                -1.118
REMARK SMILES CCCCCCCCCCCCCCC(=O)[O-]
REMARK SMILES IDX 9 1 10 2 11 3 12 4 13 5 14 6 15 7 16 8 17 9 8 10 7 11 6 12
REMARK SMILES IDX 5 13 4 14 3 15 2 16 1 17
REMARK H PARENT
REMARK Flexibility Score: inf
ROOT
ATOM      1  C   UNL     1     -12.484   4.712  -9.351  1.00  0.00     0.000 C 
ENDROOT
BRANCH   1   2
ATOM      2  C   UNL     1     -13.122   5.596 -10.441  1.00  0.00     0.000 C 
BRANCH   2   3
ATOM      3  C   UNL     1     -12.237   6.757 -10.941  1.00  0.00     0.000 C 
BRANCH   3   4
ATOM      4  C   UNL     1     -10.751   6.658 -10.554  1.00  0.00     0.000 C 
BRANCH   4   5
ATOM      5  C   UNL     1      -9.859   7.613 -11.364  1.00  0.00     0.006 C 
BRANCH   5   6
ATOM      6  C   UNL     1      -8.940   8.450 -10.463  1.00  0.00     0.053 C 
BRANCH   6   7
ATOM      7  C   UNL     1      -7.497   8.105 -10.667  1.00  0.00     0.041 C 
ATOM      8  O   UNL     1      -7.157   7.308 -11.581  1.00  0.00    -0.550 OA
ATOM      9  O   UNL     1      -6.529   8.641  -9.826  1.00  0.00    -0.550 OA
ENDBRANCH   6   7
ENDBRANCH   5   6
ENDBRANCH   4   5
ENDBRANCH   3   4
ENDBRANCH   2   3
ENDBRANCH   1   2
BRANCH   1  10
ATOM     10  C   UNL     1     -13.085   3.298  -9.228  1.00  0.00     0.000 C 
BRANCH  10  11
ATOM     11  C   UNL     1     -12.295   2.187  -9.949  1.00  0.00    -0.000 C 
BRANCH  11  12
ATOM     12  C   UNL     1     -12.768   1.874 -11.380  1.00  0.00    -0.000 C 
BRANCH  12  13
ATOM     13  C   UNL     1     -12.022   2.688 -12.448  1.00  0.00    -0.000 C 
BRANCH  13  14
ATOM     14  C   UNL     1     -10.582   2.980 -12.011  1.00  0.00    -0.000 C 
BRANCH  14  15
ATOM     15  C   UNL     1      -9.915   3.991 -12.951  1.00  0.00    -0.000 C 
BRANCH  15  16
ATOM     16  C   UNL     1     -10.962   4.758 -13.765  1.00  0.00    -0.003 C 
ATOM     17  C   UNL     1     -10.527   4.909 -15.220  1.00  0.00     0.004 C 
ENDBRANCH  15  16
ENDBRANCH  14  15
ENDBRANCH  13  14
ENDBRANCH  12  13
ENDBRANCH  11  12
ENDBRANCH  10  11
ENDBRANCH   1  10
TORSDOF 13
ENDMDL
MODEL 9
REMARK VINA RESULT:    -4.422     14.634     17.388
REMARK INTER + INTRA:          -8.900
REMARK INTER:                  -7.211
REMARK INTRA:                  -1.689
REMARK UNBOUND:                -1.118
REMARK SMILES CCCCCCCCCCCCCCC(=O)[O-]
REMARK SMILES IDX 9 1 10 2 11 3 12 4 13 5 14 6 15 7 16 8 17 9 8 10 7 11 6 12
REMARK SMILES IDX 5 13 4 14 3 15 2 16 1 17
REMARK H PARENT
REMARK Flexibility Score: inf
ROOT
ATOM      1  C   UNL     1     -11.696  -1.140 -21.250  1.00  0.00     0.000 C 
ENDROOT
BRANCH   1   2
ATOM      2  C   UNL     1     -10.630  -0.032 -21.372  1.00  0.00     0.000 C 
BRANCH   2   3
ATOM      3  C   UNL     1     -10.088   0.197 -22.798  1.00  0.00     0.000 C 
BRANCH   3   4
ATOM      4  C   UNL     1      -8.945  -0.743 -23.220  1.00  0.00     0.000 C 
BRANCH   4   5
ATOM      5  C   UNL     1      -7.949  -1.020 -22.081  1.00  0.00     0.006 C 
BRANCH   5   6
ATOM      6  C   UNL     1      -6.491  -0.879 -22.541  1.00  0.00     0.053 C 
BRANCH   6   7
ATOM      7  C   UNL     1      -5.771  -2.192 -22.518  1.00  0.00     0.041 C 
ATOM      8  O   UNL     1      -5.269  -2.623 -21.447  1.00  0.00    -0.550 OA
ATOM      9  O   UNL     1      -5.630  -2.927 -23.689  1.00  0.00    -0.550 OA
ENDBRANCH   6   7
ENDBRANCH   5   6
ENDBRANCH   4   5
ENDBRANCH   3   4
ENDBRANCH   2   3
ENDBRANCH   1   2
BRANCH   1  10
ATOM     10  C   UNL     1     -12.856  -1.039 -22.260  1.00  0.00     0.000 C 
BRANCH  10  11
ATOM     11  C   UNL     1     -13.101  -2.307 -23.103  1.00  0.00    -0.000 C 
BRANCH  11  12
ATOM     12  C   UNL     1     -12.003  -2.625 -24.134  1.00  0.00    -0.000 C 
BRANCH  12  13
ATOM     13  C   UNL     1     -12.565  -2.929 -25.531  1.00  0.00    -0.000 C 
BRANCH  13  14
ATOM     14  C   UNL     1     -12.001  -1.957 -26.574  1.00  0.00    -0.000 C 
BRANCH  14  15
ATOM     15  C   UNL     1     -11.819  -0.556 -25.979  1.00  0.00    -0.000 C 
BRANCH  15  16
ATOM     16  C   UNL     1     -13.125   0.243 -26.046  1.00  0.00    -0.003 C 
ATOM     17  C   UNL     1     -13.104   1.418 -25.072  1.00  0.00     0.004 C 
ENDBRANCH  15  16
ENDBRANCH  14  15
ENDBRANCH  13  14
ENDBRANCH  12  13
ENDBRANCH  11  12
ENDBRANCH  10  11
ENDBRANCH   1  10
TORSDOF 13
ENDMDL
