MODEL 1
REMARK VINA RESULT:    -4.781      0.000      0.000
REMARK INTER + INTRA:         -13.922
REMARK INTER:                 -10.370
REMARK INTRA:                  -3.551
REMARK UNBOUND:                -3.551
REMARK SMILES CCCCCCCCCCCCCCCCCCCCCC(=O)[O-]
REMARK SMILES IDX 12 1 11 2 10 3 9 4 8 5 7 6 6 7 5 8 4 9 3 10 2 11 1 12 13 13
REMARK SMILES IDX 14 14 15 15 16 16 17 17 18 18 19 19 20 20 21 21 22 22 23 23
REMARK SMILES IDX 24 24
REMARK H PARENT
REMARK Flexibility Score: inf
ROOT
ATOM      1  C   UNL     1      59.886  28.597  12.027  1.00  0.00     0.000 C 
ENDROOT
BRANCH   1   2
ATOM      2  C   UNL     1      60.078  29.790  11.073  1.00  0.00     0.000 C 
BRANCH   2   3
ATOM      3  C   UNL     1      60.061  29.374   9.594  1.00  0.00     0.000 C 
BRANCH   3   4
ATOM      4  C   UNL     1      61.392  29.670   8.879  1.00  0.00    -0.000 C 
BRANCH   4   5
ATOM      5  C   UNL     1      62.413  28.531   9.042  1.00  0.00    -0.000 C 
BRANCH   5   6
ATOM      6  C   UNL     1      63.774  29.026   9.552  1.00  0.00    -0.000 C 
BRANCH   6   7
ATOM      7  C   UNL     1      63.734  30.530   9.853  1.00  0.00    -0.000 C 
BRANCH   7   8
ATOM      8  C   UNL     1      65.151  31.120   9.887  1.00  0.00    -0.000 C 
BRANCH   8   9
ATOM      9  C   UNL     1      65.267  32.325  10.837  1.00  0.00    -0.000 C 
BRANCH   9  10
ATOM     10  C   UNL     1      64.179  32.328  11.924  1.00  0.00    -0.000 C 
BRANCH  10  11
ATOM     11  C   UNL     1      64.615  33.083  13.189  1.00  0.00    -0.003 C 
ATOM     12  C   UNL     1      65.124  32.149  14.287  1.00  0.00     0.004 C 
ENDBRANCH  10  11
ENDBRANCH   9  10
ENDBRANCH   8   9
ENDBRANCH   7   8
ENDBRANCH   6   7
ENDBRANCH   5   6
ENDBRANCH   4   5
ENDBRANCH   3   4
ENDBRANCH   2   3
ENDBRANCH   1   2
BRANCH   1  13
ATOM     13  C   UNL     1      61.094  28.390  12.958  1.00  0.00     0.000 C 
BRANCH  13  14
ATOM     14  C   UNL     1      61.982  29.642  13.059  1.00  0.00     0.000 C 
BRANCH  14  15
ATOM     15  C   UNL     1      61.860  30.342  14.423  1.00  0.00     0.000 C 
BRANCH  15  16
ATOM     16  C   UNL     1      60.732  31.388  14.455  1.00  0.00     0.000 C 
BRANCH  16  17
ATOM     17  C   UNL     1      60.938  32.507  13.411  1.00  0.00     0.000 C 
BRANCH  17  18
ATOM     18  C   UNL     1      60.979  33.922  14.018  1.00  0.00     0.000 C 
BRANCH  18  19
ATOM     19  C   UNL     1      61.048  33.969  15.556  1.00  0.00     0.000 C 
BRANCH  19  20
ATOM     20  C   UNL     1      62.468  34.132  16.140  1.00  0.00     0.006 C 
BRANCH  20  21
ATOM     21  C   UNL     1      62.853  33.073  17.185  1.00  0.00     0.053 C 
BRANCH  21  22
ATOM     22  C   UNL     1      62.605  33.546  18.583  1.00  0.00     0.041 C 
ATOM     23  O   UNL     1      63.566  33.698  19.382  1.00  0.00    -0.550 OA
ATOM     24  O   UNL     1      61.314  33.852  18.995  1.00  0.00    -0.550 OA
ENDBRANCH  21  22
ENDBRANCH  20  21
ENDBRANCH  19  20
ENDBRANCH  18  19
ENDBRANCH  17  18
ENDBRANCH  16  17
ENDBRANCH  15  16
ENDBRANCH  14  15
ENDBRANCH  13  14
ENDBRANCH   1  13
TORSDOF 20
ENDMDL
MODEL 2
REMARK VINA RESULT:    -4.581      1.917      5.645
REMARK INTER + INTRA:         -13.489
REMARK INTER:                 -10.189
REMARK INTRA:                  -3.300
REMARK UNBOUND:                -3.551
REMARK SMILES CCCCCCCCCCCCCCCCCCCCCC(=O)[O-]
REMARK SMILES IDX 12 1 11 2 10 3 9 4 8 5 7 6 6 7 5 8 4 9 3 10 2 11 1 12 13 13
REMARK SMILES IDX 14 14 15 15 16 16 17 17 18 18 19 19 20 20 21 21 22 22 23 23
REMARK SMILES IDX 24 24
REMARK H PARENT
REMARK Flexibility Score: inf
ROOT
ATOM      1  C   UNL     1      60.751  28.173  12.456  1.00  0.00     0.000 C 
ENDROOT
BRANCH   1   2
ATOM      2  C   UNL     1      62.125  28.620  12.988  1.00  0.00     0.000 C 
BRANCH   2   3
ATOM      3  C   UNL     1      62.249  30.148  13.095  1.00  0.00     0.000 C 
BRANCH   3   4
ATOM      4  C   UNL     1      62.402  30.631  14.548  1.00  0.00    -0.000 C 
BRANCH   4   5
ATOM      5  C   UNL     1      61.093  31.201  15.119  1.00  0.00    -0.000 C 
BRANCH   5   6
ATOM      6  C   UNL     1      60.394  32.163  14.147  1.00  0.00    -0.000 C 
BRANCH   6   7
ATOM      7  C   UNL     1      61.103  33.522  14.114  1.00  0.00    -0.000 C 
BRANCH   7   8
ATOM      8  C   UNL     1      61.275  34.086  15.532  1.00  0.00    -0.000 C 
BRANCH   8   9
ATOM      9  C   UNL     1      62.751  34.243  15.932  1.00  0.00    -0.000 C 
BRANCH   9  10
ATOM     10  C   UNL     1      63.009  33.873  17.403  1.00  0.00    -0.000 C 
BRANCH  10  11
ATOM     11  C   UNL     1      61.783  33.230  18.070  1.00  0.00    -0.003 C 
ATOM     12  C   UNL     1      61.333  33.981  19.324  1.00  0.00     0.004 C 
ENDBRANCH  10  11
ENDBRANCH   9  10
ENDBRANCH   8   9
ENDBRANCH   7   8
ENDBRANCH   6   7
ENDBRANCH   5   6
ENDBRANCH   4   5
ENDBRANCH   3   4
ENDBRANCH   2   3
ENDBRANCH   1   2
BRANCH   1  13
ATOM     13  C   UNL     1      60.012  29.301  11.715  1.00  0.00     0.000 C 
BRANCH  13  14
ATOM     14  C   UNL     1      59.952  29.066  10.195  1.00  0.00     0.000 C 
BRANCH  14  15
ATOM     15  C   UNL     1      61.147  29.688   9.456  1.00  0.00     0.000 C 
BRANCH  15  16
ATOM     16  C   UNL     1      62.204  28.644   9.053  1.00  0.00     0.000 C 
BRANCH  16  17
ATOM     17  C   UNL     1      63.611  28.997   9.583  1.00  0.00     0.000 C 
BRANCH  17  18
ATOM     18  C   UNL     1      63.856  30.510   9.733  1.00  0.00     0.000 C 
BRANCH  18  19
ATOM     19  C   UNL     1      65.014  30.892  10.675  1.00  0.00     0.000 C 
BRANCH  19  20
ATOM     20  C   UNL     1      65.122  32.398  10.999  1.00  0.00     0.006 C 
BRANCH  20  21
ATOM     21  C   UNL     1      64.308  32.846  12.223  1.00  0.00     0.053 C 
BRANCH  21  22
ATOM     22  C   UNL     1      65.182  33.126  13.406  1.00  0.00     0.041 C 
ATOM     23  O   UNL     1      65.507  34.308  13.690  1.00  0.00    -0.550 OA
ATOM     24  O   UNL     1      65.611  32.082  14.216  1.00  0.00    -0.550 OA
ENDBRANCH  21  22
ENDBRANCH  20  21
ENDBRANCH  19  20
ENDBRANCH  18  19
ENDBRANCH  17  18
ENDBRANCH  16  17
ENDBRANCH  15  16
ENDBRANCH  14  15
ENDBRANCH  13  14
ENDBRANCH   1  13
TORSDOF 20
ENDMDL
MODEL 3
REMARK VINA RESULT:    -4.538      0.876      3.856
REMARK INTER + INTRA:         -13.396
REMARK INTER:                  -9.992
REMARK INTRA:                  -3.403
REMARK UNBOUND:                -3.551
REMARK SMILES CCCCCCCCCCCCCCCCCCCCCC(=O)[O-]
REMARK SMILES IDX 12 1 11 2 10 3 9 4 8 5 7 6 6 7 5 8 4 9 3 10 2 11 1 12 13 13
REMARK SMILES IDX 14 14 15 15 16 16 17 17 18 18 19 19 20 20 21 21 22 22 23 23
REMARK SMILES IDX 24 24
REMARK H PARENT
REMARK Flexibility Score: inf
ROOT
ATOM      1  C   UNL     1      63.927  30.510   9.254  1.00  0.00     0.000 C 
ENDROOT
BRANCH   1   2
ATOM      2  C   UNL     1      63.648  29.000   9.365  1.00  0.00     0.000 C 
BRANCH   2   3
ATOM      3  C   UNL     1      62.168  28.653   9.142  1.00  0.00     0.000 C 
BRANCH   3   4
ATOM      4  C   UNL     1      61.266  29.899   9.098  1.00  0.00    -0.000 C 
BRANCH   4   5
ATOM      5  C   UNL     1      60.275  29.950  10.272  1.00  0.00    -0.000 C 
BRANCH   5   6
ATOM      6  C   UNL     1      60.092  28.584  10.951  1.00  0.00    -0.000 C 
BRANCH   6   7
ATOM      7  C   UNL     1      60.166  28.716  12.477  1.00  0.00    -0.000 C 
BRANCH   7   8
ATOM      8  C   UNL     1      61.623  28.667  12.962  1.00  0.00    -0.000 C 
BRANCH   8   9
ATOM      9  C   UNL     1      62.176  30.058  13.315  1.00  0.00    -0.000 C 
BRANCH   9  10
ATOM     10  C   UNL     1      61.416  30.719  14.478  1.00  0.00    -0.000 C 
BRANCH  10  11
ATOM     11  C   UNL     1      60.389  31.756  13.995  1.00  0.00    -0.003 C 
ATOM     12  C   UNL     1      60.923  32.630  12.861  1.00  0.00     0.004 C 
ENDBRANCH  10  11
ENDBRANCH   9  10
ENDBRANCH   8   9
ENDBRANCH   7   8
ENDBRANCH   6   7
ENDBRANCH   5   6
ENDBRANCH   4   5
ENDBRANCH   3   4
ENDBRANCH   2   3
ENDBRANCH   1   2
BRANCH   1  13
ATOM     13  C   UNL     1      64.439  31.112  10.574  1.00  0.00     0.000 C 
BRANCH  13  14
ATOM     14  C   UNL     1      65.426  32.271  10.348  1.00  0.00     0.000 C 
BRANCH  14  15
ATOM     15  C   UNL     1      65.544  33.191  11.574  1.00  0.00     0.000 C 
BRANCH  15  16
ATOM     16  C   UNL     1      64.519  32.852  12.671  1.00  0.00     0.000 C 
BRANCH  16  17
ATOM     17  C   UNL     1      65.183  32.262  13.935  1.00  0.00     0.000 C 
BRANCH  17  18
ATOM     18  C   UNL     1      64.454  32.617  15.244  1.00  0.00     0.000 C 
BRANCH  18  19
ATOM     19  C   UNL     1      63.788  34.006  15.262  1.00  0.00     0.000 C 
BRANCH  19  20
ATOM     20  C   UNL     1      62.417  34.063  15.967  1.00  0.00     0.006 C 
BRANCH  20  21
ATOM     21  C   UNL     1      62.381  33.386  17.346  1.00  0.00     0.053 C 
BRANCH  21  22
ATOM     22  C   UNL     1      63.226  34.108  18.349  1.00  0.00     0.041 C 
ATOM     23  O   UNL     1      62.840  35.204  18.832  1.00  0.00    -0.550 OA
ATOM     24  O   UNL     1      64.427  33.554  18.775  1.00  0.00    -0.550 OA
ENDBRANCH  21  22
ENDBRANCH  20  21
ENDBRANCH  19  20
ENDBRANCH  18  19
ENDBRANCH  17  18
ENDBRANCH  16  17
ENDBRANCH  15  16
ENDBRANCH  14  15
ENDBRANCH  13  14
ENDBRANCH   1  13
TORSDOF 20
ENDMDL
MODEL 4
REMARK VINA RESULT:    -4.520      1.173      1.579
REMARK INTER + INTRA:         -13.356
REMARK INTER:                 -10.067
REMARK INTRA:                  -3.289
REMARK UNBOUND:                -3.551
REMARK SMILES CCCCCCCCCCCCCCCCCCCCCC(=O)[O-]
REMARK SMILES IDX 12 1 11 2 10 3 9 4 8 5 7 6 6 7 5 8 4 9 3 10 2 11 1 12 13 13
REMARK SMILES IDX 14 14 15 15 16 16 17 17 18 18 19 19 20 20 21 21 22 22 23 23
REMARK SMILES IDX 24 24
REMARK H PARENT
REMARK Flexibility Score: inf
ROOT
ATOM      1  C   UNL     1      59.949  28.658  11.137  1.00  0.00     0.000 C 
ENDROOT
BRANCH   1   2
ATOM      2  C   UNL     1      60.648  29.917  10.595  1.00  0.00     0.000 C 
BRANCH   2   3
ATOM      3  C   UNL     1      61.170  29.735   9.162  1.00  0.00     0.000 C 
BRANCH   3   4
ATOM      4  C   UNL     1      62.245  28.639   9.056  1.00  0.00    -0.000 C 
BRANCH   4   5
ATOM      5  C   UNL     1      63.592  29.075   9.656  1.00  0.00    -0.000 C 
BRANCH   5   6
ATOM      6  C   UNL     1      64.128  30.370   9.026  1.00  0.00    -0.000 C 
BRANCH   6   7
ATOM      7  C   UNL     1      64.987  31.152  10.026  1.00  0.00    -0.000 C 
BRANCH   7   8
ATOM      8  C   UNL     1      64.536  30.878  11.469  1.00  0.00    -0.000 C 
BRANCH   8   9
ATOM      9  C   UNL     1      63.843  32.091  12.113  1.00  0.00    -0.000 C 
BRANCH   9  10
ATOM     10  C   UNL     1      64.294  32.327  13.565  1.00  0.00    -0.000 C 
BRANCH  10  11
ATOM     11  C   UNL     1      64.607  33.804  13.850  1.00  0.00    -0.003 C 
ATOM     12  C   UNL     1      66.090  34.136  13.679  1.00  0.00     0.004 C 
ENDBRANCH  10  11
ENDBRANCH   9  10
ENDBRANCH   8   9
ENDBRANCH   7   8
ENDBRANCH   6   7
ENDBRANCH   5   6
ENDBRANCH   4   5
ENDBRANCH   3   4
ENDBRANCH   2   3
ENDBRANCH   1   2
BRANCH   1  13
ATOM     13  C   UNL     1      60.339  28.348  12.593  1.00  0.00     0.000 C 
BRANCH  13  14
ATOM     14  C   UNL     1      61.657  29.027  13.006  1.00  0.00     0.000 C 
BRANCH  14  15
ATOM     15  C   UNL     1      61.466  30.034  14.151  1.00  0.00     0.000 C 
BRANCH  15  16
ATOM     16  C   UNL     1      60.681  31.285  13.717  1.00  0.00     0.000 C 
BRANCH  16  17
ATOM     17  C   UNL     1      60.362  32.221  14.904  1.00  0.00     0.000 C 
BRANCH  17  18
ATOM     18  C   UNL     1      60.885  33.658  14.720  1.00  0.00     0.000 C 
BRANCH  18  19
ATOM     19  C   UNL     1      61.610  34.249  15.944  1.00  0.00     0.000 C 
BRANCH  19  20
ATOM     20  C   UNL     1      62.138  33.208  16.954  1.00  0.00     0.006 C 
BRANCH  20  21
ATOM     21  C   UNL     1      63.578  33.453  17.428  1.00  0.00     0.053 C 
BRANCH  21  22
ATOM     22  C   UNL     1      63.802  34.876  17.834  1.00  0.00     0.041 C 
ATOM     23  O   UNL     1      63.220  35.345  18.848  1.00  0.00    -0.550 OA
ATOM     24  O   UNL     1      64.678  35.676  17.113  1.00  0.00    -0.550 OA
ENDBRANCH  21  22
ENDBRANCH  20  21
ENDBRANCH  19  20
ENDBRANCH  18  19
ENDBRANCH  17  18
ENDBRANCH  16  17
ENDBRANCH  15  16
ENDBRANCH  14  15
ENDBRANCH  13  14
ENDBRANCH   1  13
TORSDOF 20
ENDMDL
MODEL 5
REMARK VINA RESULT:    -4.502      1.239      1.986
REMARK INTER + INTRA:         -13.318
REMARK INTER:                 -10.234
REMARK INTRA:                  -3.084
REMARK UNBOUND:                -3.551
REMARK SMILES CCCCCCCCCCCCCCCCCCCCCC(=O)[O-]
REMARK SMILES IDX 12 1 11 2 10 3 9 4 8 5 7 6 6 7 5 8 4 9 3 10 2 11 1 12 13 13
REMARK SMILES IDX 14 14 15 15 16 16 17 17 18 18 19 19 20 20 21 21 22 22 23 23
REMARK SMILES IDX 24 24
REMARK H PARENT
REMARK Flexibility Score: inf
ROOT
ATOM      1  C   UNL     1      60.898  28.569  12.959  1.00  0.00     0.000 C 
ENDROOT
BRANCH   1   2
ATOM      2  C   UNL     1      59.802  28.772  11.897  1.00  0.00     0.000 C 
BRANCH   2   3
ATOM      3  C   UNL     1      60.325  28.590  10.464  1.00  0.00     0.000 C 
BRANCH   3   4
ATOM      4  C   UNL     1      60.447  29.923   9.703  1.00  0.00    -0.000 C 
BRANCH   4   5
ATOM      5  C   UNL     1      61.740  30.010   8.875  1.00  0.00    -0.000 C 
BRANCH   5   6
ATOM      6  C   UNL     1      62.723  28.873   9.192  1.00  0.00    -0.000 C 
BRANCH   6   7
ATOM      7  C   UNL     1      64.010  29.419   9.822  1.00  0.00    -0.000 C 
BRANCH   7   8
ATOM      8  C   UNL     1      63.763  29.874  11.268  1.00  0.00    -0.000 C 
BRANCH   8   9
ATOM      9  C   UNL     1      64.572  31.127  11.640  1.00  0.00    -0.000 C 
BRANCH   9  10
ATOM     10  C   UNL     1      63.704  32.222  12.284  1.00  0.00    -0.000 C 
BRANCH  10  11
ATOM     11  C   UNL     1      64.513  33.147  13.206  1.00  0.00    -0.003 C 
ATOM     12  C   UNL     1      64.879  32.483  14.533  1.00  0.00     0.004 C 
ENDBRANCH  10  11
ENDBRANCH   9  10
ENDBRANCH   8   9
ENDBRANCH   7   8
ENDBRANCH   6   7
ENDBRANCH   5   6
ENDBRANCH   4   5
ENDBRANCH   3   4
ENDBRANCH   2   3
ENDBRANCH   1   2
BRANCH   1  13
ATOM     13  C   UNL     1      61.177  29.849  13.767  1.00  0.00     0.000 C 
BRANCH  13  14
ATOM     14  C   UNL     1      60.502  31.089  13.157  1.00  0.00     0.000 C 
BRANCH  14  15
ATOM     15  C   UNL     1      60.062  32.105  14.225  1.00  0.00     0.000 C 
BRANCH  15  16
ATOM     16  C   UNL     1      60.816  33.443  14.118  1.00  0.00     0.000 C 
BRANCH  16  17
ATOM     17  C   UNL     1      61.408  33.893  15.472  1.00  0.00     0.000 C 
BRANCH  17  18
ATOM     18  C   UNL     1      61.767  32.727  16.411  1.00  0.00     0.000 C 
BRANCH  18  19
ATOM     19  C   UNL     1      61.821  33.089  17.908  1.00  0.00     0.000 C 
BRANCH  19  20
ATOM     20  C   UNL     1      61.704  34.597  18.217  1.00  0.00     0.006 C 
BRANCH  20  21
ATOM     21  C   UNL     1      62.954  35.213  18.865  1.00  0.00     0.053 C 
BRANCH  21  22
ATOM     22  C   UNL     1      64.216  34.738  18.215  1.00  0.00     0.041 C 
ATOM     23  O   UNL     1      65.008  33.986  18.840  1.00  0.00    -0.550 OA
ATOM     24  O   UNL     1      64.502  35.101  16.905  1.00  0.00    -0.550 OA
ENDBRANCH  21  22
ENDBRANCH  20  21
ENDBRANCH  19  20
ENDBRANCH  18  19
ENDBRANCH  17  18
ENDBRANCH  16  17
ENDBRANCH  15  16
ENDBRANCH  14  15
ENDBRANCH  13  14
ENDBRANCH   1  13
TORSDOF 20
ENDMDL
MODEL 6
REMARK VINA RESULT:    -4.391      1.524      4.171
REMARK INTER + INTRA:         -13.076
REMARK INTER:                  -9.814
REMARK INTRA:                  -3.262
REMARK UNBOUND:                -3.551
REMARK SMILES CCCCCCCCCCCCCCCCCCCCCC(=O)[O-]
REMARK SMILES IDX 12 1 11 2 10 3 9 4 8 5 7 6 6 7 5 8 4 9 3 10 2 11 1 12 13 13
REMARK SMILES IDX 14 14 15 15 16 16 17 17 18 18 19 19 20 20 21 21 22 22 23 23
REMARK SMILES IDX 24 24
REMARK H PARENT
REMARK Flexibility Score: inf
ROOT
ATOM      1  C   UNL     1      63.628  28.966   9.640  1.00  0.00     0.000 C 
ENDROOT
BRANCH   1   2
ATOM      2  C   UNL     1      64.197  30.221  10.324  1.00  0.00     0.000 C 
BRANCH   2   3
ATOM      3  C   UNL     1      64.931  31.149   9.344  1.00  0.00     0.000 C 
BRANCH   3   4
ATOM      4  C   UNL     1      65.680  32.291  10.054  1.00  0.00    -0.000 C 
BRANCH   4   5
ATOM      5  C   UNL     1      65.062  32.641  11.419  1.00  0.00    -0.000 C 
BRANCH   5   6
ATOM      6  C   UNL     1      65.751  33.838  12.090  1.00  0.00    -0.000 C 
BRANCH   6   7
ATOM      7  C   UNL     1      66.130  33.511  13.540  1.00  0.00    -0.000 C 
BRANCH   7   8
ATOM      8  C   UNL     1      64.877  33.403  14.423  1.00  0.00    -0.000 C 
BRANCH   8   9
ATOM      9  C   UNL     1      64.809  32.074  15.194  1.00  0.00    -0.000 C 
BRANCH   9  10
ATOM     10  C   UNL     1      64.012  30.994  14.442  1.00  0.00    -0.000 C 
BRANCH  10  11
ATOM     11  C   UNL     1      64.902  29.842  13.951  1.00  0.00    -0.003 C 
ATOM     12  C   UNL     1      66.105  29.597  14.862  1.00  0.00     0.004 C 
ENDBRANCH  10  11
ENDBRANCH   9  10
ENDBRANCH   8   9
ENDBRANCH   7   8
ENDBRANCH   6   7
ENDBRANCH   5   6
ENDBRANCH   4   5
ENDBRANCH   3   4
ENDBRANCH   2   3
ENDBRANCH   1   2
BRANCH   1  13
ATOM     13  C   UNL     1      62.320  29.252   8.880  1.00  0.00     0.000 C 
BRANCH  13  14
ATOM     14  C   UNL     1      61.141  28.412   9.400  1.00  0.00     0.000 C 
BRANCH  14  15
ATOM     15  C   UNL     1      60.181  29.227  10.282  1.00  0.00     0.000 C 
BRANCH  15  16
ATOM     16  C   UNL     1      60.061  28.662  11.709  1.00  0.00     0.000 C 
BRANCH  16  17
ATOM     17  C   UNL     1      60.742  29.568  12.759  1.00  0.00     0.000 C 
BRANCH  17  18
ATOM     18  C   UNL     1      61.252  30.905  12.188  1.00  0.00     0.000 C 
BRANCH  18  19
ATOM     19  C   UNL     1      60.495  32.153  12.678  1.00  0.00     0.000 C 
BRANCH  19  20
ATOM     20  C   UNL     1      61.378  33.234  13.339  1.00  0.00     0.006 C 
BRANCH  20  21
ATOM     21  C   UNL     1      60.812  33.807  14.647  1.00  0.00     0.053 C 
BRANCH  21  22
ATOM     22  C   UNL     1      61.231  33.005  15.839  1.00  0.00     0.041 C 
ATOM     23  O   UNL     1      60.941  31.782  15.916  1.00  0.00    -0.550 OA
ATOM     24  O   UNL     1      61.972  33.600  16.853  1.00  0.00    -0.550 OA
ENDBRANCH  21  22
ENDBRANCH  20  21
ENDBRANCH  19  20
ENDBRANCH  18  19
ENDBRANCH  17  18
ENDBRANCH  16  17
ENDBRANCH  15  16
ENDBRANCH  14  15
ENDBRANCH  13  14
ENDBRANCH   1  13
TORSDOF 20
ENDMDL
MODEL 7
REMARK VINA RESULT:    -4.343      1.165      3.789
REMARK INTER + INTRA:         -12.973
REMARK INTER:                  -9.572
REMARK INTRA:                  -3.401
REMARK UNBOUND:                -3.551
REMARK SMILES CCCCCCCCCCCCCCCCCCCCCC(=O)[O-]
REMARK SMILES IDX 12 1 11 2 10 3 9 4 8 5 7 6 6 7 5 8 4 9 3 10 2 11 1 12 13 13
REMARK SMILES IDX 14 14 15 15 16 16 17 17 18 18 19 19 20 20 21 21 22 22 23 23
REMARK SMILES IDX 24 24
REMARK H PARENT
REMARK Flexibility Score: inf
ROOT
ATOM      1  C   UNL     1      63.105  29.297  12.985  1.00  0.00     0.000 C 
ENDROOT
BRANCH   1   2
ATOM      2  C   UNL     1      63.414  30.114  14.252  1.00  0.00     0.000 C 
BRANCH   2   3
ATOM      3  C   UNL     1      64.899  30.491  14.365  1.00  0.00     0.000 C 
BRANCH   3   4
ATOM      4  C   UNL     1      65.122  32.012  14.444  1.00  0.00    -0.000 C 
BRANCH   4   5
ATOM      5  C   UNL     1      64.284  32.783  13.410  1.00  0.00    -0.000 C 
BRANCH   5   6
ATOM      6  C   UNL     1      65.029  32.991  12.082  1.00  0.00    -0.000 C 
BRANCH   6   7
ATOM      7  C   UNL     1      64.577  31.969  11.033  1.00  0.00    -0.000 C 
BRANCH   7   8
ATOM      8  C   UNL     1      65.608  31.854   9.900  1.00  0.00    -0.000 C 
BRANCH   8   9
ATOM      9  C   UNL     1      65.293  30.705   8.927  1.00  0.00    -0.000 C 
BRANCH   9  10
ATOM     10  C   UNL     1      63.793  30.368   8.875  1.00  0.00    -0.000 C 
BRANCH  10  11
ATOM     11  C   UNL     1      63.506  28.902   9.234  1.00  0.00    -0.003 C 
ATOM     12  C   UNL     1      62.035  28.528   9.053  1.00  0.00     0.004 C 
ENDBRANCH  10  11
ENDBRANCH   9  10
ENDBRANCH   8   9
ENDBRANCH   7   8
ENDBRANCH   6   7
ENDBRANCH   5   6
ENDBRANCH   4   5
ENDBRANCH   3   4
ENDBRANCH   2   3
ENDBRANCH   1   2
BRANCH   1  13
ATOM     13  C   UNL     1      61.704  28.660  13.023  1.00  0.00     0.000 C 
BRANCH  13  14
ATOM     14  C   UNL     1      60.607  29.622  12.535  1.00  0.00     0.000 C 
BRANCH  14  15
ATOM     15  C   UNL     1      61.182  30.878  11.860  1.00  0.00     0.000 C 
BRANCH  15  16
ATOM     16  C   UNL     1      60.598  32.181  12.435  1.00  0.00     0.000 C 
BRANCH  16  17
ATOM     17  C   UNL     1      60.159  32.028  13.908  1.00  0.00     0.000 C 
BRANCH  17  18
ATOM     18  C   UNL     1      60.825  33.038  14.862  1.00  0.00     0.000 C 
BRANCH  18  19
ATOM     19  C   UNL     1      61.377  32.434  16.167  1.00  0.00     0.000 C 
BRANCH  19  20
ATOM     20  C   UNL     1      61.814  33.466  17.229  1.00  0.00     0.006 C 
BRANCH  20  21
ATOM     21  C   UNL     1      63.323  33.753  17.255  1.00  0.00     0.053 C 
BRANCH  21  22
ATOM     22  C   UNL     1      63.887  33.671  18.639  1.00  0.00     0.041 C 
ATOM     23  O   UNL     1      63.129  33.463  19.622  1.00  0.00    -0.550 OA
ATOM     24  O   UNL     1      65.256  33.791  18.841  1.00  0.00    -0.550 OA
ENDBRANCH  21  22
ENDBRANCH  20  21
ENDBRANCH  19  20
ENDBRANCH  18  19
ENDBRANCH  17  18
ENDBRANCH  16  17
ENDBRANCH  15  16
ENDBRANCH  14  15
ENDBRANCH  13  14
ENDBRANCH   1  13
TORSDOF 20
ENDMDL
MODEL 8
REMARK VINA RESULT:    -4.285      1.253      2.669
REMARK INTER + INTRA:         -12.846
REMARK INTER:                  -9.445
REMARK INTRA:                  -3.401
REMARK UNBOUND:                -3.551
REMARK SMILES CCCCCCCCCCCCCCCCCCCCCC(=O)[O-]
REMARK SMILES IDX 12 1 11 2 10 3 9 4 8 5 7 6 6 7 5 8 4 9 3 10 2 11 1 12 13 13
REMARK SMILES IDX 14 14 15 15 16 16 17 17 18 18 19 19 20 20 21 21 22 22 23 23
REMARK SMILES IDX 24 24
REMARK H PARENT
REMARK Flexibility Score: inf
ROOT
ATOM      1  C   UNL     1      60.822  28.787   9.770  1.00  0.00     0.000 C 
ENDROOT
BRANCH   1   2
ATOM      2  C   UNL     1      62.175  28.904   9.046  1.00  0.00     0.000 C 
BRANCH   2   3
ATOM      3  C   UNL     1      63.361  28.998  10.019  1.00  0.00     0.000 C 
BRANCH   3   4
ATOM      4  C   UNL     1      64.010  30.394  10.030  1.00  0.00    -0.000 C 
BRANCH   4   5
ATOM      5  C   UNL     1      64.325  30.884  11.454  1.00  0.00    -0.000 C 
BRANCH   5   6
ATOM      6  C   UNL     1      63.910  29.873  12.533  1.00  0.00    -0.000 C 
BRANCH   6   7
ATOM      7  C   UNL     1      63.832  30.541  13.911  1.00  0.00    -0.000 C 
BRANCH   7   8
ATOM      8  C   UNL     1      65.221  30.625  14.559  1.00  0.00    -0.000 C 
BRANCH   8   9
ATOM      9  C   UNL     1      65.595  32.057  14.976  1.00  0.00    -0.000 C 
BRANCH   9  10
ATOM     10  C   UNL     1      64.731  33.121  14.278  1.00  0.00    -0.000 C 
BRANCH  10  11
ATOM     11  C   UNL     1      65.568  34.277  13.708  1.00  0.00    -0.003 C 
ATOM     12  C   UNL     1      66.032  34.018  12.275  1.00  0.00     0.004 C 
ENDBRANCH  10  11
ENDBRANCH   9  10
ENDBRANCH   8   9
ENDBRANCH   7   8
ENDBRANCH   6   7
ENDBRANCH   5   6
ENDBRANCH   4   5
ENDBRANCH   3   4
ENDBRANCH   2   3
ENDBRANCH   1   2
BRANCH   1  13
ATOM     13  C   UNL     1      60.554  29.976  10.710  1.00  0.00     0.000 C 
BRANCH  13  14
ATOM     14  C   UNL     1      60.245  29.530  12.150  1.00  0.00     0.000 C 
BRANCH  14  15
ATOM     15  C   UNL     1      60.324  30.690  13.155  1.00  0.00     0.000 C 
BRANCH  15  16
ATOM     16  C   UNL     1      60.533  32.054  12.472  1.00  0.00     0.000 C 
BRANCH  16  17
ATOM     17  C   UNL     1      61.189  33.088  13.414  1.00  0.00     0.000 C 
BRANCH  17  18
ATOM     18  C   UNL     1      60.861  32.868  14.903  1.00  0.00     0.000 C 
BRANCH  18  19
ATOM     19  C   UNL     1      61.679  33.729  15.884  1.00  0.00     0.000 C 
BRANCH  19  20
ATOM     20  C   UNL     1      61.992  33.056  17.237  1.00  0.00     0.006 C 
BRANCH  20  21
ATOM     21  C   UNL     1      63.366  33.414  17.824  1.00  0.00     0.053 C 
BRANCH  21  22
ATOM     22  C   UNL     1      63.249  34.266  19.049  1.00  0.00     0.041 C 
ATOM     23  O   UNL     1      62.911  35.474  18.952  1.00  0.00    -0.550 OA
ATOM     24  O   UNL     1      63.483  33.717  20.303  1.00  0.00    -0.550 OA
ENDBRANCH  21  22
ENDBRANCH  20  21
ENDBRANCH  19  20
ENDBRANCH  18  19
ENDBRANCH  17  18
ENDBRANCH  16  17
ENDBRANCH  15  16
ENDBRANCH  14  15
ENDBRANCH  13  14
ENDBRANCH   1  13
TORSDOF 20
ENDMDL
MODEL 9
REMARK VINA RESULT:    -4.279      2.063      5.206
REMARK INTER + INTRA:         -12.834
REMARK INTER:                 -10.113
REMARK INTRA:                  -2.721
REMARK UNBOUND:                -3.551
REMARK SMILES CCCCCCCCCCCCCCCCCCCCCC(=O)[O-]
REMARK SMILES IDX 12 1 11 2 10 3 9 4 8 5 7 6 6 7 5 8 4 9 3 10 2 11 1 12 13 13
REMARK SMILES IDX 14 14 15 15 16 16 17 17 18 18 19 19 20 20 21 21 22 22 23 23
REMARK SMILES IDX 24 24
REMARK H PARENT
REMARK Flexibility Score: inf
ROOT
ATOM      1  C   UNL     1      63.270  30.132   9.157  1.00  0.00     0.000 C 
ENDROOT
BRANCH   1   2
ATOM      2  C   UNL     1      64.155  30.495  10.363  1.00  0.00     0.000 C 
BRANCH   2   3
ATOM      3  C   UNL     1      65.273  31.485  10.000  1.00  0.00     0.000 C 
BRANCH   3   4
ATOM      4  C   UNL     1      65.269  32.738  10.894  1.00  0.00    -0.000 C 
BRANCH   4   5
ATOM      5  C   UNL     1      64.520  32.515  12.218  1.00  0.00    -0.000 C 
BRANCH   5   6
ATOM      6  C   UNL     1      65.300  33.037  13.434  1.00  0.00    -0.000 C 
BRANCH   6   7
ATOM      7  C   UNL     1      64.374  33.787  14.399  1.00  0.00    -0.000 C 
BRANCH   7   8
ATOM      8  C   UNL     1      64.452  33.186  15.811  1.00  0.00    -0.000 C 
BRANCH   8   9
ATOM      9  C   UNL     1      64.316  34.249  16.914  1.00  0.00    -0.000 C 
BRANCH   9  10
ATOM     10  C   UNL     1      63.890  33.648  18.265  1.00  0.00    -0.000 C 
BRANCH  10  11
ATOM     11  C   UNL     1      62.366  33.488  18.382  1.00  0.00    -0.003 C 
ATOM     12  C   UNL     1      61.600  34.596  17.660  1.00  0.00     0.004 C 
ENDBRANCH  10  11
ENDBRANCH   9  10
ENDBRANCH   8   9
ENDBRANCH   7   8
ENDBRANCH   6   7
ENDBRANCH   5   6
ENDBRANCH   4   5
ENDBRANCH   3   4
ENDBRANCH   2   3
ENDBRANCH   1   2
BRANCH   1  13
ATOM     13  C   UNL     1      62.942  28.630   9.100  1.00  0.00     0.000 C 
BRANCH  13  14
ATOM     14  C   UNL     1      61.491  28.328   9.512  1.00  0.00     0.000 C 
BRANCH  14  15
ATOM     15  C   UNL     1      60.670  29.605   9.752  1.00  0.00     0.000 C 
BRANCH  15  16
ATOM     16  C   UNL     1      60.597  29.993  11.240  1.00  0.00     0.000 C 
BRANCH  16  17
ATOM     17  C   UNL     1      60.681  28.765  12.173  1.00  0.00     0.000 C 
BRANCH  17  18
ATOM     18  C   UNL     1      61.974  28.707  13.008  1.00  0.00     0.000 C 
BRANCH  18  19
ATOM     19  C   UNL     1      62.377  30.035  13.676  1.00  0.00     0.000 C 
BRANCH  19  20
ATOM     20  C   UNL     1      61.684  30.324  15.025  1.00  0.00     0.006 C 
BRANCH  20  21
ATOM     21  C   UNL     1      61.284  31.792  15.235  1.00  0.00     0.053 C 
BRANCH  21  22
ATOM     22  C   UNL     1      60.401  32.296  14.136  1.00  0.00     0.041 C 
ATOM     23  O   UNL     1      59.199  31.929  14.068  1.00  0.00    -0.550 OA
ATOM     24  O   UNL     1      60.898  33.198  13.203  1.00  0.00    -0.550 OA
ENDBRANCH  21  22
ENDBRANCH  20  21
ENDBRANCH  19  20
ENDBRANCH  18  19
ENDBRANCH  17  18
ENDBRANCH  16  17
ENDBRANCH  15  16
ENDBRANCH  14  15
ENDBRANCH  13  14
ENDBRANCH   1  13
TORSDOF 20
ENDMDL
