MODEL 1
REMARK VINA RESULT:    -3.792      0.000      0.000
REMARK INTER + INTRA:          -4.959
REMARK INTER:                  -5.344
REMARK INTRA:                   0.385
REMARK UNBOUND:                 0.385
REMARK SMILES CC1=CCC(=C(C)C)C(=O)CC(C)=CCC1
REMARK SMILES IDX 12 1 14 2 13 3 15 4 16 5 2 6 1 7 3 8 11 10 9 11 10 12 5 13
REMARK SMILES IDX 6 14 7 15 8 16 4 17
REMARK H PARENT
REMARK Flexibility Score: 60.00
ROOT
ATOM      1  C   UNL     1      20.397 -11.478  44.411  1.00  0.00    -0.070 C 
ATOM      2  C   UNL     1      21.004 -10.749  45.375  1.00  0.00    -0.027 C 
ATOM      3  C   UNL     1      18.963 -11.157  44.075  1.00  0.00     0.039 C 
ENDROOT
BRANCH   2   4
ATOM      4  C   UNL     1      22.449 -10.893  45.796  1.00  0.00     0.032 C 
BRANCH   4   5
ATOM      5  C   UNL     1      22.574 -11.594  47.157  1.00  0.00     0.034 C 
BRANCH   5   6
ATOM      6  C   UNL     1      23.571 -12.745  47.159  1.00  0.00    -0.077 C 
ATOM      7  C   UNL     1      25.012 -12.457  47.503  1.00  0.00     0.039 C 
ATOM      8  C   UNL     1      23.232 -14.024  46.884  1.00  0.00    -0.023 CG0
ATOM      9  G   UNL     1      21.862 -14.495  46.452  1.00  0.00     0.000 G0
ENDBRANCH   5   6
ENDBRANCH   4   5
ENDBRANCH   2   4
BRANCH   1  10
ATOM     10  C   UNL     1      21.092 -12.600  43.662  1.00  0.00     0.111 C 
BRANCH  10  11
ATOM     11  C   UNL     1      20.708 -13.942  44.218  1.00  0.00     0.163 C 
ATOM     12  O   UNL     1      19.543 -14.383  44.020  1.00  0.00    -0.294 OA
BRANCH  11  13
ATOM     13  C   UNL     1      21.679 -14.771  44.977  1.00  0.00    -0.002 C 
ATOM     14  C   UNL     1      22.400 -15.736  44.342  1.00  0.00    -0.069 C 
ATOM     15  C   UNL     1      22.303 -15.926  42.845  1.00  0.00     0.039 C 
ATOM     16  C   UNL     1      23.354 -16.625  45.107  1.00  0.00     0.039 C 
BRANCH  13  17
ATOM     17  C   UNL     1      21.858 -14.526  46.471  1.00  0.00     0.066 CG0
ATOM     18  G   UNL     1      23.239 -14.043  46.847  1.00  0.00     0.000 G0
ENDBRANCH  13  17
ENDBRANCH  11  13
ENDBRANCH  10  11
ENDBRANCH   1  10
TORSDOF 0
ENDMDL
MODEL 2
REMARK VINA RESULT:    -3.523     15.071     17.484
REMARK INTER + INTRA:          -4.579
REMARK INTER:                  -5.086
REMARK INTRA:                   0.506
REMARK UNBOUND:                 0.385
REMARK SMILES CC1=CCC(=C(C)C)C(=O)CC(C)=CCC1
REMARK SMILES IDX 12 1 14 2 13 3 15 4 16 5 2 6 1 7 3 8 11 10 9 11 10 12 5 13
REMARK SMILES IDX 6 14 7 15 8 16 4 17
REMARK H PARENT
REMARK Flexibility Score: 60.00
ROOT
ATOM      1  C   UNL     1       8.968  -3.449  41.940  1.00  0.00    -0.070 C 
ATOM      2  C   UNL     1       9.831  -4.491  41.945  1.00  0.00    -0.027 C 
ATOM      3  C   UNL     1       9.118  -2.398  43.011  1.00  0.00     0.039 C 
ENDROOT
BRANCH   2   4
ATOM      4  C   UNL     1       9.865  -5.599  40.916  1.00  0.00     0.032 C 
BRANCH   4   5
ATOM      5  C   UNL     1      11.151  -5.553  40.078  1.00  0.00     0.034 C 
BRANCH   5   6
ATOM      6  C   UNL     1      11.569  -4.144  39.683  1.00  0.00    -0.077 C 
ATOM      7  C   UNL     1      12.752  -3.515  40.378  1.00  0.00     0.039 C 
ATOM      8  C   UNL     1      10.947  -3.425  38.722  1.00  0.00    -0.023 CG0
ATOM      9  G   UNL     1       9.709  -3.854  37.968  1.00  0.00     0.000 G0
ENDBRANCH   5   6
ENDBRANCH   4   5
ENDBRANCH   2   4
BRANCH   1  10
ATOM     10  C   UNL     1       7.863  -3.297  40.912  1.00  0.00     0.111 C 
BRANCH  10  11
ATOM     11  C   UNL     1       8.339  -2.518  39.718  1.00  0.00     0.163 C 
ATOM     12  O   UNL     1       8.700  -1.319  39.864  1.00  0.00    -0.294 OA
BRANCH  11  13
ATOM     13  C   UNL     1       8.414  -3.140  38.371  1.00  0.00    -0.002 C 
ATOM     14  C   UNL     1       7.355  -3.062  37.519  1.00  0.00    -0.069 C 
ATOM     15  C   UNL     1       6.120  -2.267  37.878  1.00  0.00     0.039 C 
ATOM     16  C   UNL     1       7.393  -3.734  36.165  1.00  0.00     0.039 C 
BRANCH  13  17
ATOM     17  C   UNL     1       9.690  -3.864  37.957  1.00  0.00     0.066 CG0
ATOM     18  G   UNL     1      10.916  -3.423  38.724  1.00  0.00     0.000 G0
ENDBRANCH  13  17
ENDBRANCH  11  13
ENDBRANCH  10  11
ENDBRANCH   1  10
TORSDOF 0
ENDMDL
MODEL 3
REMARK VINA RESULT:    -3.442      1.605      1.966
REMARK INTER + INTRA:          -4.466
REMARK INTER:                  -5.000
REMARK INTRA:                   0.534
REMARK UNBOUND:                 0.385
REMARK SMILES CC1=CCC(=C(C)C)C(=O)CC(C)=CCC1
REMARK SMILES IDX 12 1 14 2 13 3 15 4 16 5 2 6 1 7 3 8 11 10 9 11 10 12 5 13
REMARK SMILES IDX 6 14 7 15 8 16 4 17
REMARK H PARENT
REMARK Flexibility Score: 60.00
ROOT
ATOM      1  C   UNL     1      20.742 -12.487  45.331  1.00  0.00    -0.070 C 
ATOM      2  C   UNL     1      21.501 -11.715  46.142  1.00  0.00    -0.027 C 
ATOM      3  C   UNL     1      19.828 -11.801  44.349  1.00  0.00     0.039 C 
ENDROOT
BRANCH   2   4
ATOM      4  C   UNL     1      22.514 -12.231  47.140  1.00  0.00     0.032 C 
BRANCH   4   5
ATOM      5  C   UNL     1      23.910 -11.646  46.882  1.00  0.00     0.034 C 
BRANCH   5   6
ATOM      6  C   UNL     1      24.491 -12.032  45.529  1.00  0.00    -0.077 C 
ATOM      7  C   UNL     1      24.976 -10.940  44.608  1.00  0.00     0.039 C 
ATOM      8  C   UNL     1      24.614 -13.312  45.109  1.00  0.00    -0.023 CG0
ATOM      9  G   UNL     1      24.123 -14.531  45.857  1.00  0.00     0.000 G0
ENDBRANCH   5   6
ENDBRANCH   4   5
ENDBRANCH   2   4
BRANCH   1  10
ATOM     10  C   UNL     1      20.771 -14.004  45.372  1.00  0.00     0.111 C 
BRANCH  10  11
ATOM     11  C   UNL     1      21.886 -14.547  44.523  1.00  0.00     0.163 C 
ATOM     12  O   UNL     1      21.876 -14.337  43.279  1.00  0.00    -0.294 OA
BRANCH  11  13
ATOM     13  C   UNL     1      23.014 -15.305  45.122  1.00  0.00    -0.002 C 
ATOM     14  C   UNL     1      23.060 -16.661  45.020  1.00  0.00    -0.069 C 
ATOM     15  C   UNL     1      22.026 -17.420  44.220  1.00  0.00     0.039 C 
ATOM     16  C   UNL     1      24.172 -17.454  45.669  1.00  0.00     0.039 C 
BRANCH  13  17
ATOM     17  C   UNL     1      24.116 -14.544  45.851  1.00  0.00     0.066 CG0
ATOM     18  G   UNL     1      24.604 -13.321  45.110  1.00  0.00     0.000 G0
ENDBRANCH  13  17
ENDBRANCH  11  13
ENDBRANCH  10  11
ENDBRANCH   1  10
TORSDOF 0
ENDMDL
MODEL 4
REMARK VINA RESULT:    -3.431      1.893      3.931
REMARK INTER + INTRA:          -4.451
REMARK INTER:                  -4.938
REMARK INTRA:                   0.488
REMARK UNBOUND:                 0.385
REMARK SMILES CC1=CCC(=C(C)C)C(=O)CC(C)=CCC1
REMARK SMILES IDX 12 1 14 2 13 3 15 4 16 5 2 6 1 7 3 8 11 10 9 11 10 12 5 13
REMARK SMILES IDX 6 14 7 15 8 16 4 17
REMARK H PARENT
REMARK Flexibility Score: 60.00
ROOT
ATOM      1  C   UNL     1      23.678 -12.856  46.983  1.00  0.00    -0.070 C 
ATOM      2  C   UNL     1      23.176 -11.601  46.919  1.00  0.00    -0.027 C 
ATOM      3  C   UNL     1      25.102 -13.028  47.448  1.00  0.00     0.039 C 
ENDROOT
BRANCH   2   4
ATOM      4  C   UNL     1      21.756 -11.250  46.535  1.00  0.00     0.032 C 
BRANCH   4   5
ATOM      5  C   UNL     1      21.659 -10.820  45.063  1.00  0.00     0.034 C 
BRANCH   5   6
ATOM      6  C   UNL     1      20.677 -11.652  44.251  1.00  0.00    -0.077 C 
ATOM      7  C   UNL     1      19.215 -11.277  44.272  1.00  0.00     0.039 C 
ATOM      8  C   UNL     1      21.046 -12.707  43.489  1.00  0.00    -0.023 CG0
ATOM      9  G   UNL     1      22.444 -13.274  43.396  1.00  0.00     0.000 G0
ENDBRANCH   5   6
ENDBRANCH   4   5
ENDBRANCH   2   4
BRANCH   1  10
ATOM     10  C   UNL     1      22.876 -14.087  46.606  1.00  0.00     0.111 C 
BRANCH  10  11
ATOM     11  C   UNL     1      23.393 -14.702  45.336  1.00  0.00     0.163 C 
ATOM     12  O   UNL     1      24.497 -15.313  45.350  1.00  0.00    -0.294 OA
BRANCH  11  13
ATOM     13  C   UNL     1      22.621 -14.627  44.070  1.00  0.00    -0.002 C 
ATOM     14  C   UNL     1      22.065 -15.750  43.537  1.00  0.00    -0.069 C 
ATOM     15  C   UNL     1      22.136 -17.076  44.261  1.00  0.00     0.039 C 
ATOM     16  C   UNL     1      21.321 -15.702  42.223  1.00  0.00     0.039 C 
BRANCH  13  17
ATOM     17  C   UNL     1      22.459 -13.278  43.378  1.00  0.00     0.066 CG0
ATOM     18  G   UNL     1      21.062 -12.710  43.472  1.00  0.00     0.000 G0
ENDBRANCH  13  17
ENDBRANCH  11  13
ENDBRANCH  10  11
ENDBRANCH   1  10
TORSDOF 0
ENDMDL
MODEL 5
REMARK VINA RESULT:    -3.414     15.739     17.450
REMARK INTER + INTRA:          -4.427
REMARK INTER:                  -4.885
REMARK INTRA:                   0.458
REMARK UNBOUND:                 0.385
REMARK SMILES CC1=CCC(=C(C)C)C(=O)CC(C)=CCC1
REMARK SMILES IDX 12 1 14 2 13 3 15 4 16 5 2 6 1 7 3 8 11 10 9 11 10 12 5 13
REMARK SMILES IDX 6 14 7 15 8 16 4 17
REMARK H PARENT
REMARK Flexibility Score: 60.00
ROOT
ATOM      1  C   UNL     1       9.310  -4.888  41.881  1.00  0.00    -0.070 C 
ATOM      2  C   UNL     1       9.103  -5.084  40.558  1.00  0.00    -0.027 C 
ATOM      3  C   UNL     1       8.322  -5.486  42.850  1.00  0.00     0.039 C 
ENDROOT
BRANCH   2   4
ATOM      4  C   UNL     1      10.020  -4.610  39.453  1.00  0.00     0.032 C 
BRANCH   4   5
ATOM      5  C   UNL     1       9.271  -3.750  38.425  1.00  0.00     0.034 C 
BRANCH   5   6
ATOM      6  C   UNL     1       8.508  -2.588  39.044  1.00  0.00    -0.077 C 
ATOM      7  C   UNL     1       7.023  -2.479  38.799  1.00  0.00     0.039 C 
ATOM      8  C   UNL     1       9.089  -1.647  39.823  1.00  0.00    -0.023 CG0
ATOM      9  G   UNL     1      10.567  -1.548  40.123  1.00  0.00     0.000 G0
ENDBRANCH   5   6
ENDBRANCH   4   5
ENDBRANCH   2   4
BRANCH   1  10
ATOM     10  C   UNL     1      10.483  -4.094  42.424  1.00  0.00     0.111 C 
BRANCH  10  11
ATOM     11  C   UNL     1      10.177  -2.623  42.448  1.00  0.00     0.163 C 
ATOM     12  O   UNL     1       9.275  -2.191  43.216  1.00  0.00    -0.294 OA
BRANCH  11  13
ATOM     13  C   UNL     1      10.932  -1.664  41.602  1.00  0.00    -0.002 C 
ATOM     14  C   UNL     1      11.934  -0.916  42.140  1.00  0.00    -0.069 C 
ATOM     15  C   UNL     1      12.368  -1.108  43.576  1.00  0.00     0.039 C 
ATOM     16  C   UNL     1      12.678   0.104  41.308  1.00  0.00     0.039 C 
BRANCH  13  17
ATOM     17  C   UNL     1      10.569  -1.528  40.128  1.00  0.00     0.066 CG0
ATOM     18  G   UNL     1       9.088  -1.652  39.851  1.00  0.00     0.000 G0
ENDBRANCH  13  17
ENDBRANCH  11  13
ENDBRANCH  10  11
ENDBRANCH   1  10
TORSDOF 0
ENDMDL
MODEL 6
REMARK VINA RESULT:    -3.403     15.206     17.301
REMARK INTER + INTRA:          -4.411
REMARK INTER:                  -4.915
REMARK INTRA:                   0.504
REMARK UNBOUND:                 0.385
REMARK SMILES CC1=CCC(=C(C)C)C(=O)CC(C)=CCC1
REMARK SMILES IDX 12 1 14 2 13 3 15 4 16 5 2 6 1 7 3 8 11 10 9 11 10 12 5 13
REMARK SMILES IDX 6 14 7 15 8 16 4 17
REMARK H PARENT
REMARK Flexibility Score: 60.00
ROOT
ATOM      1  C   UNL     1      11.441  -4.091  41.178  1.00  0.00    -0.070 C 
ATOM      2  C   UNL     1      10.281  -4.788  41.155  1.00  0.00    -0.027 C 
ATOM      3  C   UNL     1      12.317  -4.131  39.953  1.00  0.00     0.039 C 
ENDROOT
BRANCH   2   4
ATOM      4  C   UNL     1       9.257  -4.811  42.268  1.00  0.00     0.032 C 
BRANCH   4   5
ATOM      5  C   UNL     1       7.947  -4.129  41.845  1.00  0.00     0.034 C 
BRANCH   5   6
ATOM      6  C   UNL     1       8.157  -2.869  41.017  1.00  0.00    -0.077 C 
ATOM      7  C   UNL     1       7.838  -2.907  39.543  1.00  0.00     0.039 C 
ATOM      8  C   UNL     1       8.601  -1.703  41.537  1.00  0.00    -0.023 CG0
ATOM      9  G   UNL     1       9.038  -1.490  42.968  1.00  0.00     0.000 G0
ENDBRANCH   5   6
ENDBRANCH   4   5
ENDBRANCH   2   4
BRANCH   1  10
ATOM     10  C   UNL     1      11.893  -3.280  42.378  1.00  0.00     0.111 C 
BRANCH  10  11
ATOM     11  C   UNL     1      11.496  -1.838  42.238  1.00  0.00     0.163 C 
ATOM     12  O   UNL     1      11.984  -1.150  41.300  1.00  0.00    -0.294 OA
BRANCH  11  13
ATOM     13  C   UNL     1      10.522  -1.211  43.167  1.00  0.00    -0.002 C 
ATOM     14  C   UNL     1      10.955  -0.401  44.172  1.00  0.00    -0.069 C 
ATOM     15  C   UNL     1      12.418  -0.044  44.312  1.00  0.00     0.039 C 
ATOM     16  C   UNL     1       9.984   0.203  45.159  1.00  0.00     0.039 C 
BRANCH  13  17
ATOM     17  C   UNL     1       9.034  -1.485  42.980  1.00  0.00     0.066 CG0
ATOM     18  G   UNL     1       8.634  -1.717  41.541  1.00  0.00     0.000 G0
ENDBRANCH  13  17
ENDBRANCH  11  13
ENDBRANCH  10  11
ENDBRANCH   1  10
TORSDOF 0
ENDMDL
MODEL 7
REMARK VINA RESULT:    -3.379     14.999     16.445
REMARK INTER + INTRA:          -4.376
REMARK INTER:                  -4.862
REMARK INTRA:                   0.486
REMARK UNBOUND:                 0.385
REMARK SMILES CC1=CCC(=C(C)C)C(=O)CC(C)=CCC1
REMARK SMILES IDX 12 1 14 2 13 3 15 4 16 5 2 6 1 7 3 8 11 10 9 11 10 12 5 13
REMARK SMILES IDX 6 14 7 15 8 16 4 17
REMARK H PARENT
REMARK Flexibility Score: 60.00
ROOT
ATOM      1  C   UNL     1       9.226  -0.605  42.117  1.00  0.00    -0.070 C 
ATOM      2  C   UNL     1      10.531  -0.305  42.311  1.00  0.00    -0.027 C 
ATOM      3  C   UNL     1       8.427   0.269  41.184  1.00  0.00     0.039 C 
ENDROOT
BRANCH   2   4
ATOM      4  C   UNL     1      11.492  -1.105  43.161  1.00  0.00     0.032 C 
BRANCH   4   5
ATOM      5  C   UNL     1      12.646  -1.677  42.324  1.00  0.00     0.034 C 
BRANCH   5   6
ATOM      6  C   UNL     1      12.186  -2.386  41.058  1.00  0.00    -0.077 C 
ATOM      7  C   UNL     1      12.613  -1.834  39.720  1.00  0.00     0.039 C 
ATOM      8  C   UNL     1      11.423  -3.503  41.065  1.00  0.00    -0.023 CG0
ATOM      9  G   UNL     1      10.842  -4.160  42.296  1.00  0.00     0.000 G0
ENDBRANCH   5   6
ENDBRANCH   4   5
ENDBRANCH   2   4
BRANCH   1  10
ATOM     10  C   UNL     1       8.537  -1.772  42.799  1.00  0.00     0.111 C 
BRANCH  10  11
ATOM     11  C   UNL     1       8.545  -2.992  41.922  1.00  0.00     0.163 C 
ATOM     12  O   UNL     1       7.917  -2.973  40.828  1.00  0.00    -0.294 OA
BRANCH  11  13
ATOM     13  C   UNL     1       9.299  -4.213  42.304  1.00  0.00    -0.002 C 
ATOM     14  C   UNL     1       8.634  -5.347  42.660  1.00  0.00    -0.069 C 
ATOM     15  C   UNL     1       7.126  -5.425  42.584  1.00  0.00     0.039 C 
ATOM     16  C   UNL     1       9.384  -6.583  43.103  1.00  0.00     0.039 C 
BRANCH  13  17
ATOM     17  C   UNL     1      10.823  -4.180  42.294  1.00  0.00     0.066 CG0
ATOM     18  G   UNL     1      11.408  -3.503  41.076  1.00  0.00     0.000 G0
ENDBRANCH  13  17
ENDBRANCH  11  13
ENDBRANCH  10  11
ENDBRANCH   1  10
TORSDOF 0
ENDMDL
MODEL 8
REMARK VINA RESULT:    -3.275      1.944      2.904
REMARK INTER + INTRA:          -4.231
REMARK INTER:                  -4.528
REMARK INTRA:                   0.297
REMARK UNBOUND:                 0.385
REMARK SMILES CC1=CCC(=C(C)C)C(=O)CC(C)=CCC1
REMARK SMILES IDX 12 1 14 2 13 3 15 4 16 5 2 6 1 7 3 8 11 10 9 11 10 12 5 13
REMARK SMILES IDX 6 14 7 15 8 16 4 17
REMARK H PARENT
REMARK Flexibility Score: 60.00
ROOT
ATOM      1  C   UNL     1      20.857 -13.075  45.424  1.00  0.00    -0.070 C 
ATOM      2  C   UNL     1      21.856 -12.885  46.316  1.00  0.00    -0.027 C 
ATOM      3  C   UNL     1      20.201 -11.858  44.824  1.00  0.00     0.039 C 
ENDROOT
BRANCH   2   4
ATOM      4  C   UNL     1      22.662 -13.986  46.968  1.00  0.00     0.032 C 
BRANCH   4   5
ATOM      5  C   UNL     1      23.827 -14.440  46.075  1.00  0.00     0.034 C 
BRANCH   5   6
ATOM      6  C   UNL     1      24.024 -15.949  46.053  1.00  0.00    -0.077 C 
ATOM      7  C   UNL     1      24.592 -16.625  47.277  1.00  0.00     0.039 C 
ATOM      8  C   UNL     1      23.700 -16.727  44.996  1.00  0.00    -0.023 CG0
ATOM      9  G   UNL     1      23.188 -16.228  43.664  1.00  0.00     0.000 G0
ENDBRANCH   5   6
ENDBRANCH   4   5
ENDBRANCH   2   4
BRANCH   1  10
ATOM     10  C   UNL     1      20.371 -14.451  45.009  1.00  0.00     0.111 C 
BRANCH  10  11
ATOM     11  C   UNL     1      20.973 -14.864  43.696  1.00  0.00     0.163 C 
ATOM     12  O   UNL     1      20.909 -14.079  42.711  1.00  0.00    -0.294 OA
BRANCH  11  13
ATOM     13  C   UNL     1      21.664 -16.170  43.540  1.00  0.00    -0.002 C 
ATOM     14  C   UNL     1      20.946 -17.302  43.302  1.00  0.00    -0.069 C 
ATOM     15  C   UNL     1      19.449 -17.250  43.097  1.00  0.00     0.039 C 
ATOM     16  C   UNL     1      21.627 -18.647  43.194  1.00  0.00     0.039 C 
BRANCH  13  17
ATOM     17  C   UNL     1      23.184 -16.224  43.650  1.00  0.00     0.066 CG0
ATOM     18  G   UNL     1      23.680 -16.734  44.983  1.00  0.00     0.000 G0
ENDBRANCH  13  17
ENDBRANCH  11  13
ENDBRANCH  10  11
ENDBRANCH   1  10
TORSDOF 0
ENDMDL
MODEL 9
REMARK VINA RESULT:    -3.147      2.183      3.837
REMARK INTER + INTRA:          -4.051
REMARK INTER:                  -4.606
REMARK INTRA:                   0.556
REMARK UNBOUND:                 0.385
REMARK SMILES CC1=CCC(=C(C)C)C(=O)CC(C)=CCC1
REMARK SMILES IDX 12 1 14 2 13 3 15 4 16 5 2 6 1 7 3 8 11 10 9 11 10 12 5 13
REMARK SMILES IDX 6 14 7 15 8 16 4 17
REMARK H PARENT
REMARK Flexibility Score: 60.00
ROOT
ATOM      1  C   UNL     1      20.778 -13.757  45.937  1.00  0.00    -0.070 C 
ATOM      2  C   UNL     1      21.798 -14.229  46.690  1.00  0.00    -0.027 C 
ATOM      3  C   UNL     1      19.546 -14.614  45.794  1.00  0.00     0.039 C 
ENDROOT
BRANCH   2   4
ATOM      4  C   UNL     1      23.078 -13.481  46.990  1.00  0.00     0.032 C 
BRANCH   4   5
ATOM      5  C   UNL     1      24.317 -14.311  46.624  1.00  0.00     0.034 C 
BRANCH   5   6
ATOM      6  C   UNL     1      24.335 -14.769  45.172  1.00  0.00    -0.077 C 
ATOM      7  C   UNL     1      24.516 -16.237  44.875  1.00  0.00     0.039 C 
ATOM      8  C   UNL     1      24.180 -13.929  44.124  1.00  0.00    -0.023 CG0
ATOM      9  G   UNL     1      24.057 -12.425  44.217  1.00  0.00     0.000 G0
ENDBRANCH   5   6
ENDBRANCH   4   5
ENDBRANCH   2   4
BRANCH   1  10
ATOM     10  C   UNL     1      20.824 -12.415  45.233  1.00  0.00     0.111 C 
BRANCH  10  11
ATOM     11  C   UNL     1      21.482 -12.531  43.887  1.00  0.00     0.163 C 
ATOM     12  O   UNL     1      20.914 -13.193  42.975  1.00  0.00    -0.294 OA
BRANCH  11  13
ATOM     13  C   UNL     1      22.777 -11.863  43.600  1.00  0.00    -0.002 C 
ATOM     14  C   UNL     1      22.819 -10.765  42.797  1.00  0.00    -0.069 C 
ATOM     15  C   UNL     1      21.552 -10.143  42.256  1.00  0.00     0.039 C 
ATOM     16  C   UNL     1      24.134 -10.103  42.451  1.00  0.00     0.039 C 
BRANCH  13  17
ATOM     17  C   UNL     1      24.054 -12.422  44.216  1.00  0.00     0.066 CG0
ATOM     18  G   UNL     1      24.172 -13.926  44.113  1.00  0.00     0.000 G0
ENDBRANCH  13  17
ENDBRANCH  11  13
ENDBRANCH  10  11
ENDBRANCH   1  10
TORSDOF 0
ENDMDL
