MODEL 1
REMARK VINA RESULT:    -3.698      0.000      0.000
REMARK INTER + INTRA:         -12.225
REMARK INTER:                  -8.453
REMARK INTRA:                  -3.771
REMARK UNBOUND:                -3.771
REMARK SMILES CCCCCCCCCCCCCCCCCCCCCCCC(=O)[O-]
REMARK SMILES IDX 13 1 14 2 15 3 16 4 17 5 18 6 19 7 20 8 21 9 22 10 23 11
REMARK SMILES IDX 24 12 25 13 26 14 12 15 11 16 10 17 9 18 8 19 7 20 6 21 5 22
REMARK SMILES IDX 4 23 3 24 2 25 1 26
REMARK H PARENT
REMARK Flexibility Score: inf
ROOT
ATOM      1  C   UNL     1      15.654  12.630  31.766  1.00  0.00     0.000 C 
ENDROOT
BRANCH   1   2
ATOM      2  C   UNL     1      16.934  13.021  31.017  1.00  0.00     0.000 C 
BRANCH   2   3
ATOM      3  C   UNL     1      17.378  14.441  31.388  1.00  0.00     0.000 C 
BRANCH   3   4
ATOM      4  C   UNL     1      17.531  15.315  30.134  1.00  0.00     0.000 C 
BRANCH   4   5
ATOM      5  C   UNL     1      16.202  15.934  29.667  1.00  0.00     0.000 C 
BRANCH   5   6
ATOM      6  C   UNL     1      15.649  15.363  28.349  1.00  0.00     0.000 C 
BRANCH   6   7
ATOM      7  C   UNL     1      16.719  14.639  27.514  1.00  0.00     0.000 C 
BRANCH   7   8
ATOM      8  C   UNL     1      17.307  15.527  26.403  1.00  0.00     0.000 C 
BRANCH   8   9
ATOM      9  C   UNL     1      16.267  16.314  25.581  1.00  0.00     0.000 C 
BRANCH   9  10
ATOM     10  C   UNL     1      15.974  15.746  24.178  1.00  0.00     0.006 C 
BRANCH  10  11
ATOM     11  C   UNL     1      14.891  14.655  24.150  1.00  0.00     0.053 C 
BRANCH  11  12
ATOM     12  C   UNL     1      15.444  13.329  23.726  1.00  0.00     0.041 C 
ATOM     13  O   UNL     1      15.007  12.762  22.690  1.00  0.00    -0.550 OA
ATOM     14  O   UNL     1      16.425  12.707  24.489  1.00  0.00    -0.550 OA
ENDBRANCH  11  12
ENDBRANCH  10  11
ENDBRANCH   9  10
ENDBRANCH   8   9
ENDBRANCH   7   8
ENDBRANCH   6   7
ENDBRANCH   5   6
ENDBRANCH   4   5
ENDBRANCH   3   4
ENDBRANCH   2   3
ENDBRANCH   1   2
BRANCH   1  15
ATOM     15  C   UNL     1      14.409  12.952  30.930  1.00  0.00     0.000 C 
BRANCH  15  16
ATOM     16  C   UNL     1      13.254  12.003  31.273  1.00  0.00     0.000 C 
BRANCH  16  17
ATOM     17  C   UNL     1      12.952  12.027  32.779  1.00  0.00     0.000 C 
BRANCH  17  18
ATOM     18  C   UNL     1      11.557  12.594  33.105  1.00  0.00    -0.000 C 
BRANCH  18  19
ATOM     19  C   UNL     1      11.442  14.129  33.053  1.00  0.00    -0.000 C 
BRANCH  19  20
ATOM     20  C   UNL     1      10.505  14.624  31.939  1.00  0.00    -0.000 C 
BRANCH  20  21
ATOM     21  C   UNL     1      11.264  15.138  30.702  1.00  0.00    -0.000 C 
BRANCH  21  22
ATOM     22  C   UNL     1      10.937  14.412  29.383  1.00  0.00    -0.000 C 
BRANCH  22  23
ATOM     23  C   UNL     1      12.150  14.296  28.444  1.00  0.00    -0.000 C 
BRANCH  23  24
ATOM     24  C   UNL     1      12.086  13.031  27.563  1.00  0.00    -0.000 C 
BRANCH  24  25
ATOM     25  C   UNL     1      13.377  12.769  26.769  1.00  0.00    -0.003 C 
ATOM     26  C   UNL     1      14.322  11.794  27.468  1.00  0.00     0.004 C 
ENDBRANCH  24  25
ENDBRANCH  23  24
ENDBRANCH  22  23
ENDBRANCH  21  22
ENDBRANCH  20  21
ENDBRANCH  19  20
ENDBRANCH  18  19
ENDBRANCH  17  18
ENDBRANCH  16  17
ENDBRANCH  15  16
ENDBRANCH   1  15
TORSDOF 22
ENDMDL
MODEL 2
REMARK VINA RESULT:    -3.698      2.754      6.407
REMARK INTER + INTRA:         -12.224
REMARK INTER:                  -8.103
REMARK INTRA:                  -4.121
REMARK UNBOUND:                -3.771
REMARK SMILES CCCCCCCCCCCCCCCCCCCCCCCC(=O)[O-]
REMARK SMILES IDX 13 1 14 2 15 3 16 4 17 5 18 6 19 7 20 8 21 9 22 10 23 11
REMARK SMILES IDX 24 12 25 13 26 14 12 15 11 16 10 17 9 18 8 19 7 20 6 21 5 22
REMARK SMILES IDX 4 23 3 24 2 25 1 26
REMARK H PARENT
REMARK Flexibility Score: inf
ROOT
ATOM      1  C   UNL     1      16.586  15.309  27.792  1.00  0.00     0.000 C 
ENDROOT
BRANCH   1   2
ATOM      2  C   UNL     1      15.831  15.664  29.079  1.00  0.00     0.000 C 
BRANCH   2   3
ATOM      3  C   UNL     1      16.805  16.007  30.213  1.00  0.00     0.000 C 
BRANCH   3   4
ATOM      4  C   UNL     1      17.780  14.848  30.469  1.00  0.00     0.000 C 
BRANCH   4   5
ATOM      5  C   UNL     1      17.552  14.159  31.826  1.00  0.00     0.000 C 
BRANCH   5   6
ATOM      6  C   UNL     1      17.235  12.655  31.744  1.00  0.00     0.000 C 
BRANCH   6   7
ATOM      7  C   UNL     1      15.742  12.345  31.945  1.00  0.00     0.000 C 
BRANCH   7   8
ATOM      8  C   UNL     1      14.955  12.324  30.622  1.00  0.00     0.000 C 
BRANCH   8   9
ATOM      9  C   UNL     1      13.470  12.719  30.744  1.00  0.00     0.000 C 
BRANCH   9  10
ATOM     10  C   UNL     1      13.155  14.194  30.420  1.00  0.00     0.006 C 
BRANCH  10  11
ATOM     11  C   UNL     1      12.194  14.391  29.237  1.00  0.00     0.053 C 
BRANCH  11  12
ATOM     12  C   UNL     1      10.895  15.002  29.667  1.00  0.00     0.041 C 
ATOM     13  O   UNL     1      10.660  15.196  30.889  1.00  0.00    -0.550 OA
ATOM     14  O   UNL     1       9.934  15.335  28.720  1.00  0.00    -0.550 OA
ENDBRANCH  11  12
ENDBRANCH  10  11
ENDBRANCH   9  10
ENDBRANCH   8   9
ENDBRANCH   7   8
ENDBRANCH   6   7
ENDBRANCH   5   6
ENDBRANCH   4   5
ENDBRANCH   3   4
ENDBRANCH   2   3
ENDBRANCH   1   2
BRANCH   1  15
ATOM     15  C   UNL     1      16.016  16.076  26.593  1.00  0.00     0.000 C 
BRANCH  15  16
ATOM     16  C   UNL     1      16.821  15.787  25.320  1.00  0.00     0.000 C 
BRANCH  16  17
ATOM     17  C   UNL     1      15.902  15.718  24.092  1.00  0.00     0.000 C 
BRANCH  17  18
ATOM     18  C   UNL     1      15.423  14.289  23.776  1.00  0.00    -0.000 C 
BRANCH  18  19
ATOM     19  C   UNL     1      13.899  14.076  23.843  1.00  0.00    -0.000 C 
BRANCH  19  20
ATOM     20  C   UNL     1      13.492  12.947  24.805  1.00  0.00    -0.000 C 
BRANCH  20  21
ATOM     21  C   UNL     1      13.917  13.218  26.260  1.00  0.00    -0.000 C 
BRANCH  21  22
ATOM     22  C   UNL     1      14.485  12.000  27.014  1.00  0.00    -0.000 C 
BRANCH  22  23
ATOM     23  C   UNL     1      15.571  11.255  26.220  1.00  0.00    -0.000 C 
BRANCH  23  24
ATOM     24  C   UNL     1      16.974  11.859  26.443  1.00  0.00    -0.000 C 
BRANCH  24  25
ATOM     25  C   UNL     1      17.369  11.966  27.926  1.00  0.00    -0.003 C 
ATOM     26  C   UNL     1      17.754  10.622  28.541  1.00  0.00     0.004 C 
ENDBRANCH  24  25
ENDBRANCH  23  24
ENDBRANCH  22  23
ENDBRANCH  21  22
ENDBRANCH  20  21
ENDBRANCH  19  20
ENDBRANCH  18  19
ENDBRANCH  17  18
ENDBRANCH  16  17
ENDBRANCH  15  16
ENDBRANCH   1  15
TORSDOF 22
ENDMDL
MODEL 3
REMARK VINA RESULT:    -3.676      2.314      6.394
REMARK INTER + INTRA:         -12.176
REMARK INTER:                  -7.994
REMARK INTRA:                  -4.182
REMARK UNBOUND:                -3.771
REMARK SMILES CCCCCCCCCCCCCCCCCCCCCCCC(=O)[O-]
REMARK SMILES IDX 13 1 14 2 15 3 16 4 17 5 18 6 19 7 20 8 21 9 22 10 23 11
REMARK SMILES IDX 24 12 25 13 26 14 12 15 11 16 10 17 9 18 8 19 7 20 6 21 5 22
REMARK SMILES IDX 4 23 3 24 2 25 1 26
REMARK H PARENT
REMARK Flexibility Score: inf
ROOT
ATOM      1  C   UNL     1      16.601  14.510  31.192  1.00  0.00     0.000 C 
ENDROOT
BRANCH   1   2
ATOM      2  C   UNL     1      17.810  13.828  31.845  1.00  0.00     0.000 C 
BRANCH   2   3
ATOM      3  C   UNL     1      17.418  12.476  32.451  1.00  0.00     0.000 C 
BRANCH   3   4
ATOM      4  C   UNL     1      15.956  12.131  32.130  1.00  0.00     0.000 C 
BRANCH   4   5
ATOM      5  C   UNL     1      15.318  11.190  33.168  1.00  0.00     0.000 C 
BRANCH   5   6
ATOM      6  C   UNL     1      13.780  11.132  33.130  1.00  0.00     0.000 C 
BRANCH   6   7
ATOM      7  C   UNL     1      13.150  12.366  32.461  1.00  0.00     0.000 C 
BRANCH   7   8
ATOM      8  C   UNL     1      11.827  12.790  33.122  1.00  0.00     0.000 C 
BRANCH   8   9
ATOM      9  C   UNL     1      11.428  14.262  32.891  1.00  0.00     0.000 C 
BRANCH   9  10
ATOM     10  C   UNL     1      10.572  14.520  31.635  1.00  0.00     0.006 C 
BRANCH  10  11
ATOM     11  C   UNL     1      11.371  14.983  30.407  1.00  0.00     0.053 C 
BRANCH  11  12
ATOM     12  C   UNL     1      11.226  14.036  29.256  1.00  0.00     0.041 C 
ATOM     13  O   UNL     1      11.308  14.460  28.072  1.00  0.00    -0.550 OA
ATOM     14  O   UNL     1      10.977  12.689  29.489  1.00  0.00    -0.550 OA
ENDBRANCH  11  12
ENDBRANCH  10  11
ENDBRANCH   9  10
ENDBRANCH   8   9
ENDBRANCH   7   8
ENDBRANCH   6   7
ENDBRANCH   5   6
ENDBRANCH   4   5
ENDBRANCH   3   4
ENDBRANCH   2   3
ENDBRANCH   1   2
BRANCH   1  15
ATOM     15  C   UNL     1      17.050  15.580  30.189  1.00  0.00     0.000 C 
BRANCH  15  16
ATOM     16  C   UNL     1      15.981  15.812  29.114  1.00  0.00     0.000 C 
BRANCH  16  17
ATOM     17  C   UNL     1      14.880  14.744  29.195  1.00  0.00     0.000 C 
BRANCH  17  18
ATOM     18  C   UNL     1      14.788  13.876  27.927  1.00  0.00    -0.000 C 
BRANCH  18  19
ATOM     19  C   UNL     1      15.004  12.367  28.146  1.00  0.00    -0.000 C 
BRANCH  19  20
ATOM     20  C   UNL     1      16.444  12.020  28.558  1.00  0.00    -0.000 C 
BRANCH  20  21
ATOM     21  C   UNL     1      17.474  12.326  27.454  1.00  0.00    -0.000 C 
BRANCH  21  22
ATOM     22  C   UNL     1      18.710  13.122  27.913  1.00  0.00    -0.000 C 
BRANCH  22  23
ATOM     23  C   UNL     1      18.824  14.498  27.235  1.00  0.00    -0.000 C 
BRANCH  23  24
ATOM     24  C   UNL     1      17.904  14.618  26.001  1.00  0.00    -0.000 C 
BRANCH  24  25
ATOM     25  C   UNL     1      17.602  16.072  25.599  1.00  0.00    -0.003 C 
ATOM     26  C   UNL     1      16.110  16.346  25.421  1.00  0.00     0.004 C 
ENDBRANCH  24  25
ENDBRANCH  23  24
ENDBRANCH  22  23
ENDBRANCH  21  22
ENDBRANCH  20  21
ENDBRANCH  19  20
ENDBRANCH  18  19
ENDBRANCH  17  18
ENDBRANCH  16  17
ENDBRANCH  15  16
ENDBRANCH   1  15
TORSDOF 22
ENDMDL
MODEL 4
REMARK VINA RESULT:    -3.661      3.041      3.876
REMARK INTER + INTRA:         -12.141
REMARK INTER:                  -9.919
REMARK INTRA:                  -2.223
REMARK UNBOUND:                -3.771
REMARK SMILES CCCCCCCCCCCCCCCCCCCCCCCC(=O)[O-]
REMARK SMILES IDX 13 1 14 2 15 3 16 4 17 5 18 6 19 7 20 8 21 9 22 10 23 11
REMARK SMILES IDX 24 12 25 13 26 14 12 15 11 16 10 17 9 18 8 19 7 20 6 21 5 22
REMARK SMILES IDX 4 23 3 24 2 25 1 26
REMARK H PARENT
REMARK Flexibility Score: inf
ROOT
ATOM      1  C   UNL     1      15.060  11.939  30.202  1.00  0.00     0.000 C 
ENDROOT
BRANCH   1   2
ATOM      2  C   UNL     1      16.509  12.392  30.424  1.00  0.00     0.000 C 
BRANCH   2   3
ATOM      3  C   UNL     1      16.594  13.440  31.540  1.00  0.00     0.000 C 
BRANCH   3   4
ATOM      4  C   UNL     1      17.725  14.442  31.269  1.00  0.00     0.000 C 
BRANCH   4   5
ATOM      5  C   UNL     1      17.575  15.169  29.920  1.00  0.00     0.000 C 
BRANCH   5   6
ATOM      6  C   UNL     1      16.225  15.879  29.714  1.00  0.00     0.000 C 
BRANCH   6   7
ATOM      7  C   UNL     1      15.474  15.389  28.464  1.00  0.00     0.000 C 
BRANCH   7   8
ATOM      8  C   UNL     1      16.383  15.286  27.226  1.00  0.00     0.000 C 
BRANCH   8   9
ATOM      9  C   UNL     1      16.103  16.330  26.126  1.00  0.00     0.000 C 
BRANCH   9  10
ATOM     10  C   UNL     1      15.935  15.755  24.705  1.00  0.00     0.006 C 
BRANCH  10  11
ATOM     11  C   UNL     1      15.733  14.232  24.657  1.00  0.00     0.053 C 
BRANCH  11  12
ATOM     12  C   UNL     1      14.281  13.861  24.629  1.00  0.00     0.041 C 
ATOM     13  O   UNL     1      13.600  14.051  23.587  1.00  0.00    -0.550 OA
ATOM     14  O   UNL     1      13.676  13.329  25.760  1.00  0.00    -0.550 OA
ENDBRANCH  11  12
ENDBRANCH  10  11
ENDBRANCH   9  10
ENDBRANCH   8   9
ENDBRANCH   7   8
ENDBRANCH   6   7
ENDBRANCH   5   6
ENDBRANCH   4   5
ENDBRANCH   3   4
ENDBRANCH   2   3
ENDBRANCH   1   2
BRANCH   1  15
ATOM     15  C   UNL     1      14.104  12.674  31.148  1.00  0.00     0.000 C 
BRANCH  15  16
ATOM     16  C   UNL     1      13.010  13.410  30.364  1.00  0.00     0.000 C 
BRANCH  16  17
ATOM     17  C   UNL     1      12.105  14.216  31.309  1.00  0.00     0.000 C 
BRANCH  17  18
ATOM     18  C   UNL     1      11.043  15.046  30.564  1.00  0.00    -0.000 C 
BRANCH  18  19
ATOM     19  C   UNL     1      11.036  14.883  29.032  1.00  0.00    -0.000 C 
BRANCH  19  20
ATOM     20  C   UNL     1       9.629  14.646  28.460  1.00  0.00    -0.000 C 
BRANCH  20  21
ATOM     21  C   UNL     1       9.344  15.484  27.201  1.00  0.00    -0.000 C 
BRANCH  21  22
ATOM     22  C   UNL     1       8.220  16.527  27.347  1.00  0.00    -0.000 C 
BRANCH  22  23
ATOM     23  C   UNL     1       8.582  17.891  26.736  1.00  0.00    -0.000 C 
BRANCH  23  24
ATOM     24  C   UNL     1       8.400  17.911  25.204  1.00  0.00    -0.000 C 
BRANCH  24  25
ATOM     25  C   UNL     1       7.274  18.846  24.731  1.00  0.00    -0.003 C 
ATOM     26  C   UNL     1       6.883  18.622  23.271  1.00  0.00     0.004 C 
ENDBRANCH  24  25
ENDBRANCH  23  24
ENDBRANCH  22  23
ENDBRANCH  21  22
ENDBRANCH  20  21
ENDBRANCH  19  20
ENDBRANCH  18  19
ENDBRANCH  17  18
ENDBRANCH  16  17
ENDBRANCH  15  16
ENDBRANCH   1  15
TORSDOF 22
ENDMDL
MODEL 5
REMARK VINA RESULT:    -3.596      3.213      6.853
REMARK INTER + INTRA:         -11.992
REMARK INTER:                  -7.452
REMARK INTRA:                  -4.541
REMARK UNBOUND:                -3.771
REMARK SMILES CCCCCCCCCCCCCCCCCCCCCCCC(=O)[O-]
REMARK SMILES IDX 13 1 14 2 15 3 16 4 17 5 18 6 19 7 20 8 21 9 22 10 23 11
REMARK SMILES IDX 24 12 25 13 26 14 12 15 11 16 10 17 9 18 8 19 7 20 6 21 5 22
REMARK SMILES IDX 4 23 3 24 2 25 1 26
REMARK H PARENT
REMARK Flexibility Score: inf
ROOT
ATOM      1  C   UNL     1      19.212  13.149  28.459  1.00  0.00     0.000 C 
ENDROOT
BRANCH   1   2
ATOM      2  C   UNL     1      18.141  12.398  27.659  1.00  0.00     0.000 C 
BRANCH   2   3
ATOM      3  C   UNL     1      17.408  11.379  28.539  1.00  0.00     0.000 C 
BRANCH   3   4
ATOM      4  C   UNL     1      15.928  11.272  28.141  1.00  0.00     0.000 C 
BRANCH   4   5
ATOM      5  C   UNL     1      15.047  10.679  29.255  1.00  0.00     0.000 C 
BRANCH   5   6
ATOM      6  C   UNL     1      13.785  11.496  29.586  1.00  0.00     0.000 C 
BRANCH   6   7
ATOM      7  C   UNL     1      12.800  11.582  28.407  1.00  0.00     0.000 C 
BRANCH   7   8
ATOM      8  C   UNL     1      12.602  13.022  27.901  1.00  0.00     0.000 C 
BRANCH   8   9
ATOM      9  C   UNL     1      11.257  13.669  28.292  1.00  0.00     0.000 C 
BRANCH   9  10
ATOM     10  C   UNL     1      11.367  14.911  29.199  1.00  0.00     0.006 C 
BRANCH  10  11
ATOM     11  C   UNL     1      12.011  14.640  30.569  1.00  0.00     0.053 C 
BRANCH  11  12
ATOM     12  C   UNL     1      10.986  14.526  31.656  1.00  0.00     0.041 C 
ATOM     13  O   UNL     1       9.760  14.608  31.382  1.00  0.00    -0.550 OA
ATOM     14  O   UNL     1      11.387  14.354  32.975  1.00  0.00    -0.550 OA
ENDBRANCH  11  12
ENDBRANCH  10  11
ENDBRANCH   9  10
ENDBRANCH   8   9
ENDBRANCH   7   8
ENDBRANCH   6   7
ENDBRANCH   5   6
ENDBRANCH   4   5
ENDBRANCH   3   4
ENDBRANCH   2   3
ENDBRANCH   1   2
BRANCH   1  15
ATOM     15  C   UNL     1      19.332  14.603  27.986  1.00  0.00     0.000 C 
BRANCH  15  16
ATOM     16  C   UNL     1      19.559  14.673  26.471  1.00  0.00     0.000 C 
BRANCH  16  17
ATOM     17  C   UNL     1      18.679  15.759  25.834  1.00  0.00     0.000 C 
BRANCH  17  18
ATOM     18  C   UNL     1      17.230  15.297  25.594  1.00  0.00    -0.000 C 
BRANCH  18  19
ATOM     19  C   UNL     1      16.166  15.992  26.465  1.00  0.00    -0.000 C 
BRANCH  19  20
ATOM     20  C   UNL     1      15.545  15.057  27.515  1.00  0.00    -0.000 C 
BRANCH  20  21
ATOM     21  C   UNL     1      15.680  15.595  28.952  1.00  0.00    -0.000 C 
BRANCH  21  22
ATOM     22  C   UNL     1      15.995  14.534  30.023  1.00  0.00    -0.000 C 
BRANCH  22  23
ATOM     23  C   UNL     1      17.130  14.956  30.972  1.00  0.00    -0.000 C 
BRANCH  23  24
ATOM     24  C   UNL     1      17.673  13.769  31.795  1.00  0.00    -0.000 C 
BRANCH  24  25
ATOM     25  C   UNL     1      16.627  12.671  32.054  1.00  0.00    -0.003 C 
ATOM     26  C   UNL     1      17.250  11.297  32.299  1.00  0.00     0.004 C 
ENDBRANCH  24  25
ENDBRANCH  23  24
ENDBRANCH  22  23
ENDBRANCH  21  22
ENDBRANCH  20  21
ENDBRANCH  19  20
ENDBRANCH  18  19
ENDBRANCH  17  18
ENDBRANCH  16  17
ENDBRANCH  15  16
ENDBRANCH   1  15
TORSDOF 22
ENDMDL
MODEL 6
REMARK VINA RESULT:    -3.587      3.583      6.311
REMARK INTER + INTRA:         -11.972
REMARK INTER:                  -8.960
REMARK INTRA:                  -3.012
REMARK UNBOUND:                -3.771
REMARK SMILES CCCCCCCCCCCCCCCCCCCCCCCC(=O)[O-]
REMARK SMILES IDX 13 1 14 2 15 3 16 4 17 5 18 6 19 7 20 8 21 9 22 10 23 11
REMARK SMILES IDX 24 12 25 13 26 14 12 15 11 16 10 17 9 18 8 19 7 20 6 21 5 22
REMARK SMILES IDX 4 23 3 24 2 25 1 26
REMARK H PARENT
REMARK Flexibility Score: inf
ROOT
ATOM      1  C   UNL     1      14.912  12.989  31.189  1.00  0.00     0.000 C 
ENDROOT
BRANCH   1   2
ATOM      2  C   UNL     1      13.879  12.360  30.245  1.00  0.00     0.000 C 
BRANCH   2   3
ATOM      3  C   UNL     1      12.451  12.620  30.738  1.00  0.00     0.000 C 
BRANCH   3   4
ATOM      4  C   UNL     1      12.378  13.922  31.549  1.00  0.00     0.000 C 
BRANCH   4   5
ATOM      5  C   UNL     1      11.205  14.827  31.129  1.00  0.00     0.000 C 
BRANCH   5   6
ATOM      6  C   UNL     1       9.849  14.110  30.999  1.00  0.00     0.000 C 
BRANCH   6   7
ATOM      7  C   UNL     1       9.279  14.162  29.571  1.00  0.00     0.000 C 
BRANCH   7   8
ATOM      8  C   UNL     1      10.156  14.983  28.609  1.00  0.00     0.000 C 
BRANCH   8   9
ATOM      9  C   UNL     1       9.506  15.302  27.248  1.00  0.00     0.000 C 
BRANCH   9  10
ATOM     10  C   UNL     1       8.743  16.641  27.184  1.00  0.00     0.006 C 
BRANCH  10  11
ATOM     11  C   UNL     1       8.588  17.214  25.766  1.00  0.00     0.053 C 
BRANCH  11  12
ATOM     12  C   UNL     1       8.008  18.596  25.782  1.00  0.00     0.041 C 
ATOM     13  O   UNL     1       8.021  19.276  26.842  1.00  0.00    -0.550 OA
ATOM     14  O   UNL     1       7.432  19.122  24.633  1.00  0.00    -0.550 OA
ENDBRANCH  11  12
ENDBRANCH  10  11
ENDBRANCH   9  10
ENDBRANCH   8   9
ENDBRANCH   7   8
ENDBRANCH   6   7
ENDBRANCH   5   6
ENDBRANCH   4   5
ENDBRANCH   3   4
ENDBRANCH   2   3
ENDBRANCH   1   2
BRANCH   1  15
ATOM     15  C   UNL     1      16.035  11.997  31.513  1.00  0.00     0.000 C 
BRANCH  15  16
ATOM     16  C   UNL     1      17.140  12.666  32.341  1.00  0.00     0.000 C 
BRANCH  16  17
ATOM     17  C   UNL     1      17.385  14.107  31.867  1.00  0.00     0.000 C 
BRANCH  17  18
ATOM     18  C   UNL     1      18.348  14.192  30.668  1.00  0.00    -0.000 C 
BRANCH  18  19
ATOM     19  C   UNL     1      17.966  15.223  29.590  1.00  0.00    -0.000 C 
BRANCH  19  20
ATOM     20  C   UNL     1      16.561  15.814  29.795  1.00  0.00    -0.000 C 
BRANCH  20  21
ATOM     21  C   UNL     1      15.597  15.483  28.641  1.00  0.00    -0.000 C 
BRANCH  21  22
ATOM     22  C   UNL     1      16.162  15.716  27.227  1.00  0.00    -0.000 C 
BRANCH  22  23
ATOM     23  C   UNL     1      15.862  14.556  26.263  1.00  0.00    -0.000 C 
BRANCH  23  24
ATOM     24  C   UNL     1      15.266  13.331  26.990  1.00  0.00    -0.000 C 
BRANCH  24  25
ATOM     25  C   UNL     1      16.118  12.059  26.848  1.00  0.00    -0.003 C 
ATOM     26  C   UNL     1      17.182  11.926  27.936  1.00  0.00     0.004 C 
ENDBRANCH  24  25
ENDBRANCH  23  24
ENDBRANCH  22  23
ENDBRANCH  21  22
ENDBRANCH  20  21
ENDBRANCH  19  20
ENDBRANCH  18  19
ENDBRANCH  17  18
ENDBRANCH  16  17
ENDBRANCH  15  16
ENDBRANCH   1  15
TORSDOF 22
ENDMDL
MODEL 7
REMARK VINA RESULT:    -3.582      2.034      4.084
REMARK INTER + INTRA:         -11.960
REMARK INTER:                  -7.527
REMARK INTRA:                  -4.433
REMARK UNBOUND:                -3.771
REMARK SMILES CCCCCCCCCCCCCCCCCCCCCCCC(=O)[O-]
REMARK SMILES IDX 13 1 14 2 15 3 16 4 17 5 18 6 19 7 20 8 21 9 22 10 23 11
REMARK SMILES IDX 24 12 25 13 26 14 12 15 11 16 10 17 9 18 8 19 7 20 6 21 5 22
REMARK SMILES IDX 4 23 3 24 2 25 1 26
REMARK H PARENT
REMARK Flexibility Score: inf
ROOT
ATOM      1  C   UNL     1      19.430  12.188  29.234  1.00  0.00     0.000 C 
ENDROOT
BRANCH   1   2
ATOM      2  C   UNL     1      20.363  13.402  29.132  1.00  0.00     0.000 C 
BRANCH   2   3
ATOM      3  C   UNL     1      20.411  14.173  30.456  1.00  0.00     0.000 C 
BRANCH   3   4
ATOM      4  C   UNL     1      19.913  13.301  31.619  1.00  0.00     0.000 C 
BRANCH   4   5
ATOM      5  C   UNL     1      18.727  13.926  32.375  1.00  0.00     0.000 C 
BRANCH   5   6
ATOM      6  C   UNL     1      17.384  13.197  32.191  1.00  0.00     0.000 C 
BRANCH   6   7
ATOM      7  C   UNL     1      16.446  13.910  31.203  1.00  0.00     0.000 C 
BRANCH   7   8
ATOM      8  C   UNL     1      16.996  15.269  30.735  1.00  0.00     0.000 C 
BRANCH   8   9
ATOM      9  C   UNL     1      16.181  15.949  29.616  1.00  0.00     0.000 C 
BRANCH   9  10
ATOM     10  C   UNL     1      15.714  15.013  28.484  1.00  0.00     0.006 C 
BRANCH  10  11
ATOM     11  C   UNL     1      15.889  15.591  27.071  1.00  0.00     0.053 C 
BRANCH  11  12
ATOM     12  C   UNL     1      15.748  14.539  26.014  1.00  0.00     0.041 C 
ATOM     13  O   UNL     1      14.609  14.100  25.704  1.00  0.00    -0.550 OA
ATOM     14  O   UNL     1      16.877  14.025  25.387  1.00  0.00    -0.550 OA
ENDBRANCH  11  12
ENDBRANCH  10  11
ENDBRANCH   9  10
ENDBRANCH   8   9
ENDBRANCH   7   8
ENDBRANCH   6   7
ENDBRANCH   5   6
ENDBRANCH   4   5
ENDBRANCH   3   4
ENDBRANCH   2   3
ENDBRANCH   1   2
BRANCH   1  15
ATOM     15  C   UNL     1      18.211  12.355  28.320  1.00  0.00     0.000 C 
BRANCH  15  16
ATOM     16  C   UNL     1      17.355  11.083  28.305  1.00  0.00     0.000 C 
BRANCH  16  17
ATOM     17  C   UNL     1      17.248  10.475  29.711  1.00  0.00     0.000 C 
BRANCH  17  18
ATOM     18  C   UNL     1      15.799  10.405  30.229  1.00  0.00    -0.000 C 
BRANCH  18  19
ATOM     19  C   UNL     1      14.761  11.167  29.385  1.00  0.00    -0.000 C 
BRANCH  19  20
ATOM     20  C   UNL     1      13.387  11.266  30.068  1.00  0.00    -0.000 C 
BRANCH  20  21
ATOM     21  C   UNL     1      13.472  11.804  31.509  1.00  0.00    -0.000 C 
BRANCH  21  22
ATOM     22  C   UNL     1      12.611  13.049  31.796  1.00  0.00    -0.000 C 
BRANCH  22  23
ATOM     23  C   UNL     1      12.856  14.192  30.795  1.00  0.00    -0.000 C 
BRANCH  23  24
ATOM     24  C   UNL     1      11.553  14.932  30.426  1.00  0.00    -0.000 C 
BRANCH  24  25
ATOM     25  C   UNL     1      10.995  14.545  29.046  1.00  0.00    -0.003 C 
ATOM     26  C   UNL     1      12.055  13.957  28.116  1.00  0.00     0.004 C 
ENDBRANCH  24  25
ENDBRANCH  23  24
ENDBRANCH  22  23
ENDBRANCH  21  22
ENDBRANCH  20  21
ENDBRANCH  19  20
ENDBRANCH  18  19
ENDBRANCH  17  18
ENDBRANCH  16  17
ENDBRANCH  15  16
ENDBRANCH   1  15
TORSDOF 22
ENDMDL
MODEL 8
REMARK VINA RESULT:    -3.579      3.012      6.727
REMARK INTER + INTRA:         -11.954
REMARK INTER:                  -8.080
REMARK INTRA:                  -3.874
REMARK UNBOUND:                -3.771
REMARK SMILES CCCCCCCCCCCCCCCCCCCCCCCC(=O)[O-]
REMARK SMILES IDX 13 1 14 2 15 3 16 4 17 5 18 6 19 7 20 8 21 9 22 10 23 11
REMARK SMILES IDX 24 12 25 13 26 14 12 15 11 16 10 17 9 18 8 19 7 20 6 21 5 22
REMARK SMILES IDX 4 23 3 24 2 25 1 26
REMARK H PARENT
REMARK Flexibility Score: inf
ROOT
ATOM      1  C   UNL     1      15.915  15.631  27.928  1.00  0.00     0.000 C 
ENDROOT
BRANCH   1   2
ATOM      2  C   UNL     1      16.147  15.962  29.407  1.00  0.00     0.000 C 
BRANCH   2   3
ATOM      3  C   UNL     1      17.385  15.237  29.947  1.00  0.00     0.000 C 
BRANCH   3   4
ATOM      4  C   UNL     1      17.059  14.485  31.246  1.00  0.00     0.000 C 
BRANCH   4   5
ATOM      5  C   UNL     1      17.020  12.957  31.063  1.00  0.00     0.000 C 
BRANCH   5   6
ATOM      6  C   UNL     1      16.067  12.461  29.961  1.00  0.00     0.000 C 
BRANCH   6   7
ATOM      7  C   UNL     1      14.649  12.172  30.481  1.00  0.00     0.000 C 
BRANCH   7   8
ATOM      8  C   UNL     1      13.576  13.038  29.798  1.00  0.00     0.000 C 
BRANCH   8   9
ATOM      9  C   UNL     1      13.219  14.339  30.544  1.00  0.00     0.000 C 
BRANCH   9  10
ATOM     10  C   UNL     1      11.721  14.706  30.541  1.00  0.00     0.006 C 
BRANCH  10  11
ATOM     11  C   UNL     1      10.837  13.765  31.374  1.00  0.00     0.053 C 
BRANCH  11  12
ATOM     12  C   UNL     1      11.417  13.508  32.732  1.00  0.00     0.041 C 
ATOM     13  O   UNL     1      11.391  14.408  33.612  1.00  0.00    -0.550 OA
ATOM     14  O   UNL     1      12.007  12.283  33.016  1.00  0.00    -0.550 OA
ENDBRANCH  11  12
ENDBRANCH  10  11
ENDBRANCH   9  10
ENDBRANCH   8   9
ENDBRANCH   7   8
ENDBRANCH   6   7
ENDBRANCH   5   6
ENDBRANCH   4   5
ENDBRANCH   3   4
ENDBRANCH   2   3
ENDBRANCH   1   2
BRANCH   1  15
ATOM     15  C   UNL     1      17.145  14.948  27.319  1.00  0.00     0.000 C 
BRANCH  15  16
ATOM     16  C   UNL     1      17.509  15.570  25.965  1.00  0.00     0.000 C 
BRANCH  16  17
ATOM     17  C   UNL     1      16.289  16.251  25.328  1.00  0.00     0.000 C 
BRANCH  17  18
ATOM     18  C   UNL     1      15.867  15.607  23.994  1.00  0.00    -0.000 C 
BRANCH  18  19
ATOM     19  C   UNL     1      14.760  14.541  24.100  1.00  0.00    -0.000 C 
BRANCH  19  20
ATOM     20  C   UNL     1      15.303  13.143  24.440  1.00  0.00    -0.000 C 
BRANCH  20  21
ATOM     21  C   UNL     1      14.582  12.495  25.637  1.00  0.00    -0.000 C 
BRANCH  21  22
ATOM     22  C   UNL     1      13.497  13.366  26.298  1.00  0.00    -0.000 C 
BRANCH  22  23
ATOM     23  C   UNL     1      12.072  12.843  26.049  1.00  0.00    -0.000 C 
BRANCH  23  24
ATOM     24  C   UNL     1      11.078  13.322  27.128  1.00  0.00    -0.000 C 
BRANCH  24  25
ATOM     25  C   UNL     1      10.021  14.306  26.596  1.00  0.00    -0.003 C 
ATOM     26  C   UNL     1       9.401  15.169  27.694  1.00  0.00     0.004 C 
ENDBRANCH  24  25
ENDBRANCH  23  24
ENDBRANCH  22  23
ENDBRANCH  21  22
ENDBRANCH  20  21
ENDBRANCH  19  20
ENDBRANCH  18  19
ENDBRANCH  17  18
ENDBRANCH  16  17
ENDBRANCH  15  16
ENDBRANCH   1  15
TORSDOF 22
ENDMDL
MODEL 9
REMARK VINA RESULT:    -3.475      3.862      6.836
REMARK INTER + INTRA:         -11.716
REMARK INTER:                  -8.153
REMARK INTRA:                  -3.563
REMARK UNBOUND:                -3.771
REMARK SMILES CCCCCCCCCCCCCCCCCCCCCCCC(=O)[O-]
REMARK SMILES IDX 13 1 14 2 15 3 16 4 17 5 18 6 19 7 20 8 21 9 22 10 23 11
REMARK SMILES IDX 24 12 25 13 26 14 12 15 11 16 10 17 9 18 8 19 7 20 6 21 5 22
REMARK SMILES IDX 4 23 3 24 2 25 1 26
REMARK H PARENT
REMARK Flexibility Score: inf
ROOT
ATOM      1  C   UNL     1      13.084  12.151  31.796  1.00  0.00     0.000 C 
ENDROOT
BRANCH   1   2
ATOM      2  C   UNL     1      11.630  12.620  31.929  1.00  0.00     0.000 C 
BRANCH   2   3
ATOM      3  C   UNL     1      11.555  14.143  32.094  1.00  0.00     0.000 C 
BRANCH   3   4
ATOM      4  C   UNL     1      10.472  14.742  31.184  1.00  0.00     0.000 C 
BRANCH   4   5
ATOM      5  C   UNL     1      11.032  15.273  29.852  1.00  0.00     0.000 C 
BRANCH   5   6
ATOM      6  C   UNL     1      10.820  14.343  28.644  1.00  0.00     0.000 C 
BRANCH   6   7
ATOM      7  C   UNL     1       9.336  14.045  28.370  1.00  0.00     0.000 C 
BRANCH   7   8
ATOM      8  C   UNL     1       8.469  15.316  28.341  1.00  0.00     0.000 C 
BRANCH   8   9
ATOM      9  C   UNL     1       7.977  15.735  26.941  1.00  0.00     0.000 C 
BRANCH   9  10
ATOM     10  C   UNL     1       8.796  16.854  26.266  1.00  0.00     0.006 C 
BRANCH  10  11
ATOM     11  C   UNL     1       8.420  18.274  26.718  1.00  0.00     0.053 C 
BRANCH  11  12
ATOM     12  C   UNL     1       7.213  18.790  25.996  1.00  0.00     0.041 C 
ATOM     13  O   UNL     1       6.126  18.949  26.612  1.00  0.00    -0.550 OA
ATOM     14  O   UNL     1       7.282  19.072  24.637  1.00  0.00    -0.550 OA
ENDBRANCH  11  12
ENDBRANCH  10  11
ENDBRANCH   9  10
ENDBRANCH   8   9
ENDBRANCH   7   8
ENDBRANCH   6   7
ENDBRANCH   5   6
ENDBRANCH   4   5
ENDBRANCH   3   4
ENDBRANCH   2   3
ENDBRANCH   1   2
BRANCH   1  15
ATOM     15  C   UNL     1      13.871  13.063  30.848  1.00  0.00     0.000 C 
BRANCH  15  16
ATOM     16  C   UNL     1      14.107  12.381  29.495  1.00  0.00     0.000 C 
BRANCH  16  17
ATOM     17  C   UNL     1      14.423  13.417  28.405  1.00  0.00     0.000 C 
BRANCH  17  18
ATOM     18  C   UNL     1      14.604  14.842  28.962  1.00  0.00    -0.000 C 
BRANCH  18  19
ATOM     19  C   UNL     1      16.017  15.434  28.805  1.00  0.00    -0.000 C 
BRANCH  19  20
ATOM     20  C   UNL     1      16.560  16.046  30.107  1.00  0.00    -0.000 C 
BRANCH  20  21
ATOM     21  C   UNL     1      17.742  15.254  30.694  1.00  0.00    -0.000 C 
BRANCH  21  22
ATOM     22  C   UNL     1      17.356  14.123  31.667  1.00  0.00    -0.000 C 
BRANCH  22  23
ATOM     23  C   UNL     1      17.371  12.733  31.009  1.00  0.00    -0.000 C 
BRANCH  23  24
ATOM     24  C   UNL     1      18.468  12.611  29.930  1.00  0.00    -0.000 C 
BRANCH  24  25
ATOM     25  C   UNL     1      17.940  12.129  28.568  1.00  0.00    -0.003 C 
ATOM     26  C   UNL     1      18.302  13.069  27.419  1.00  0.00     0.004 C 
ENDBRANCH  24  25
ENDBRANCH  23  24
ENDBRANCH  22  23
ENDBRANCH  21  22
ENDBRANCH  20  21
ENDBRANCH  19  20
ENDBRANCH  18  19
ENDBRANCH  17  18
ENDBRANCH  16  17
ENDBRANCH  15  16
ENDBRANCH   1  15
TORSDOF 22
ENDMDL
