MODEL 1
REMARK VINA RESULT:    -2.284      0.000      0.000
REMARK INTER + INTRA:          -2.559
REMARK INTER:                  -2.751
REMARK INTRA:                   0.193
REMARK UNBOUND:                 0.193
REMARK SMILES O=c1c(O)c(-c2ccc(O)c(O)c2)oc2cc(O)cc(O)c12
REMARK SMILES IDX 5 1 3 2 2 3 1 4 22 5 20 6 19 7 17 8 16 9 15 10 14 11 6 12
REMARK SMILES IDX 7 13 8 14 9 15 13 16 11 17 10 18 12 20 4 22 21 24 18 26
REMARK H PARENT 10 19 12 21 4 23 21 25 18 27
REMARK Flexibility Score: inf
ROOT
ATOM      1  C   UNL     1       8.190  75.509 227.060  1.00  0.00     0.180 A 
ATOM      2  C   UNL     1       7.093  75.511 227.940  1.00  0.00     0.208 A 
ATOM      3  C   UNL     1       7.288  75.913 229.271  1.00  0.00     0.238 A 
ATOM      4  O   UNL     1       6.288  75.984 230.032  1.00  0.00    -0.285 OA
ATOM      5  C   UNL     1       8.586  76.255 229.721  1.00  0.00     0.111 A 
ATOM      6  C   UNL     1       8.907  76.633 231.061  1.00  0.00     0.134 A 
ATOM      7  C   UNL     1      10.208  77.053 231.366  1.00  0.00     0.093 A 
ATOM      8  C   UNL     1      11.214  77.045 230.397  1.00  0.00     0.123 A 
ATOM      9  C   UNL     1      10.923  76.626 229.101  1.00  0.00     0.094 A 
ATOM     10  C   UNL     1       9.626  76.238 228.756  1.00  0.00     0.146 A 
ATOM     11  O   UNL     1       9.390  75.865 227.503  1.00  0.00    -0.452 OA
ENDROOT
BRANCH   1  12
ATOM     12  C   UNL     1       8.061  75.111 225.641  1.00  0.00     0.025 A 
ATOM     13  C   UNL     1       7.241  74.024 225.301  1.00  0.00     0.016 A 
ATOM     14  C   UNL     1       7.121  73.617 223.969  1.00  0.00     0.051 A 
ATOM     15  C   UNL     1       7.832  74.280 222.961  1.00  0.00     0.157 A 
ATOM     16  C   UNL     1       8.788  75.762 224.627  1.00  0.00     0.062 A 
ATOM     17  C   UNL     1       8.673  75.355 223.293  1.00  0.00     0.158 A 
BRANCH  15  18
ATOM     18  O   UNL     1       7.708  73.874 221.632  1.00  0.00    -0.504 OA
ATOM     19  H   UNL     1       6.972  74.231 221.034  1.00  0.00     0.293 HD
ENDBRANCH  15  18
BRANCH  17  20
ATOM     20  O   UNL     1       9.404  76.027 222.315  1.00  0.00    -0.504 OA
ATOM     21  H   UNL     1       9.056  76.865 221.864  1.00  0.00     0.293 HD
ENDBRANCH  17  20
ENDBRANCH   1  12
BRANCH   2  22
ATOM     22  O   UNL     1       5.834  75.096 227.495  1.00  0.00    -0.502 OA
ATOM     23  H   UNL     1       5.690  74.220 227.009  1.00  0.00     0.293 HD
ENDBRANCH   2  22
BRANCH   6  24
ATOM     24  O   UNL     1       8.002  76.593 232.125  1.00  0.00    -0.507 OA
ATOM     25  H   UNL     1       7.024  76.829 232.060  1.00  0.00     0.293 HD
ENDBRANCH   6  24
BRANCH   8  26
ATOM     26  O   UNL     1      12.510  77.448 230.714  1.00  0.00    -0.508 OA
ATOM     27  H   UNL     1      12.781  78.424 230.695  1.00  0.00     0.293 HD
ENDBRANCH   8  26
TORSDOF 6
ENDMDL
MODEL 2
REMARK VINA RESULT:    -2.088      1.267      3.043
REMARK INTER + INTRA:          -2.322
REMARK INTER:                  -2.469
REMARK INTRA:                   0.147
REMARK UNBOUND:                 0.193
REMARK SMILES O=c1c(O)c(-c2ccc(O)c(O)c2)oc2cc(O)cc(O)c12
REMARK SMILES IDX 5 1 3 2 2 3 1 4 22 5 20 6 19 7 17 8 16 9 15 10 14 11 6 12
REMARK SMILES IDX 7 13 8 14 9 15 13 16 11 17 10 18 12 20 4 22 21 24 18 26
REMARK H PARENT 10 19 12 21 4 23 21 25 18 27
REMARK Flexibility Score: inf
ROOT
ATOM      1  C   UNL     1       8.158  75.495 227.335  1.00  0.00     0.180 A 
ATOM      2  C   UNL     1       9.400  75.845 227.893  1.00  0.00     0.208 A 
ATOM      3  C   UNL     1       9.462  76.189 229.253  1.00  0.00     0.238 A 
ATOM      4  O   UNL     1      10.587  76.429 229.764  1.00  0.00    -0.285 OA
ATOM      5  C   UNL     1       8.275  76.233 230.024  1.00  0.00     0.111 A 
ATOM      6  C   UNL     1       8.214  76.613 231.400  1.00  0.00     0.134 A 
ATOM      7  C   UNL     1       6.998  76.517 232.088  1.00  0.00     0.093 A 
ATOM      8  C   UNL     1       5.830  76.118 231.436  1.00  0.00     0.123 A 
ATOM      9  C   UNL     1       5.868  75.799 230.081  1.00  0.00     0.094 A 
ATOM     10  C   UNL     1       7.073  75.847 229.376  1.00  0.00     0.146 A 
ATOM     11  O   UNL     1       7.067  75.514 228.090  1.00  0.00    -0.452 OA
ENDROOT
BRANCH   1  12
ATOM     12  C   UNL     1       8.016  75.107 225.913  1.00  0.00     0.025 A 
ATOM     13  C   UNL     1       7.202  74.014 225.574  1.00  0.00     0.016 A 
ATOM     14  C   UNL     1       7.070  73.617 224.241  1.00  0.00     0.051 A 
ATOM     15  C   UNL     1       7.762  74.295 223.230  1.00  0.00     0.157 A 
ATOM     16  C   UNL     1       8.725  75.772 224.897  1.00  0.00     0.062 A 
ATOM     17  C   UNL     1       8.597  75.375 223.560  1.00  0.00     0.158 A 
BRANCH  15  18
ATOM     18  O   UNL     1       7.626  73.898 221.899  1.00  0.00    -0.504 OA
ATOM     19  H   UNL     1       8.388  73.458 221.397  1.00  0.00     0.293 HD
ENDBRANCH  15  18
BRANCH  17  20
ATOM     20  O   UNL     1       9.310  76.062 222.579  1.00  0.00    -0.504 OA
ATOM     21  H   UNL     1       8.855  76.473 221.773  1.00  0.00     0.293 HD
ENDBRANCH  17  20
ENDBRANCH   1  12
BRANCH   2  22
ATOM     22  O   UNL     1      10.548  75.869 227.097  1.00  0.00    -0.502 OA
ATOM     23  H   UNL     1      11.231  76.616 227.148  1.00  0.00     0.293 HD
ENDBRANCH   2  22
BRANCH   6  24
ATOM     24  O   UNL     1       9.301  77.109 232.125  1.00  0.00    -0.507 OA
ATOM     25  H   UNL     1       9.567  76.804 233.048  1.00  0.00     0.293 HD
ENDBRANCH   6  24
BRANCH   8  26
ATOM     26  O   UNL     1       4.621  76.043 232.125  1.00  0.00    -0.508 OA
ATOM     27  H   UNL     1       4.555  75.597 233.032  1.00  0.00     0.293 HD
ENDBRANCH   8  26
TORSDOF 6
ENDMDL
MODEL 3
REMARK VINA RESULT:    -1.656      1.616      6.581
REMARK INTER + INTRA:          -1.803
REMARK INTER:                  -2.029
REMARK INTRA:                   0.227
REMARK UNBOUND:                 0.193
REMARK SMILES O=c1c(O)c(-c2ccc(O)c(O)c2)oc2cc(O)cc(O)c12
REMARK SMILES IDX 5 1 3 2 2 3 1 4 22 5 20 6 19 7 17 8 16 9 15 10 14 11 6 12
REMARK SMILES IDX 7 13 8 14 9 15 13 16 11 17 10 18 12 20 4 22 21 24 18 26
REMARK H PARENT 10 19 12 21 4 23 21 25 18 27
REMARK Flexibility Score: inf
ROOT
ATOM      1  C   UNL     1       9.397  76.512 229.591  1.00  0.00     0.180 A 
ATOM      2  C   UNL     1       8.255  76.147 230.324  1.00  0.00     0.208 A 
ATOM      3  C   UNL     1       7.251  75.395 229.692  1.00  0.00     0.238 A 
ATOM      4  O   UNL     1       6.267  75.008 230.374  1.00  0.00    -0.285 OA
ATOM      5  C   UNL     1       7.376  75.065 228.321  1.00  0.00     0.111 A 
ATOM      6  C   UNL     1       6.398  74.346 227.566  1.00  0.00     0.134 A 
ATOM      7  C   UNL     1       6.678  73.985 226.242  1.00  0.00     0.093 A 
ATOM      8  C   UNL     1       7.869  74.373 225.625  1.00  0.00     0.123 A 
ATOM      9  C   UNL     1       8.804  75.121 226.335  1.00  0.00     0.094 A 
ATOM     10  C   UNL     1       8.572  75.464 227.669  1.00  0.00     0.146 A 
ATOM     11  O   UNL     1       9.500  76.161 228.314  1.00  0.00    -0.452 OA
ENDROOT
BRANCH   1  12
ATOM     12  C   UNL     1      10.503  77.292 230.191  1.00  0.00     0.025 A 
ATOM     13  C   UNL     1      10.857  77.067 231.531  1.00  0.00     0.016 A 
ATOM     14  C   UNL     1      11.883  77.807 232.125  1.00  0.00     0.051 A 
ATOM     15  C   UNL     1      12.558  78.793 231.394  1.00  0.00     0.157 A 
ATOM     16  C   UNL     1      11.169  78.297 229.467  1.00  0.00     0.062 A 
ATOM     17  C   UNL     1      12.195  79.042 230.060  1.00  0.00     0.158 A 
BRANCH  15  18
ATOM     18  O   UNL     1      13.583  79.529 231.989  1.00  0.00    -0.504 OA
ATOM     19  H   UNL     1      14.240  79.100 232.630  1.00  0.00     0.293 HD
ENDBRANCH  15  18
BRANCH  17  20
ATOM     20  O   UNL     1      12.837  80.026 229.310  1.00  0.00    -0.504 OA
ATOM     21  H   UNL     1      12.470  80.354 228.425  1.00  0.00     0.293 HD
ENDBRANCH  17  20
ENDBRANCH   1  12
BRANCH   2  22
ATOM     22  O   UNL     1       8.115  76.548 231.656  1.00  0.00    -0.502 OA
ATOM     23  H   UNL     1       7.982  75.887 232.412  1.00  0.00     0.293 HD
ENDBRANCH   2  22
BRANCH   6  24
ATOM     24  O   UNL     1       5.140  73.986 228.056  1.00  0.00    -0.507 OA
ATOM     25  H   UNL     1       4.758  73.052 228.038  1.00  0.00     0.293 HD
ENDBRANCH   6  24
BRANCH   8  26
ATOM     26  O   UNL     1       8.131  74.024 224.302  1.00  0.00    -0.508 OA
ATOM     27  H   UNL     1       9.071  73.824 223.982  1.00  0.00     0.293 HD
ENDBRANCH   8  26
TORSDOF 6
ENDMDL
