MODEL 1
REMARK VINA RESULT:    -3.964      0.000      0.000
REMARK INTER + INTRA:          -4.780
REMARK INTER:                  -4.660
REMARK INTRA:                  -0.121
REMARK UNBOUND:                -0.121
REMARK SMILES O=C([O-])CCC(=O)[O-]
REMARK SMILES IDX 4 1 2 2 1 3 3 4 5 5 6 6 7 7 8 8
REMARK H PARENT
REMARK Flexibility Score: inf
ROOT
ATOM      1  C   UNL     1       1.406  20.715 -19.744  1.00  0.00     0.059 C 
ENDROOT
BRANCH   1   2
ATOM      2  C   UNL     1       2.664  20.432 -20.502  1.00  0.00     0.042 C 
ATOM      3  O   UNL     1       3.325  21.376 -21.008  1.00  0.00    -0.550 OA
ATOM      4  O   UNL     1       3.081  19.120 -20.693  1.00  0.00    -0.550 OA
ENDBRANCH   1   2
BRANCH   1   5
ATOM      5  C   UNL     1       1.444  22.123 -19.150  1.00  0.00     0.059 C 
BRANCH   5   6
ATOM      6  C   UNL     1       2.141  22.114 -17.826  1.00  0.00     0.042 C 
ATOM      7  O   UNL     1       1.729  21.369 -16.899  1.00  0.00    -0.550 OA
ATOM      8  O   UNL     1       3.275  22.892 -17.631  1.00  0.00    -0.550 OA
ENDBRANCH   5   6
ENDBRANCH   1   5
TORSDOF 3
ENDMDL
MODEL 2
REMARK VINA RESULT:    -3.959      0.073      3.726
REMARK INTER + INTRA:          -4.774
REMARK INTER:                  -4.661
REMARK INTRA:                  -0.113
REMARK UNBOUND:                -0.121
REMARK SMILES O=C([O-])CCC(=O)[O-]
REMARK SMILES IDX 4 1 2 2 1 3 3 4 5 5 6 6 7 7 8 8
REMARK H PARENT
REMARK Flexibility Score: inf
ROOT
ATOM      1  C   UNL     1       1.427  22.086 -19.138  1.00  0.00     0.059 C 
ENDROOT
BRANCH   1   2
ATOM      2  C   UNL     1       2.150  22.094 -17.828  1.00  0.00     0.042 C 
ATOM      3  O   UNL     1       1.750  21.369 -16.880  1.00  0.00    -0.550 OA
ATOM      4  O   UNL     1       3.235  22.939 -17.638  1.00  0.00    -0.550 OA
ENDBRANCH   1   2
BRANCH   1   5
ATOM      5  C   UNL     1       1.445  20.686 -19.751  1.00  0.00     0.059 C 
BRANCH   5   6
ATOM      6  C   UNL     1       2.706  20.471 -20.528  1.00  0.00     0.042 C 
ATOM      7  O   UNL     1       3.331  21.455 -21.004  1.00  0.00    -0.550 OA
ATOM      8  O   UNL     1       3.216  19.190 -20.687  1.00  0.00    -0.550 OA
ENDBRANCH   5   6
ENDBRANCH   1   5
TORSDOF 3
ENDMDL
MODEL 3
REMARK VINA RESULT:    -3.606      8.855     10.127
REMARK INTER + INTRA:          -4.359
REMARK INTER:                  -4.250
REMARK INTRA:                  -0.109
REMARK UNBOUND:                -0.121
REMARK SMILES O=C([O-])CCC(=O)[O-]
REMARK SMILES IDX 4 1 2 2 1 3 3 4 5 5 6 6 7 7 8 8
REMARK H PARENT
REMARK Flexibility Score: inf
ROOT
ATOM      1  C   UNL     1       8.479  24.303 -12.289  1.00  0.00     0.059 C 
ENDROOT
BRANCH   1   2
ATOM      2  C   UNL     1       7.284  25.104 -12.700  1.00  0.00     0.042 C 
ATOM      3  O   UNL     1       7.422  26.295 -13.084  1.00  0.00    -0.550 OA
ATOM      4  O   UNL     1       6.013  24.552 -12.612  1.00  0.00    -0.550 OA
ENDBRANCH   1   2
BRANCH   1   5
ATOM      5  C   UNL     1       8.591  24.252 -10.766  1.00  0.00     0.059 C 
BRANCH   5   6
ATOM      6  C   UNL     1       8.109  22.934 -10.249  1.00  0.00     0.042 C 
ATOM      7  O   UNL     1       8.105  21.923 -10.999  1.00  0.00    -0.550 OA
ATOM      8  O   UNL     1       7.708  22.809  -8.926  1.00  0.00    -0.550 OA
ENDBRANCH   5   6
ENDBRANCH   1   5
TORSDOF 3
ENDMDL
MODEL 4
REMARK VINA RESULT:    -3.580      8.884     10.249
REMARK INTER + INTRA:          -4.329
REMARK INTER:                  -4.226
REMARK INTRA:                  -0.103
REMARK UNBOUND:                -0.121
REMARK SMILES O=C([O-])CCC(=O)[O-]
REMARK SMILES IDX 4 1 2 2 1 3 3 4 5 5 6 6 7 7 8 8
REMARK H PARENT
REMARK Flexibility Score: inf
ROOT
ATOM      1  C   UNL     1       8.558  24.300 -10.722  1.00  0.00     0.059 C 
ENDROOT
BRANCH   1   2
ATOM      2  C   UNL     1       8.064  22.987 -10.202  1.00  0.00     0.042 C 
ATOM      3  O   UNL     1       7.660  22.888  -9.014  1.00  0.00    -0.550 OA
ATOM      4  O   UNL     1       8.096  21.860 -11.014  1.00  0.00    -0.550 OA
ENDBRANCH   1   2
BRANCH   1   5
ATOM      5  C   UNL     1       8.460  24.343 -12.247  1.00  0.00     0.059 C 
BRANCH   5   6
ATOM      6  C   UNL     1       7.257  25.124 -12.672  1.00  0.00     0.042 C 
ATOM      7  O   UNL     1       6.113  24.601 -12.626  1.00  0.00    -0.550 OA
ATOM      8  O   UNL     1       7.392  26.447 -13.073  1.00  0.00    -0.550 OA
ENDBRANCH   5   6
ENDBRANCH   1   5
TORSDOF 3
ENDMDL
MODEL 5
REMARK VINA RESULT:    -3.579      1.301      3.595
REMARK INTER + INTRA:          -4.327
REMARK INTER:                  -4.245
REMARK INTRA:                  -0.083
REMARK UNBOUND:                -0.121
REMARK SMILES O=C([O-])CCC(=O)[O-]
REMARK SMILES IDX 4 1 2 2 1 3 3 4 5 5 6 6 7 7 8 8
REMARK H PARENT
REMARK Flexibility Score: inf
ROOT
ATOM      1  C   UNL     1       2.747  23.070 -17.999  1.00  0.00     0.059 C 
ENDROOT
BRANCH   1   2
ATOM      2  C   UNL     1       2.820  22.106 -16.859  1.00  0.00     0.042 C 
ATOM      3  O   UNL     1       1.799  21.458 -16.509  1.00  0.00    -0.550 OA
ATOM      4  O   UNL     1       4.005  21.958 -16.148  1.00  0.00    -0.550 OA
ENDBRANCH   1   2
BRANCH   1   5
ATOM      5  C   UNL     1       1.665  22.644 -18.992  1.00  0.00     0.059 C 
BRANCH   5   6
ATOM      6  C   UNL     1       2.138  21.489 -19.817  1.00  0.00     0.042 C 
ATOM      7  O   UNL     1       1.509  20.399 -19.799  1.00  0.00    -0.550 OA
ATOM      8  O   UNL     1       3.246  21.630 -20.642  1.00  0.00    -0.550 OA
ENDBRANCH   5   6
ENDBRANCH   1   5
TORSDOF 3
ENDMDL
MODEL 6
REMARK VINA RESULT:    -3.563     12.707     13.688
REMARK INTER + INTRA:          -4.309
REMARK INTER:                  -4.251
REMARK INTRA:                  -0.058
REMARK UNBOUND:                -0.121
REMARK SMILES O=C([O-])CCC(=O)[O-]
REMARK SMILES IDX 4 1 2 2 1 3 3 4 5 5 6 6 7 7 8 8
REMARK H PARENT
REMARK Flexibility Score: inf
ROOT
ATOM      1  C   UNL     1      -4.651  31.793 -16.930  1.00  0.00     0.059 C 
ENDROOT
BRANCH   1   2
ATOM      2  C   UNL     1      -4.085  31.747 -18.314  1.00  0.00     0.042 C 
ATOM      3  O   UNL     1      -4.731  31.198 -19.245  1.00  0.00    -0.550 OA
ATOM      4  O   UNL     1      -2.822  32.267 -18.567  1.00  0.00    -0.550 OA
ENDBRANCH   1   2
BRANCH   1   5
ATOM      5  C   UNL     1      -6.171  31.636 -16.968  1.00  0.00     0.059 C 
BRANCH   5   6
ATOM      6  C   UNL     1      -6.822  32.630 -16.059  1.00  0.00     0.042 C 
ATOM      7  O   UNL     1      -7.719  32.262 -15.257  1.00  0.00    -0.550 OA
ATOM      8  O   UNL     1      -6.405  33.955 -16.064  1.00  0.00    -0.550 OA
ENDBRANCH   5   6
ENDBRANCH   1   5
TORSDOF 3
ENDMDL
MODEL 7
REMARK VINA RESULT:    -3.535     12.213     13.121
REMARK INTER + INTRA:          -4.275
REMARK INTER:                  -4.174
REMARK INTRA:                  -0.101
REMARK UNBOUND:                -0.121
REMARK SMILES O=C([O-])CCC(=O)[O-]
REMARK SMILES IDX 4 1 2 2 1 3 3 4 5 5 6 6 7 7 8 8
REMARK H PARENT
REMARK Flexibility Score: inf
ROOT
ATOM      1  C   UNL     1      -4.776  31.449 -18.820  1.00  0.00     0.059 C 
ENDROOT
BRANCH   1   2
ATOM      2  C   UNL     1      -6.016  31.869 -18.095  1.00  0.00     0.042 C 
ATOM      3  O   UNL     1      -6.861  32.609 -18.662  1.00  0.00    -0.550 OA
ATOM      4  O   UNL     1      -6.214  31.483 -16.775  1.00  0.00    -0.550 OA
ENDBRANCH   1   2
BRANCH   1   5
ATOM      5  C   UNL     1      -3.842  32.642 -19.018  1.00  0.00     0.059 C 
BRANCH   5   6
ATOM      6  C   UNL     1      -2.592  32.467 -18.215  1.00  0.00     0.042 C 
ATOM      7  O   UNL     1      -2.660  32.204 -16.986  1.00  0.00    -0.550 OA
ATOM      8  O   UNL     1      -1.351  32.545 -18.833  1.00  0.00    -0.550 OA
ENDBRANCH   5   6
ENDBRANCH   1   5
TORSDOF 3
ENDMDL
MODEL 8
REMARK VINA RESULT:    -3.530     12.255     13.134
REMARK INTER + INTRA:          -4.269
REMARK INTER:                  -4.170
REMARK INTRA:                  -0.100
REMARK UNBOUND:                -0.121
REMARK SMILES O=C([O-])CCC(=O)[O-]
REMARK SMILES IDX 4 1 2 2 1 3 3 4 5 5 6 6 7 7 8 8
REMARK H PARENT
REMARK Flexibility Score: inf
ROOT
ATOM      1  C   UNL     1      -3.863  32.635 -19.073  1.00  0.00     0.059 C 
ENDROOT
BRANCH   1   2
ATOM      2  C   UNL     1      -2.607  32.500 -18.272  1.00  0.00     0.042 C 
ATOM      3  O   UNL     1      -1.485  32.549 -18.840  1.00  0.00    -0.550 OA
ATOM      4  O   UNL     1      -2.677  32.270 -16.904  1.00  0.00    -0.550 OA
ENDBRANCH   1   2
BRANCH   1   5
ATOM      5  C   UNL     1      -4.797  31.454 -18.809  1.00  0.00     0.059 C 
BRANCH   5   6
ATOM      6  C   UNL     1      -6.023  31.909 -18.083  1.00  0.00     0.042 C 
ATOM      7  O   UNL     1      -6.883  32.614 -18.673  1.00  0.00    -0.550 OA
ATOM      8  O   UNL     1      -6.242  31.514 -16.770  1.00  0.00    -0.550 OA
ENDBRANCH   5   6
ENDBRANCH   1   5
TORSDOF 3
ENDMDL
MODEL 9
REMARK VINA RESULT:    -3.502     13.377     14.677
REMARK INTER + INTRA:          -4.237
REMARK INTER:                  -4.130
REMARK INTRA:                  -0.106
REMARK UNBOUND:                -0.121
REMARK SMILES O=C([O-])CCC(=O)[O-]
REMARK SMILES IDX 4 1 2 2 1 3 3 4 5 5 6 6 7 7 8 8
REMARK H PARENT
REMARK Flexibility Score: inf
ROOT
ATOM      1  C   UNL     1      -6.082  32.855 -16.425  1.00  0.00     0.059 C 
ENDROOT
BRANCH   1   2
ATOM      2  C   UNL     1      -7.522  32.728 -16.041  1.00  0.00     0.042 C 
ATOM      3  O   UNL     1      -8.423  33.137 -16.818  1.00  0.00    -0.550 OA
ATOM      4  O   UNL     1      -7.868  32.204 -14.802  1.00  0.00    -0.550 OA
ENDBRANCH   1   2
BRANCH   1   5
ATOM      5  C   UNL     1      -5.573  31.547 -17.032  1.00  0.00     0.059 C 
BRANCH   5   6
ATOM      6  C   UNL     1      -5.371  31.699 -18.506  1.00  0.00     0.042 C 
ATOM      7  O   UNL     1      -4.281  31.356 -19.035  1.00  0.00    -0.550 OA
ATOM      8  O   UNL     1      -6.402  32.174 -19.305  1.00  0.00    -0.550 OA
ENDBRANCH   5   6
ENDBRANCH   1   5
TORSDOF 3
ENDMDL
