MODEL 1
REMARK VINA RESULT:    -3.635      0.000      0.000
REMARK INTER + INTRA:          -3.765
REMARK INTER:                  -4.060
REMARK INTRA:                   0.295
REMARK UNBOUND:                 0.295
REMARK SMILES O=C([O-])c1ccccc1C(=O)[O-]
REMARK SMILES IDX 4 1 9 2 5 3 8 4 6 5 7 6 2 7 1 8 3 9 10 10 11 11 12 12
REMARK H PARENT
REMARK Flexibility Score: inf
ROOT
ATOM      1  C   UNL     1     -29.944 -21.418 -22.196  1.00  0.00     0.006 A 
ATOM      2  C   UNL     1     -29.434 -21.209 -23.508  1.00  0.00     0.006 A 
ATOM      3  C   UNL     1     -29.051 -21.749 -21.160  1.00  0.00     0.010 A 
ATOM      4  C   UNL     1     -28.060 -21.402 -23.747  1.00  0.00     0.010 A 
ATOM      5  C   UNL     1     -27.689 -21.914 -21.416  1.00  0.00     0.001 A 
ATOM      6  C   UNL     1     -27.197 -21.752 -22.709  1.00  0.00     0.001 A 
ENDROOT
BRANCH   1   7
ATOM      7  C   UNL     1     -31.389 -21.372 -21.876  1.00  0.00     0.072 C 
ATOM      8  O   UNL     1     -31.877 -22.125 -20.992  1.00  0.00    -0.545 OA
ATOM      9  O   UNL     1     -32.213 -20.447 -22.505  1.00  0.00    -0.545 OA
ENDBRANCH   1   7
BRANCH   2  10
ATOM     10  C   UNL     1     -30.276 -20.724 -24.625  1.00  0.00     0.072 C 
ATOM     11  O   UNL     1     -30.342 -19.492 -24.881  1.00  0.00    -0.545 OA
ATOM     12  O   UNL     1     -31.055 -21.608 -25.362  1.00  0.00    -0.545 OA
ENDBRANCH   2  10
TORSDOF 2
ENDMDL
MODEL 2
REMARK VINA RESULT:    -3.580      0.038      3.066
REMARK INTER + INTRA:          -3.703
REMARK INTER:                  -4.035
REMARK INTRA:                   0.332
REMARK UNBOUND:                 0.295
REMARK SMILES O=C([O-])c1ccccc1C(=O)[O-]
REMARK SMILES IDX 4 1 9 2 5 3 8 4 6 5 7 6 2 7 1 8 3 9 10 10 11 11 12 12
REMARK H PARENT
REMARK Flexibility Score: inf
ROOT
ATOM      1  C   UNL     1     -29.444 -21.201 -23.507  1.00  0.00     0.006 A 
ATOM      2  C   UNL     1     -29.941 -21.406 -22.190  1.00  0.00     0.006 A 
ATOM      3  C   UNL     1     -28.074 -21.397 -23.760  1.00  0.00     0.010 A 
ATOM      4  C   UNL     1     -29.038 -21.737 -21.162  1.00  0.00     0.010 A 
ATOM      5  C   UNL     1     -27.201 -21.747 -22.729  1.00  0.00     0.001 A 
ATOM      6  C   UNL     1     -27.680 -21.905 -21.432  1.00  0.00     0.001 A 
ENDROOT
BRANCH   1   7
ATOM      7  C   UNL     1     -30.292 -20.719 -24.623  1.00  0.00     0.072 C 
ATOM      8  O   UNL     1     -30.327 -19.496 -24.923  1.00  0.00    -0.545 OA
ATOM      9  O   UNL     1     -31.009 -21.625 -25.394  1.00  0.00    -0.545 OA
ENDBRANCH   1   7
BRANCH   2  10
ATOM     10  C   UNL     1     -31.385 -21.358 -21.863  1.00  0.00     0.072 C 
ATOM     11  O   UNL     1     -31.861 -22.125 -20.984  1.00  0.00    -0.545 OA
ATOM     12  O   UNL     1     -32.243 -20.518 -22.563  1.00  0.00    -0.545 OA
ENDBRANCH   2  10
TORSDOF 2
ENDMDL
MODEL 3
REMARK VINA RESULT:    -3.225      2.058      3.437
REMARK INTER + INTRA:          -3.307
REMARK INTER:                  -3.474
REMARK INTRA:                   0.167
REMARK UNBOUND:                 0.295
REMARK SMILES O=C([O-])c1ccccc1C(=O)[O-]
REMARK SMILES IDX 4 1 9 2 5 3 8 4 6 5 7 6 2 7 1 8 3 9 10 10 11 11 12 12
REMARK H PARENT
REMARK Flexibility Score: inf
ROOT
ATOM      1  C   UNL     1     -30.227 -20.980 -23.157  1.00  0.00     0.006 A 
ATOM      2  C   UNL     1     -31.385 -20.246 -23.535  1.00  0.00     0.006 A 
ATOM      3  C   UNL     1     -29.267 -21.297 -24.136  1.00  0.00     0.010 A 
ATOM      4  C   UNL     1     -31.572 -19.912 -24.890  1.00  0.00     0.010 A 
ATOM      5  C   UNL     1     -29.463 -20.936 -25.470  1.00  0.00     0.001 A 
ATOM      6  C   UNL     1     -30.617 -20.256 -25.848  1.00  0.00     0.001 A 
ENDROOT
BRANCH   1   7
ATOM      7  C   UNL     1     -30.011 -21.494 -21.784  1.00  0.00     0.072 C 
ATOM      8  O   UNL     1     -30.920 -22.123 -21.182  1.00  0.00    -0.545 OA
ATOM      9  O   UNL     1     -28.773 -21.342 -21.171  1.00  0.00    -0.545 OA
ENDBRANCH   1   7
BRANCH   2  10
ATOM     10  C   UNL     1     -32.375 -19.750 -22.552  1.00  0.00     0.072 C 
ATOM     11  O   UNL     1     -33.311 -20.499 -22.163  1.00  0.00    -0.545 OA
ATOM     12  O   UNL     1     -32.327 -18.439 -22.096  1.00  0.00    -0.545 OA
ENDBRANCH   2  10
TORSDOF 2
ENDMDL
MODEL 4
REMARK VINA RESULT:    -2.756      1.946      3.240
REMARK INTER + INTRA:          -2.783
REMARK INTER:                  -3.167
REMARK INTRA:                   0.384
REMARK UNBOUND:                 0.295
REMARK SMILES O=C([O-])c1ccccc1C(=O)[O-]
REMARK SMILES IDX 4 1 9 2 5 3 8 4 6 5 7 6 2 7 1 8 3 9 10 10 11 11 12 12
REMARK H PARENT
REMARK Flexibility Score: inf
ROOT
ATOM      1  C   UNL     1     -29.191 -21.498 -22.695  1.00  0.00     0.006 A 
ATOM      2  C   UNL     1     -30.327 -21.014 -23.402  1.00  0.00     0.006 A 
ATOM      3  C   UNL     1     -29.371 -22.069 -21.421  1.00  0.00     0.010 A 
ATOM      4  C   UNL     1     -31.590 -21.061 -22.783  1.00  0.00     0.010 A 
ATOM      5  C   UNL     1     -30.636 -22.125 -20.836  1.00  0.00     0.001 A 
ATOM      6  C   UNL     1     -31.741 -21.612 -21.510  1.00  0.00     0.001 A 
ENDROOT
BRANCH   1   7
ATOM      7  C   UNL     1     -27.807 -21.366 -23.206  1.00  0.00     0.072 C 
ATOM      8  O   UNL     1     -27.529 -20.529 -24.104  1.00  0.00    -0.545 OA
ATOM      9  O   UNL     1     -26.784 -22.124 -22.649  1.00  0.00    -0.545 OA
ENDBRANCH   1   7
BRANCH   2  10
ATOM     10  C   UNL     1     -30.252 -20.527 -24.799  1.00  0.00     0.072 C 
ATOM     11  O   UNL     1     -30.357 -19.296 -25.046  1.00  0.00    -0.545 OA
ATOM     12  O   UNL     1     -30.132 -21.420 -25.856  1.00  0.00    -0.545 OA
ENDBRANCH   2  10
TORSDOF 2
ENDMDL
MODEL 5
REMARK VINA RESULT:    -2.678      1.980      3.510
REMARK INTER + INTRA:          -2.696
REMARK INTER:                  -3.152
REMARK INTRA:                   0.456
REMARK UNBOUND:                 0.295
REMARK SMILES O=C([O-])c1ccccc1C(=O)[O-]
REMARK SMILES IDX 4 1 9 2 5 3 8 4 6 5 7 6 2 7 1 8 3 9 10 10 11 11 12 12
REMARK H PARENT
REMARK Flexibility Score: inf
ROOT
ATOM      1  C   UNL     1     -30.207 -21.081 -23.456  1.00  0.00     0.006 A 
ATOM      2  C   UNL     1     -29.087 -21.514 -22.693  1.00  0.00     0.006 A 
ATOM      3  C   UNL     1     -31.490 -21.142 -22.881  1.00  0.00     0.010 A 
ATOM      4  C   UNL     1     -29.299 -22.052 -21.410  1.00  0.00     0.010 A 
ATOM      5  C   UNL     1     -31.674 -21.658 -21.598  1.00  0.00     0.001 A 
ATOM      6  C   UNL     1     -30.583 -22.123 -20.869  1.00  0.00     0.001 A 
ENDROOT
BRANCH   1   7
ATOM      7  C   UNL     1     -30.099 -20.629 -24.862  1.00  0.00     0.072 C 
ATOM      8  O   UNL     1     -30.105 -21.461 -25.808  1.00  0.00    -0.545 OA
ATOM      9  O   UNL     1     -30.056 -19.272 -25.157  1.00  0.00    -0.545 OA
ENDBRANCH   1   7
BRANCH   2  10
ATOM     10  C   UNL     1     -27.691 -21.357 -23.163  1.00  0.00     0.072 C 
ATOM     11  O   UNL     1     -27.425 -20.567 -24.108  1.00  0.00    -0.545 OA
ATOM     12  O   UNL     1     -26.669 -22.125 -22.618  1.00  0.00    -0.545 OA
ENDBRANCH   2  10
TORSDOF 2
ENDMDL
MODEL 6
REMARK VINA RESULT:    -1.526      1.910      4.153
REMARK INTER + INTRA:          -1.410
REMARK INTER:                  -1.675
REMARK INTRA:                   0.265
REMARK UNBOUND:                 0.295
REMARK SMILES O=C([O-])c1ccccc1C(=O)[O-]
REMARK SMILES IDX 4 1 9 2 5 3 8 4 6 5 7 6 2 7 1 8 3 9 10 10 11 11 12 12
REMARK H PARENT
REMARK Flexibility Score: inf
ROOT
ATOM      1  C   UNL     1     -31.060 -20.435 -24.161  1.00  0.00     0.006 A 
ATOM      2  C   UNL     1     -30.474 -20.767 -22.907  1.00  0.00     0.006 A 
ATOM      3  C   UNL     1     -32.250 -19.685 -24.182  1.00  0.00     0.010 A 
ATOM      4  C   UNL     1     -31.134 -20.392 -21.722  1.00  0.00     0.010 A 
ATOM      5  C   UNL     1     -32.876 -19.305 -22.994  1.00  0.00     0.001 A 
ATOM      6  C   UNL     1     -32.326 -19.668 -21.768  1.00  0.00     0.001 A 
ENDROOT
BRANCH   1   7
ATOM      7  C   UNL     1     -30.513 -20.902 -25.456  1.00  0.00     0.072 C 
ATOM      8  O   UNL     1     -30.606 -22.111 -25.796  1.00  0.00    -0.545 OA
ATOM      9  O   UNL     1     -29.946 -19.994 -26.341  1.00  0.00    -0.545 OA
ENDBRANCH   1   7
BRANCH   2  10
ATOM     10  C   UNL     1     -29.155 -21.430 -22.792  1.00  0.00     0.072 C 
ATOM     11  O   UNL     1     -28.882 -22.125 -21.776  1.00  0.00    -0.545 OA
ATOM     12  O   UNL     1     -28.179 -21.244 -23.763  1.00  0.00    -0.545 OA
ENDBRANCH   2  10
TORSDOF 2
ENDMDL
MODEL 7
REMARK VINA RESULT:    -1.111      1.939      3.468
REMARK INTER + INTRA:          -0.946
REMARK INTER:                  -1.516
REMARK INTRA:                   0.570
REMARK UNBOUND:                 0.295
REMARK SMILES O=C([O-])c1ccccc1C(=O)[O-]
REMARK SMILES IDX 4 1 9 2 5 3 8 4 6 5 7 6 2 7 1 8 3 9 10 10 11 11 12 12
REMARK H PARENT
REMARK Flexibility Score: inf
ROOT
ATOM      1  C   UNL     1     -30.460 -20.904 -22.990  1.00  0.00     0.006 A 
ATOM      2  C   UNL     1     -31.039 -20.548 -24.240  1.00  0.00     0.006 A 
ATOM      3  C   UNL     1     -31.139 -20.574 -21.803  1.00  0.00     0.010 A 
ATOM      4  C   UNL     1     -32.243 -19.819 -24.254  1.00  0.00     0.010 A 
ATOM      5  C   UNL     1     -32.343 -19.869 -21.842  1.00  0.00     0.001 A 
ATOM      6  C   UNL     1     -32.887 -19.483 -23.063  1.00  0.00     0.001 A 
ENDROOT
BRANCH   1   7
ATOM      7  C   UNL     1     -29.132 -21.549 -22.872  1.00  0.00     0.072 C 
ATOM      8  O   UNL     1     -28.789 -22.125 -21.805  1.00  0.00    -0.545 OA
ATOM      9  O   UNL     1     -28.274 -21.584 -23.964  1.00  0.00    -0.545 OA
ENDBRANCH   1   7
BRANCH   2  10
ATOM     10  C   UNL     1     -30.467 -20.975 -25.538  1.00  0.00     0.072 C 
ATOM     11  O   UNL     1     -30.713 -22.125 -25.991  1.00  0.00    -0.545 OA
ATOM     12  O   UNL     1     -29.600 -20.145 -26.239  1.00  0.00    -0.545 OA
ENDBRANCH   2  10
TORSDOF 2
ENDMDL
