MODEL 1
REMARK VINA RESULT:    -4.262      0.000      0.000
REMARK INTER + INTRA:         -14.125
REMARK INTER:                 -10.741
REMARK INTRA:                  -3.385
REMARK UNBOUND:                -3.385
REMARK SMILES CCCCCCCCCCCCCCCCCCCCCCCCCCCC(=O)[O-]
REMARK SMILES IDX 15 1 16 2 17 3 18 4 19 5 20 6 21 7 22 8 23 9 24 10 25 11
REMARK SMILES IDX 26 12 27 13 28 14 29 15 30 16 14 17 13 18 12 19 11 20 10 21
REMARK SMILES IDX 9 22 8 23 7 24 6 25 5 26 4 27 3 28 2 29 1 30
REMARK H PARENT
REMARK Flexibility Score: inf
ROOT
ATOM      1  C   UNL     1     161.696 174.280 164.583  1.00  0.00     0.000 C 
ENDROOT
BRANCH   1   2
ATOM      2  C   UNL     1     162.148 173.133 165.503  1.00  0.00     0.000 C 
BRANCH   2   3
ATOM      3  C   UNL     1     163.299 173.485 166.465  1.00  0.00     0.000 C 
BRANCH   3   4
ATOM      4  C   UNL     1     164.536 172.569 166.371  1.00  0.00     0.000 C 
BRANCH   4   5
ATOM      5  C   UNL     1     165.415 172.780 165.125  1.00  0.00     0.000 C 
BRANCH   5   6
ATOM      6  C   UNL     1     165.891 174.227 164.895  1.00  0.00     0.000 C 
BRANCH   6   7
ATOM      7  C   UNL     1     165.314 174.890 163.625  1.00  0.00     0.000 C 
BRANCH   7   8
ATOM      8  C   UNL     1     164.822 173.868 162.585  1.00  0.00     0.000 C 
BRANCH   8   9
ATOM      9  C   UNL     1     165.708 173.819 161.331  1.00  0.00     0.000 C 
BRANCH   9  10
ATOM     10  C   UNL     1     166.519 175.106 161.122  1.00  0.00     0.000 C 
BRANCH  10  11
ATOM     11  C   UNL     1     168.024 174.813 161.131  1.00  0.00     0.000 C 
BRANCH  11  12
ATOM     12  C   UNL     1     168.319 173.466 161.806  1.00  0.00     0.006 C 
BRANCH  12  13
ATOM     13  C   UNL     1     169.765 173.368 162.309  1.00  0.00     0.053 C 
BRANCH  13  14
ATOM     14  C   UNL     1     169.855 172.633 163.612  1.00  0.00     0.041 C 
ATOM     15  O   UNL     1     170.093 173.261 164.677  1.00  0.00    -0.550 OA
ATOM     16  O   UNL     1     169.694 171.253 163.647  1.00  0.00    -0.550 OA
ENDBRANCH  13  14
ENDBRANCH  12  13
ENDBRANCH  11  12
ENDBRANCH  10  11
ENDBRANCH   9  10
ENDBRANCH   8   9
ENDBRANCH   7   8
ENDBRANCH   6   7
ENDBRANCH   5   6
ENDBRANCH   4   5
ENDBRANCH   3   4
ENDBRANCH   2   3
ENDBRANCH   1   2
BRANCH   1  17
ATOM     17  C   UNL     1     160.364 174.908 165.018  1.00  0.00     0.000 C 
BRANCH  17  18
ATOM     18  C   UNL     1     159.205 173.918 164.823  1.00  0.00     0.000 C 
BRANCH  18  19
ATOM     19  C   UNL     1     158.097 174.081 165.880  1.00  0.00     0.000 C 
BRANCH  19  20
ATOM     20  C   UNL     1     156.776 174.663 165.327  1.00  0.00     0.000 C 
BRANCH  20  21
ATOM     21  C   UNL     1     155.514 173.960 165.865  1.00  0.00     0.000 C 
BRANCH  21  22
ATOM     22  C   UNL     1     155.480 172.433 165.659  1.00  0.00    -0.000 C 
BRANCH  22  23
ATOM     23  C   UNL     1     155.089 171.976 164.241  1.00  0.00    -0.000 C 
BRANCH  23  24
ATOM     24  C   UNL     1     153.660 172.383 163.853  1.00  0.00    -0.000 C 
BRANCH  24  25
ATOM     25  C   UNL     1     153.648 173.153 162.525  1.00  0.00    -0.000 C 
BRANCH  25  26
ATOM     26  C   UNL     1     153.675 174.677 162.723  1.00  0.00    -0.000 C 
BRANCH  26  27
ATOM     27  C   UNL     1     154.961 175.321 162.174  1.00  0.00    -0.000 C 
BRANCH  27  28
ATOM     28  C   UNL     1     155.984 174.278 161.698  1.00  0.00    -0.000 C 
BRANCH  28  29
ATOM     29  C   UNL     1     157.240 174.919 161.091  1.00  0.00    -0.003 C 
ATOM     30  C   UNL     1     157.766 176.044 161.976  1.00  0.00     0.004 C 
ENDBRANCH  28  29
ENDBRANCH  27  28
ENDBRANCH  26  27
ENDBRANCH  25  26
ENDBRANCH  24  25
ENDBRANCH  23  24
ENDBRANCH  22  23
ENDBRANCH  21  22
ENDBRANCH  20  21
ENDBRANCH  19  20
ENDBRANCH  18  19
ENDBRANCH  17  18
ENDBRANCH   1  17
TORSDOF 26
ENDMDL
MODEL 2
REMARK VINA RESULT:    -4.172     11.448     13.804
REMARK INTER + INTRA:         -13.897
REMARK INTER:                  -8.213
REMARK INTRA:                  -5.684
REMARK UNBOUND:                -3.385
REMARK SMILES CCCCCCCCCCCCCCCCCCCCCCCCCCCC(=O)[O-]
REMARK SMILES IDX 15 1 16 2 17 3 18 4 19 5 20 6 21 7 22 8 23 9 24 10 25 11
REMARK SMILES IDX 26 12 27 13 28 14 29 15 30 16 14 17 13 18 12 19 11 20 10 21
REMARK SMILES IDX 9 22 8 23 7 24 6 25 5 26 4 27 3 28 2 29 1 30
REMARK H PARENT
REMARK Flexibility Score: inf
ROOT
ATOM      1  C   UNL     1     168.600 173.441 153.143  1.00  0.00     0.000 C 
ENDROOT
BRANCH   1   2
ATOM      2  C   UNL     1     170.037 173.836 153.526  1.00  0.00     0.000 C 
BRANCH   2   3
ATOM      3  C   UNL     1     170.853 172.728 154.218  1.00  0.00     0.000 C 
BRANCH   3   4
ATOM      4  C   UNL     1     171.975 172.107 153.361  1.00  0.00     0.000 C 
BRANCH   4   5
ATOM      5  C   UNL     1     172.006 172.564 151.891  1.00  0.00     0.000 C 
BRANCH   5   6
ATOM      6  C   UNL     1     171.873 171.436 150.850  1.00  0.00     0.000 C 
BRANCH   6   7
ATOM      7  C   UNL     1     170.427 171.180 150.374  1.00  0.00     0.000 C 
BRANCH   7   8
ATOM      8  C   UNL     1     169.973 169.724 150.587  1.00  0.00     0.000 C 
BRANCH   8   9
ATOM      9  C   UNL     1     170.744 169.018 151.713  1.00  0.00     0.000 C 
BRANCH   9  10
ATOM     10  C   UNL     1     169.842 168.595 152.881  1.00  0.00     0.000 C 
BRANCH  10  11
ATOM     11  C   UNL     1     170.454 169.011 154.225  1.00  0.00     0.000 C 
BRANCH  11  12
ATOM     12  C   UNL     1     169.420 168.912 155.355  1.00  0.00     0.006 C 
BRANCH  12  13
ATOM     13  C   UNL     1     168.432 167.757 155.144  1.00  0.00     0.053 C 
BRANCH  13  14
ATOM     14  C   UNL     1     167.114 168.021 155.805  1.00  0.00     0.041 C 
ATOM     15  O   UNL     1     166.405 167.062 156.209  1.00  0.00    -0.550 OA
ATOM     16  O   UNL     1     166.660 169.326 155.960  1.00  0.00    -0.550 OA
ENDBRANCH  13  14
ENDBRANCH  12  13
ENDBRANCH  11  12
ENDBRANCH  10  11
ENDBRANCH   9  10
ENDBRANCH   8   9
ENDBRANCH   7   8
ENDBRANCH   6   7
ENDBRANCH   5   6
ENDBRANCH   4   5
ENDBRANCH   3   4
ENDBRANCH   2   3
ENDBRANCH   1   2
BRANCH   1  17
ATOM     17  C   UNL     1     168.357 171.926 153.204  1.00  0.00     0.000 C 
BRANCH  17  18
ATOM     18  C   UNL     1     166.892 171.595 152.882  1.00  0.00     0.000 C 
BRANCH  18  19
ATOM     19  C   UNL     1     166.651 170.088 152.681  1.00  0.00     0.000 C 
BRANCH  19  20
ATOM     20  C   UNL     1     166.486 169.666 151.203  1.00  0.00     0.000 C 
BRANCH  20  21
ATOM     21  C   UNL     1     166.075 168.191 151.020  1.00  0.00     0.000 C 
BRANCH  21  22
ATOM     22  C   UNL     1     166.283 167.298 152.259  1.00  0.00    -0.000 C 
BRANCH  22  23
ATOM     23  C   UNL     1     165.030 166.537 152.731  1.00  0.00    -0.000 C 
BRANCH  23  24
ATOM     24  C   UNL     1     163.746 167.374 152.630  1.00  0.00    -0.000 C 
BRANCH  24  25
ATOM     25  C   UNL     1     163.678 168.415 153.756  1.00  0.00    -0.000 C 
BRANCH  25  26
ATOM     26  C   UNL     1     162.266 168.991 153.947  1.00  0.00    -0.000 C 
BRANCH  26  27
ATOM     27  C   UNL     1     161.864 169.953 152.815  1.00  0.00    -0.000 C 
BRANCH  27  28
ATOM     28  C   UNL     1     163.006 170.900 152.415  1.00  0.00    -0.000 C 
BRANCH  28  29
ATOM     29  C   UNL     1     163.198 170.982 150.894  1.00  0.00    -0.003 C 
ATOM     30  C   UNL     1     162.558 169.787 150.194  1.00  0.00     0.004 C 
ENDBRANCH  28  29
ENDBRANCH  27  28
ENDBRANCH  26  27
ENDBRANCH  25  26
ENDBRANCH  24  25
ENDBRANCH  23  24
ENDBRANCH  22  23
ENDBRANCH  21  22
ENDBRANCH  20  21
ENDBRANCH  19  20
ENDBRANCH  18  19
ENDBRANCH  17  18
ENDBRANCH   1  17
TORSDOF 26
ENDMDL
MODEL 3
REMARK VINA RESULT:    -3.966     12.448     14.945
REMARK INTER + INTRA:         -13.380
REMARK INTER:                  -7.958
REMARK INTRA:                  -5.421
REMARK UNBOUND:                -3.385
REMARK SMILES CCCCCCCCCCCCCCCCCCCCCCCCCCCC(=O)[O-]
REMARK SMILES IDX 15 1 16 2 17 3 18 4 19 5 20 6 21 7 22 8 23 9 24 10 25 11
REMARK SMILES IDX 26 12 27 13 28 14 29 15 30 16 14 17 13 18 12 19 11 20 10 21
REMARK SMILES IDX 9 22 8 23 7 24 6 25 5 26 4 27 3 28 2 29 1 30
REMARK H PARENT
REMARK Flexibility Score: inf
ROOT
ATOM      1  C   UNL     1     170.523 171.152 154.997  1.00  0.00     0.000 C 
ENDROOT
BRANCH   1   2
ATOM      2  C   UNL     1     169.335 171.735 154.212  1.00  0.00     0.000 C 
BRANCH   2   3
ATOM      3  C   UNL     1     169.704 172.827 153.189  1.00  0.00     0.000 C 
BRANCH   3   4
ATOM      4  C   UNL     1     171.203 173.179 153.117  1.00  0.00     0.000 C 
BRANCH   4   5
ATOM      5  C   UNL     1     171.952 172.605 151.900  1.00  0.00     0.000 C 
BRANCH   5   6
ATOM      6  C   UNL     1     171.115 171.694 150.983  1.00  0.00     0.000 C 
BRANCH   6   7
ATOM      7  C   UNL     1     171.339 170.184 151.212  1.00  0.00     0.000 C 
BRANCH   7   8
ATOM      8  C   UNL     1     170.053 169.354 151.045  1.00  0.00     0.000 C 
BRANCH   8   9
ATOM      9  C   UNL     1     168.818 170.219 150.754  1.00  0.00     0.000 C 
BRANCH   9  10
ATOM     10  C   UNL     1     167.523 169.622 151.322  1.00  0.00     0.000 C 
BRANCH  10  11
ATOM     11  C   UNL     1     166.676 170.702 152.006  1.00  0.00     0.000 C 
BRANCH  11  12
ATOM     12  C   UNL     1     165.186 170.522 151.684  1.00  0.00     0.006 C 
BRANCH  12  13
ATOM     13  C   UNL     1     164.922 170.431 150.175  1.00  0.00     0.053 C 
BRANCH  13  14
ATOM     14  C   UNL     1     163.551 170.921 149.818  1.00  0.00     0.041 C 
ATOM     15  O   UNL     1     162.537 170.240 150.123  1.00  0.00    -0.550 OA
ATOM     16  O   UNL     1     163.395 172.121 149.134  1.00  0.00    -0.550 OA
ENDBRANCH  13  14
ENDBRANCH  12  13
ENDBRANCH  11  12
ENDBRANCH  10  11
ENDBRANCH   9  10
ENDBRANCH   8   9
ENDBRANCH   7   8
ENDBRANCH   6   7
ENDBRANCH   5   6
ENDBRANCH   4   5
ENDBRANCH   3   4
ENDBRANCH   2   3
ENDBRANCH   1   2
BRANCH   1  17
ATOM     17  C   UNL     1     170.335 169.671 155.358  1.00  0.00     0.000 C 
BRANCH  17  18
ATOM     18  C   UNL     1     169.157 169.066 154.580  1.00  0.00     0.000 C 
BRANCH  18  19
ATOM     19  C   UNL     1     168.046 168.529 155.501  1.00  0.00     0.000 C 
BRANCH  19  20
ATOM     20  C   UNL     1     166.746 169.365 155.477  1.00  0.00     0.000 C 
BRANCH  20  21
ATOM     21  C   UNL     1     165.536 168.614 154.887  1.00  0.00     0.000 C 
BRANCH  21  22
ATOM     22  C   UNL     1     165.887 167.390 154.019  1.00  0.00    -0.000 C 
BRANCH  22  23
ATOM     23  C   UNL     1     165.369 166.042 154.555  1.00  0.00    -0.000 C 
BRANCH  23  24
ATOM     24  C   UNL     1     165.237 166.015 156.084  1.00  0.00    -0.000 C 
BRANCH  24  25
ATOM     25  C   UNL     1     166.193 164.983 156.700  1.00  0.00    -0.000 C 
BRANCH  25  26
ATOM     26  C   UNL     1     167.159 165.605 157.722  1.00  0.00    -0.000 C 
BRANCH  26  27
ATOM     27  C   UNL     1     168.633 165.463 157.303  1.00  0.00    -0.000 C 
BRANCH  27  28
ATOM     28  C   UNL     1     168.802 164.652 156.010  1.00  0.00    -0.000 C 
BRANCH  28  29
ATOM     29  C   UNL     1     169.643 165.387 154.957  1.00  0.00    -0.003 C 
ATOM     30  C   UNL     1     169.010 165.280 153.574  1.00  0.00     0.004 C 
ENDBRANCH  28  29
ENDBRANCH  27  28
ENDBRANCH  26  27
ENDBRANCH  25  26
ENDBRANCH  24  25
ENDBRANCH  23  24
ENDBRANCH  22  23
ENDBRANCH  21  22
ENDBRANCH  20  21
ENDBRANCH  19  20
ENDBRANCH  18  19
ENDBRANCH  17  18
ENDBRANCH   1  17
TORSDOF 26
ENDMDL
MODEL 4
REMARK VINA RESULT:    -3.945     11.751     16.099
REMARK INTER + INTRA:         -13.326
REMARK INTER:                  -8.692
REMARK INTRA:                  -4.634
REMARK UNBOUND:                -3.385
REMARK SMILES CCCCCCCCCCCCCCCCCCCCCCCCCCCC(=O)[O-]
REMARK SMILES IDX 15 1 16 2 17 3 18 4 19 5 20 6 21 7 22 8 23 9 24 10 25 11
REMARK SMILES IDX 26 12 27 13 28 14 29 15 30 16 14 17 13 18 12 19 11 20 10 21
REMARK SMILES IDX 9 22 8 23 7 24 6 25 5 26 4 27 3 28 2 29 1 30
REMARK H PARENT
REMARK Flexibility Score: inf
ROOT
ATOM      1  C   UNL     1     166.453 169.452 151.156  1.00  0.00     0.000 C 
ENDROOT
BRANCH   1   2
ATOM      2  C   UNL     1     165.136 169.366 150.367  1.00  0.00     0.000 C 
BRANCH   2   3
ATOM      3  C   UNL     1     164.458 170.720 150.082  1.00  0.00     0.000 C 
BRANCH   3   4
ATOM      4  C   UNL     1     163.070 170.907 150.727  1.00  0.00     0.000 C 
BRANCH   4   5
ATOM      5  C   UNL     1     163.065 170.963 152.266  1.00  0.00     0.000 C 
BRANCH   5   6
ATOM      6  C   UNL     1     162.271 169.841 152.961  1.00  0.00     0.000 C 
BRANCH   6   7
ATOM      7  C   UNL     1     163.145 168.832 153.737  1.00  0.00     0.000 C 
BRANCH   7   8
ATOM      8  C   UNL     1     163.316 167.492 152.998  1.00  0.00     0.000 C 
BRANCH   8   9
ATOM      9  C   UNL     1     163.051 166.276 153.899  1.00  0.00     0.000 C 
BRANCH   9  10
ATOM     10  C   UNL     1     162.377 166.652 155.226  1.00  0.00     0.000 C 
BRANCH  10  11
ATOM     11  C   UNL     1     160.931 166.142 155.269  1.00  0.00     0.000 C 
BRANCH  11  12
ATOM     12  C   UNL     1     159.970 167.156 154.634  1.00  0.00     0.006 C 
BRANCH  12  13
ATOM     13  C   UNL     1     159.395 166.661 153.301  1.00  0.00     0.053 C 
BRANCH  13  14
ATOM     14  C   UNL     1     158.027 167.215 153.042  1.00  0.00     0.041 C 
ATOM     15  O   UNL     1     157.017 166.679 153.570  1.00  0.00    -0.550 OA
ATOM     16  O   UNL     1     157.865 168.312 152.204  1.00  0.00    -0.550 OA
ENDBRANCH  13  14
ENDBRANCH  12  13
ENDBRANCH  11  12
ENDBRANCH  10  11
ENDBRANCH   9  10
ENDBRANCH   8   9
ENDBRANCH   7   8
ENDBRANCH   6   7
ENDBRANCH   5   6
ENDBRANCH   4   5
ENDBRANCH   3   4
ENDBRANCH   2   3
ENDBRANCH   1   2
BRANCH   1  17
ATOM     17  C   UNL     1     166.794 170.883 151.600  1.00  0.00     0.000 C 
BRANCH  17  18
ATOM     18  C   UNL     1     166.677 171.023 153.125  1.00  0.00     0.000 C 
BRANCH  18  19
ATOM     19  C   UNL     1     166.675 169.665 153.851  1.00  0.00     0.000 C 
BRANCH  19  20
ATOM     20  C   UNL     1     167.620 169.599 155.072  1.00  0.00     0.000 C 
BRANCH  20  21
ATOM     21  C   UNL     1     169.101 169.384 154.700  1.00  0.00     0.000 C 
BRANCH  21  22
ATOM     22  C   UNL     1     170.102 170.257 155.481  1.00  0.00    -0.000 C 
BRANCH  22  23
ATOM     23  C   UNL     1     170.785 171.363 154.654  1.00  0.00    -0.000 C 
BRANCH  23  24
ATOM     24  C   UNL     1     169.838 172.519 154.301  1.00  0.00    -0.000 C 
BRANCH  24  25
ATOM     25  C   UNL     1     170.146 173.075 152.904  1.00  0.00    -0.000 C 
BRANCH  25  26
ATOM     26  C   UNL     1     171.604 172.834 152.478  1.00  0.00    -0.000 C 
BRANCH  26  27
ATOM     27  C   UNL     1     171.713 171.972 151.208  1.00  0.00    -0.000 C 
BRANCH  27  28
ATOM     28  C   UNL     1     170.382 171.302 150.836  1.00  0.00    -0.000 C 
BRANCH  28  29
ATOM     29  C   UNL     1     170.327 169.826 151.255  1.00  0.00    -0.003 C 
ATOM     30  C   UNL     1     171.720 169.292 151.571  1.00  0.00     0.004 C 
ENDBRANCH  28  29
ENDBRANCH  27  28
ENDBRANCH  26  27
ENDBRANCH  25  26
ENDBRANCH  24  25
ENDBRANCH  23  24
ENDBRANCH  22  23
ENDBRANCH  21  22
ENDBRANCH  20  21
ENDBRANCH  19  20
ENDBRANCH  18  19
ENDBRANCH  17  18
ENDBRANCH   1  17
TORSDOF 26
ENDMDL
MODEL 5
REMARK VINA RESULT:    -3.937     11.709     16.002
REMARK INTER + INTRA:         -13.305
REMARK INTER:                  -7.589
REMARK INTRA:                  -5.716
REMARK UNBOUND:                -3.385
REMARK SMILES CCCCCCCCCCCCCCCCCCCCCCCCCCCC(=O)[O-]
REMARK SMILES IDX 15 1 16 2 17 3 18 4 19 5 20 6 21 7 22 8 23 9 24 10 25 11
REMARK SMILES IDX 26 12 27 13 28 14 29 15 30 16 14 17 13 18 12 19 11 20 10 21
REMARK SMILES IDX 9 22 8 23 7 24 6 25 5 26 4 27 3 28 2 29 1 30
REMARK H PARENT
REMARK Flexibility Score: inf
ROOT
ATOM      1  C   UNL     1     167.915 170.319 154.182  1.00  0.00     0.000 C 
ENDROOT
BRANCH   1   2
ATOM      2  C   UNL     1     166.484 169.780 154.348  1.00  0.00     0.000 C 
BRANCH   2   3
ATOM      3  C   UNL     1     166.310 168.725 155.456  1.00  0.00     0.000 C 
BRANCH   3   4
ATOM      4  C   UNL     1     165.521 167.465 155.045  1.00  0.00     0.000 C 
BRANCH   4   5
ATOM      5  C   UNL     1     165.058 167.432 153.577  1.00  0.00     0.000 C 
BRANCH   5   6
ATOM      6  C   UNL     1     165.778 166.403 152.685  1.00  0.00     0.000 C 
BRANCH   6   7
ATOM      7  C   UNL     1     166.629 167.025 151.557  1.00  0.00     0.000 C 
BRANCH   7   8
ATOM      8  C   UNL     1     165.829 167.993 150.666  1.00  0.00     0.000 C 
BRANCH   8   9
ATOM      9  C   UNL     1     166.481 169.380 150.557  1.00  0.00     0.000 C 
BRANCH   9  10
ATOM     10  C   UNL     1     165.468 170.528 150.681  1.00  0.00     0.000 C 
BRANCH  10  11
ATOM     11  C   UNL     1     164.045 170.036 150.391  1.00  0.00     0.000 C 
BRANCH  11  12
ATOM     12  C   UNL     1     163.021 170.756 151.280  1.00  0.00     0.006 C 
BRANCH  12  13
ATOM     13  C   UNL     1     163.150 170.361 152.757  1.00  0.00     0.053 C 
BRANCH  13  14
ATOM     14  C   UNL     1     161.956 169.593 153.236  1.00  0.00     0.041 C 
ATOM     15  O   UNL     1     160.941 169.479 152.500  1.00  0.00    -0.550 OA
ATOM     16  O   UNL     1     161.957 169.018 154.501  1.00  0.00    -0.550 OA
ENDBRANCH  13  14
ENDBRANCH  12  13
ENDBRANCH  11  12
ENDBRANCH  10  11
ENDBRANCH   9  10
ENDBRANCH   8   9
ENDBRANCH   7   8
ENDBRANCH   6   7
ENDBRANCH   5   6
ENDBRANCH   4   5
ENDBRANCH   3   4
ENDBRANCH   2   3
ENDBRANCH   1   2
BRANCH   1  17
ATOM     17  C   UNL     1     168.024 171.415 153.111  1.00  0.00     0.000 C 
BRANCH  17  18
ATOM     18  C   UNL     1     169.040 172.488 153.531  1.00  0.00     0.000 C 
BRANCH  18  19
ATOM     19  C   UNL     1     170.188 171.921 154.386  1.00  0.00     0.000 C 
BRANCH  19  20
ATOM     20  C   UNL     1     171.598 172.335 153.906  1.00  0.00     0.000 C 
BRANCH  20  21
ATOM     21  C   UNL     1     171.598 173.121 152.581  1.00  0.00     0.000 C 
BRANCH  21  22
ATOM     22  C   UNL     1     172.083 172.327 151.352  1.00  0.00    -0.000 C 
BRANCH  22  23
ATOM     23  C   UNL     1     170.974 171.606 150.563  1.00  0.00    -0.000 C 
BRANCH  23  24
ATOM     24  C   UNL     1     171.229 170.100 150.411  1.00  0.00    -0.000 C 
BRANCH  24  25
ATOM     25  C   UNL     1     170.592 169.316 151.568  1.00  0.00    -0.000 C 
BRANCH  25  26
ATOM     26  C   UNL     1     171.614 168.914 152.644  1.00  0.00    -0.000 C 
BRANCH  26  27
ATOM     27  C   UNL     1     170.986 168.071 153.768  1.00  0.00    -0.000 C 
BRANCH  27  28
ATOM     28  C   UNL     1     169.739 167.305 153.302  1.00  0.00    -0.000 C 
BRANCH  28  29
ATOM     29  C   UNL     1     169.118 166.453 154.418  1.00  0.00    -0.003 C 
ATOM     30  C   UNL     1     169.536 166.961 155.794  1.00  0.00     0.004 C 
ENDBRANCH  28  29
ENDBRANCH  27  28
ENDBRANCH  26  27
ENDBRANCH  25  26
ENDBRANCH  24  25
ENDBRANCH  23  24
ENDBRANCH  22  23
ENDBRANCH  21  22
ENDBRANCH  20  21
ENDBRANCH  19  20
ENDBRANCH  18  19
ENDBRANCH  17  18
ENDBRANCH   1  17
TORSDOF 26
ENDMDL
MODEL 6
REMARK VINA RESULT:    -3.934     12.080     15.863
REMARK INTER + INTRA:         -13.298
REMARK INTER:                  -7.251
REMARK INTRA:                  -6.047
REMARK UNBOUND:                -3.385
REMARK SMILES CCCCCCCCCCCCCCCCCCCCCCCCCCCC(=O)[O-]
REMARK SMILES IDX 15 1 16 2 17 3 18 4 19 5 20 6 21 7 22 8 23 9 24 10 25 11
REMARK SMILES IDX 26 12 27 13 28 14 29 15 30 16 14 17 13 18 12 19 11 20 10 21
REMARK SMILES IDX 9 22 8 23 7 24 6 25 5 26 4 27 3 28 2 29 1 30
REMARK H PARENT
REMARK Flexibility Score: inf
ROOT
ATOM      1  C   UNL     1     169.799 169.933 155.246  1.00  0.00     0.000 C 
ENDROOT
BRANCH   1   2
ATOM      2  C   UNL     1     169.874 168.483 155.753  1.00  0.00     0.000 C 
BRANCH   2   3
ATOM      3  C   UNL     1     171.069 167.668 155.220  1.00  0.00     0.000 C 
BRANCH   3   4
ATOM      4  C   UNL     1     171.608 168.116 153.847  1.00  0.00     0.000 C 
BRANCH   4   5
ATOM      5  C   UNL     1     170.987 167.398 152.634  1.00  0.00     0.000 C 
BRANCH   5   6
ATOM      6  C   UNL     1     170.086 166.196 152.973  1.00  0.00     0.000 C 
BRANCH   6   7
ATOM      7  C   UNL     1     168.871 166.030 152.035  1.00  0.00     0.000 C 
BRANCH   7   8
ATOM      8  C   UNL     1     167.566 165.720 152.792  1.00  0.00     0.000 C 
BRANCH   8   9
ATOM      9  C   UNL     1     167.436 166.509 154.104  1.00  0.00     0.000 C 
BRANCH   9  10
ATOM     10  C   UNL     1     165.985 166.619 154.593  1.00  0.00     0.000 C 
BRANCH  10  11
ATOM     11  C   UNL     1     165.452 168.046 154.411  1.00  0.00     0.000 C 
BRANCH  11  12
ATOM     12  C   UNL     1     164.993 168.282 152.966  1.00  0.00     0.006 C 
BRANCH  12  13
ATOM     13  C   UNL     1     163.712 169.123 152.890  1.00  0.00     0.053 C 
BRANCH  13  14
ATOM     14  C   UNL     1     162.562 168.452 153.578  1.00  0.00     0.041 C 
ATOM     15  O   UNL     1     162.057 168.966 154.611  1.00  0.00    -0.550 OA
ATOM     16  O   UNL     1     162.060 167.252 153.090  1.00  0.00    -0.550 OA
ENDBRANCH  13  14
ENDBRANCH  12  13
ENDBRANCH  11  12
ENDBRANCH  10  11
ENDBRANCH   9  10
ENDBRANCH   8   9
ENDBRANCH   7   8
ENDBRANCH   6   7
ENDBRANCH   5   6
ENDBRANCH   4   5
ENDBRANCH   3   4
ENDBRANCH   2   3
ENDBRANCH   1   2
BRANCH   1  17
ATOM     17  C   UNL     1     168.431 170.287 154.642  1.00  0.00     0.000 C 
BRANCH  17  18
ATOM     18  C   UNL     1     168.380 169.913 153.153  1.00  0.00     0.000 C 
BRANCH  18  19
ATOM     19  C   UNL     1     167.529 170.890 152.321  1.00  0.00     0.000 C 
BRANCH  19  20
ATOM     20  C   UNL     1     167.238 170.409 150.881  1.00  0.00     0.000 C 
BRANCH  20  21
ATOM     21  C   UNL     1     167.747 168.984 150.588  1.00  0.00     0.000 C 
BRANCH  21  22
ATOM     22  C   UNL     1     168.904 168.900 149.574  1.00  0.00    -0.000 C 
BRANCH  22  23
ATOM     23  C   UNL     1     169.622 170.234 149.293  1.00  0.00    -0.000 C 
BRANCH  23  24
ATOM     24  C   UNL     1     170.985 170.340 149.993  1.00  0.00    -0.000 C 
BRANCH  24  25
ATOM     25  C   UNL     1     171.003 171.513 150.984  1.00  0.00    -0.000 C 
BRANCH  25  26
ATOM     26  C   UNL     1     171.669 171.148 152.320  1.00  0.00    -0.000 C 
BRANCH  26  27
ATOM     27  C   UNL     1     171.844 172.367 153.244  1.00  0.00    -0.000 C 
BRANCH  27  28
ATOM     28  C   UNL     1     170.839 173.487 152.937  1.00  0.00    -0.000 C 
BRANCH  28  29
ATOM     29  C   UNL     1     169.713 173.572 153.977  1.00  0.00    -0.003 C 
ATOM     30  C   UNL     1     168.476 174.247 153.395  1.00  0.00     0.004 C 
ENDBRANCH  28  29
ENDBRANCH  27  28
ENDBRANCH  26  27
ENDBRANCH  25  26
ENDBRANCH  24  25
ENDBRANCH  23  24
ENDBRANCH  22  23
ENDBRANCH  21  22
ENDBRANCH  20  21
ENDBRANCH  19  20
ENDBRANCH  18  19
ENDBRANCH  17  18
ENDBRANCH   1  17
TORSDOF 26
ENDMDL
MODEL 7
REMARK VINA RESULT:    -3.931     12.080     15.951
REMARK INTER + INTRA:         -13.292
REMARK INTER:                  -8.036
REMARK INTRA:                  -5.256
REMARK UNBOUND:                -3.385
REMARK SMILES CCCCCCCCCCCCCCCCCCCCCCCCCCCC(=O)[O-]
REMARK SMILES IDX 15 1 16 2 17 3 18 4 19 5 20 6 21 7 22 8 23 9 24 10 25 11
REMARK SMILES IDX 26 12 27 13 28 14 29 15 30 16 14 17 13 18 12 19 11 20 10 21
REMARK SMILES IDX 9 22 8 23 7 24 6 25 5 26 4 27 3 28 2 29 1 30
REMARK H PARENT
REMARK Flexibility Score: inf
ROOT
ATOM      1  C   UNL     1     165.706 167.168 154.045  1.00  0.00     0.000 C 
ENDROOT
BRANCH   1   2
ATOM      2  C   UNL     1     165.442 167.680 152.619  1.00  0.00     0.000 C 
BRANCH   2   3
ATOM      3  C   UNL     1     164.011 168.193 152.366  1.00  0.00     0.000 C 
BRANCH   3   4
ATOM      4  C   UNL     1     163.659 169.524 153.061  1.00  0.00     0.000 C 
BRANCH   4   5
ATOM      5  C   UNL     1     163.462 170.724 152.116  1.00  0.00     0.000 C 
BRANCH   5   6
ATOM      6  C   UNL     1     164.223 170.640 150.780  1.00  0.00     0.000 C 
BRANCH   6   7
ATOM      7  C   UNL     1     163.526 171.360 149.606  1.00  0.00     0.000 C 
BRANCH   7   8
ATOM      8  C   UNL     1     162.709 170.406 148.715  1.00  0.00     0.000 C 
BRANCH   8   9
ATOM      9  C   UNL     1     163.066 168.929 148.940  1.00  0.00     0.000 C 
BRANCH   9  10
ATOM     10  C   UNL     1     161.829 168.038 149.131  1.00  0.00     0.000 C 
BRANCH  10  11
ATOM     11  C   UNL     1     160.801 168.717 150.044  1.00  0.00     0.000 C 
BRANCH  11  12
ATOM     12  C   UNL     1     160.182 167.709 151.022  1.00  0.00     0.006 C 
BRANCH  12  13
ATOM     13  C   UNL     1     160.319 168.153 152.484  1.00  0.00     0.053 C 
BRANCH  13  14
ATOM     14  C   UNL     1     160.448 166.984 153.413  1.00  0.00     0.041 C 
ATOM     15  O   UNL     1     161.412 166.183 153.290  1.00  0.00    -0.550 OA
ATOM     16  O   UNL     1     159.496 166.770 154.402  1.00  0.00    -0.550 OA
ENDBRANCH  13  14
ENDBRANCH  12  13
ENDBRANCH  11  12
ENDBRANCH  10  11
ENDBRANCH   9  10
ENDBRANCH   8   9
ENDBRANCH   7   8
ENDBRANCH   6   7
ENDBRANCH   5   6
ENDBRANCH   4   5
ENDBRANCH   3   4
ENDBRANCH   2   3
ENDBRANCH   1   2
BRANCH   1  17
ATOM     17  C   UNL     1     167.033 167.676 154.628  1.00  0.00     0.000 C 
BRANCH  17  18
ATOM     18  C   UNL     1     166.857 169.068 155.253  1.00  0.00     0.000 C 
BRANCH  18  19
ATOM     19  C   UNL     1     167.700 170.148 154.552  1.00  0.00     0.000 C 
BRANCH  19  20
ATOM     20  C   UNL     1     166.910 171.012 153.542  1.00  0.00     0.000 C 
BRANCH  20  21
ATOM     21  C   UNL     1     167.542 171.060 152.137  1.00  0.00     0.000 C 
BRANCH  21  22
ATOM     22  C   UNL     1     168.344 169.805 151.740  1.00  0.00    -0.000 C 
BRANCH  22  23
ATOM     23  C   UNL     1     169.479 170.051 150.727  1.00  0.00    -0.000 C 
BRANCH  23  24
ATOM     24  C   UNL     1     170.813 170.408 151.398  1.00  0.00    -0.000 C 
BRANCH  24  25
ATOM     25  C   UNL     1     171.092 169.484 152.592  1.00  0.00    -0.000 C 
BRANCH  25  26
ATOM     26  C   UNL     1     171.232 170.253 153.916  1.00  0.00    -0.000 C 
BRANCH  26  27
ATOM     27  C   UNL     1     171.555 171.743 153.702  1.00  0.00    -0.000 C 
BRANCH  27  28
ATOM     28  C   UNL     1     170.450 172.667 154.236  1.00  0.00    -0.000 C 
BRANCH  28  29
ATOM     29  C   UNL     1     169.996 173.705 153.200  1.00  0.00    -0.003 C 
ATOM     30  C   UNL     1     168.637 174.291 153.568  1.00  0.00     0.004 C 
ENDBRANCH  28  29
ENDBRANCH  27  28
ENDBRANCH  26  27
ENDBRANCH  25  26
ENDBRANCH  24  25
ENDBRANCH  23  24
ENDBRANCH  22  23
ENDBRANCH  21  22
ENDBRANCH  20  21
ENDBRANCH  19  20
ENDBRANCH  18  19
ENDBRANCH  17  18
ENDBRANCH   1  17
TORSDOF 26
ENDMDL
MODEL 8
REMARK VINA RESULT:    -3.924     11.572     13.764
REMARK INTER + INTRA:         -13.274
REMARK INTER:                  -8.259
REMARK INTRA:                  -5.015
REMARK UNBOUND:                -3.385
REMARK SMILES CCCCCCCCCCCCCCCCCCCCCCCCCCCC(=O)[O-]
REMARK SMILES IDX 15 1 16 2 17 3 18 4 19 5 20 6 21 7 22 8 23 9 24 10 25 11
REMARK SMILES IDX 26 12 27 13 28 14 29 15 30 16 14 17 13 18 12 19 11 20 10 21
REMARK SMILES IDX 9 22 8 23 7 24 6 25 5 26 4 27 3 28 2 29 1 30
REMARK H PARENT
REMARK Flexibility Score: inf
ROOT
ATOM      1  C   UNL     1     167.567 168.153 155.274  1.00  0.00     0.000 C 
ENDROOT
BRANCH   1   2
ATOM      2  C   UNL     1     168.587 168.415 154.153  1.00  0.00     0.000 C 
BRANCH   2   3
ATOM      3  C   UNL     1     169.872 169.139 154.599  1.00  0.00     0.000 C 
BRANCH   3   4
ATOM      4  C   UNL     1     169.732 170.661 154.798  1.00  0.00     0.000 C 
BRANCH   4   5
ATOM      5  C   UNL     1     168.637 171.335 153.951  1.00  0.00     0.000 C 
BRANCH   5   6
ATOM      6  C   UNL     1     168.998 172.726 153.396  1.00  0.00     0.000 C 
BRANCH   6   7
ATOM      7  C   UNL     1     170.359 173.269 153.881  1.00  0.00     0.000 C 
BRANCH   7   8
ATOM      8  C   UNL     1     171.370 173.467 152.737  1.00  0.00     0.000 C 
BRANCH   8   9
ATOM      9  C   UNL     1     171.991 172.148 152.254  1.00  0.00     0.000 C 
BRANCH   9  10
ATOM     10  C   UNL     1     171.431 171.683 150.902  1.00  0.00     0.000 C 
BRANCH  10  11
ATOM     11  C   UNL     1     170.707 170.338 151.043  1.00  0.00     0.000 C 
BRANCH  11  12
ATOM     12  C   UNL     1     169.296 170.406 150.442  1.00  0.00     0.006 C 
BRANCH  12  13
ATOM     13  C   UNL     1     168.564 169.060 150.515  1.00  0.00     0.053 C 
BRANCH  13  14
ATOM     14  C   UNL     1     168.490 168.392 149.176  1.00  0.00     0.041 C 
ATOM     15  O   UNL     1     167.947 167.261 149.062  1.00  0.00    -0.550 OA
ATOM     16  O   UNL     1     169.035 169.009 148.056  1.00  0.00    -0.550 OA
ENDBRANCH  13  14
ENDBRANCH  12  13
ENDBRANCH  11  12
ENDBRANCH  10  11
ENDBRANCH   9  10
ENDBRANCH   8   9
ENDBRANCH   7   8
ENDBRANCH   6   7
ENDBRANCH   5   6
ENDBRANCH   4   5
ENDBRANCH   3   4
ENDBRANCH   2   3
ENDBRANCH   1   2
BRANCH   1  17
ATOM     17  C   UNL     1     166.153 168.643 154.924  1.00  0.00     0.000 C 
BRANCH  17  18
ATOM     18  C   UNL     1     165.993 168.805 153.404  1.00  0.00     0.000 C 
BRANCH  18  19
ATOM     19  C   UNL     1     165.506 170.209 153.003  1.00  0.00     0.000 C 
BRANCH  19  20
ATOM     20  C   UNL     1     165.279 170.390 151.484  1.00  0.00     0.000 C 
BRANCH  20  21
ATOM     21  C   UNL     1     164.921 169.082 150.750  1.00  0.00     0.000 C 
BRANCH  21  22
ATOM     22  C   UNL     1     163.677 169.162 149.844  1.00  0.00    -0.000 C 
BRANCH  22  23
ATOM     23  C   UNL     1     162.429 169.777 150.506  1.00  0.00    -0.000 C 
BRANCH  23  24
ATOM     24  C   UNL     1     161.931 168.969 151.713  1.00  0.00    -0.000 C 
BRANCH  24  25
ATOM     25  C   UNL     1     161.835 169.855 152.964  1.00  0.00    -0.000 C 
BRANCH  25  26
ATOM     26  C   UNL     1     162.221 169.107 154.250  1.00  0.00    -0.000 C 
BRANCH  26  27
ATOM     27  C   UNL     1     162.562 167.628 153.993  1.00  0.00    -0.000 C 
BRANCH  27  28
ATOM     28  C   UNL     1     161.740 166.673 154.872  1.00  0.00    -0.000 C 
BRANCH  28  29
ATOM     29  C   UNL     1     160.300 167.160 155.085  1.00  0.00    -0.003 C 
ATOM     30  C   UNL     1     159.363 166.585 154.028  1.00  0.00     0.004 C 
ENDBRANCH  28  29
ENDBRANCH  27  28
ENDBRANCH  26  27
ENDBRANCH  25  26
ENDBRANCH  24  25
ENDBRANCH  23  24
ENDBRANCH  22  23
ENDBRANCH  21  22
ENDBRANCH  20  21
ENDBRANCH  19  20
ENDBRANCH  18  19
ENDBRANCH  17  18
ENDBRANCH   1  17
TORSDOF 26
ENDMDL
MODEL 9
REMARK VINA RESULT:    -3.918     11.939     16.012
REMARK INTER + INTRA:         -13.258
REMARK INTER:                  -8.078
REMARK INTRA:                  -5.179
REMARK UNBOUND:                -3.385
REMARK SMILES CCCCCCCCCCCCCCCCCCCCCCCCCCCC(=O)[O-]
REMARK SMILES IDX 15 1 16 2 17 3 18 4 19 5 20 6 21 7 22 8 23 9 24 10 25 11
REMARK SMILES IDX 26 12 27 13 28 14 29 15 30 16 14 17 13 18 12 19 11 20 10 21
REMARK SMILES IDX 9 22 8 23 7 24 6 25 5 26 4 27 3 28 2 29 1 30
REMARK H PARENT
REMARK Flexibility Score: inf
ROOT
ATOM      1  C   UNL     1     169.102 171.461 154.234  1.00  0.00     0.000 C 
ENDROOT
BRANCH   1   2
ATOM      2  C   UNL     1     168.208 172.047 153.129  1.00  0.00     0.000 C 
BRANCH   2   3
ATOM      3  C   UNL     1     167.305 171.026 152.410  1.00  0.00     0.000 C 
BRANCH   3   4
ATOM      4  C   UNL     1     165.984 170.694 153.133  1.00  0.00     0.000 C 
BRANCH   4   5
ATOM      5  C   UNL     1     165.993 169.388 153.948  1.00  0.00     0.000 C 
BRANCH   5   6
ATOM      6  C   UNL     1     166.071 168.095 153.115  1.00  0.00     0.000 C 
BRANCH   6   7
ATOM      7  C   UNL     1     164.999 167.044 153.475  1.00  0.00     0.000 C 
BRANCH   7   8
ATOM      8  C   UNL     1     164.099 167.480 154.646  1.00  0.00     0.000 C 
BRANCH   8   9
ATOM      9  C   UNL     1     162.631 167.068 154.456  1.00  0.00     0.000 C 
BRANCH   9  10
ATOM     10  C   UNL     1     161.902 167.921 153.407  1.00  0.00     0.000 C 
BRANCH  10  11
ATOM     11  C   UNL     1     162.198 169.412 153.612  1.00  0.00     0.000 C 
BRANCH  11  12
ATOM     12  C   UNL     1     162.216 170.160 152.272  1.00  0.00     0.006 C 
BRANCH  12  13
ATOM     13  C   UNL     1     163.127 169.485 151.239  1.00  0.00     0.053 C 
BRANCH  13  14
ATOM     14  C   UNL     1     163.376 170.367 150.053  1.00  0.00     0.041 C 
ATOM     15  O   UNL     1     164.419 171.069 149.996  1.00  0.00    -0.550 OA
ATOM     16  O   UNL     1     162.447 170.428 149.021  1.00  0.00    -0.550 OA
ENDBRANCH  13  14
ENDBRANCH  12  13
ENDBRANCH  11  12
ENDBRANCH  10  11
ENDBRANCH   9  10
ENDBRANCH   8   9
ENDBRANCH   7   8
ENDBRANCH   6   7
ENDBRANCH   5   6
ENDBRANCH   4   5
ENDBRANCH   3   4
ENDBRANCH   2   3
ENDBRANCH   1   2
BRANCH   1  17
ATOM     17  C   UNL     1     170.484 172.128 154.304  1.00  0.00     0.000 C 
BRANCH  17  18
ATOM     18  C   UNL     1     170.521 173.399 153.442  1.00  0.00     0.000 C 
BRANCH  18  19
ATOM     19  C   UNL     1     171.636 173.368 152.382  1.00  0.00     0.000 C 
BRANCH  19  20
ATOM     20  C   UNL     1     171.953 171.957 151.836  1.00  0.00     0.000 C 
BRANCH  20  21
ATOM     21  C   UNL     1     171.182 171.600 150.550  1.00  0.00     0.000 C 
BRANCH  21  22
ATOM     22  C   UNL     1     170.370 170.293 150.618  1.00  0.00    -0.000 C 
BRANCH  22  23
ATOM     23  C   UNL     1     171.200 169.024 150.890  1.00  0.00    -0.000 C 
BRANCH  23  24
ATOM     24  C   UNL     1     170.379 167.896 151.532  1.00  0.00    -0.000 C 
BRANCH  24  25
ATOM     25  C   UNL     1     169.875 168.307 152.923  1.00  0.00    -0.000 C 
BRANCH  25  26
ATOM     26  C   UNL     1     171.005 168.395 153.961  1.00  0.00    -0.000 C 
BRANCH  26  27
ATOM     27  C   UNL     1     170.524 168.068 155.386  1.00  0.00    -0.000 C 
BRANCH  27  28
ATOM     28  C   UNL     1     168.996 167.943 155.477  1.00  0.00    -0.000 C 
BRANCH  28  29
ATOM     29  C   UNL     1     168.542 166.534 155.885  1.00  0.00    -0.003 C 
ATOM     30  C   UNL     1     167.190 166.574 156.588  1.00  0.00     0.004 C 
ENDBRANCH  28  29
ENDBRANCH  27  28
ENDBRANCH  26  27
ENDBRANCH  25  26
ENDBRANCH  24  25
ENDBRANCH  23  24
ENDBRANCH  22  23
ENDBRANCH  21  22
ENDBRANCH  20  21
ENDBRANCH  19  20
ENDBRANCH  18  19
ENDBRANCH  17  18
ENDBRANCH   1  17
TORSDOF 26
ENDMDL
