MODEL 1
REMARK VINA RESULT:    -3.099      0.000      0.000
REMARK INTER + INTRA:          -4.471
REMARK INTER:                  -4.185
REMARK INTRA:                  -0.286
REMARK UNBOUND:                -0.286
REMARK SMILES C=C1CCC=C(C)CC[C@H]2[C@H]1CC2(C)C
REMARK SMILES IDX 11 1 12 2 13 3 10 4 14 5 15 6 9 7 8 8 6 9 7 10 5 11 2 13
REMARK SMILES IDX 1 14 3 15 4 16
REMARK H PARENT
REMARK Flexibility Score: 70.00
ROOT
ATOM      1  C   UNL     1      50.124  30.959  29.678  1.00  0.00     0.018 C 
ATOM      2  C   UNL     1      49.667  31.722  30.925  1.00  0.00     0.015 C 
ATOM      3  C   UNL     1      49.670  33.036  30.121  1.00  0.00    -0.031 C 
ATOM      4  C   UNL     1      49.983  32.231  28.831  1.00  0.00     0.002 C 
ATOM      5  C   UNL     1      50.769  34.006  30.604  1.00  0.00     0.011 C 
ATOM      6  C   UNL     1      48.299  33.735  30.082  1.00  0.00     0.011 C 
ENDROOT
BRANCH   4   7
ATOM      7  C   UNL     1      51.249  32.608  28.034  1.00  0.00     0.009 C 
BRANCH   7   8
ATOM      8  C   UNL     1      51.209  32.063  26.594  1.00  0.00     0.030 C 
BRANCH   8   9
ATOM      9  C   UNL     1      51.999  30.772  26.448  1.00  0.00    -0.077 C 
ATOM     10  C   UNL     1      53.474  30.882  26.153  1.00  0.00     0.039 C 
ATOM     11  C   UNL     1      51.478  29.529  26.590  1.00  0.00    -0.028 CG0
ATOM     12  G   UNL     1      50.048  29.175  26.923  1.00  0.00     0.000 G0
ENDBRANCH   8   9
ENDBRANCH   7   8
ENDBRANCH   4   7
BRANCH   1  13
ATOM     13  C   UNL     1      49.252  29.800  29.217  1.00  0.00    -0.074 C 
ATOM     14  C   UNL     1      47.928  29.759  29.453  1.00  0.00     0.008 C 
BRANCH  13  15
ATOM     15  C   UNL     1      49.885  28.721  28.370  1.00  0.00     0.035 C 
BRANCH  15  16
ATOM     16  C   UNL     1      50.044  29.173  26.910  1.00  0.00     0.032 CG0
ATOM     17  G   UNL     1      51.477  29.528  26.589  1.00  0.00     0.000 G0
ENDBRANCH  15  16
ENDBRANCH  13  15
ENDBRANCH   1  13
TORSDOF 0
ENDMDL
MODEL 2
REMARK VINA RESULT:    -2.604      3.049      6.291
REMARK INTER + INTRA:          -3.803
REMARK INTER:                  -3.463
REMARK INTRA:                  -0.339
REMARK UNBOUND:                -0.286
REMARK SMILES C=C1CCC=C(C)CC[C@H]2[C@H]1CC2(C)C
REMARK SMILES IDX 11 1 12 2 13 3 10 4 14 5 15 6 9 7 8 8 6 9 7 10 5 11 2 13
REMARK SMILES IDX 1 14 3 15 4 16
REMARK H PARENT
REMARK Flexibility Score: 70.00
ROOT
ATOM      1  C   UNL     1      54.752  30.284  26.112  1.00  0.00     0.018 C 
ATOM      2  C   UNL     1      56.265  30.212  25.876  1.00  0.00     0.015 C 
ATOM      3  C   UNL     1      56.178  28.676  25.794  1.00  0.00    -0.031 C 
ATOM      4  C   UNL     1      54.631  28.772  25.880  1.00  0.00     0.002 C 
ATOM      5  C   UNL     1      56.886  27.993  26.983  1.00  0.00     0.011 C 
ATOM      6  C   UNL     1      56.677  28.103  24.455  1.00  0.00     0.011 C 
ENDROOT
BRANCH   4   7
ATOM      7  C   UNL     1      53.922  28.009  27.018  1.00  0.00     0.009 C 
BRANCH   7   8
ATOM      8  C   UNL     1      52.431  27.768  26.712  1.00  0.00     0.030 C 
BRANCH   8   9
ATOM      9  C   UNL     1      51.535  28.789  27.394  1.00  0.00    -0.077 C 
ATOM     10  C   UNL     1      51.054  28.480  28.790  1.00  0.00     0.039 C 
ATOM     11  C   UNL     1      51.156  29.969  26.848  1.00  0.00    -0.028 CG0
ATOM     12  G   UNL     1      51.543  30.509  25.491  1.00  0.00     0.000 G0
ENDBRANCH   8   9
ENDBRANCH   7   8
ENDBRANCH   4   7
BRANCH   1  13
ATOM     13  C   UNL     1      53.941  31.133  25.144  1.00  0.00    -0.074 C 
ATOM     14  C   UNL     1      54.340  31.362  23.880  1.00  0.00     0.008 C 
BRANCH  13  15
ATOM     15  C   UNL     1      52.590  31.636  25.595  1.00  0.00     0.035 C 
BRANCH  15  16
ATOM     16  C   UNL     1      51.519  30.539  25.496  1.00  0.00     0.032 CG0
ATOM     17  G   UNL     1      51.179  29.967  26.852  1.00  0.00     0.000 G0
ENDBRANCH  15  16
ENDBRANCH  13  15
ENDBRANCH   1  13
TORSDOF 0
ENDMDL
MODEL 3
REMARK VINA RESULT:    -2.562      1.393      3.277
REMARK INTER + INTRA:          -3.746
REMARK INTER:                  -3.419
REMARK INTRA:                  -0.327
REMARK UNBOUND:                -0.286
REMARK SMILES C=C1CCC=C(C)CC[C@H]2[C@H]1CC2(C)C
REMARK SMILES IDX 11 1 12 2 13 3 10 4 14 5 15 6 9 7 8 8 6 9 7 10 5 11 2 13
REMARK SMILES IDX 1 14 3 15 4 16
REMARK H PARENT
REMARK Flexibility Score: 70.00
ROOT
ATOM      1  C   UNL     1      49.512  32.552  28.305  1.00  0.00     0.018 C 
ATOM      2  C   UNL     1      49.071  33.134  29.652  1.00  0.00     0.015 C 
ATOM      3  C   UNL     1      49.602  31.877  30.368  1.00  0.00    -0.031 C 
ATOM      4  C   UNL     1      50.179  31.369  29.020  1.00  0.00     0.002 C 
ATOM      5  C   UNL     1      48.462  31.038  30.982  1.00  0.00     0.011 C 
ATOM      6  C   UNL     1      50.687  32.180  31.417  1.00  0.00     0.011 C 
ENDROOT
BRANCH   4   7
ATOM      7  C   UNL     1      49.725  29.983  28.516  1.00  0.00     0.009 C 
BRANCH   7   8
ATOM      8  C   UNL     1      50.767  29.337  27.583  1.00  0.00     0.030 C 
BRANCH   8   9
ATOM      9  C   UNL     1      50.410  29.516  26.116  1.00  0.00    -0.077 C 
ATOM     10  C   UNL     1      49.593  28.433  25.456  1.00  0.00     0.039 C 
ATOM     11  C   UNL     1      50.752  30.590  25.365  1.00  0.00    -0.028 CG0
ATOM     12  G   UNL     1      51.527  31.806  25.816  1.00  0.00     0.000 G0
ENDBRANCH   8   9
ENDBRANCH   7   8
ENDBRANCH   4   7
BRANCH   1  13
ATOM     13  C   UNL     1      50.461  33.393  27.465  1.00  0.00    -0.074 C 
ATOM     14  C   UNL     1      51.227  34.362  27.999  1.00  0.00     0.008 C 
BRANCH  13  15
ATOM     15  C   UNL     1      50.624  33.043  26.004  1.00  0.00     0.035 C 
BRANCH  15  16
ATOM     16  C   UNL     1      51.537  31.821  25.817  1.00  0.00     0.032 CG0
ATOM     17  G   UNL     1      50.757  30.606  25.371  1.00  0.00     0.000 G0
ENDBRANCH  15  16
ENDBRANCH  13  15
ENDBRANCH   1  13
TORSDOF 0
ENDMDL
MODEL 4
REMARK VINA RESULT:    -2.538      1.042      3.300
REMARK INTER + INTRA:          -3.714
REMARK INTER:                  -3.393
REMARK INTRA:                  -0.321
REMARK UNBOUND:                -0.286
REMARK SMILES C=C1CCC=C(C)CC[C@H]2[C@H]1CC2(C)C
REMARK SMILES IDX 11 1 12 2 13 3 10 4 14 5 15 6 9 7 8 8 6 9 7 10 5 11 2 13
REMARK SMILES IDX 1 14 3 15 4 16
REMARK H PARENT
REMARK Flexibility Score: 70.00
ROOT
ATOM      1  C   UNL     1      50.404  32.605  27.569  1.00  0.00     0.018 C 
ATOM      2  C   UNL     1      50.151  34.004  28.141  1.00  0.00     0.015 C 
ATOM      3  C   UNL     1      50.085  33.410  29.561  1.00  0.00    -0.031 C 
ATOM      4  C   UNL     1      50.493  32.027  28.987  1.00  0.00     0.002 C 
ATOM      5  C   UNL     1      48.666  33.508  30.162  1.00  0.00     0.011 C 
ATOM      6  C   UNL     1      51.131  34.000  30.524  1.00  0.00     0.011 C 
ENDROOT
BRANCH   4   7
ATOM      7  C   UNL     1      49.553  30.831  29.246  1.00  0.00     0.009 C 
BRANCH   7   8
ATOM      8  C   UNL     1      50.299  29.485  29.189  1.00  0.00     0.030 C 
BRANCH   8   9
ATOM      9  C   UNL     1      50.132  28.795  27.844  1.00  0.00    -0.077 C 
ATOM     10  C   UNL     1      48.983  27.832  27.687  1.00  0.00     0.039 C 
ATOM     11  C   UNL     1      50.928  29.003  26.767  1.00  0.00    -0.028 CG0
ATOM     12  G   UNL     1      52.107  29.944  26.675  1.00  0.00     0.000 G0
ENDBRANCH   8   9
ENDBRANCH   7   8
ENDBRANCH   4   7
BRANCH   1  13
ATOM     13  C   UNL     1      51.663  32.417  26.736  1.00  0.00    -0.074 C 
ATOM     14  C   UNL     1      52.723  33.239  26.839  1.00  0.00     0.008 C 
BRANCH  13  15
ATOM     15  C   UNL     1      51.758  31.197  25.850  1.00  0.00     0.035 C 
BRANCH  15  16
ATOM     16  C   UNL     1      52.111  29.939  26.660  1.00  0.00     0.032 CG0
ATOM     17  G   UNL     1      50.933  29.001  26.775  1.00  0.00     0.000 G0
ENDBRANCH  15  16
ENDBRANCH  13  15
ENDBRANCH   1  13
TORSDOF 0
ENDMDL
MODEL 5
REMARK VINA RESULT:    -2.474      1.979      3.160
REMARK INTER + INTRA:          -3.628
REMARK INTER:                  -3.337
REMARK INTRA:                  -0.290
REMARK UNBOUND:                -0.286
REMARK SMILES C=C1CCC=C(C)CC[C@H]2[C@H]1CC2(C)C
REMARK SMILES IDX 11 1 12 2 13 3 10 4 14 5 15 6 9 7 8 8 6 9 7 10 5 11 2 13
REMARK SMILES IDX 1 14 3 15 4 16
REMARK H PARENT
REMARK Flexibility Score: 70.00
ROOT
ATOM      1  C   UNL     1      48.838  32.629  27.996  1.00  0.00     0.018 C 
ATOM      2  C   UNL     1      48.575  33.279  29.358  1.00  0.00     0.015 C 
ATOM      3  C   UNL     1      49.967  32.829  29.841  1.00  0.00    -0.031 C 
ATOM      4  C   UNL     1      50.281  32.310  28.412  1.00  0.00     0.002 C 
ATOM      5  C   UNL     1      49.876  31.761  30.950  1.00  0.00     0.011 C 
ATOM      6  C   UNL     1      50.873  33.996  30.275  1.00  0.00     0.011 C 
ENDROOT
BRANCH   4   7
ATOM      7  C   UNL     1      50.675  30.827  28.252  1.00  0.00     0.009 C 
BRANCH   7   8
ATOM      8  C   UNL     1      51.588  30.599  27.032  1.00  0.00     0.030 C 
BRANCH   8   9
ATOM      9  C   UNL     1      50.814  30.091  25.826  1.00  0.00    -0.077 C 
ATOM     10  C   UNL     1      50.741  28.599  25.616  1.00  0.00     0.039 C 
ATOM     11  C   UNL     1      50.162  30.882  24.940  1.00  0.00    -0.028 CG0
ATOM     12  G   UNL     1      50.061  32.389  24.968  1.00  0.00     0.000 G0
ENDBRANCH   8   9
ENDBRANCH   7   8
ENDBRANCH   4   7
BRANCH   1  13
ATOM     13  C   UNL     1      48.723  33.521  26.769  1.00  0.00    -0.074 C 
ATOM     14  C   UNL     1      48.765  34.863  26.850  1.00  0.00     0.008 C 
BRANCH  13  15
ATOM     15  C   UNL     1      48.673  32.864  25.409  1.00  0.00     0.035 C 
BRANCH  15  16
ATOM     16  C   UNL     1      50.066  32.394  24.960  1.00  0.00     0.032 CG0
ATOM     17  G   UNL     1      50.165  30.886  24.939  1.00  0.00     0.000 G0
ENDBRANCH  15  16
ENDBRANCH  13  15
ENDBRANCH   1  13
TORSDOF 0
ENDMDL
MODEL 6
REMARK VINA RESULT:    -2.391      1.750      2.376
REMARK INTER + INTRA:          -3.516
REMARK INTER:                  -3.329
REMARK INTRA:                  -0.187
REMARK UNBOUND:                -0.286
REMARK SMILES C=C1CCC=C(C)CC[C@H]2[C@H]1CC2(C)C
REMARK SMILES IDX 11 1 12 2 13 3 10 4 14 5 15 6 9 7 8 8 6 9 7 10 5 11 2 13
REMARK SMILES IDX 1 14 3 15 4 16
REMARK H PARENT
REMARK Flexibility Score: 70.00
ROOT
ATOM      1  C   UNL     1      51.232  31.580  27.994  1.00  0.00     0.018 C 
ATOM      2  C   UNL     1      50.540  32.743  28.713  1.00  0.00     0.015 C 
ATOM      3  C   UNL     1      50.957  33.694  27.574  1.00  0.00    -0.031 C 
ATOM      4  C   UNL     1      51.518  32.481  26.785  1.00  0.00     0.002 C 
ATOM      5  C   UNL     1      51.990  34.740  28.044  1.00  0.00     0.011 C 
ATOM      6  C   UNL     1      49.766  34.374  26.876  1.00  0.00     0.011 C 
ENDROOT
BRANCH   4   7
ATOM      7  C   UNL     1      53.001  32.520  26.358  1.00  0.00     0.009 C 
BRANCH   7   8
ATOM      8  C   UNL     1      53.363  31.356  25.417  1.00  0.00     0.030 C 
BRANCH   8   9
ATOM      9  C   UNL     1      53.994  30.192  26.163  1.00  0.00    -0.077 C 
ATOM     10  C   UNL     1      55.459  30.290  26.508  1.00  0.00     0.039 C 
ATOM     11  C   UNL     1      53.328  29.082  26.565  1.00  0.00    -0.028 CG0
ATOM     12  G   UNL     1      51.860  28.781  26.371  1.00  0.00     0.000 G0
ENDBRANCH   8   9
ENDBRANCH   7   8
ENDBRANCH   4   7
BRANCH   1  13
ATOM     13  C   UNL     1      50.382  30.359  27.677  1.00  0.00    -0.074 C 
ATOM     14  C   UNL     1      49.095  30.458  27.298  1.00  0.00     0.008 C 
BRANCH  13  15
ATOM     15  C   UNL     1      51.047  29.003  27.683  1.00  0.00     0.035 C 
BRANCH  15  16
ATOM     16  C   UNL     1      51.845  28.762  26.392  1.00  0.00     0.032 CG0
ATOM     17  G   UNL     1      53.313  29.066  26.578  1.00  0.00     0.000 G0
ENDBRANCH  15  16
ENDBRANCH  13  15
ENDBRANCH   1  13
TORSDOF 0
ENDMDL
MODEL 7
REMARK VINA RESULT:    -2.343      1.953      4.371
REMARK INTER + INTRA:          -3.451
REMARK INTER:                  -3.521
REMARK INTRA:                   0.070
REMARK UNBOUND:                -0.286
REMARK SMILES C=C1CCC=C(C)CC[C@H]2[C@H]1CC2(C)C
REMARK SMILES IDX 11 1 12 2 13 3 10 4 14 5 15 6 9 7 8 8 6 9 7 10 5 11 2 13
REMARK SMILES IDX 1 14 3 15 4 16
REMARK H PARENT
REMARK Flexibility Score: 70.00
ROOT
ATOM      1  C   UNL     1      50.886  32.603  28.407  1.00  0.00     0.018 C 
ATOM      2  C   UNL     1      51.058  33.616  27.270  1.00  0.00     0.015 C 
ATOM      3  C   UNL     1      50.250  32.699  26.332  1.00  0.00    -0.031 C 
ATOM      4  C   UNL     1      49.953  31.757  27.529  1.00  0.00     0.002 C 
ATOM      5  C   UNL     1      51.124  32.113  25.203  1.00  0.00     0.011 C 
ATOM      6  C   UNL     1      48.987  33.367  25.758  1.00  0.00     0.011 C 
ENDROOT
BRANCH   4   7
ATOM      7  C   UNL     1      50.368  30.276  27.404  1.00  0.00     0.009 C 
BRANCH   7   8
ATOM      8  C   UNL     1      50.189  29.511  28.729  1.00  0.00     0.030 C 
BRANCH   8   9
ATOM      9  C   UNL     1      48.731  29.435  29.154  1.00  0.00    -0.077 C 
ATOM     10  C   UNL     1      47.878  28.351  28.544  1.00  0.00     0.039 C 
ATOM     11  C   UNL     1      48.149  30.256  30.061  1.00  0.00    -0.028 CG0
ATOM     12  G   UNL     1      48.809  31.379  30.827  1.00  0.00     0.000 G0
ENDBRANCH   8   9
ENDBRANCH   7   8
ENDBRANCH   4   7
BRANCH   1  13
ATOM     13  C   UNL     1      50.249  33.108  29.693  1.00  0.00    -0.074 C 
ATOM     14  C   UNL     1      50.862  33.992  30.500  1.00  0.00     0.008 C 
BRANCH  13  15
ATOM     15  C   UNL     1      48.834  32.681  30.005  1.00  0.00     0.035 C 
BRANCH  15  16
ATOM     16  C   UNL     1      48.806  31.381  30.825  1.00  0.00     0.032 CG0
ATOM     17  G   UNL     1      48.134  30.259  30.068  1.00  0.00     0.000 G0
ENDBRANCH  15  16
ENDBRANCH  13  15
ENDBRANCH   1  13
TORSDOF 0
ENDMDL
MODEL 8
REMARK VINA RESULT:    -2.300      2.468      4.388
REMARK INTER + INTRA:          -3.393
REMARK INTER:                  -3.572
REMARK INTRA:                   0.179
REMARK UNBOUND:                -0.286
REMARK SMILES C=C1CCC=C(C)CC[C@H]2[C@H]1CC2(C)C
REMARK SMILES IDX 11 1 12 2 13 3 10 4 14 5 15 6 9 7 8 8 6 9 7 10 5 11 2 13
REMARK SMILES IDX 1 14 3 15 4 16
REMARK H PARENT
REMARK Flexibility Score: 70.00
ROOT
ATOM      1  C   UNL     1      49.336  31.327  28.542  1.00  0.00     0.018 C 
ATOM      2  C   UNL     1      49.204  29.896  28.008  1.00  0.00     0.015 C 
ATOM      3  C   UNL     1      50.518  30.068  27.224  1.00  0.00    -0.031 C 
ATOM      4  C   UNL     1      50.719  31.455  27.890  1.00  0.00     0.002 C 
ATOM      5  C   UNL     1      50.284  30.071  25.699  1.00  0.00     0.011 C 
ATOM      6  C   UNL     1      51.603  29.046  27.611  1.00  0.00     0.011 C 
ENDROOT
BRANCH   4   7
ATOM      7  C   UNL     1      50.876  32.683  26.969  1.00  0.00     0.009 C 
BRANCH   7   8
ATOM      8  C   UNL     1      50.420  33.984  27.656  1.00  0.00     0.030 C 
BRANCH   8   9
ATOM      9  C   UNL     1      51.472  34.528  28.610  1.00  0.00    -0.077 C 
ATOM     10  C   UNL     1      52.613  35.318  28.020  1.00  0.00     0.039 C 
ATOM     11  C   UNL     1      51.446  34.374  29.956  1.00  0.00    -0.028 CG0
ATOM     12  G   UNL     1      50.391  33.662  30.770  1.00  0.00     0.000 G0
ENDBRANCH   8   9
ENDBRANCH   7   8
ENDBRANCH   4   7
BRANCH   1  13
ATOM     13  C   UNL     1      49.336  31.505  30.053  1.00  0.00    -0.074 C 
ATOM     14  C   UNL     1      48.349  31.028  30.833  1.00  0.00     0.008 C 
BRANCH  13  15
ATOM     15  C   UNL     1      50.545  32.141  30.698  1.00  0.00     0.035 C 
BRANCH  15  16
ATOM     16  C   UNL     1      50.400  33.669  30.780  1.00  0.00     0.032 CG0
ATOM     17  G   UNL     1      51.458  34.374  29.964  1.00  0.00     0.000 G0
ENDBRANCH  15  16
ENDBRANCH  13  15
ENDBRANCH   1  13
TORSDOF 0
ENDMDL
MODEL 9
REMARK VINA RESULT:    -2.041      1.942      4.918
REMARK INTER + INTRA:          -3.042
REMARK INTER:                  -3.111
REMARK INTRA:                   0.068
REMARK UNBOUND:                -0.286
REMARK SMILES C=C1CCC=C(C)CC[C@H]2[C@H]1CC2(C)C
REMARK SMILES IDX 11 1 12 2 13 3 10 4 14 5 15 6 9 7 8 8 6 9 7 10 5 11 2 13
REMARK SMILES IDX 1 14 3 15 4 16
REMARK H PARENT
REMARK Flexibility Score: 70.00
ROOT
ATOM      1  C   UNL     1      51.627  30.543  27.494  1.00  0.00     0.018 C 
ATOM      2  C   UNL     1      51.313  29.278  26.687  1.00  0.00     0.015 C 
ATOM      3  C   UNL     1      49.933  29.190  27.366  1.00  0.00    -0.031 C 
ATOM      4  C   UNL     1      50.201  30.552  28.060  1.00  0.00     0.002 C 
ATOM      5  C   UNL     1      49.823  27.961  28.293  1.00  0.00     0.011 C 
ATOM      6  C   UNL     1      48.756  29.236  26.374  1.00  0.00     0.011 C 
ENDROOT
BRANCH   4   7
ATOM      7  C   UNL     1      50.130  30.604  29.601  1.00  0.00     0.009 C 
BRANCH   7   8
ATOM      8  C   UNL     1      50.398  32.019  30.145  1.00  0.00     0.030 C 
BRANCH   8   9
ATOM      9  C   UNL     1      49.436  33.046  29.570  1.00  0.00    -0.077 C 
ATOM     10  C   UNL     1      48.101  33.215  30.251  1.00  0.00     0.039 C 
ATOM     11  C   UNL     1      49.701  33.838  28.504  1.00  0.00    -0.028 CG0
ATOM     12  G   UNL     1      50.975  33.876  27.693  1.00  0.00     0.000 G0
ENDBRANCH   8   9
ENDBRANCH   7   8
ENDBRANCH   4   7
BRANCH   1  13
ATOM     13  C   UNL     1      51.997  31.791  26.707  1.00  0.00    -0.074 C 
ATOM     14  C   UNL     1      53.184  31.927  26.090  1.00  0.00     0.008 C 
BRANCH  13  15
ATOM     15  C   UNL     1      50.944  32.860  26.526  1.00  0.00     0.035 C 
BRANCH  15  16
ATOM     16  C   UNL     1      50.972  33.878  27.678  1.00  0.00     0.032 CG0
ATOM     17  G   UNL     1      49.701  33.831  28.494  1.00  0.00     0.000 G0
ENDBRANCH  15  16
ENDBRANCH  13  15
ENDBRANCH   1  13
TORSDOF 0
ENDMDL
