MODEL 1
REMARK VINA RESULT:    -7.508      0.000      0.000
REMARK INTER + INTRA:          -9.367
REMARK INTER:                  -9.045
REMARK INTRA:                  -0.323
REMARK UNBOUND:                -0.323
REMARK SMILES O=c1c(O)c(-c2ccc(O)c(O)c2)oc2cc(O)cc(O)c12
REMARK SMILES IDX 5 1 3 2 2 3 1 4 22 5 20 6 19 7 17 8 16 9 15 10 14 11 6 12
REMARK SMILES IDX 7 13 8 14 9 15 13 16 11 17 10 18 12 20 4 22 21 24 18 26
REMARK H PARENT 10 19 12 21 4 23 21 25 18 27
REMARK Flexibility Score: inf
ROOT
ATOM      1  C   UNL     1     -34.875  -3.871 -17.359  1.00  0.00     0.180 A 
ATOM      2  C   UNL     1     -35.678  -2.951 -16.663  1.00  0.00     0.208 A 
ATOM      3  C   UNL     1     -36.752  -3.431 -15.896  1.00  0.00     0.238 A 
ATOM      4  O   UNL     1     -37.501  -2.600 -15.318  1.00  0.00    -0.285 OA
ATOM      5  C   UNL     1     -36.999  -4.824 -15.822  1.00  0.00     0.111 A 
ATOM      6  C   UNL     1     -38.034  -5.422 -15.043  1.00  0.00     0.134 A 
ATOM      7  C   UNL     1     -38.269  -6.799 -15.148  1.00  0.00     0.093 A 
ATOM      8  C   UNL     1     -37.466  -7.607 -15.950  1.00  0.00     0.123 A 
ATOM      9  C   UNL     1     -36.413  -7.041 -16.670  1.00  0.00     0.094 A 
ATOM     10  C   UNL     1     -36.177  -5.665 -16.615  1.00  0.00     0.146 A 
ATOM     11  O   UNL     1     -35.172  -5.164 -17.323  1.00  0.00    -0.452 OA
ENDROOT
BRANCH   1  12
ATOM     12  C   UNL     1     -33.710  -3.444 -18.168  1.00  0.00     0.025 A 
ATOM     13  C   UNL     1     -32.412  -3.427 -17.629  1.00  0.00     0.016 A 
ATOM     14  C   UNL     1     -31.324  -3.043 -18.418  1.00  0.00     0.051 A 
ATOM     15  C   UNL     1     -31.512  -2.686 -19.757  1.00  0.00     0.157 A 
ATOM     16  C   UNL     1     -33.893  -3.104 -19.519  1.00  0.00     0.062 A 
ATOM     17  C   UNL     1     -32.803  -2.718 -20.312  1.00  0.00     0.158 A 
BRANCH  15  18
ATOM     18  O   UNL     1     -30.408  -2.306 -20.519  1.00  0.00    -0.504 OA
ATOM     19  H   UNL     1     -30.449  -2.237 -21.528  1.00  0.00     0.293 HD
ENDBRANCH  15  18
BRANCH  17  20
ATOM     20  O   UNL     1     -32.996  -2.371 -21.648  1.00  0.00    -0.504 OA
ATOM     21  H   UNL     1     -33.813  -2.679 -22.164  1.00  0.00     0.293 HD
ENDBRANCH  17  20
ENDBRANCH   1  12
BRANCH   2  22
ATOM     22  O   UNL     1     -35.430  -1.580 -16.766  1.00  0.00    -0.502 OA
ATOM     23  H   UNL     1     -34.517  -1.178 -16.592  1.00  0.00     0.293 HD
ENDBRANCH   2  22
BRANCH   6  24
ATOM     24  O   UNL     1     -38.837  -4.720 -14.138  1.00  0.00    -0.507 OA
ATOM     25  H   UNL     1     -38.591  -4.531 -13.179  1.00  0.00     0.293 HD
ENDBRANCH   6  24
BRANCH   8  26
ATOM     26  O   UNL     1     -37.718  -8.975 -16.019  1.00  0.00    -0.508 OA
ATOM     27  H   UNL     1     -37.225  -9.635 -15.428  1.00  0.00     0.293 HD
ENDBRANCH   8  26
TORSDOF 6
ENDMDL
MODEL 2
REMARK VINA RESULT:    -7.422      1.552      1.919
REMARK INTER + INTRA:          -9.264
REMARK INTER:                  -9.398
REMARK INTRA:                   0.134
REMARK UNBOUND:                -0.323
REMARK SMILES O=c1c(O)c(-c2ccc(O)c(O)c2)oc2cc(O)cc(O)c12
REMARK SMILES IDX 5 1 3 2 2 3 1 4 22 5 20 6 19 7 17 8 16 9 15 10 14 11 6 12
REMARK SMILES IDX 7 13 8 14 9 15 13 16 11 17 10 18 12 20 4 22 21 24 18 26
REMARK H PARENT 10 19 12 21 4 23 21 25 18 27
REMARK Flexibility Score: inf
ROOT
ATOM      1  C   UNL     1     -35.957  -4.696 -17.063  1.00  0.00     0.180 A 
ATOM      2  C   UNL     1     -36.176  -3.716 -16.079  1.00  0.00     0.208 A 
ATOM      3  C   UNL     1     -36.986  -4.029 -14.975  1.00  0.00     0.238 A 
ATOM      4  O   UNL     1     -37.224  -3.131 -14.125  1.00  0.00    -0.285 OA
ATOM      5  C   UNL     1     -37.553  -5.322 -14.861  1.00  0.00     0.111 A 
ATOM      6  C   UNL     1     -38.356  -5.761 -13.766  1.00  0.00     0.134 A 
ATOM      7  C   UNL     1     -38.972  -7.017 -13.821  1.00  0.00     0.093 A 
ATOM      8  C   UNL     1     -38.762  -7.876 -14.899  1.00  0.00     0.123 A 
ATOM      9  C   UNL     1     -37.930  -7.481 -15.948  1.00  0.00     0.094 A 
ATOM     10  C   UNL     1     -37.331  -6.218 -15.939  1.00  0.00     0.146 A 
ATOM     11  O   UNL     1     -36.556  -5.876 -16.960  1.00  0.00    -0.452 OA
ENDROOT
BRANCH   1  12
ATOM     12  C   UNL     1     -35.095  -4.449 -18.242  1.00  0.00     0.025 A 
ATOM     13  C   UNL     1     -33.910  -3.701 -18.138  1.00  0.00     0.016 A 
ATOM     14  C   UNL     1     -33.100  -3.501 -19.258  1.00  0.00     0.051 A 
ATOM     15  C   UNL     1     -33.452  -4.054 -20.493  1.00  0.00     0.157 A 
ATOM     16  C   UNL     1     -35.436  -5.020 -19.479  1.00  0.00     0.062 A 
ATOM     17  C   UNL     1     -34.625  -4.820 -20.605  1.00  0.00     0.158 A 
BRANCH  15  18
ATOM     18  O   UNL     1     -32.625  -3.836 -21.595  1.00  0.00    -0.504 OA
ATOM     19  H   UNL     1     -32.981  -3.834 -22.543  1.00  0.00     0.293 HD
ENDBRANCH  15  18
BRANCH  17  20
ATOM     20  O   UNL     1     -34.978  -5.381 -21.832  1.00  0.00    -0.504 OA
ATOM     21  H   UNL     1     -34.659  -4.984 -22.708  1.00  0.00     0.293 HD
ENDBRANCH  17  20
ENDBRANCH   1  12
BRANCH   2  22
ATOM     22  O   UNL     1     -35.625  -2.440 -16.222  1.00  0.00    -0.502 OA
ATOM     23  H   UNL     1     -35.252  -1.917 -15.438  1.00  0.00     0.293 HD
ENDBRANCH   2  22
BRANCH   6  24
ATOM     24  O   UNL     1     -38.557  -5.018 -12.598  1.00  0.00    -0.507 OA
ATOM     25  H   UNL     1     -39.429  -4.963 -12.095  1.00  0.00     0.293 HD
ENDBRANCH   6  24
BRANCH   8  26
ATOM     26  O   UNL     1     -39.377  -9.125 -14.913  1.00  0.00    -0.508 OA
ATOM     27  H   UNL     1     -39.469  -9.661 -15.769  1.00  0.00     0.293 HD
ENDBRANCH   8  26
TORSDOF 6
ENDMDL
MODEL 3
REMARK VINA RESULT:    -7.382      1.086      1.701
REMARK INTER + INTRA:          -9.215
REMARK INTER:                  -8.917
REMARK INTRA:                  -0.298
REMARK UNBOUND:                -0.323
REMARK SMILES O=c1c(O)c(-c2ccc(O)c(O)c2)oc2cc(O)cc(O)c12
REMARK SMILES IDX 5 1 3 2 2 3 1 4 22 5 20 6 19 7 17 8 16 9 15 10 14 11 6 12
REMARK SMILES IDX 7 13 8 14 9 15 13 16 11 17 10 18 12 20 4 22 21 24 18 26
REMARK H PARENT 10 19 12 21 4 23 21 25 18 27
REMARK Flexibility Score: inf
ROOT
ATOM      1  C   UNL     1     -35.290  -4.174 -17.075  1.00  0.00     0.180 A 
ATOM      2  C   UNL     1     -35.776  -3.185 -16.202  1.00  0.00     0.208 A 
ATOM      3  C   UNL     1     -36.555  -3.573 -15.100  1.00  0.00     0.238 A 
ATOM      4  O   UNL     1     -37.033  -2.680 -14.353  1.00  0.00    -0.285 OA
ATOM      5  C   UNL     1     -36.824  -4.945 -14.875  1.00  0.00     0.111 A 
ATOM      6  C   UNL     1     -37.568  -5.454 -13.769  1.00  0.00     0.134 A 
ATOM      7  C   UNL     1     -37.885  -6.818 -13.718  1.00  0.00     0.093 A 
ATOM      8  C   UNL     1     -37.429  -7.699 -14.696  1.00  0.00     0.123 A 
ATOM      9  C   UNL     1     -36.651  -7.222 -15.751  1.00  0.00     0.094 A 
ATOM     10  C   UNL     1     -36.350  -5.861 -15.850  1.00  0.00     0.146 A 
ATOM     11  O   UNL     1     -35.615  -5.446 -16.874  1.00  0.00    -0.452 OA
ENDROOT
BRANCH   1  12
ATOM     12  C   UNL     1     -34.442  -3.846 -18.244  1.00  0.00     0.025 A 
ATOM     13  C   UNL     1     -34.989  -3.724 -19.533  1.00  0.00     0.016 A 
ATOM     14  C   UNL     1     -34.173  -3.391 -20.617  1.00  0.00     0.051 A 
ATOM     15  C   UNL     1     -32.807  -3.160 -20.430  1.00  0.00     0.157 A 
ATOM     16  C   UNL     1     -33.073  -3.595 -18.056  1.00  0.00     0.062 A 
ATOM     17  C   UNL     1     -32.253  -3.260 -19.143  1.00  0.00     0.158 A 
BRANCH  15  18
ATOM     18  O   UNL     1     -32.018  -2.831 -21.532  1.00  0.00    -0.504 OA
ATOM     19  H   UNL     1     -32.264  -3.111 -22.474  1.00  0.00     0.293 HD
ENDBRANCH  15  18
BRANCH  17  20
ATOM     20  O   UNL     1     -30.892  -3.024 -18.948  1.00  0.00    -0.504 OA
ATOM     21  H   UNL     1     -30.529  -2.086 -18.826  1.00  0.00     0.293 HD
ENDBRANCH  17  20
ENDBRANCH   1  12
BRANCH   2  22
ATOM     22  O   UNL     1     -35.516  -1.835 -16.454  1.00  0.00    -0.502 OA
ATOM     23  H   UNL     1     -35.297  -1.487 -17.379  1.00  0.00     0.293 HD
ENDBRANCH   2  22
BRANCH   6  24
ATOM     24  O   UNL     1     -37.993  -4.674 -12.689  1.00  0.00    -0.507 OA
ATOM     25  H   UNL     1     -37.983  -4.972 -11.726  1.00  0.00     0.293 HD
ENDBRANCH   6  24
BRANCH   8  26
ATOM     26  O   UNL     1     -37.749  -9.052 -14.605  1.00  0.00    -0.508 OA
ATOM     27  H   UNL     1     -37.898  -9.618 -15.433  1.00  0.00     0.293 HD
ENDBRANCH   8  26
TORSDOF 6
ENDMDL
MODEL 4
REMARK VINA RESULT:    -7.299      5.308      7.008
REMARK INTER + INTRA:          -9.116
REMARK INTER:                  -8.785
REMARK INTRA:                  -0.331
REMARK UNBOUND:                -0.323
REMARK SMILES O=c1c(O)c(-c2ccc(O)c(O)c2)oc2cc(O)cc(O)c12
REMARK SMILES IDX 5 1 3 2 2 3 1 4 22 5 20 6 19 7 17 8 16 9 15 10 14 11 6 12
REMARK SMILES IDX 7 13 8 14 9 15 13 16 11 17 10 18 12 20 4 22 21 24 18 26
REMARK H PARENT 10 19 12 21 4 23 21 25 18 27
REMARK Flexibility Score: inf
ROOT
ATOM      1  C   UNL     1     -37.502  -4.460 -12.886  1.00  0.00     0.180 A 
ATOM      2  C   UNL     1     -36.331  -5.160 -13.229  1.00  0.00     0.208 A 
ATOM      3  C   UNL     1     -36.442  -6.459 -13.749  1.00  0.00     0.238 A 
ATOM      4  O   UNL     1     -35.390  -7.101 -14.003  1.00  0.00    -0.285 OA
ATOM      5  C   UNL     1     -37.722  -7.036 -13.936  1.00  0.00     0.111 A 
ATOM      6  C   UNL     1     -37.954  -8.330 -14.493  1.00  0.00     0.134 A 
ATOM      7  C   UNL     1     -39.253  -8.852 -14.509  1.00  0.00     0.093 A 
ATOM      8  C   UNL     1     -40.336  -8.104 -14.051  1.00  0.00     0.123 A 
ATOM      9  C   UNL     1     -40.129  -6.814 -13.559  1.00  0.00     0.094 A 
ATOM     10  C   UNL     1     -38.839  -6.279 -13.495  1.00  0.00     0.146 A 
ATOM     11  O   UNL     1     -38.683  -5.054 -13.011  1.00  0.00    -0.452 OA
ENDROOT
BRANCH   1  12
ATOM     12  C   UNL     1     -37.467  -3.078 -12.356  1.00  0.00     0.025 A 
ATOM     13  C   UNL     1     -37.517  -1.964 -13.213  1.00  0.00     0.016 A 
ATOM     14  C   UNL     1     -37.506  -0.670 -12.689  1.00  0.00     0.051 A 
ATOM     15  C   UNL     1     -37.461  -0.466 -11.306  1.00  0.00     0.157 A 
ATOM     16  C   UNL     1     -37.442  -2.870 -10.967  1.00  0.00     0.062 A 
ATOM     17  C   UNL     1     -37.431  -1.571 -10.440  1.00  0.00     0.158 A 
BRANCH  15  18
ATOM     18  O   UNL     1     -37.450   0.838 -10.813  1.00  0.00    -0.504 OA
ATOM     19  H   UNL     1     -36.853   1.118 -10.043  1.00  0.00     0.293 HD
ENDBRANCH  15  18
BRANCH  17  20
ATOM     20  O   UNL     1     -37.393  -1.376  -9.059  1.00  0.00    -0.504 OA
ATOM     21  H   UNL     1     -36.727  -1.864  -8.472  1.00  0.00     0.293 HD
ENDBRANCH  17  20
ENDBRANCH   1  12
BRANCH   2  22
ATOM     22  O   UNL     1     -35.078  -4.579 -13.017  1.00  0.00    -0.502 OA
ATOM     23  H   UNL     1     -34.501  -4.808 -12.216  1.00  0.00     0.293 HD
ENDBRANCH   2  22
BRANCH   6  24
ATOM     24  O   UNL     1     -36.954  -9.125 -15.063  1.00  0.00    -0.507 OA
ATOM     25  H   UNL     1     -36.046  -9.284 -14.656  1.00  0.00     0.293 HD
ENDBRANCH   6  24
BRANCH   8  26
ATOM     26  O   UNL     1     -41.617  -8.648 -14.097  1.00  0.00    -0.508 OA
ATOM     27  H   UNL     1     -41.841  -9.424 -14.710  1.00  0.00     0.293 HD
ENDBRANCH   8  26
TORSDOF 6
ENDMDL
MODEL 5
REMARK VINA RESULT:    -7.201      1.879      2.932
REMARK INTER + INTRA:          -8.997
REMARK INTER:                  -8.676
REMARK INTRA:                  -0.321
REMARK UNBOUND:                -0.323
REMARK SMILES O=c1c(O)c(-c2ccc(O)c(O)c2)oc2cc(O)cc(O)c12
REMARK SMILES IDX 5 1 3 2 2 3 1 4 22 5 20 6 19 7 17 8 16 9 15 10 14 11 6 12
REMARK SMILES IDX 7 13 8 14 9 15 13 16 11 17 10 18 12 20 4 22 21 24 18 26
REMARK H PARENT 10 19 12 21 4 23 21 25 18 27
REMARK Flexibility Score: inf
ROOT
ATOM      1  C   UNL     1     -37.069  -4.291 -16.178  1.00  0.00     0.180 A 
ATOM      2  C   UNL     1     -37.534  -3.306 -15.288  1.00  0.00     0.208 A 
ATOM      3  C   UNL     1     -38.355  -3.691 -14.216  1.00  0.00     0.238 A 
ATOM      4  O   UNL     1     -38.813  -2.799 -13.454  1.00  0.00    -0.285 OA
ATOM      5  C   UNL     1     -38.688  -5.056 -14.037  1.00  0.00     0.111 A 
ATOM      6  C   UNL     1     -39.479  -5.563 -12.963  1.00  0.00     0.134 A 
ATOM      7  C   UNL     1     -39.854  -6.912 -12.958  1.00  0.00     0.093 A 
ATOM      8  C   UNL     1     -39.413  -7.785 -13.951  1.00  0.00     0.123 A 
ATOM      9  C   UNL     1     -38.589  -7.313 -14.974  1.00  0.00     0.094 A 
ATOM     10  C   UNL     1     -38.228  -5.964 -15.026  1.00  0.00     0.146 A 
ATOM     11  O   UNL     1     -37.453  -5.552 -16.021  1.00  0.00    -0.452 OA
ENDROOT
BRANCH   1  12
ATOM     12  C   UNL     1     -36.180  -3.967 -17.316  1.00  0.00     0.025 A 
ATOM     13  C   UNL     1     -36.699  -3.673 -18.589  1.00  0.00     0.016 A 
ATOM     14  C   UNL     1     -35.842  -3.347 -19.643  1.00  0.00     0.051 A 
ATOM     15  C   UNL     1     -34.459  -3.296 -19.441  1.00  0.00     0.157 A 
ATOM     16  C   UNL     1     -34.792  -3.895 -17.112  1.00  0.00     0.062 A 
ATOM     17  C   UNL     1     -33.930  -3.569 -18.168  1.00  0.00     0.158 A 
BRANCH  15  18
ATOM     18  O   UNL     1     -33.628  -2.970 -20.513  1.00  0.00    -0.504 OA
ATOM     19  H   UNL     1     -33.034  -2.150 -20.503  1.00  0.00     0.293 HD
ENDBRANCH  15  18
BRANCH  17  20
ATOM     20  O   UNL     1     -32.553  -3.513 -17.958  1.00  0.00    -0.504 OA
ATOM     21  H   UNL     1     -31.904  -3.374 -18.724  1.00  0.00     0.293 HD
ENDBRANCH  17  20
ENDBRANCH   1  12
BRANCH   2  22
ATOM     22  O   UNL     1     -37.211  -1.962 -15.495  1.00  0.00    -0.502 OA
ATOM     23  H   UNL     1     -36.893  -1.611 -16.390  1.00  0.00     0.293 HD
ENDBRANCH   2  22
BRANCH   6  24
ATOM     24  O   UNL     1     -39.897  -4.795 -11.871  1.00  0.00    -0.507 OA
ATOM     25  H   UNL     1     -39.658  -3.827 -11.725  1.00  0.00     0.293 HD
ENDBRANCH   6  24
BRANCH   8  26
ATOM     26  O   UNL     1     -39.792  -9.125 -13.906  1.00  0.00    -0.508 OA
ATOM     27  H   UNL     1     -39.449  -9.749 -13.185  1.00  0.00     0.293 HD
ENDBRANCH   8  26
TORSDOF 6
ENDMDL
MODEL 6
REMARK VINA RESULT:    -7.180      1.671      2.399
REMARK INTER + INTRA:          -8.972
REMARK INTER:                  -9.062
REMARK INTRA:                   0.090
REMARK UNBOUND:                -0.323
REMARK SMILES O=c1c(O)c(-c2ccc(O)c(O)c2)oc2cc(O)cc(O)c12
REMARK SMILES IDX 5 1 3 2 2 3 1 4 22 5 20 6 19 7 17 8 16 9 15 10 14 11 6 12
REMARK SMILES IDX 7 13 8 14 9 15 13 16 11 17 10 18 12 20 4 22 21 24 18 26
REMARK H PARENT 10 19 12 21 4 23 21 25 18 27
REMARK Flexibility Score: inf
ROOT
ATOM      1  C   UNL     1     -36.079  -4.419 -16.760  1.00  0.00     0.180 A 
ATOM      2  C   UNL     1     -36.227  -3.251 -15.992  1.00  0.00     0.208 A 
ATOM      3  C   UNL     1     -36.987  -3.303 -14.813  1.00  0.00     0.238 A 
ATOM      4  O   UNL     1     -37.161  -2.242 -14.158  1.00  0.00    -0.285 OA
ATOM      5  C   UNL     1     -37.575  -4.526 -14.407  1.00  0.00     0.111 A 
ATOM      6  C   UNL     1     -38.331  -4.703 -13.210  1.00  0.00     0.134 A 
ATOM      7  C   UNL     1     -38.977  -5.924 -12.975  1.00  0.00     0.093 A 
ATOM      8  C   UNL     1     -38.840  -6.992 -13.859  1.00  0.00     0.123 A 
ATOM      9  C   UNL     1     -38.054  -6.849 -15.004  1.00  0.00     0.094 A 
ATOM     10  C   UNL     1     -37.427  -5.632 -15.285  1.00  0.00     0.146 A 
ATOM     11  O   UNL     1     -36.697  -5.533 -16.388  1.00  0.00    -0.452 OA
ENDROOT
BRANCH   1  12
ATOM     12  C   UNL     1     -35.272  -4.449 -18.002  1.00  0.00     0.025 A 
ATOM     13  C   UNL     1     -35.768  -5.030 -19.182  1.00  0.00     0.016 A 
ATOM     14  C   UNL     1     -34.999  -5.026 -20.348  1.00  0.00     0.051 A 
ATOM     15  C   UNL     1     -33.733  -4.431 -20.359  1.00  0.00     0.157 A 
ATOM     16  C   UNL     1     -34.009  -3.836 -18.021  1.00  0.00     0.062 A 
ATOM     17  C   UNL     1     -33.235  -3.831 -19.191  1.00  0.00     0.158 A 
BRANCH  15  18
ATOM     18  O   UNL     1     -32.988  -4.445 -21.538  1.00  0.00    -0.504 OA
ATOM     19  H   UNL     1     -33.362  -4.804 -22.408  1.00  0.00     0.293 HD
ENDBRANCH  15  18
BRANCH  17  20
ATOM     20  O   UNL     1     -31.977  -3.230 -19.196  1.00  0.00    -0.504 OA
ATOM     21  H   UNL     1     -31.373  -3.256 -18.383  1.00  0.00     0.293 HD
ENDBRANCH  17  20
ENDBRANCH   1  12
BRANCH   2  22
ATOM     22  O   UNL     1     -35.655  -2.050 -16.422  1.00  0.00    -0.502 OA
ATOM     23  H   UNL     1     -34.776  -1.705 -16.057  1.00  0.00     0.293 HD
ENDBRANCH   2  22
BRANCH   6  24
ATOM     24  O   UNL     1     -38.457  -3.729 -12.214  1.00  0.00    -0.507 OA
ATOM     25  H   UNL     1     -37.859  -3.654 -11.406  1.00  0.00     0.293 HD
ENDBRANCH   6  24
BRANCH   8  26
ATOM     26  O   UNL     1     -39.483  -8.197 -13.586  1.00  0.00    -0.508 OA
ATOM     27  H   UNL     1     -39.541  -8.936 -14.279  1.00  0.00     0.293 HD
ENDBRANCH   8  26
TORSDOF 6
ENDMDL
MODEL 7
REMARK VINA RESULT:    -7.121      2.412      4.284
REMARK INTER + INTRA:          -8.901
REMARK INTER:                  -8.607
REMARK INTRA:                  -0.293
REMARK UNBOUND:                -0.323
REMARK SMILES O=c1c(O)c(-c2ccc(O)c(O)c2)oc2cc(O)cc(O)c12
REMARK SMILES IDX 5 1 3 2 2 3 1 4 22 5 20 6 19 7 17 8 16 9 15 10 14 11 6 12
REMARK SMILES IDX 7 13 8 14 9 15 13 16 11 17 10 18 12 20 4 22 21 24 18 26
REMARK H PARENT 10 19 12 21 4 23 21 25 18 27
REMARK Flexibility Score: inf
ROOT
ATOM      1  C   UNL     1     -37.182  -4.699 -15.950  1.00  0.00     0.180 A 
ATOM      2  C   UNL     1     -37.518  -6.053 -15.777  1.00  0.00     0.208 A 
ATOM      3  C   UNL     1     -38.295  -6.425 -14.668  1.00  0.00     0.238 A 
ATOM      4  O   UNL     1     -38.548  -7.645 -14.488  1.00  0.00    -0.285 OA
ATOM      5  C   UNL     1     -38.739  -5.437 -13.755  1.00  0.00     0.111 A 
ATOM      6  C   UNL     1     -39.565  -5.696 -12.620  1.00  0.00     0.134 A 
ATOM      7  C   UNL     1     -39.834  -4.664 -11.712  1.00  0.00     0.093 A 
ATOM      8  C   UNL     1     -39.365  -3.370 -11.933  1.00  0.00     0.123 A 
ATOM      9  C   UNL     1     -38.607  -3.093 -13.072  1.00  0.00     0.094 A 
ATOM     10  C   UNL     1     -38.290  -4.109 -13.976  1.00  0.00     0.146 A 
ATOM     11  O   UNL     1     -37.558  -3.807 -15.041  1.00  0.00    -0.452 OA
ENDROOT
BRANCH   1  12
ATOM     12  C   UNL     1     -36.388  -4.226 -17.106  1.00  0.00     0.025 A 
ATOM     13  C   UNL     1     -35.005  -3.996 -17.000  1.00  0.00     0.016 A 
ATOM     14  C   UNL     1     -34.272  -3.572 -18.111  1.00  0.00     0.051 A 
ATOM     15  C   UNL     1     -34.902  -3.385 -19.345  1.00  0.00     0.157 A 
ATOM     16  C   UNL     1     -37.014  -4.056 -18.352  1.00  0.00     0.062 A 
ATOM     17  C   UNL     1     -36.279  -3.631 -19.468  1.00  0.00     0.158 A 
BRANCH  15  18
ATOM     18  O   UNL     1     -34.144  -2.960 -20.436  1.00  0.00    -0.504 OA
ATOM     19  H   UNL     1     -33.971  -3.556 -21.236  1.00  0.00     0.293 HD
ENDBRANCH  15  18
BRANCH  17  20
ATOM     20  O   UNL     1     -36.913  -3.454 -20.698  1.00  0.00    -0.504 OA
ATOM     21  H   UNL     1     -37.010  -2.536 -21.118  1.00  0.00     0.293 HD
ENDBRANCH  17  20
ENDBRANCH   1  12
BRANCH   2  22
ATOM     22  O   UNL     1     -37.052  -7.014 -16.678  1.00  0.00    -0.502 OA
ATOM     23  H   UNL     1     -37.558  -7.869 -16.872  1.00  0.00     0.293 HD
ENDBRANCH   2  22
BRANCH   6  24
ATOM     24  O   UNL     1     -40.161  -6.933 -12.354  1.00  0.00    -0.507 OA
ATOM     25  H   UNL     1     -39.680  -7.733 -11.973  1.00  0.00     0.293 HD
ENDBRANCH   6  24
BRANCH   8  26
ATOM     26  O   UNL     1     -39.666  -2.364 -11.018  1.00  0.00    -0.508 OA
ATOM     27  H   UNL     1     -39.867  -2.574 -10.047  1.00  0.00     0.293 HD
ENDBRANCH   8  26
TORSDOF 6
ENDMDL
MODEL 8
REMARK VINA RESULT:    -7.063      2.125      4.120
REMARK INTER + INTRA:          -8.831
REMARK INTER:                  -8.500
REMARK INTRA:                  -0.332
REMARK UNBOUND:                -0.323
REMARK SMILES O=c1c(O)c(-c2ccc(O)c(O)c2)oc2cc(O)cc(O)c12
REMARK SMILES IDX 5 1 3 2 2 3 1 4 22 5 20 6 19 7 17 8 16 9 15 10 14 11 6 12
REMARK SMILES IDX 7 13 8 14 9 15 13 16 11 17 10 18 12 20 4 22 21 24 18 26
REMARK H PARENT 10 19 12 21 4 23 21 25 18 27
REMARK Flexibility Score: inf
ROOT
ATOM      1  C   UNL     1     -36.840  -4.827 -16.191  1.00  0.00     0.180 A 
ATOM      2  C   UNL     1     -37.011  -6.198 -15.933  1.00  0.00     0.208 A 
ATOM      3  C   UNL     1     -37.816  -6.592 -14.852  1.00  0.00     0.238 A 
ATOM      4  O   UNL     1     -37.923  -7.819 -14.592  1.00  0.00    -0.285 OA
ATOM      5  C   UNL     1     -38.453  -5.611 -14.053  1.00  0.00     0.111 A 
ATOM      6  C   UNL     1     -39.322  -5.897 -12.958  1.00  0.00     0.134 A 
ATOM      7  C   UNL     1     -39.792  -4.848 -12.156  1.00  0.00     0.093 A 
ATOM      8  C   UNL     1     -39.477  -3.523 -12.449  1.00  0.00     0.123 A 
ATOM      9  C   UNL     1     -38.676  -3.227 -13.553  1.00  0.00     0.094 A 
ATOM     10  C   UNL     1     -38.162  -4.253 -14.350  1.00  0.00     0.146 A 
ATOM     11  O   UNL     1     -37.396  -3.931 -15.384  1.00  0.00    -0.452 OA
ENDROOT
BRANCH   1  12
ATOM     12  C   UNL     1     -36.027  -4.334 -17.326  1.00  0.00     0.025 A 
ATOM     13  C   UNL     1     -36.582  -4.173 -18.608  1.00  0.00     0.016 A 
ATOM     14  C   UNL     1     -35.802  -3.685 -19.659  1.00  0.00     0.051 A 
ATOM     15  C   UNL     1     -34.465  -3.337 -19.446  1.00  0.00     0.157 A 
ATOM     16  C   UNL     1     -34.689  -3.966 -17.111  1.00  0.00     0.062 A 
ATOM     17  C   UNL     1     -33.904  -3.476 -18.165  1.00  0.00     0.158 A 
BRANCH  15  18
ATOM     18  O   UNL     1     -33.711  -2.854 -20.515  1.00  0.00    -0.504 OA
ATOM     19  H   UNL     1     -33.761  -3.266 -21.439  1.00  0.00     0.293 HD
ENDBRANCH  15  18
BRANCH  17  20
ATOM     20  O   UNL     1     -32.573  -3.124 -17.944  1.00  0.00    -0.504 OA
ATOM     21  H   UNL     1     -31.973  -2.817 -18.700  1.00  0.00     0.293 HD
ENDBRANCH  17  20
ENDBRANCH   1  12
BRANCH   2  22
ATOM     22  O   UNL     1     -36.357  -7.149 -16.721  1.00  0.00    -0.502 OA
ATOM     23  H   UNL     1     -35.838  -7.921 -16.322  1.00  0.00     0.293 HD
ENDBRANCH   2  22
BRANCH   6  24
ATOM     24  O   UNL     1     -39.773  -7.180 -12.634  1.00  0.00    -0.507 OA
ATOM     25  H   UNL     1     -39.623  -7.635 -11.747  1.00  0.00     0.293 HD
ENDBRANCH   6  24
BRANCH   8  26
ATOM     26  O   UNL     1     -39.975  -2.504 -11.640  1.00  0.00    -0.508 OA
ATOM     27  H   UNL     1     -39.957  -2.574 -10.628  1.00  0.00     0.293 HD
ENDBRANCH   8  26
TORSDOF 6
ENDMDL
MODEL 9
REMARK VINA RESULT:    -7.043      2.080      3.986
REMARK INTER + INTRA:          -8.807
REMARK INTER:                  -8.697
REMARK INTRA:                  -0.110
REMARK UNBOUND:                -0.323
REMARK SMILES O=c1c(O)c(-c2ccc(O)c(O)c2)oc2cc(O)cc(O)c12
REMARK SMILES IDX 5 1 3 2 2 3 1 4 22 5 20 6 19 7 17 8 16 9 15 10 14 11 6 12
REMARK SMILES IDX 7 13 8 14 9 15 13 16 11 17 10 18 12 20 4 22 21 24 18 26
REMARK H PARENT 10 19 12 21 4 23 21 25 18 27
REMARK Flexibility Score: inf
ROOT
ATOM      1  C   UNL     1     -35.747  -4.290 -16.639  1.00  0.00     0.180 A 
ATOM      2  C   UNL     1     -36.178  -5.453 -15.977  1.00  0.00     0.208 A 
ATOM      3  C   UNL     1     -36.873  -5.328 -14.763  1.00  0.00     0.238 A 
ATOM      4  O   UNL     1     -37.208  -6.373 -14.146  1.00  0.00    -0.285 OA
ATOM      5  C   UNL     1     -37.142  -4.041 -14.235  1.00  0.00     0.111 A 
ATOM      6  C   UNL     1     -37.873  -3.795 -13.034  1.00  0.00     0.134 A 
ATOM      7  C   UNL     1     -37.967  -2.489 -12.538  1.00  0.00     0.093 A 
ATOM      8  C   UNL     1     -37.414  -1.414 -13.232  1.00  0.00     0.123 A 
ATOM      9  C   UNL     1     -36.749  -1.636 -14.438  1.00  0.00     0.094 A 
ATOM     10  C   UNL     1     -36.606  -2.932 -14.940  1.00  0.00     0.146 A 
ATOM     11  O   UNL     1     -35.958  -3.102 -16.085  1.00  0.00    -0.452 OA
ENDROOT
BRANCH   1  12
ATOM     12  C   UNL     1     -35.032  -4.341 -17.934  1.00  0.00     0.025 A 
ATOM     13  C   UNL     1     -35.595  -4.971 -19.058  1.00  0.00     0.016 A 
ATOM     14  C   UNL     1     -34.912  -4.986 -20.276  1.00  0.00     0.051 A 
ATOM     15  C   UNL     1     -33.666  -4.362 -20.396  1.00  0.00     0.157 A 
ATOM     16  C   UNL     1     -33.789  -3.699 -18.064  1.00  0.00     0.062 A 
ATOM     17  C   UNL     1     -33.102  -3.713 -19.286  1.00  0.00     0.158 A 
BRANCH  15  18
ATOM     18  O   UNL     1     -33.007  -4.395 -21.625  1.00  0.00    -0.504 OA
ATOM     19  H   UNL     1     -32.173  -3.850 -21.803  1.00  0.00     0.293 HD
ENDBRANCH  15  18
BRANCH  17  20
ATOM     20  O   UNL     1     -31.863  -3.083 -19.401  1.00  0.00    -0.504 OA
ATOM     21  H   UNL     1     -31.740  -2.107 -19.158  1.00  0.00     0.293 HD
ENDBRANCH  17  20
ENDBRANCH   1  12
BRANCH   2  22
ATOM     22  O   UNL     1     -35.883  -6.713 -16.504  1.00  0.00    -0.502 OA
ATOM     23  H   UNL     1     -34.954  -6.967 -16.819  1.00  0.00     0.293 HD
ENDBRANCH   2  22
BRANCH   6  24
ATOM     24  O   UNL     1     -38.543  -4.787 -12.311  1.00  0.00    -0.507 OA
ATOM     25  H   UNL     1     -39.283  -4.614 -11.648  1.00  0.00     0.293 HD
ENDBRANCH   6  24
BRANCH   8  26
ATOM     26  O   UNL     1     -37.540  -0.126 -12.717  1.00  0.00    -0.508 OA
ATOM     27  H   UNL     1     -37.986   0.615 -13.246  1.00  0.00     0.293 HD
ENDBRANCH   8  26
TORSDOF 6
ENDMDL
