MODEL 1
REMARK VINA RESULT:    -5.171      0.000      0.000
REMARK INTER + INTRA:          -5.171
REMARK INTER:                  -5.171
REMARK INTRA:                   0.000
REMARK UNBOUND:                 0.000
REMARK SMILES CC(C)=C1CC[C@H](C)CC1=O
REMARK SMILES IDX 8 1 7 2 6 3 5 4 4 5 2 6 1 7 3 8 10 9 11 10 9 11
REMARK H PARENT
REMARK Flexibility Score: inf
ROOT
ATOM      1  C   UNL     1      16.858 -33.621  21.205  1.00  0.00     0.008 C 
ATOM      2  C   UNL     1      15.907 -32.421  21.256  1.00  0.00    -0.006 C 
ATOM      3  C   UNL     1      14.460 -32.865  20.984  1.00  0.00     0.008 C 
ATOM      4  C   UNL     1      13.507 -31.664  20.931  1.00  0.00     0.039 C 
ATOM      5  C   UNL     1      13.624 -30.773  22.160  1.00  0.00    -0.006 C 
ATOM      6  C   UNL     1      12.545 -30.089  22.645  1.00  0.00    -0.070 C 
ATOM      7  C   UNL     1      12.635 -29.246  23.897  1.00  0.00     0.039 C 
ATOM      8  C   UNL     1      11.195 -30.174  21.970  1.00  0.00     0.039 C 
ATOM      9  C   UNL     1      14.997 -30.606  22.722  1.00  0.00     0.159 C 
ATOM     10  O   UNL     1      15.350 -29.531  23.279  1.00  0.00    -0.295 OA
ATOM     11  C   UNL     1      15.991 -31.725  22.623  1.00  0.00     0.084 C 
ENDROOT
TORSDOF 0
ENDMDL
MODEL 2
REMARK VINA RESULT:    -5.156      1.753      4.384
REMARK INTER + INTRA:          -5.156
REMARK INTER:                  -5.156
REMARK INTRA:                   0.000
REMARK UNBOUND:                 0.000
REMARK SMILES CC(C)=C1CC[C@H](C)CC1=O
REMARK SMILES IDX 8 1 7 2 6 3 5 4 4 5 2 6 1 7 3 8 10 9 11 10 9 11
REMARK H PARENT
REMARK Flexibility Score: inf
ROOT
ATOM      1  C   UNL     1      12.526 -29.612  23.122  1.00  0.00     0.008 C 
ATOM      2  C   UNL     1      12.988 -31.015  22.715  1.00  0.00    -0.006 C 
ATOM      3  C   UNL     1      13.443 -31.031  21.247  1.00  0.00     0.008 C 
ATOM      4  C   UNL     1      13.814 -32.448  20.792  1.00  0.00     0.039 C 
ATOM      5  C   UNL     1      14.817 -33.116  21.722  1.00  0.00    -0.006 C 
ATOM      6  C   UNL     1      15.734 -34.011  21.251  1.00  0.00    -0.070 C 
ATOM      7  C   UNL     1      16.772 -34.638  22.154  1.00  0.00     0.039 C 
ATOM      8  C   UNL     1      15.780 -34.390  19.788  1.00  0.00     0.039 C 
ATOM      9  C   UNL     1      14.658 -32.823  23.178  1.00  0.00     0.159 C 
ATOM     10  O   UNL     1      14.953 -33.680  24.054  1.00  0.00    -0.295 OA
ATOM     11  C   UNL     1      14.132 -31.490  23.623  1.00  0.00     0.084 C 
ENDROOT
TORSDOF 0
ENDMDL
MODEL 3
REMARK VINA RESULT:    -5.117      1.633      4.582
REMARK INTER + INTRA:          -5.117
REMARK INTER:                  -5.117
REMARK INTRA:                   0.000
REMARK UNBOUND:                 0.000
REMARK SMILES CC(C)=C1CC[C@H](C)CC1=O
REMARK SMILES IDX 8 1 7 2 6 3 5 4 4 5 2 6 1 7 3 8 10 9 11 10 9 11
REMARK H PARENT
REMARK Flexibility Score: inf
ROOT
ATOM      1  C   UNL     1      12.724 -29.215  24.051  1.00  0.00     0.008 C 
ATOM      2  C   UNL     1      13.562 -29.874  22.950  1.00  0.00    -0.006 C 
ATOM      3  C   UNL     1      14.821 -30.525  23.545  1.00  0.00     0.008 C 
ATOM      4  C   UNL     1      15.724 -31.102  22.446  1.00  0.00     0.039 C 
ATOM      5  C   UNL     1      14.973 -32.033  21.503  1.00  0.00    -0.006 C 
ATOM      6  C   UNL     1      15.595 -33.095  20.912  1.00  0.00    -0.070 C 
ATOM      7  C   UNL     1      14.847 -34.059  20.019  1.00  0.00     0.039 C 
ATOM      8  C   UNL     1      17.060 -33.381  21.155  1.00  0.00     0.039 C 
ATOM      9  C   UNL     1      13.567 -31.646  21.181  1.00  0.00     0.159 C 
ATOM     10  O   UNL     1      13.058 -31.906  20.057  1.00  0.00    -0.295 OA
ATOM     11  C   UNL     1      12.733 -30.927  22.199  1.00  0.00     0.084 C 
ENDROOT
TORSDOF 0
ENDMDL
MODEL 4
REMARK VINA RESULT:    -5.095      7.800      8.965
REMARK INTER + INTRA:          -5.095
REMARK INTER:                  -5.095
REMARK INTRA:                   0.000
REMARK UNBOUND:                 0.000
REMARK SMILES CC(C)=C1CC[C@H](C)CC1=O
REMARK SMILES IDX 8 1 7 2 6 3 5 4 4 5 2 6 1 7 3 8 10 9 11 10 9 11
REMARK H PARENT
REMARK Flexibility Score: inf
ROOT
ATOM      1  C   UNL     1      23.583 -24.127  19.839  1.00  0.00     0.008 C 
ATOM      2  C   UNL     1      22.606 -25.046  20.578  1.00  0.00    -0.006 C 
ATOM      3  C   UNL     1      21.330 -25.260  19.747  1.00  0.00     0.008 C 
ATOM      4  C   UNL     1      20.297 -26.096  20.515  1.00  0.00     0.039 C 
ATOM      5  C   UNL     1      20.878 -27.402  21.040  1.00  0.00    -0.006 C 
ATOM      6  C   UNL     1      20.108 -28.524  21.159  1.00  0.00    -0.070 C 
ATOM      7  C   UNL     1      20.687 -29.840  21.626  1.00  0.00     0.039 C 
ATOM      8  C   UNL     1      18.642 -28.511  20.789  1.00  0.00     0.039 C 
ATOM      9  C   UNL     1      22.291 -27.345  21.521  1.00  0.00     0.159 C 
ATOM     10  O   UNL     1      22.690 -28.075  22.469  1.00  0.00    -0.295 OA
ATOM     11  C   UNL     1      23.265 -26.400  20.882  1.00  0.00     0.084 C 
ENDROOT
TORSDOF 0
ENDMDL
MODEL 5
REMARK VINA RESULT:    -5.047      2.480      5.503
REMARK INTER + INTRA:          -5.047
REMARK INTER:                  -5.047
REMARK INTRA:                   0.000
REMARK UNBOUND:                 0.000
REMARK SMILES CC(C)=C1CC[C@H](C)CC1=O
REMARK SMILES IDX 8 1 7 2 6 3 5 4 4 5 2 6 1 7 3 8 10 9 11 10 9 11
REMARK H PARENT
REMARK Flexibility Score: inf
ROOT
ATOM      1  C   UNL     1      13.584 -31.603  20.874  1.00  0.00     0.008 C 
ATOM      2  C   UNL     1      14.255 -32.950  21.160  1.00  0.00    -0.006 C 
ATOM      3  C   UNL     1      14.651 -33.647  19.848  1.00  0.00     0.008 C 
ATOM      4  C   UNL     1      15.233 -35.042  20.110  1.00  0.00     0.039 C 
ATOM      5  C   UNL     1      16.367 -35.020  21.126  1.00  0.00    -0.006 C 
ATOM      6  C   UNL     1      17.401 -35.909  21.054  1.00  0.00    -0.070 C 
ATOM      7  C   UNL     1      18.561 -35.860  22.022  1.00  0.00     0.039 C 
ATOM      8  C   UNL     1      17.454 -36.965  19.972  1.00  0.00     0.039 C 
ATOM      9  C   UNL     1      16.218 -34.055  22.256  1.00  0.00     0.159 C 
ATOM     10  O   UNL     1      16.682 -34.309  23.400  1.00  0.00    -0.295 OA
ATOM     11  C   UNL     1      15.496 -32.756  22.044  1.00  0.00     0.084 C 
ENDROOT
TORSDOF 0
ENDMDL
MODEL 6
REMARK VINA RESULT:    -4.928      2.538      4.186
REMARK INTER + INTRA:          -4.928
REMARK INTER:                  -4.928
REMARK INTRA:                   0.000
REMARK UNBOUND:                 0.000
REMARK SMILES CC(C)=C1CC[C@H](C)CC1=O
REMARK SMILES IDX 8 1 7 2 6 3 5 4 4 5 2 6 1 7 3 8 10 9 11 10 9 11
REMARK H PARENT
REMARK Flexibility Score: inf
ROOT
ATOM      1  C   UNL     1      16.884 -36.574  19.372  1.00  0.00     0.008 C 
ATOM      2  C   UNL     1      16.939 -35.327  20.260  1.00  0.00    -0.006 C 
ATOM      3  C   UNL     1      17.919 -34.293  19.682  1.00  0.00     0.008 C 
ATOM      4  C   UNL     1      18.064 -33.080  20.611  1.00  0.00     0.039 C 
ATOM      5  C   UNL     1      16.721 -32.468  20.985  1.00  0.00    -0.006 C 
ATOM      6  C   UNL     1      16.593 -31.129  21.220  1.00  0.00    -0.070 C 
ATOM      7  C   UNL     1      15.255 -30.501  21.536  1.00  0.00     0.039 C 
ATOM      8  C   UNL     1      17.784 -30.201  21.135  1.00  0.00     0.039 C 
ATOM      9  C   UNL     1      15.596 -33.429  21.190  1.00  0.00     0.159 C 
ATOM     10  O   UNL     1      14.681 -33.196  22.026  1.00  0.00    -0.295 OA
ATOM     11  C   UNL     1      15.543 -34.703  20.400  1.00  0.00     0.084 C 
ENDROOT
TORSDOF 0
ENDMDL
MODEL 7
REMARK VINA RESULT:    -4.898      1.927      3.004
REMARK INTER + INTRA:          -4.898
REMARK INTER:                  -4.898
REMARK INTRA:                   0.000
REMARK UNBOUND:                 0.000
REMARK SMILES CC(C)=C1CC[C@H](C)CC1=O
REMARK SMILES IDX 8 1 7 2 6 3 5 4 4 5 2 6 1 7 3 8 10 9 11 10 9 11
REMARK H PARENT
REMARK Flexibility Score: inf
ROOT
ATOM      1  C   UNL     1      17.593 -36.712  20.868  1.00  0.00     0.008 C 
ATOM      2  C   UNL     1      17.026 -35.289  20.837  1.00  0.00    -0.006 C 
ATOM      3  C   UNL     1      15.698 -35.253  20.062  1.00  0.00     0.008 C 
ATOM      4  C   UNL     1      15.166 -33.819  19.933  1.00  0.00     0.039 C 
ATOM      5  C   UNL     1      15.079 -33.106  21.276  1.00  0.00    -0.006 C 
ATOM      6  C   UNL     1      14.116 -32.169  21.520  1.00  0.00    -0.070 C 
ATOM      7  C   UNL     1      13.985 -31.496  22.867  1.00  0.00     0.039 C 
ATOM      8  C   UNL     1      13.105 -31.789  20.462  1.00  0.00     0.039 C 
ATOM      9  C   UNL     1      16.170 -33.406  22.250  1.00  0.00     0.159 C 
ATOM     10  O   UNL     1      16.575 -32.537  23.068  1.00  0.00    -0.295 OA
ATOM     11  C   UNL     1      16.813 -34.762  22.264  1.00  0.00     0.084 C 
ENDROOT
TORSDOF 0
ENDMDL
MODEL 8
REMARK VINA RESULT:    -4.884      1.649      2.549
REMARK INTER + INTRA:          -4.884
REMARK INTER:                  -4.884
REMARK INTRA:                   0.000
REMARK UNBOUND:                 0.000
REMARK SMILES CC(C)=C1CC[C@H](C)CC1=O
REMARK SMILES IDX 8 1 7 2 6 3 5 4 4 5 2 6 1 7 3 8 10 9 11 10 9 11
REMARK H PARENT
REMARK Flexibility Score: inf
ROOT
ATOM      1  C   UNL     1      16.840 -35.363  19.378  1.00  0.00     0.008 C 
ATOM      2  C   UNL     1      16.242 -34.011  19.785  1.00  0.00    -0.006 C 
ATOM      3  C   UNL     1      15.008 -34.212  20.679  1.00  0.00     0.008 C 
ATOM      4  C   UNL     1      14.336 -32.874  21.013  1.00  0.00     0.039 C 
ATOM      5  C   UNL     1      15.315 -31.857  21.586  1.00  0.00    -0.006 C 
ATOM      6  C   UNL     1      14.914 -30.924  22.499  1.00  0.00    -0.070 C 
ATOM      7  C   UNL     1      15.887 -29.946  23.117  1.00  0.00     0.039 C 
ATOM      8  C   UNL     1      13.478 -30.849  22.965  1.00  0.00     0.039 C 
ATOM      9  C   UNL     1      16.691 -31.872  21.006  1.00  0.00     0.159 C 
ATOM     10  O   UNL     1      17.371 -30.815  20.908  1.00  0.00    -0.295 OA
ATOM     11  C   UNL     1      17.288 -33.159  20.519  1.00  0.00     0.084 C 
ENDROOT
TORSDOF 0
ENDMDL
MODEL 9
REMARK VINA RESULT:    -4.853      1.429      4.361
REMARK INTER + INTRA:          -4.853
REMARK INTER:                  -4.853
REMARK INTRA:                   0.000
REMARK UNBOUND:                 0.000
REMARK SMILES CC(C)=C1CC[C@H](C)CC1=O
REMARK SMILES IDX 8 1 7 2 6 3 5 4 4 5 2 6 1 7 3 8 10 9 11 10 9 11
REMARK H PARENT
REMARK Flexibility Score: inf
ROOT
ATOM      1  C   UNL     1      12.360 -30.625  22.270  1.00  0.00     0.008 C 
ATOM      2  C   UNL     1      13.729 -31.312  22.225  1.00  0.00    -0.006 C 
ATOM      3  C   UNL     1      13.877 -32.141  20.939  1.00  0.00     0.008 C 
ATOM      4  C   UNL     1      15.201 -32.917  20.923  1.00  0.00     0.039 C 
ATOM      5  C   UNL     1      16.405 -32.021  21.184  1.00  0.00    -0.006 C 
ATOM      6  C   UNL     1      17.621 -32.286  20.621  1.00  0.00    -0.070 C 
ATOM      7  C   UNL     1      18.808 -31.373  20.827  1.00  0.00     0.039 C 
ATOM      8  C   UNL     1      17.826 -33.490  19.729  1.00  0.00     0.039 C 
ATOM      9  C   UNL     1      16.202 -30.920  22.172  1.00  0.00     0.159 C 
ATOM     10  O   UNL     1      17.144 -30.520  22.909  1.00  0.00    -0.295 OA
ATOM     11  C   UNL     1      14.856 -30.271  22.310  1.00  0.00     0.084 C 
ENDROOT
TORSDOF 0
ENDMDL
