MODEL 1
REMARK VINA RESULT:    -7.964      0.000      0.000
REMARK INTER + INTRA:          -9.107
REMARK INTER:                  -9.361
REMARK INTRA:                   0.254
REMARK UNBOUND:                 0.254
REMARK SMILES O=c1c(O)c(-c2ccc(O)c(O)c2)oc2cc(O)ccc12
REMARK SMILES IDX 5 1 3 2 2 3 1 4 21 5 15 6 14 7 16 8 17 9 19 10 20 11 6 12
REMARK SMILES IDX 7 13 8 14 9 15 13 16 11 17 10 18 12 20 4 22 18 24
REMARK H PARENT 10 19 12 21 4 23 18 25
REMARK Flexibility Score: inf
ROOT
ATOM      1  C   UNL     1     186.099 209.611 193.649  1.00  0.00     0.180 A 
ATOM      2  C   UNL     1     186.384 208.482 194.446  1.00  0.00     0.208 A 
ATOM      3  C   UNL     1     187.369 208.589 195.440  1.00  0.00     0.235 A 
ATOM      4  O   UNL     1     187.649 207.590 196.159  1.00  0.00    -0.285 OA
ATOM      5  C   UNL     1     188.029 209.812 195.630  1.00  0.00     0.069 A 
ATOM      6  C   UNL     1     187.670 210.901 194.807  1.00  0.00     0.142 A 
ATOM      7  O   UNL     1     186.738 210.757 193.871  1.00  0.00    -0.452 OA
ATOM      8  C   UNL     1     188.298 212.141 194.971  1.00  0.00     0.094 A 
ATOM      9  C   UNL     1     189.286 212.306 195.952  1.00  0.00     0.119 A 
ATOM     10  C   UNL     1     189.645 211.229 196.767  1.00  0.00     0.047 A 
ATOM     11  C   UNL     1     189.023 209.986 196.612  1.00  0.00     0.020 A 
ENDROOT
BRANCH   1  12
ATOM     12  C   UNL     1     185.087 209.574 192.568  1.00  0.00     0.025 A 
ATOM     13  C   UNL     1     184.255 210.676 192.305  1.00  0.00     0.016 A 
ATOM     14  C   UNL     1     183.291 210.609 191.296  1.00  0.00     0.051 A 
ATOM     15  C   UNL     1     183.132 209.440 190.546  1.00  0.00     0.157 A 
ATOM     16  C   UNL     1     184.910 208.394 191.828  1.00  0.00     0.062 A 
ATOM     17  C   UNL     1     183.944 208.325 190.814  1.00  0.00     0.158 A 
BRANCH  15  18
ATOM     18  O   UNL     1     182.163 209.403 189.544  1.00  0.00    -0.504 OA
ATOM     19  H   UNL     1     182.353 209.022 188.625  1.00  0.00     0.293 HD
ENDBRANCH  15  18
BRANCH  17  20
ATOM     20  O   UNL     1     183.786 207.152 190.075  1.00  0.00    -0.504 OA
ATOM     21  H   UNL     1     184.505 206.439 190.051  1.00  0.00     0.293 HD
ENDBRANCH  17  20
ENDBRANCH   1  12
BRANCH   2  22
ATOM     22  O   UNL     1     185.675 207.291 194.267  1.00  0.00    -0.502 OA
ATOM     23  H   UNL     1     185.753 206.513 194.911  1.00  0.00     0.293 HD
ENDBRANCH   2  22
BRANCH   9  24
ATOM     24  O   UNL     1     189.918 213.536 196.122  1.00  0.00    -0.508 OA
ATOM     25  H   UNL     1     189.423 214.410 195.978  1.00  0.00     0.293 HD
ENDBRANCH   9  24
TORSDOF 5
ENDMDL
MODEL 2
REMARK VINA RESULT:    -7.938      2.462      3.258
REMARK INTER + INTRA:          -9.076
REMARK INTER:                  -8.776
REMARK INTRA:                  -0.300
REMARK UNBOUND:                 0.254
REMARK SMILES O=c1c(O)c(-c2ccc(O)c(O)c2)oc2cc(O)ccc12
REMARK SMILES IDX 5 1 3 2 2 3 1 4 21 5 15 6 14 7 16 8 17 9 19 10 20 11 6 12
REMARK SMILES IDX 7 13 8 14 9 15 13 16 11 17 10 18 12 20 4 22 18 24
REMARK H PARENT 10 19 12 21 4 23 18 25
REMARK Flexibility Score: inf
ROOT
ATOM      1  C   UNL     1     185.875 210.357 194.008  1.00  0.00     0.180 A 
ATOM      2  C   UNL     1     187.249 210.677 194.027  1.00  0.00     0.208 A 
ATOM      3  C   UNL     1     187.732 211.520 195.040  1.00  0.00     0.235 A 
ATOM      4  O   UNL     1     188.955 211.829 195.073  1.00  0.00    -0.285 OA
ATOM      5  C   UNL     1     186.848 212.004 196.016  1.00  0.00     0.069 A 
ATOM      6  C   UNL     1     185.492 211.619 195.941  1.00  0.00     0.142 A 
ATOM      7  O   UNL     1     185.072 210.827 194.960  1.00  0.00    -0.452 OA
ATOM      8  C   UNL     1     184.580 212.073 196.900  1.00  0.00     0.094 A 
ATOM      9  C   UNL     1     185.008 212.913 197.937  1.00  0.00     0.119 A 
ATOM     10  C   UNL     1     186.350 213.298 198.014  1.00  0.00     0.047 A 
ATOM     11  C   UNL     1     187.269 212.848 197.061  1.00  0.00     0.020 A 
ENDROOT
BRANCH   1  12
ATOM     12  C   UNL     1     185.285 209.491 192.961  1.00  0.00     0.025 A 
ATOM     13  C   UNL     1     185.101 208.113 193.170  1.00  0.00     0.016 A 
ATOM     14  C   UNL     1     184.564 207.312 192.159  1.00  0.00     0.051 A 
ATOM     15  C   UNL     1     184.219 207.867 190.924  1.00  0.00     0.157 A 
ATOM     16  C   UNL     1     184.957 210.042 191.712  1.00  0.00     0.062 A 
ATOM     17  C   UNL     1     184.418 209.239 190.697  1.00  0.00     0.158 A 
BRANCH  15  18
ATOM     18  O   UNL     1     183.684 207.042 189.934  1.00  0.00    -0.504 OA
ATOM     19  H   UNL     1     183.377 206.097 190.130  1.00  0.00     0.293 HD
ENDBRANCH  15  18
BRANCH  17  20
ATOM     20  O   UNL     1     184.084 209.800 189.464  1.00  0.00    -0.504 OA
ATOM     21  H   UNL     1     184.320 210.758 189.235  1.00  0.00     0.293 HD
ENDBRANCH  17  20
ENDBRANCH   1  12
BRANCH   2  22
ATOM     22  O   UNL     1     188.115 210.140 193.071  1.00  0.00    -0.502 OA
ATOM     23  H   UNL     1     189.039 209.800 193.309  1.00  0.00     0.293 HD
ENDBRANCH   2  22
BRANCH   9  24
ATOM     24  O   UNL     1     184.107 213.371 198.896  1.00  0.00    -0.508 OA
ATOM     25  H   UNL     1     183.676 212.740 199.562  1.00  0.00     0.293 HD
ENDBRANCH   9  24
TORSDOF 5
ENDMDL
MODEL 3
REMARK VINA RESULT:    -7.930      3.959      5.719
REMARK INTER + INTRA:          -9.067
REMARK INTER:                  -8.774
REMARK INTRA:                  -0.293
REMARK UNBOUND:                 0.254
REMARK SMILES O=c1c(O)c(-c2ccc(O)c(O)c2)oc2cc(O)ccc12
REMARK SMILES IDX 5 1 3 2 2 3 1 4 21 5 15 6 14 7 16 8 17 9 19 10 20 11 6 12
REMARK SMILES IDX 7 13 8 14 9 15 13 16 11 17 10 18 12 20 4 22 18 24
REMARK H PARENT 10 19 12 21 4 23 18 25
REMARK Flexibility Score: inf
ROOT
ATOM      1  C   UNL     1     188.075 212.081 196.795  1.00  0.00     0.180 A 
ATOM      2  C   UNL     1     186.932 212.441 197.540  1.00  0.00     0.208 A 
ATOM      3  C   UNL     1     186.969 212.312 198.937  1.00  0.00     0.235 A 
ATOM      4  O   UNL     1     185.956 212.617 199.625  1.00  0.00    -0.285 OA
ATOM      5  C   UNL     1     188.140 211.851 199.558  1.00  0.00     0.069 A 
ATOM      6  C   UNL     1     189.249 211.534 198.744  1.00  0.00     0.142 A 
ATOM      7  O   UNL     1     189.171 211.661 197.424  1.00  0.00    -0.452 OA
ATOM      8  C   UNL     1     190.438 211.081 199.325  1.00  0.00     0.094 A 
ATOM      9  C   UNL     1     190.533 210.938 200.716  1.00  0.00     0.119 A 
ATOM     10  C   UNL     1     189.436 211.249 201.525  1.00  0.00     0.047 A 
ATOM     11  C   UNL     1     188.243 211.704 200.954  1.00  0.00     0.020 A 
ENDROOT
BRANCH   1  12
ATOM     12  C   UNL     1     188.109 212.170 195.317  1.00  0.00     0.025 A 
ATOM     13  C   UNL     1     187.502 211.192 194.510  1.00  0.00     0.016 A 
ATOM     14  C   UNL     1     187.568 211.286 193.118  1.00  0.00     0.051 A 
ATOM     15  C   UNL     1     188.251 212.343 192.511  1.00  0.00     0.157 A 
ATOM     16  C   UNL     1     188.813 213.220 194.705  1.00  0.00     0.062 A 
ATOM     17  C   UNL     1     188.880 213.315 193.307  1.00  0.00     0.158 A 
BRANCH  15  18
ATOM     18  O   UNL     1     188.298 212.410 191.118  1.00  0.00    -0.504 OA
ATOM     19  H   UNL     1     187.856 211.714 190.531  1.00  0.00     0.293 HD
ENDBRANCH  15  18
BRANCH  17  20
ATOM     20  O   UNL     1     189.570 214.368 192.709  1.00  0.00    -0.504 OA
ATOM     21  H   UNL     1     190.469 214.681 193.058  1.00  0.00     0.293 HD
ENDBRANCH  17  20
ENDBRANCH   1  12
BRANCH   2  22
ATOM     22  O   UNL     1     185.798 212.943 196.898  1.00  0.00    -0.502 OA
ATOM     23  H   UNL     1     185.830 213.766 196.308  1.00  0.00     0.293 HD
ENDBRANCH   2  22
BRANCH   9  24
ATOM     24  O   UNL     1     191.712 210.486 201.304  1.00  0.00    -0.508 OA
ATOM     25  H   UNL     1     192.063 210.889 202.166  1.00  0.00     0.293 HD
ENDBRANCH   9  24
TORSDOF 5
ENDMDL
MODEL 4
REMARK VINA RESULT:    -7.842      7.248      9.458
REMARK INTER + INTRA:          -8.964
REMARK INTER:                  -8.688
REMARK INTRA:                  -0.276
REMARK UNBOUND:                 0.254
REMARK SMILES O=c1c(O)c(-c2ccc(O)c(O)c2)oc2cc(O)ccc12
REMARK SMILES IDX 5 1 3 2 2 3 1 4 21 5 15 6 14 7 16 8 17 9 19 10 20 11 6 12
REMARK SMILES IDX 7 13 8 14 9 15 13 16 11 17 10 18 12 20 4 22 18 24
REMARK H PARENT 10 19 12 21 4 23 18 25
REMARK Flexibility Score: inf
ROOT
ATOM      1  C   UNL     1     179.986 213.207 195.494  1.00  0.00     0.180 A 
ATOM      2  C   UNL     1     180.747 213.033 194.319  1.00  0.00     0.208 A 
ATOM      3  C   UNL     1     181.057 211.729 193.903  1.00  0.00     0.235 A 
ATOM      4  O   UNL     1     181.746 211.548 192.861  1.00  0.00    -0.285 OA
ATOM      5  C   UNL     1     180.588 210.636 194.647  1.00  0.00     0.069 A 
ATOM      6  C   UNL     1     179.812 210.894 195.798  1.00  0.00     0.142 A 
ATOM      7  O   UNL     1     179.549 212.143 196.164  1.00  0.00    -0.452 OA
ATOM      8  C   UNL     1     179.318 209.831 196.562  1.00  0.00     0.094 A 
ATOM      9  C   UNL     1     179.593 208.508 196.190  1.00  0.00     0.119 A 
ATOM     10  C   UNL     1     180.363 208.250 195.052  1.00  0.00     0.047 A 
ATOM     11  C   UNL     1     180.860 209.305 194.281  1.00  0.00     0.020 A 
ENDROOT
BRANCH   1  12
ATOM     12  C   UNL     1     179.633 214.550 196.010  1.00  0.00     0.025 A 
ATOM     13  C   UNL     1     180.579 215.352 196.672  1.00  0.00     0.016 A 
ATOM     14  C   UNL     1     180.217 216.606 197.171  1.00  0.00     0.051 A 
ATOM     15  C   UNL     1     178.906 217.071 197.031  1.00  0.00     0.157 A 
ATOM     16  C   UNL     1     178.312 215.012 195.890  1.00  0.00     0.062 A 
ATOM     17  C   UNL     1     177.947 216.270 196.389  1.00  0.00     0.158 A 
BRANCH  15  18
ATOM     18  O   UNL     1     178.575 218.328 197.538  1.00  0.00    -0.504 OA
ATOM     19  H   UNL     1     178.093 218.442 198.421  1.00  0.00     0.293 HD
ENDBRANCH  15  18
BRANCH  17  20
ATOM     20  O   UNL     1     176.636 216.724 196.252  1.00  0.00    -0.504 OA
ATOM     21  H   UNL     1     176.371 217.668 196.507  1.00  0.00     0.293 HD
ENDBRANCH  17  20
ENDBRANCH   1  12
BRANCH   2  22
ATOM     22  O   UNL     1     181.158 214.140 193.571  1.00  0.00    -0.502 OA
ATOM     23  H   UNL     1     181.522 214.980 194.004  1.00  0.00     0.293 HD
ENDBRANCH   2  22
BRANCH   9  24
ATOM     24  O   UNL     1     179.106 207.443 196.945  1.00  0.00    -0.508 OA
ATOM     25  H   UNL     1     178.937 207.534 197.941  1.00  0.00     0.293 HD
ENDBRANCH   9  24
TORSDOF 5
ENDMDL
MODEL 5
REMARK VINA RESULT:    -7.718      3.906      5.276
REMARK INTER + INTRA:          -8.818
REMARK INTER:                  -8.514
REMARK INTRA:                  -0.304
REMARK UNBOUND:                 0.254
REMARK SMILES O=c1c(O)c(-c2ccc(O)c(O)c2)oc2cc(O)ccc12
REMARK SMILES IDX 5 1 3 2 2 3 1 4 21 5 15 6 14 7 16 8 17 9 19 10 20 11 6 12
REMARK SMILES IDX 7 13 8 14 9 15 13 16 11 17 10 18 12 20 4 22 18 24
REMARK H PARENT 10 19 12 21 4 23 18 25
REMARK Flexibility Score: inf
ROOT
ATOM      1  C   UNL     1     182.581 210.612 193.749  1.00  0.00     0.180 A 
ATOM      2  C   UNL     1     181.186 210.766 193.896  1.00  0.00     0.208 A 
ATOM      3  C   UNL     1     180.701 211.565 194.943  1.00  0.00     0.235 A 
ATOM      4  O   UNL     1     179.458 211.709 195.102  1.00  0.00    -0.285 OA
ATOM      5  C   UNL     1     181.609 212.204 195.801  1.00  0.00     0.069 A 
ATOM      6  C   UNL     1     182.990 212.019 195.572  1.00  0.00     0.142 A 
ATOM      7  O   UNL     1     183.408 211.247 194.575  1.00  0.00    -0.452 OA
ATOM      8  C   UNL     1     183.927 212.647 196.400  1.00  0.00     0.094 A 
ATOM      9  C   UNL     1     183.500 213.461 197.458  1.00  0.00     0.119 A 
ATOM     10  C   UNL     1     182.133 213.645 197.688  1.00  0.00     0.047 A 
ATOM     11  C   UNL     1     181.188 213.022 196.866  1.00  0.00     0.020 A 
ENDROOT
BRANCH   1  12
ATOM     12  C   UNL     1     183.170 209.771 192.681  1.00  0.00     0.025 A 
ATOM     13  C   UNL     1     183.590 208.453 192.934  1.00  0.00     0.016 A 
ATOM     14  C   UNL     1     184.165 207.688 191.917  1.00  0.00     0.051 A 
ATOM     15  C   UNL     1     184.343 208.228 190.640  1.00  0.00     0.157 A 
ATOM     16  C   UNL     1     183.370 210.318 191.403  1.00  0.00     0.062 A 
ATOM     17  C   UNL     1     183.947 209.550 190.381  1.00  0.00     0.158 A 
BRANCH  15  18
ATOM     18  O   UNL     1     184.918 207.438 189.644  1.00  0.00    -0.504 OA
ATOM     19  H   UNL     1     185.330 207.839 188.810  1.00  0.00     0.293 HD
ENDBRANCH  15  18
BRANCH  17  20
ATOM     20  O   UNL     1     184.129 210.098 189.111  1.00  0.00    -0.504 OA
ATOM     21  H   UNL     1     183.847 209.603 188.273  1.00  0.00     0.293 HD
ENDBRANCH  17  20
ENDBRANCH   1  12
BRANCH   2  22
ATOM     22  O   UNL     1     180.308 210.156 192.996  1.00  0.00    -0.502 OA
ATOM     23  H   UNL     1     179.318 210.059 193.188  1.00  0.00     0.293 HD
ENDBRANCH   2  22
BRANCH   9  24
ATOM     24  O   UNL     1     184.426 214.090 198.288  1.00  0.00    -0.508 OA
ATOM     25  H   UNL     1     185.403 214.163 198.031  1.00  0.00     0.293 HD
ENDBRANCH   9  24
TORSDOF 5
ENDMDL
MODEL 6
REMARK VINA RESULT:    -7.662      3.873      5.776
REMARK INTER + INTRA:          -8.752
REMARK INTER:                  -8.435
REMARK INTRA:                  -0.317
REMARK UNBOUND:                 0.254
REMARK SMILES O=c1c(O)c(-c2ccc(O)c(O)c2)oc2cc(O)ccc12
REMARK SMILES IDX 5 1 3 2 2 3 1 4 21 5 15 6 14 7 16 8 17 9 19 10 20 11 6 12
REMARK SMILES IDX 7 13 8 14 9 15 13 16 11 17 10 18 12 20 4 22 18 24
REMARK H PARENT 10 19 12 21 4 23 18 25
REMARK Flexibility Score: inf
ROOT
ATOM      1  C   UNL     1     188.443 211.979 196.839  1.00  0.00     0.180 A 
ATOM      2  C   UNL     1     189.498 211.268 197.450  1.00  0.00     0.208 A 
ATOM      3  C   UNL     1     189.561 211.227 198.851  1.00  0.00     0.235 A 
ATOM      4  O   UNL     1     190.501 210.606 199.421  1.00  0.00    -0.285 OA
ATOM      5  C   UNL     1     188.570 211.870 199.607  1.00  0.00     0.069 A 
ATOM      6  C   UNL     1     187.534 212.539 198.921  1.00  0.00     0.142 A 
ATOM      7  O   UNL     1     187.515 212.564 197.593  1.00  0.00    -0.452 OA
ATOM      8  C   UNL     1     186.521 213.185 199.638  1.00  0.00     0.094 A 
ATOM      9  C   UNL     1     186.531 213.172 201.039  1.00  0.00     0.119 A 
ATOM     10  C   UNL     1     187.557 212.511 201.723  1.00  0.00     0.047 A 
ATOM     11  C   UNL     1     188.573 211.861 201.015  1.00  0.00     0.020 A 
ENDROOT
BRANCH   1  12
ATOM     12  C   UNL     1     188.317 212.086 195.367  1.00  0.00     0.025 A 
ATOM     13  C   UNL     1     187.618 211.121 194.620  1.00  0.00     0.016 A 
ATOM     14  C   UNL     1     187.534 211.231 193.230  1.00  0.00     0.051 A 
ATOM     15  C   UNL     1     188.154 212.292 192.564  1.00  0.00     0.157 A 
ATOM     16  C   UNL     1     188.957 213.139 194.694  1.00  0.00     0.062 A 
ATOM     17  C   UNL     1     188.873 213.250 193.299  1.00  0.00     0.158 A 
BRANCH  15  18
ATOM     18  O   UNL     1     188.051 212.375 191.176  1.00  0.00    -0.504 OA
ATOM     19  H   UNL     1     188.254 211.588 190.572  1.00  0.00     0.293 HD
ENDBRANCH  15  18
BRANCH  17  20
ATOM     20  O   UNL     1     189.501 214.307 192.641  1.00  0.00    -0.504 OA
ATOM     21  H   UNL     1     189.648 215.202 193.093  1.00  0.00     0.293 HD
ENDBRANCH  17  20
ENDBRANCH   1  12
BRANCH   2  22
ATOM     22  O   UNL     1     190.443 210.596 196.671  1.00  0.00    -0.502 OA
ATOM     23  H   UNL     1     191.190 211.081 196.188  1.00  0.00     0.293 HD
ENDBRANCH   2  22
BRANCH   9  24
ATOM     24  O   UNL     1     185.527 213.813 201.763  1.00  0.00    -0.508 OA
ATOM     25  H   UNL     1     185.354 213.593 202.737  1.00  0.00     0.293 HD
ENDBRANCH   9  24
TORSDOF 5
ENDMDL
MODEL 7
REMARK VINA RESULT:    -7.652      7.804      9.174
REMARK INTER + INTRA:          -8.740
REMARK INTER:                  -8.476
REMARK INTRA:                  -0.264
REMARK UNBOUND:                 0.254
REMARK SMILES O=c1c(O)c(-c2ccc(O)c(O)c2)oc2cc(O)ccc12
REMARK SMILES IDX 5 1 3 2 2 3 1 4 21 5 15 6 14 7 16 8 17 9 19 10 20 11 6 12
REMARK SMILES IDX 7 13 8 14 9 15 13 16 11 17 10 18 12 20 4 22 18 24
REMARK H PARENT 10 19 12 21 4 23 18 25
REMARK Flexibility Score: inf
ROOT
ATOM      1  C   UNL     1     179.346 212.976 196.156  1.00  0.00     0.180 A 
ATOM      2  C   UNL     1     178.416 213.745 195.425  1.00  0.00     0.208 A 
ATOM      3  C   UNL     1     178.099 215.034 195.880  1.00  0.00     0.235 A 
ATOM      4  O   UNL     1     177.262 215.737 195.250  1.00  0.00    -0.285 OA
ATOM      5  C   UNL     1     178.727 215.534 197.031  1.00  0.00     0.069 A 
ATOM      6  C   UNL     1     179.664 214.712 197.692  1.00  0.00     0.142 A 
ATOM      7  O   UNL     1     179.930 213.493 197.235  1.00  0.00    -0.452 OA
ATOM      8  C   UNL     1     180.319 215.177 198.838  1.00  0.00     0.094 A 
ATOM      9  C   UNL     1     180.045 216.459 199.334  1.00  0.00     0.119 A 
ATOM     10  C   UNL     1     179.116 217.275 198.683  1.00  0.00     0.047 A 
ATOM     11  C   UNL     1     178.457 216.819 197.536  1.00  0.00     0.020 A 
ENDROOT
BRANCH   1  12
ATOM     12  C   UNL     1     179.719 211.601 195.752  1.00  0.00     0.025 A 
ATOM     13  C   UNL     1     180.586 211.364 194.670  1.00  0.00     0.016 A 
ATOM     14  C   UNL     1     180.903 210.057 194.293  1.00  0.00     0.051 A 
ATOM     15  C   UNL     1     180.351 208.970 194.976  1.00  0.00     0.157 A 
ATOM     16  C   UNL     1     179.149 210.506 196.422  1.00  0.00     0.062 A 
ATOM     17  C   UNL     1     179.468 209.193 196.045  1.00  0.00     0.158 A 
BRANCH  15  18
ATOM     18  O   UNL     1     180.689 207.676 194.577  1.00  0.00    -0.504 OA
ATOM     19  H   UNL     1     180.025 207.064 194.118  1.00  0.00     0.293 HD
ENDBRANCH  15  18
BRANCH  17  20
ATOM     20  O   UNL     1     178.907 208.114 196.726  1.00  0.00    -0.504 OA
ATOM     21  H   UNL     1     179.272 207.801 197.618  1.00  0.00     0.293 HD
ENDBRANCH  17  20
ENDBRANCH   1  12
BRANCH   2  22
ATOM     22  O   UNL     1     177.844 213.239 194.254  1.00  0.00    -0.502 OA
ATOM     23  H   UNL     1     178.332 212.587 193.652  1.00  0.00     0.293 HD
ENDBRANCH   2  22
BRANCH   9  24
ATOM     24  O   UNL     1     180.691 216.930 200.476  1.00  0.00    -0.508 OA
ATOM     25  H   UNL     1     180.453 217.826 200.887  1.00  0.00     0.293 HD
ENDBRANCH   9  24
TORSDOF 5
ENDMDL
MODEL 8
REMARK VINA RESULT:    -7.628      1.863      3.160
REMARK INTER + INTRA:          -8.711
REMARK INTER:                  -8.499
REMARK INTRA:                  -0.213
REMARK UNBOUND:                 0.254
REMARK SMILES O=c1c(O)c(-c2ccc(O)c(O)c2)oc2cc(O)ccc12
REMARK SMILES IDX 5 1 3 2 2 3 1 4 21 5 15 6 14 7 16 8 17 9 19 10 20 11 6 12
REMARK SMILES IDX 7 13 8 14 9 15 13 16 11 17 10 18 12 20 4 22 18 24
REMARK H PARENT 10 19 12 21 4 23 18 25
REMARK Flexibility Score: inf
ROOT
ATOM      1  C   UNL     1     186.721 210.385 193.918  1.00  0.00     0.180 A 
ATOM      2  C   UNL     1     187.669 211.312 193.436  1.00  0.00     0.208 A 
ATOM      3  C   UNL     1     188.345 212.128 194.357  1.00  0.00     0.235 A 
ATOM      4  O   UNL     1     189.190 212.971 193.950  1.00  0.00    -0.285 OA
ATOM      5  C   UNL     1     188.080 211.988 195.728  1.00  0.00     0.069 A 
ATOM      6  C   UNL     1     187.134 211.021 196.132  1.00  0.00     0.142 A 
ATOM      7  O   UNL     1     186.509 210.275 195.228  1.00  0.00    -0.452 OA
ATOM      8  C   UNL     1     186.848 210.845 197.490  1.00  0.00     0.094 A 
ATOM      9  C   UNL     1     187.497 211.628 198.454  1.00  0.00     0.119 A 
ATOM     10  C   UNL     1     188.433 212.589 198.057  1.00  0.00     0.047 A 
ATOM     11  C   UNL     1     188.726 212.771 196.702  1.00  0.00     0.020 A 
ENDROOT
BRANCH   1  12
ATOM     12  C   UNL     1     185.953 209.503 193.010  1.00  0.00     0.025 A 
ATOM     13  C   UNL     1     186.219 208.125 192.928  1.00  0.00     0.016 A 
ATOM     14  C   UNL     1     185.498 207.317 192.046  1.00  0.00     0.051 A 
ATOM     15  C   UNL     1     184.513 207.872 191.223  1.00  0.00     0.157 A 
ATOM     16  C   UNL     1     184.978 210.061 192.167  1.00  0.00     0.062 A 
ATOM     17  C   UNL     1     184.252 209.251 191.281  1.00  0.00     0.158 A 
BRANCH  15  18
ATOM     18  O   UNL     1     183.807 207.040 190.354  1.00  0.00    -0.504 OA
ATOM     19  H   UNL     1     183.691 206.050 190.532  1.00  0.00     0.293 HD
ENDBRANCH  15  18
BRANCH  17  20
ATOM     20  O   UNL     1     183.276 209.813 190.459  1.00  0.00    -0.504 OA
ATOM     21  H   UNL     1     182.488 210.322 190.840  1.00  0.00     0.293 HD
ENDBRANCH  17  20
ENDBRANCH   1  12
BRANCH   2  22
ATOM     22  O   UNL     1     187.949 211.393 192.070  1.00  0.00    -0.502 OA
ATOM     23  H   UNL     1     188.532 210.714 191.595  1.00  0.00     0.293 HD
ENDBRANCH   2  22
BRANCH   9  24
ATOM     24  O   UNL     1     187.218 211.461 199.809  1.00  0.00    -0.508 OA
ATOM     25  H   UNL     1     187.808 210.891 200.404  1.00  0.00     0.293 HD
ENDBRANCH   9  24
TORSDOF 5
ENDMDL
MODEL 9
REMARK VINA RESULT:    -7.571      2.925      8.290
REMARK INTER + INTRA:          -8.644
REMARK INTER:                  -8.349
REMARK INTRA:                  -0.296
REMARK UNBOUND:                 0.254
REMARK SMILES O=c1c(O)c(-c2ccc(O)c(O)c2)oc2cc(O)ccc12
REMARK SMILES IDX 5 1 3 2 2 3 1 4 21 5 15 6 14 7 16 8 17 9 19 10 20 11 6 12
REMARK SMILES IDX 7 13 8 14 9 15 13 16 11 17 10 18 12 20 4 22 18 24
REMARK H PARENT 10 19 12 21 4 23 18 25
REMARK Flexibility Score: inf
ROOT
ATOM      1  C   UNL     1     188.807 211.598 197.308  1.00  0.00     0.180 A 
ATOM      2  C   UNL     1     189.212 212.396 196.217  1.00  0.00     0.208 A 
ATOM      3  C   UNL     1     188.750 212.071 194.933  1.00  0.00     0.235 A 
ATOM      4  O   UNL     1     189.107 212.764 193.940  1.00  0.00    -0.285 OA
ATOM      5  C   UNL     1     187.883 210.980 194.766  1.00  0.00     0.069 A 
ATOM      6  C   UNL     1     187.505 210.245 195.911  1.00  0.00     0.142 A 
ATOM      7  O   UNL     1     187.973 210.579 197.108  1.00  0.00    -0.452 OA
ATOM      8  C   UNL     1     186.636 209.156 195.788  1.00  0.00     0.094 A 
ATOM      9  C   UNL     1     186.139 208.789 194.530  1.00  0.00     0.119 A 
ATOM     10  C   UNL     1     186.513 209.513 193.394  1.00  0.00     0.047 A 
ATOM     11  C   UNL     1     187.380 210.604 193.507  1.00  0.00     0.020 A 
ENDROOT
BRANCH   1  12
ATOM     12  C   UNL     1     189.266 211.864 198.690  1.00  0.00     0.025 A 
ATOM     13  C   UNL     1     188.656 212.847 199.488  1.00  0.00     0.016 A 
ATOM     14  C   UNL     1     189.123 213.097 200.781  1.00  0.00     0.051 A 
ATOM     15  C   UNL     1     190.211 212.383 201.291  1.00  0.00     0.157 A 
ATOM     16  C   UNL     1     190.373 211.163 199.197  1.00  0.00     0.062 A 
ATOM     17  C   UNL     1     190.842 211.412 200.495  1.00  0.00     0.158 A 
BRANCH  15  18
ATOM     18  O   UNL     1     190.654 212.653 202.586  1.00  0.00    -0.504 OA
ATOM     19  H   UNL     1     190.174 213.307 203.193  1.00  0.00     0.293 HD
ENDBRANCH  15  18
BRANCH  17  20
ATOM     20  O   UNL     1     191.933 210.701 200.993  1.00  0.00    -0.504 OA
ATOM     21  H   UNL     1     191.967 209.689 200.962  1.00  0.00     0.293 HD
ENDBRANCH  17  20
ENDBRANCH   1  12
BRANCH   2  22
ATOM     22  O   UNL     1     190.036 213.507 196.421  1.00  0.00    -0.502 OA
ATOM     23  H   UNL     1     190.117 214.252 195.739  1.00  0.00     0.293 HD
ENDBRANCH   2  22
BRANCH   9  24
ATOM     24  O   UNL     1     185.273 207.705 194.398  1.00  0.00    -0.508 OA
ATOM     25  H   UNL     1     185.575 206.758 194.600  1.00  0.00     0.293 HD
ENDBRANCH   9  24
TORSDOF 5
ENDMDL
