MODEL 1
REMARK VINA RESULT:    -6.191      0.000      0.000
REMARK INTER + INTRA:         -12.783
REMARK INTER:                 -11.620
REMARK INTRA:                  -1.163
REMARK UNBOUND:                -1.163
REMARK SMILES CCCCCCCCCCCCCC=CC=CC(=O)OC
REMARK SMILES IDX 9 1 8 2 7 3 6 4 5 5 4 6 3 7 2 8 1 9 10 10 11 11 12 12 13 13
REMARK SMILES IDX 14 14 15 15 16 16 17 17 18 18 19 19 20 20 21 21
REMARK H PARENT
REMARK Flexibility Score: inf
ROOT
ATOM      1  C   UNL     1      27.927   4.928  32.138  1.00  0.00     0.000 C 
ENDROOT
BRANCH   1   2
ATOM      2  C   UNL     1      29.371   4.797  31.621  1.00  0.00     0.000 C 
BRANCH   2   3
ATOM      3  C   UNL     1      29.638   3.460  30.913  1.00  0.00     0.000 C 
BRANCH   3   4
ATOM      4  C   UNL     1      30.594   3.653  29.727  1.00  0.00    -0.000 C 
BRANCH   4   5
ATOM      5  C   UNL     1      30.247   2.752  28.529  1.00  0.00    -0.000 C 
BRANCH   5   6
ATOM      6  C   UNL     1      28.811   2.920  27.992  1.00  0.00    -0.000 C 
BRANCH   6   7
ATOM      7  C   UNL     1      27.975   1.623  28.048  1.00  0.00    -0.000 C 
BRANCH   7   8
ATOM      8  C   UNL     1      26.500   1.899  28.369  1.00  0.00    -0.003 C 
ATOM      9  C   UNL     1      26.346   3.146  29.233  1.00  0.00     0.004 C 
ENDBRANCH   7   8
ENDBRANCH   6   7
ENDBRANCH   5   6
ENDBRANCH   4   5
ENDBRANCH   3   4
ENDBRANCH   2   3
ENDBRANCH   1   2
BRANCH   1  10
ATOM     10  C   UNL     1      27.602   6.265  32.832  1.00  0.00     0.000 C 
BRANCH  10  11
ATOM     11  C   UNL     1      26.757   7.205  31.959  1.00  0.00     0.000 C 
BRANCH  11  12
ATOM     12  C   UNL     1      26.897   8.660  32.423  1.00  0.00     0.004 C 
BRANCH  12  13
ATOM     13  C   UNL     1      28.020   8.802  33.458  1.00  0.00     0.027 C 
BRANCH  13  14
ATOM     14  C   UNL     1      27.871  10.070  34.248  1.00  0.00    -0.027 C 
ATOM     15  C   UNL     1      28.599  10.300  35.343  1.00  0.00    -0.004 C 
BRANCH  15  16
ATOM     16  C   UNL     1      28.440  11.543  36.116  1.00  0.00     0.007 C 
ATOM     17  C   UNL     1      27.661  12.533  35.671  1.00  0.00     0.093 C 
BRANCH  17  18
ATOM     18  C   UNL     1      27.476  13.783  36.424  1.00  0.00     0.330 C 
ATOM     19  O   UNL     1      27.293  13.725  37.670  1.00  0.00    -0.247 OA
BRANCH  18  20
ATOM     20  O   UNL     1      27.514  15.020  35.771  1.00  0.00    -0.466 OA
ATOM     21  C   UNL     1      28.475  15.330  34.769  1.00  0.00     0.282 C 
ENDBRANCH  18  20
ENDBRANCH  17  18
ENDBRANCH  15  16
ENDBRANCH  13  14
ENDBRANCH  12  13
ENDBRANCH  11  12
ENDBRANCH  10  11
ENDBRANCH   1  10
TORSDOF 15
ENDMDL
MODEL 2
REMARK VINA RESULT:    -6.159      4.378     10.457
REMARK INTER + INTRA:         -12.723
REMARK INTER:                 -11.341
REMARK INTRA:                  -1.383
REMARK UNBOUND:                -1.163
REMARK SMILES CCCCCCCCCCCCCC=CC=CC(=O)OC
REMARK SMILES IDX 9 1 8 2 7 3 6 4 5 5 4 6 3 7 2 8 1 9 10 10 11 11 12 12 13 13
REMARK SMILES IDX 14 14 15 15 16 16 17 17 18 18 19 19 20 20 21 21
REMARK H PARENT
REMARK Flexibility Score: inf
ROOT
ATOM      1  C   UNL     1      27.890  11.132  34.809  1.00  0.00     0.000 C 
ENDROOT
BRANCH   1   2
ATOM      2  C   UNL     1      28.676  10.804  36.090  1.00  0.00     0.000 C 
BRANCH   2   3
ATOM      3  C   UNL     1      28.900  12.028  36.990  1.00  0.00     0.000 C 
BRANCH   3   4
ATOM      4  C   UNL     1      27.739  13.024  36.854  1.00  0.00    -0.000 C 
BRANCH   4   5
ATOM      5  C   UNL     1      28.196  14.490  36.960  1.00  0.00    -0.000 C 
BRANCH   5   6
ATOM      6  C   UNL     1      27.592  15.431  35.899  1.00  0.00    -0.000 C 
BRANCH   6   7
ATOM      7  C   UNL     1      28.345  15.408  34.551  1.00  0.00    -0.000 C 
BRANCH   7   8
ATOM      8  C   UNL     1      27.600  14.593  33.486  1.00  0.00    -0.003 C 
ATOM      9  C   UNL     1      26.109  14.507  33.797  1.00  0.00     0.004 C 
ENDBRANCH   7   8
ENDBRANCH   6   7
ENDBRANCH   5   6
ENDBRANCH   4   5
ENDBRANCH   3   4
ENDBRANCH   2   3
ENDBRANCH   1   2
BRANCH   1  10
ATOM     10  C   UNL     1      27.905  10.029  33.733  1.00  0.00     0.000 C 
BRANCH  10  11
ATOM     11  C   UNL     1      27.170  10.434  32.446  1.00  0.00     0.000 C 
BRANCH  11  12
ATOM     12  C   UNL     1      26.339   9.269  31.897  1.00  0.00     0.004 C 
BRANCH  12  13
ATOM     13  C   UNL     1      26.442   8.041  32.811  1.00  0.00     0.027 C 
BRANCH  13  14
ATOM     14  C   UNL     1      26.903   6.834  32.046  1.00  0.00    -0.027 C 
ATOM     15  C   UNL     1      27.585   5.850  32.638  1.00  0.00    -0.004 C 
BRANCH  15  16
ATOM     16  C   UNL     1      28.041   4.675  31.877  1.00  0.00     0.007 C 
ATOM     17  C   UNL     1      29.316   4.558  31.493  1.00  0.00     0.093 C 
BRANCH  17  18
ATOM     18  C   UNL     1      29.802   3.392  30.739  1.00  0.00     0.330 C 
ATOM     19  O   UNL     1      30.649   2.627  31.274  1.00  0.00    -0.247 OA
BRANCH  18  20
ATOM     20  O   UNL     1      29.322   3.127  29.451  1.00  0.00    -0.466 OA
ATOM     21  C   UNL     1      30.172   2.728  28.383  1.00  0.00     0.282 C 
ENDBRANCH  18  20
ENDBRANCH  17  18
ENDBRANCH  15  16
ENDBRANCH  13  14
ENDBRANCH  12  13
ENDBRANCH  11  12
ENDBRANCH  10  11
ENDBRANCH   1  10
TORSDOF 15
ENDMDL
MODEL 3
REMARK VINA RESULT:    -5.971      1.704      3.028
REMARK INTER + INTRA:         -12.371
REMARK INTER:                 -11.020
REMARK INTRA:                  -1.351
REMARK UNBOUND:                -1.163
REMARK SMILES CCCCCCCCCCCCCC=CC=CC(=O)OC
REMARK SMILES IDX 9 1 8 2 7 3 6 4 5 5 4 6 3 7 2 8 1 9 10 10 11 11 12 12 13 13
REMARK SMILES IDX 14 14 15 15 16 16 17 17 18 18 19 19 20 20 21 21
REMARK H PARENT
REMARK Flexibility Score: inf
ROOT
ATOM      1  C   UNL     1      27.236   5.562  31.778  1.00  0.00     0.000 C 
ENDROOT
BRANCH   1   2
ATOM      2  C   UNL     1      28.365   4.515  31.785  1.00  0.00     0.000 C 
BRANCH   2   3
ATOM      3  C   UNL     1      28.152   3.393  30.757  1.00  0.00     0.000 C 
BRANCH   3   4
ATOM      4  C   UNL     1      29.424   2.546  30.603  1.00  0.00    -0.000 C 
BRANCH   4   5
ATOM      5  C   UNL     1      30.677   3.247  31.159  1.00  0.00    -0.000 C 
BRANCH   5   6
ATOM      6  C   UNL     1      31.573   3.905  30.091  1.00  0.00    -0.000 C 
BRANCH   6   7
ATOM      7  C   UNL     1      32.163   5.263  30.530  1.00  0.00    -0.000 C 
BRANCH   7   8
ATOM      8  C   UNL     1      31.825   5.595  31.990  1.00  0.00    -0.003 C 
ATOM      9  C   UNL     1      31.089   6.926  32.099  1.00  0.00     0.004 C 
ENDBRANCH   7   8
ENDBRANCH   6   7
ENDBRANCH   5   6
ENDBRANCH   4   5
ENDBRANCH   3   4
ENDBRANCH   2   3
ENDBRANCH   1   2
BRANCH   1  10
ATOM     10  C   UNL     1      27.487   6.796  32.665  1.00  0.00     0.000 C 
BRANCH  10  11
ATOM     11  C   UNL     1      26.517   7.952  32.375  1.00  0.00     0.000 C 
BRANCH  11  12
ATOM     12  C   UNL     1      27.165   9.306  32.685  1.00  0.00     0.004 C 
BRANCH  12  13
ATOM     13  C   UNL     1      28.203   9.174  33.808  1.00  0.00     0.027 C 
BRANCH  13  14
ATOM     14  C   UNL     1      28.108  10.323  34.770  1.00  0.00    -0.027 C 
ATOM     15  C   UNL     1      28.914  10.414  35.831  1.00  0.00    -0.004 C 
BRANCH  15  16
ATOM     16  C   UNL     1      28.807  11.540  36.774  1.00  0.00     0.007 C 
ATOM     17  C   UNL     1      28.208  12.680  36.417  1.00  0.00     0.093 C 
BRANCH  17  18
ATOM     18  C   UNL     1      28.079  13.818  37.340  1.00  0.00     0.330 C 
ATOM     19  O   UNL     1      29.103  14.238  37.941  1.00  0.00    -0.247 OA
BRANCH  18  20
ATOM     20  O   UNL     1      26.838  14.435  37.539  1.00  0.00    -0.466 OA
ATOM     21  C   UNL     1      25.644  13.976  36.917  1.00  0.00     0.282 C 
ENDBRANCH  18  20
ENDBRANCH  17  18
ENDBRANCH  15  16
ENDBRANCH  13  14
ENDBRANCH  12  13
ENDBRANCH  11  12
ENDBRANCH  10  11
ENDBRANCH   1  10
TORSDOF 15
ENDMDL
MODEL 4
REMARK VINA RESULT:    -5.772      4.713     10.816
REMARK INTER + INTRA:         -11.996
REMARK INTER:                 -10.883
REMARK INTRA:                  -1.113
REMARK UNBOUND:                -1.163
REMARK SMILES CCCCCCCCCCCCCC=CC=CC(=O)OC
REMARK SMILES IDX 9 1 8 2 7 3 6 4 5 5 4 6 3 7 2 8 1 9 10 10 11 11 12 12 13 13
REMARK SMILES IDX 14 14 15 15 16 16 17 17 18 18 19 19 20 20 21 21
REMARK H PARENT
REMARK Flexibility Score: inf
ROOT
ATOM      1  C   UNL     1      27.999  10.608  34.654  1.00  0.00     0.000 C 
ENDROOT
BRANCH   1   2
ATOM      2  C   UNL     1      28.916  10.497  35.885  1.00  0.00     0.000 C 
BRANCH   2   3
ATOM      3  C   UNL     1      28.737  11.657  36.876  1.00  0.00     0.000 C 
BRANCH   3   4
ATOM      4  C   UNL     1      28.291  12.933  36.146  1.00  0.00    -0.000 C 
BRANCH   4   5
ATOM      5  C   UNL     1      26.891  13.405  36.576  1.00  0.00    -0.000 C 
BRANCH   5   6
ATOM      6  C   UNL     1      26.080  14.106  35.467  1.00  0.00    -0.000 C 
BRANCH   6   7
ATOM      7  C   UNL     1      26.797  14.133  34.100  1.00  0.00    -0.000 C 
BRANCH   7   8
ATOM      8  C   UNL     1      27.127  15.562  33.649  1.00  0.00    -0.003 C 
ATOM      9  C   UNL     1      28.328  16.119  34.407  1.00  0.00     0.004 C 
ENDBRANCH   7   8
ENDBRANCH   6   7
ENDBRANCH   5   6
ENDBRANCH   4   5
ENDBRANCH   3   4
ENDBRANCH   2   3
ENDBRANCH   1   2
BRANCH   1  10
ATOM     10  C   UNL     1      28.044   9.402  33.696  1.00  0.00     0.000 C 
BRANCH  10  11
ATOM     11  C   UNL     1      27.037   9.514  32.541  1.00  0.00     0.000 C 
BRANCH  11  12
ATOM     12  C   UNL     1      26.609   8.127  32.048  1.00  0.00     0.004 C 
BRANCH  12  13
ATOM     13  C   UNL     1      27.148   7.025  32.969  1.00  0.00     0.027 C 
BRANCH  13  14
ATOM     14  C   UNL     1      27.434   5.768  32.200  1.00  0.00    -0.027 C 
ATOM     15  C   UNL     1      28.681   5.326  32.023  1.00  0.00    -0.004 C 
BRANCH  15  16
ATOM     16  C   UNL     1      28.952   4.096  31.259  1.00  0.00     0.007 C 
ATOM     17  C   UNL     1      27.976   3.474  30.591  1.00  0.00     0.093 C 
BRANCH  17  18
ATOM     18  C   UNL     1      28.218   2.250  29.813  1.00  0.00     0.330 C 
ATOM     19  O   UNL     1      27.805   2.189  28.624  1.00  0.00    -0.247 OA
BRANCH  18  20
ATOM     20  O   UNL     1      28.907   1.171  30.380  1.00  0.00    -0.466 OA
ATOM     21  C   UNL     1      28.547  -0.183  30.135  1.00  0.00     0.282 C 
ENDBRANCH  18  20
ENDBRANCH  17  18
ENDBRANCH  15  16
ENDBRANCH  13  14
ENDBRANCH  12  13
ENDBRANCH  11  12
ENDBRANCH  10  11
ENDBRANCH   1  10
TORSDOF 15
ENDMDL
MODEL 5
REMARK VINA RESULT:    -5.643      5.253      8.866
REMARK INTER + INTRA:         -11.754
REMARK INTER:                 -10.653
REMARK INTRA:                  -1.100
REMARK UNBOUND:                -1.163
REMARK SMILES CCCCCCCCCCCCCC=CC=CC(=O)OC
REMARK SMILES IDX 9 1 8 2 7 3 6 4 5 5 4 6 3 7 2 8 1 9 10 10 11 11 12 12 13 13
REMARK SMILES IDX 14 14 15 15 16 16 17 17 18 18 19 19 20 20 21 21
REMARK H PARENT
REMARK Flexibility Score: inf
ROOT
ATOM      1  C   UNL     1      29.117  10.115  35.441  1.00  0.00     0.000 C 
ENDROOT
BRANCH   1   2
ATOM      2  C   UNL     1      30.592   9.748  35.685  1.00  0.00     0.000 C 
BRANCH   2   3
ATOM      3  C   UNL     1      31.021   8.462  34.960  1.00  0.00     0.000 C 
BRANCH   3   4
ATOM      4  C   UNL     1      32.462   8.083  35.331  1.00  0.00    -0.000 C 
BRANCH   4   5
ATOM      5  C   UNL     1      32.609   7.671  36.806  1.00  0.00    -0.000 C 
BRANCH   5   6
ATOM      6  C   UNL     1      33.147   6.243  37.026  1.00  0.00    -0.000 C 
BRANCH   6   7
ATOM      7  C   UNL     1      33.802   5.629  35.770  1.00  0.00    -0.000 C 
BRANCH   7   8
ATOM      8  C   UNL     1      33.261   4.227  35.463  1.00  0.00    -0.003 C 
ATOM      9  C   UNL     1      34.048   3.154  36.209  1.00  0.00     0.004 C 
ENDBRANCH   7   8
ENDBRANCH   6   7
ENDBRANCH   5   6
ENDBRANCH   4   5
ENDBRANCH   3   4
ENDBRANCH   2   3
ENDBRANCH   1   2
BRANCH   1  10
ATOM     10  C   UNL     1      28.406   9.277  34.362  1.00  0.00     0.000 C 
BRANCH  10  11
ATOM     11  C   UNL     1      27.587  10.131  33.381  1.00  0.00     0.000 C 
BRANCH  11  12
ATOM     12  C   UNL     1      26.811   9.247  32.398  1.00  0.00     0.004 C 
BRANCH  12  13
ATOM     13  C   UNL     1      26.525   7.868  33.005  1.00  0.00     0.027 C 
BRANCH  13  14
ATOM     14  C   UNL     1      27.084   6.771  32.146  1.00  0.00    -0.027 C 
ATOM     15  C   UNL     1      27.696   5.710  32.678  1.00  0.00    -0.004 C 
BRANCH  15  16
ATOM     16  C   UNL     1      28.250   4.644  31.826  1.00  0.00     0.007 C 
ATOM     17  C   UNL     1      29.549   4.618  31.516  1.00  0.00     0.093 C 
BRANCH  17  18
ATOM     18  C   UNL     1      30.131   3.562  30.674  1.00  0.00     0.330 C 
ATOM     19  O   UNL     1      31.374   3.562  30.465  1.00  0.00    -0.247 OA
BRANCH  18  20
ATOM     20  O   UNL     1      29.321   2.563  30.123  1.00  0.00    -0.466 OA
ATOM     21  C   UNL     1      29.159   1.285  30.727  1.00  0.00     0.282 C 
ENDBRANCH  18  20
ENDBRANCH  17  18
ENDBRANCH  15  16
ENDBRANCH  13  14
ENDBRANCH  12  13
ENDBRANCH  11  12
ENDBRANCH  10  11
ENDBRANCH   1  10
TORSDOF 15
ENDMDL
MODEL 6
REMARK VINA RESULT:    -5.551      6.771     11.715
REMARK INTER + INTRA:         -11.582
REMARK INTER:                 -10.496
REMARK INTRA:                  -1.086
REMARK UNBOUND:                -1.163
REMARK SMILES CCCCCCCCCCCCCC=CC=CC(=O)OC
REMARK SMILES IDX 9 1 8 2 7 3 6 4 5 5 4 6 3 7 2 8 1 9 10 10 11 11 12 12 13 13
REMARK SMILES IDX 14 14 15 15 16 16 17 17 18 18 19 19 20 20 21 21
REMARK H PARENT
REMARK Flexibility Score: inf
ROOT
ATOM      1  C   UNL     1      29.315   2.832  29.101  1.00  0.00     0.000 C 
ENDROOT
BRANCH   1   2
ATOM      2  C   UNL     1      29.220   3.055  30.621  1.00  0.00     0.000 C 
BRANCH   2   3
ATOM      3  C   UNL     1      30.198   4.122  31.136  1.00  0.00     0.000 C 
BRANCH   3   4
ATOM      4  C   UNL     1      29.437   5.337  31.686  1.00  0.00    -0.000 C 
BRANCH   4   5
ATOM      5  C   UNL     1      28.017   4.986  32.162  1.00  0.00    -0.000 C 
BRANCH   5   6
ATOM      6  C   UNL     1      27.265   6.141  32.854  1.00  0.00    -0.000 C 
BRANCH   6   7
ATOM      7  C   UNL     1      27.597   7.532  32.270  1.00  0.00    -0.000 C 
BRANCH   7   8
ATOM      8  C   UNL     1      26.355   8.429  32.173  1.00  0.00    -0.003 C 
ATOM      9  C   UNL     1      26.738   9.872  31.863  1.00  0.00     0.004 C 
ENDBRANCH   7   8
ENDBRANCH   6   7
ENDBRANCH   5   6
ENDBRANCH   4   5
ENDBRANCH   3   4
ENDBRANCH   2   3
ENDBRANCH   1   2
BRANCH   1  10
ATOM     10  C   UNL     1      27.963   2.689  28.377  1.00  0.00     0.000 C 
BRANCH  10  11
ATOM     11  C   UNL     1      26.758   2.845  29.317  1.00  0.00     0.000 C 
BRANCH  11  12
ATOM     12  C   UNL     1      25.469   2.356  28.645  1.00  0.00     0.004 C 
BRANCH  12  13
ATOM     13  C   UNL     1      25.601   0.895  28.199  1.00  0.00     0.027 C 
BRANCH  13  14
ATOM     14  C   UNL     1      24.894   0.660  26.896  1.00  0.00    -0.027 C 
ATOM     15  C   UNL     1      23.855   1.409  26.519  1.00  0.00    -0.004 C 
BRANCH  15  16
ATOM     16  C   UNL     1      23.162   1.164  25.243  1.00  0.00     0.007 C 
ATOM     17  C   UNL     1      23.353   1.967  24.193  1.00  0.00     0.093 C 
BRANCH  17  18
ATOM     18  C   UNL     1      22.682   1.743  22.904  1.00  0.00     0.330 C 
ATOM     19  O   UNL     1      21.772   2.537  22.542  1.00  0.00    -0.247 OA
BRANCH  18  20
ATOM     20  O   UNL     1      23.054   0.672  22.084  1.00  0.00    -0.466 OA
ATOM     21  C   UNL     1      23.738   0.851  20.850  1.00  0.00     0.282 C 
ENDBRANCH  18  20
ENDBRANCH  17  18
ENDBRANCH  15  16
ENDBRANCH  13  14
ENDBRANCH  12  13
ENDBRANCH  11  12
ENDBRANCH  10  11
ENDBRANCH   1  10
TORSDOF 15
ENDMDL
MODEL 7
REMARK VINA RESULT:    -5.478      5.306     11.267
REMARK INTER + INTRA:         -11.445
REMARK INTER:                 -10.663
REMARK INTRA:                  -0.782
REMARK UNBOUND:                -1.163
REMARK SMILES CCCCCCCCCCCCCC=CC=CC(=O)OC
REMARK SMILES IDX 9 1 8 2 7 3 6 4 5 5 4 6 3 7 2 8 1 9 10 10 11 11 12 12 13 13
REMARK SMILES IDX 14 14 15 15 16 16 17 17 18 18 19 19 20 20 21 21
REMARK H PARENT
REMARK Flexibility Score: inf
ROOT
ATOM      1  C   UNL     1      26.422   8.725  32.197  1.00  0.00     0.000 C 
ENDROOT
BRANCH   1   2
ATOM      2  C   UNL     1      27.185   9.973  32.677  1.00  0.00     0.000 C 
BRANCH   2   3
ATOM      3  C   UNL     1      27.935   9.749  33.999  1.00  0.00     0.000 C 
BRANCH   3   4
ATOM      4  C   UNL     1      27.917  11.023  34.857  1.00  0.00    -0.000 C 
BRANCH   4   5
ATOM      5  C   UNL     1      28.702  10.867  36.171  1.00  0.00    -0.000 C 
BRANCH   5   6
ATOM      6  C   UNL     1      28.823  12.158  37.006  1.00  0.00    -0.000 C 
BRANCH   6   7
ATOM      7  C   UNL     1      28.219  13.400  36.316  1.00  0.00    -0.000 C 
BRANCH   7   8
ATOM      8  C   UNL     1      27.230  14.143  37.225  1.00  0.00    -0.003 C 
ATOM      9  C   UNL     1      25.789  13.757  36.908  1.00  0.00     0.004 C 
ENDBRANCH   7   8
ENDBRANCH   6   7
ENDBRANCH   5   6
ENDBRANCH   4   5
ENDBRANCH   3   4
ENDBRANCH   2   3
ENDBRANCH   1   2
BRANCH   1  10
ATOM     10  C   UNL     1      26.837   7.406  32.875  1.00  0.00     0.000 C 
BRANCH  10  11
ATOM     11  C   UNL     1      27.122   6.278  31.872  1.00  0.00     0.000 C 
BRANCH  11  12
ATOM     12  C   UNL     1      27.921   5.146  32.529  1.00  0.00     0.004 C 
BRANCH  12  13
ATOM     13  C   UNL     1      29.251   4.917  31.801  1.00  0.00     0.027 C 
BRANCH  13  14
ATOM     14  C   UNL     1      29.130   3.821  30.782  1.00  0.00    -0.027 C 
ATOM     15  C   UNL     1      30.082   3.605  29.871  1.00  0.00    -0.004 C 
BRANCH  15  16
ATOM     16  C   UNL     1      29.949   2.533  28.869  1.00  0.00     0.007 C 
ATOM     17  C   UNL     1      28.855   2.436  28.109  1.00  0.00     0.093 C 
BRANCH  17  18
ATOM     18  C   UNL     1      28.697   1.382  27.096  1.00  0.00     0.330 C 
ATOM     19  O   UNL     1      29.507   0.417  27.085  1.00  0.00    -0.247 OA
BRANCH  18  20
ATOM     20  O   UNL     1      27.654   1.441  26.164  1.00  0.00    -0.466 OA
ATOM     21  C   UNL     1      26.654   0.434  26.065  1.00  0.00     0.282 C 
ENDBRANCH  18  20
ENDBRANCH  17  18
ENDBRANCH  15  16
ENDBRANCH  13  14
ENDBRANCH  12  13
ENDBRANCH  11  12
ENDBRANCH  10  11
ENDBRANCH   1  10
TORSDOF 15
ENDMDL
MODEL 8
REMARK VINA RESULT:    -5.406      4.717     11.295
REMARK INTER + INTRA:         -11.310
REMARK INTER:                 -10.494
REMARK INTRA:                  -0.816
REMARK UNBOUND:                -1.163
REMARK SMILES CCCCCCCCCCCCCC=CC=CC(=O)OC
REMARK SMILES IDX 9 1 8 2 7 3 6 4 5 5 4 6 3 7 2 8 1 9 10 10 11 11 12 12 13 13
REMARK SMILES IDX 14 14 15 15 16 16 17 17 18 18 19 19 20 20 21 21
REMARK H PARENT
REMARK Flexibility Score: inf
ROOT
ATOM      1  C   UNL     1      28.012  11.016  34.754  1.00  0.00     0.000 C 
ENDROOT
BRANCH   1   2
ATOM      2  C   UNL     1      28.814  10.902  36.063  1.00  0.00     0.000 C 
BRANCH   2   3
ATOM      3  C   UNL     1      28.636  12.116  36.986  1.00  0.00     0.000 C 
BRANCH   3   4
ATOM      4  C   UNL     1      29.976  12.519  37.620  1.00  0.00    -0.000 C 
BRANCH   4   5
ATOM      5  C   UNL     1      30.339  13.991  37.358  1.00  0.00    -0.000 C 
BRANCH   5   6
ATOM      6  C   UNL     1      29.146  14.892  36.982  1.00  0.00    -0.000 C 
BRANCH   6   7
ATOM      7  C   UNL     1      28.830  15.973  38.038  1.00  0.00    -0.000 C 
BRANCH   7   8
ATOM      8  C   UNL     1      27.328  16.274  38.125  1.00  0.00    -0.003 C 
ATOM      9  C   UNL     1      26.497  15.010  37.927  1.00  0.00     0.004 C 
ENDBRANCH   7   8
ENDBRANCH   6   7
ENDBRANCH   5   6
ENDBRANCH   4   5
ENDBRANCH   3   4
ENDBRANCH   2   3
ENDBRANCH   1   2
BRANCH   1  10
ATOM     10  C   UNL     1      27.933   9.722  33.922  1.00  0.00     0.000 C 
BRANCH  10  11
ATOM     11  C   UNL     1      27.184   9.907  32.592  1.00  0.00     0.000 C 
BRANCH  11  12
ATOM     12  C   UNL     1      26.537   8.594  32.138  1.00  0.00     0.004 C 
BRANCH  12  13
ATOM     13  C   UNL     1      26.854   7.457  33.117  1.00  0.00     0.027 C 
BRANCH  13  14
ATOM     14  C   UNL     1      27.912   6.546  32.565  1.00  0.00    -0.027 C 
ATOM     15  C   UNL     1      27.617   5.323  32.116  1.00  0.00    -0.004 C 
BRANCH  15  16
ATOM     16  C   UNL     1      28.663   4.433  31.585  1.00  0.00     0.007 C 
ATOM     17  C   UNL     1      28.363   3.462  30.717  1.00  0.00     0.093 C 
BRANCH  17  18
ATOM     18  C   UNL     1      29.387   2.564  30.163  1.00  0.00     0.330 C 
ATOM     19  O   UNL     1      30.456   3.058  29.713  1.00  0.00    -0.247 OA
BRANCH  18  20
ATOM     20  O   UNL     1      29.186   1.179  30.147  1.00  0.00    -0.466 OA
ATOM     21  C   UNL     1      28.860   0.437  31.316  1.00  0.00     0.282 C 
ENDBRANCH  18  20
ENDBRANCH  17  18
ENDBRANCH  15  16
ENDBRANCH  13  14
ENDBRANCH  12  13
ENDBRANCH  11  12
ENDBRANCH  10  11
ENDBRANCH   1  10
TORSDOF 15
ENDMDL
MODEL 9
REMARK VINA RESULT:    -5.389      7.166     12.130
REMARK INTER + INTRA:         -11.278
REMARK INTER:                 -10.610
REMARK INTRA:                  -0.667
REMARK UNBOUND:                -1.163
REMARK SMILES CCCCCCCCCCCCCC=CC=CC(=O)OC
REMARK SMILES IDX 9 1 8 2 7 3 6 4 5 5 4 6 3 7 2 8 1 9 10 10 11 11 12 12 13 13
REMARK SMILES IDX 14 14 15 15 16 16 17 17 18 18 19 19 20 20 21 21
REMARK H PARENT
REMARK Flexibility Score: inf
ROOT
ATOM      1  C   UNL     1      26.151   2.112  29.697  1.00  0.00     0.000 C 
ENDROOT
BRANCH   1   2
ATOM      2  C   UNL     1      27.356   3.069  29.709  1.00  0.00     0.000 C 
BRANCH   2   3
ATOM      3  C   UNL     1      28.022   3.181  31.089  1.00  0.00     0.000 C 
BRANCH   3   4
ATOM      4  C   UNL     1      28.427   4.633  31.382  1.00  0.00    -0.000 C 
BRANCH   4   5
ATOM      5  C   UNL     1      27.668   5.233  32.578  1.00  0.00    -0.000 C 
BRANCH   5   6
ATOM      6  C   UNL     1      27.770   6.767  32.702  1.00  0.00    -0.000 C 
BRANCH   6   7
ATOM      7  C   UNL     1      26.618   7.521  32.004  1.00  0.00    -0.000 C 
BRANCH   7   8
ATOM      8  C   UNL     1      26.809   9.043  32.056  1.00  0.00    -0.003 C 
ATOM      9  C   UNL     1      27.700   9.450  33.225  1.00  0.00     0.004 C 
ENDBRANCH   7   8
ENDBRANCH   6   7
ENDBRANCH   5   6
ENDBRANCH   4   5
ENDBRANCH   3   4
ENDBRANCH   2   3
ENDBRANCH   1   2
BRANCH   1  10
ATOM     10  C   UNL     1      25.435   1.982  28.339  1.00  0.00     0.000 C 
BRANCH  10  11
ATOM     11  C   UNL     1      25.698   0.636  27.647  1.00  0.00     0.000 C 
BRANCH  11  12
ATOM     12  C   UNL     1      24.949   0.548  26.312  1.00  0.00     0.004 C 
BRANCH  12  13
ATOM     13  C   UNL     1      23.466   0.898  26.489  1.00  0.00     0.027 C 
BRANCH  13  14
ATOM     14  C   UNL     1      22.962   1.717  25.336  1.00  0.00    -0.027 C 
ATOM     15  C   UNL     1      22.800   1.187  24.120  1.00  0.00    -0.004 C 
BRANCH  15  16
ATOM     16  C   UNL     1      22.314   2.001  22.994  1.00  0.00     0.007 C 
ATOM     17  C   UNL     1      21.992   3.287  23.164  1.00  0.00     0.093 C 
BRANCH  17  18
ATOM     18  C   UNL     1      21.511   4.127  22.057  1.00  0.00     0.330 C 
ATOM     19  O   UNL     1      22.122   5.196  21.790  1.00  0.00    -0.247 OA
BRANCH  18  20
ATOM     20  O   UNL     1      20.399   3.739  21.301  1.00  0.00    -0.466 OA
ATOM     21  C   UNL     1      19.801   4.585  20.326  1.00  0.00     0.282 C 
ENDBRANCH  18  20
ENDBRANCH  17  18
ENDBRANCH  15  16
ENDBRANCH  13  14
ENDBRANCH  12  13
ENDBRANCH  11  12
ENDBRANCH  10  11
ENDBRANCH   1  10
TORSDOF 15
ENDMDL
