MODEL 1
REMARK VINA RESULT:    -7.543      0.000      0.000
REMARK INTER + INTRA:         -11.295
REMARK INTER:                 -10.409
REMARK INTRA:                  -0.886
REMARK UNBOUND:                -0.886
REMARK SMILES C=C(CC[C@@H](C(=O)[O-])[C@@H]1CC[C@@]2(C)C3=C(CC[C@@]12C)[C@@]1(C)CC[C@H](O)C(C)(C)[C@@H]1CC3)C(C)C
REMARK SMILES IDX 4 1 5 2 6 3 7 4 8 5 9 6 10 7 18 8 11 9 12 10 17 11 19 12
REMARK SMILES IDX 13 13 14 14 16 15 15 16 31 17 20 18 30 19 29 20 22 21 21 22
REMARK SMILES IDX 26 23 23 24 24 25 27 26 28 27 25 28 3 30 2 31 1 32 32 33
REMARK SMILES IDX 33 34 34 35
REMARK H PARENT 25 29
REMARK Flexibility Score: inf
ROOT
ATOM      1  C   UNL     1      -3.989  35.694   4.801  1.00  0.00     0.014 C 
ENDROOT
BRANCH   1   2
ATOM      2  C   UNL     1      -3.275  36.474   3.645  1.00  0.00     0.039 C 
BRANCH   2   3
ATOM      3  C   UNL     1      -1.814  36.117   3.554  1.00  0.00     0.045 C 
ATOM      4  O   UNL     1      -0.931  36.993   3.731  1.00  0.00    -0.550 OA
ATOM      5  O   UNL     1      -1.440  34.833   3.214  1.00  0.00    -0.550 OA
ENDBRANCH   2   3
BRANCH   2   6
ATOM      6  C   UNL     1      -3.999  36.556   2.237  1.00  0.00     0.004 C 
ATOM      7  C   UNL     1      -3.105  36.998   1.087  1.00  0.00     0.006 C 
ATOM      8  C   UNL     1      -5.355  37.353   1.993  1.00  0.00    -0.020 C 
ATOM      9  C   UNL     1      -4.034  37.032  -0.104  1.00  0.00     0.012 C 
ATOM     10  C   UNL     1      -5.351  37.689   0.418  1.00  0.00    -0.006 C 
ATOM     11  C   UNL     1      -6.561  36.442   2.345  1.00  0.00     0.012 C 
ATOM     12  C   UNL     1      -5.443  38.638   2.882  1.00  0.00     0.012 C 
ATOM     13  C   UNL     1      -5.283  39.213   0.094  1.00  0.00     0.017 C 
ATOM     14  C   UNL     1      -6.582  37.146  -0.363  1.00  0.00    -0.064 C 
ATOM     15  C   UNL     1      -7.864  36.957   1.748  1.00  0.00     0.032 C 
ATOM     16  C   UNL     1      -7.792  36.970   0.235  1.00  0.00    -0.064 C 
ATOM     17  C   UNL     1      -6.463  36.919  -1.860  1.00  0.00     0.032 C 
ATOM     18  C   UNL     1      -9.058  36.790  -0.619  1.00  0.00    -0.008 C 
ATOM     19  C   UNL     1      -7.637  37.468  -2.684  1.00  0.00     0.009 C 
ATOM     20  C   UNL     1      -8.919  37.756  -1.866  1.00  0.00     0.007 C 
ATOM     21  C   UNL     1     -10.318  37.210   0.190  1.00  0.00     0.014 C 
ATOM     22  C   UNL     1      -9.162  35.277  -0.977  1.00  0.00     0.016 C 
ATOM     23  C   UNL     1     -10.215  38.029  -2.736  1.00  0.00    -0.006 C 
ATOM     24  C   UNL     1     -11.585  37.336  -0.672  1.00  0.00     0.033 C 
ATOM     25  C   UNL     1     -11.406  38.365  -1.778  1.00  0.00     0.120 C 
ATOM     26  C   UNL     1      -9.965  39.259  -3.636  1.00  0.00     0.014 C 
ATOM     27  C   UNL     1     -10.591  36.852  -3.658  1.00  0.00     0.014 C 
BRANCH  25  28
ATOM     28  O   UNL     1     -12.639  38.459  -2.465  1.00  0.00    -0.393 OA
ATOM     29  H   UNL     1     -13.261  37.765  -2.111  1.00  0.00     0.210 HD
ENDBRANCH  25  28
ENDBRANCH   2   6
ENDBRANCH   1   2
BRANCH   1  30
ATOM     30  C   UNL     1      -4.523  34.306   4.368  1.00  0.00     0.031 C 
BRANCH  30  31
ATOM     31  C   UNL     1      -4.614  33.308   5.522  1.00  0.00    -0.075 C 
ATOM     32  C   UNL     1      -5.154  33.689   6.687  1.00  0.00     0.008 C 
BRANCH  31  33
ATOM     33  C   UNL     1      -4.314  31.837   5.293  1.00  0.00     0.008 C 
ATOM     34  C   UNL     1      -4.220  31.078   6.620  1.00  0.00     0.012 C 
ATOM     35  C   UNL     1      -5.342  31.187   4.364  1.00  0.00     0.012 C 
ENDBRANCH  31  33
ENDBRANCH  30  31
ENDBRANCH   1  30
TORSDOF 7
ENDMDL
MODEL 2
REMARK VINA RESULT:    -7.530      4.152      8.093
REMARK INTER + INTRA:         -11.277
REMARK INTER:                  -9.595
REMARK INTRA:                  -1.682
REMARK UNBOUND:                -0.886
REMARK SMILES C=C(CC[C@@H](C(=O)[O-])[C@@H]1CC[C@@]2(C)C3=C(CC[C@@]12C)[C@@]1(C)CC[C@H](O)C(C)(C)[C@@H]1CC3)C(C)C
REMARK SMILES IDX 4 1 5 2 6 3 7 4 8 5 9 6 10 7 18 8 11 9 12 10 17 11 19 12
REMARK SMILES IDX 13 13 14 14 16 15 15 16 31 17 20 18 30 19 29 20 22 21 21 22
REMARK SMILES IDX 26 23 23 24 24 25 27 26 28 27 25 28 3 30 2 31 1 32 32 33
REMARK SMILES IDX 33 34 34 35
REMARK H PARENT 25 29
REMARK Flexibility Score: inf
ROOT
ATOM      1  C   UNL     1      -7.820  38.330  -3.361  1.00  0.00     0.014 C 
ENDROOT
BRANCH   1   2
ATOM      2  C   UNL     1      -7.070  37.172  -2.618  1.00  0.00     0.039 C 
BRANCH   2   3
ATOM      3  C   UNL     1      -5.587  37.215  -2.876  1.00  0.00     0.045 C 
ATOM      4  O   UNL     1      -4.939  38.276  -2.699  1.00  0.00    -0.550 OA
ATOM      5  O   UNL     1      -4.942  36.098  -3.371  1.00  0.00    -0.550 OA
ENDBRANCH   2   3
BRANCH   2   6
ATOM      6  C   UNL     1      -7.445  36.887  -1.104  1.00  0.00     0.004 C 
ATOM      7  C   UNL     1      -6.697  35.721  -0.472  1.00  0.00     0.006 C 
ATOM      8  C   UNL     1      -8.941  36.703  -0.590  1.00  0.00    -0.020 C 
ATOM      9  C   UNL     1      -7.261  35.642   0.927  1.00  0.00     0.012 C 
ATOM     10  C   UNL     1      -8.801  35.840   0.763  1.00  0.00    -0.006 C 
ATOM     11  C   UNL     1      -9.555  38.094  -0.280  1.00  0.00     0.012 C 
ATOM     12  C   UNL     1      -9.842  36.002  -1.660  1.00  0.00     0.012 C 
ATOM     13  C   UNL     1      -9.458  34.429   0.686  1.00  0.00     0.017 C 
ATOM     14  C   UNL     1      -9.405  36.518   2.028  1.00  0.00    -0.064 C 
ATOM     15  C   UNL     1     -10.794  37.992   0.600  1.00  0.00     0.032 C 
ATOM     16  C   UNL     1     -10.445  37.391   1.947  1.00  0.00    -0.064 C 
ATOM     17  C   UNL     1      -8.898  36.105   3.397  1.00  0.00     0.032 C 
ATOM     18  C   UNL     1     -11.249  37.756   3.207  1.00  0.00    -0.008 C 
ATOM     19  C   UNL     1     -10.001  35.836   4.432  1.00  0.00     0.009 C 
ATOM     20  C   UNL     1     -11.382  36.436   4.071  1.00  0.00     0.007 C 
ATOM     21  C   UNL     1     -12.676  38.234   2.816  1.00  0.00     0.014 C 
ATOM     22  C   UNL     1     -10.496  38.923   3.913  1.00  0.00     0.016 C 
ATOM     23  C   UNL     1     -12.438  36.430   5.252  1.00  0.00    -0.006 C 
ATOM     24  C   UNL     1     -13.635  38.341   4.014  1.00  0.00     0.033 C 
ATOM     25  C   UNL     1     -13.794  37.004   4.722  1.00  0.00     0.120 C 
ATOM     26  C   UNL     1     -12.680  34.972   5.702  1.00  0.00     0.014 C 
ATOM     27  C   UNL     1     -11.974  37.224   6.490  1.00  0.00     0.014 C 
BRANCH  25  28
ATOM     28  O   UNL     1     -14.741  37.188   5.756  1.00  0.00    -0.393 OA
ATOM     29  H   UNL     1     -15.460  37.799   5.432  1.00  0.00     0.210 HD
ENDBRANCH  25  28
ENDBRANCH   2   6
ENDBRANCH   1   2
BRANCH   1  30
ATOM     30  C   UNL     1      -8.565  37.862  -4.635  1.00  0.00     0.031 C 
BRANCH  30  31
ATOM     31  C   UNL     1     -10.081  38.037  -4.545  1.00  0.00    -0.075 C 
ATOM     32  C   UNL     1     -10.888  37.090  -5.039  1.00  0.00     0.008 C 
BRANCH  31  33
ATOM     33  C   UNL     1     -10.679  39.151  -3.705  1.00  0.00     0.008 C 
ATOM     34  C   UNL     1     -10.882  40.423  -4.534  1.00  0.00     0.012 C 
ATOM     35  C   UNL     1     -11.986  38.720  -3.037  1.00  0.00     0.012 C 
ENDBRANCH  31  33
ENDBRANCH  30  31
ENDBRANCH   1  30
TORSDOF 7
ENDMDL
MODEL 3
REMARK VINA RESULT:    -7.395      1.754      3.616
REMARK INTER + INTRA:         -11.090
REMARK INTER:                 -10.264
REMARK INTRA:                  -0.826
REMARK UNBOUND:                -0.886
REMARK SMILES C=C(CC[C@@H](C(=O)[O-])[C@@H]1CC[C@@]2(C)C3=C(CC[C@@]12C)[C@@]1(C)CC[C@H](O)C(C)(C)[C@@H]1CC3)C(C)C
REMARK SMILES IDX 4 1 5 2 6 3 7 4 8 5 9 6 10 7 18 8 11 9 12 10 17 11 19 12
REMARK SMILES IDX 13 13 14 14 16 15 15 16 31 17 20 18 30 19 29 20 22 21 21 22
REMARK SMILES IDX 26 23 23 24 24 25 27 26 28 27 25 28 3 30 2 31 1 32 32 33
REMARK SMILES IDX 33 34 34 35
REMARK H PARENT 25 29
REMARK Flexibility Score: inf
ROOT
ATOM      1  C   UNL     1      -5.044  34.944   2.753  1.00  0.00     0.014 C 
ENDROOT
BRANCH   1   2
ATOM      2  C   UNL     1      -5.485  36.426   2.502  1.00  0.00     0.039 C 
BRANCH   2   3
ATOM      3  C   UNL     1      -4.426  37.203   1.763  1.00  0.00     0.045 C 
ATOM      4  O   UNL     1      -4.332  38.447   1.904  1.00  0.00    -0.550 OA
ATOM      5  O   UNL     1      -3.591  36.554   0.876  1.00  0.00    -0.550 OA
ENDBRANCH   2   3
BRANCH   2   6
ATOM      6  C   UNL     1      -6.956  36.692   1.972  1.00  0.00     0.004 C 
ATOM      7  C   UNL     1      -8.050  35.960   2.739  1.00  0.00     0.006 C 
ATOM      8  C   UNL     1      -7.383  36.524   0.447  1.00  0.00    -0.020 C 
ATOM      9  C   UNL     1      -9.319  36.346   2.017  1.00  0.00     0.012 C 
ATOM     10  C   UNL     1      -8.972  36.266   0.497  1.00  0.00    -0.006 C 
ATOM     11  C   UNL     1      -7.075  37.836  -0.323  1.00  0.00     0.012 C 
ATOM     12  C   UNL     1      -6.605  35.359  -0.250  1.00  0.00     0.012 C 
ATOM     13  C   UNL     1      -9.402  34.858  -0.017  1.00  0.00     0.017 C 
ATOM     14  C   UNL     1      -9.819  37.288  -0.315  1.00  0.00    -0.064 C 
ATOM     15  C   UNL     1      -7.826  37.915  -1.645  1.00  0.00     0.032 C 
ATOM     16  C   UNL     1      -9.323  37.922  -1.411  1.00  0.00    -0.064 C 
ATOM     17  C   UNL     1     -11.277  37.495   0.056  1.00  0.00     0.032 C 
ATOM     18  C   UNL     1     -10.273  38.630  -2.392  1.00  0.00    -0.008 C 
ATOM     19  C   UNL     1     -12.245  37.498  -1.136  1.00  0.00     0.009 C 
ATOM     20  C   UNL     1     -11.571  37.732  -2.511  1.00  0.00     0.007 C 
ATOM     21  C   UNL     1      -9.616  38.734  -3.798  1.00  0.00     0.014 C 
ATOM     22  C   UNL     1     -10.523  40.065  -1.838  1.00  0.00     0.016 C 
ATOM     23  C   UNL     1     -12.575  38.037  -3.699  1.00  0.00    -0.006 C 
ATOM     24  C   UNL     1     -10.598  39.163  -4.902  1.00  0.00     0.033 C 
ATOM     25  C   UNL     1     -11.758  38.186  -5.026  1.00  0.00     0.120 C 
ATOM     26  C   UNL     1     -13.538  36.842  -3.862  1.00  0.00     0.014 C 
ATOM     27  C   UNL     1     -13.436  39.295  -3.462  1.00  0.00     0.014 C 
BRANCH  25  28
ATOM     28  O   UNL     1     -12.560  38.624  -6.105  1.00  0.00    -0.393 OA
ATOM     29  H   UNL     1     -12.321  39.567  -6.325  1.00  0.00     0.210 HD
ENDBRANCH  25  28
ENDBRANCH   2   6
ENDBRANCH   1   2
BRANCH   1  30
ATOM     30  C   UNL     1      -4.621  34.668   4.216  1.00  0.00     0.031 C 
BRANCH  30  31
ATOM     31  C   UNL     1      -5.308  33.443   4.821  1.00  0.00    -0.075 C 
ATOM     32  C   UNL     1      -6.623  33.476   5.072  1.00  0.00     0.008 C 
BRANCH  31  33
ATOM     33  C   UNL     1      -4.569  32.120   4.927  1.00  0.00     0.008 C 
ATOM     34  C   UNL     1      -4.249  31.779   6.385  1.00  0.00     0.012 C 
ATOM     35  C   UNL     1      -5.344  30.983   4.257  1.00  0.00     0.012 C 
ENDBRANCH  31  33
ENDBRANCH  30  31
ENDBRANCH   1  30
TORSDOF 7
ENDMDL
MODEL 4
REMARK VINA RESULT:    -6.842      2.298      4.338
REMARK INTER + INTRA:         -10.328
REMARK INTER:                  -9.202
REMARK INTRA:                  -1.126
REMARK UNBOUND:                -0.886
REMARK SMILES C=C(CC[C@@H](C(=O)[O-])[C@@H]1CC[C@@]2(C)C3=C(CC[C@@]12C)[C@@]1(C)CC[C@H](O)C(C)(C)[C@@H]1CC3)C(C)C
REMARK SMILES IDX 4 1 5 2 6 3 7 4 8 5 9 6 10 7 18 8 11 9 12 10 17 11 19 12
REMARK SMILES IDX 13 13 14 14 16 15 15 16 31 17 20 18 30 19 29 20 22 21 21 22
REMARK SMILES IDX 26 23 23 24 24 25 27 26 28 27 25 28 3 30 2 31 1 32 32 33
REMARK SMILES IDX 33 34 34 35
REMARK H PARENT 25 29
REMARK Flexibility Score: inf
ROOT
ATOM      1  C   UNL     1      -4.155  37.301   1.974  1.00  0.00     0.014 C 
ENDROOT
BRANCH   1   2
ATOM      2  C   UNL     1      -5.254  36.215   2.232  1.00  0.00     0.039 C 
BRANCH   2   3
ATOM      3  C   UNL     1      -5.127  35.611   3.606  1.00  0.00     0.045 C 
ATOM      4  O   UNL     1      -4.940  36.342   4.610  1.00  0.00    -0.550 OA
ATOM      5  O   UNL     1      -5.153  34.239   3.758  1.00  0.00    -0.550 OA
ENDBRANCH   2   3
BRANCH   2   6
ATOM      6  C   UNL     1      -6.748  36.549   1.819  1.00  0.00     0.004 C 
ATOM      7  C   UNL     1      -7.811  35.858   2.664  1.00  0.00     0.006 C 
ATOM      8  C   UNL     1      -7.299  36.415   0.331  1.00  0.00    -0.020 C 
ATOM      9  C   UNL     1      -9.114  36.306   2.046  1.00  0.00     0.012 C 
ATOM     10  C   UNL     1      -8.889  36.225   0.502  1.00  0.00    -0.006 C 
ATOM     11  C   UNL     1      -6.994  37.720  -0.452  1.00  0.00     0.012 C 
ATOM     12  C   UNL     1      -6.629  35.224  -0.432  1.00  0.00     0.012 C 
ATOM     13  C   UNL     1      -9.419  34.843   0.015  1.00  0.00     0.017 C 
ATOM     14  C   UNL     1      -9.751  37.291  -0.235  1.00  0.00    -0.064 C 
ATOM     15  C   UNL     1      -7.841  37.844  -1.712  1.00  0.00     0.032 C 
ATOM     16  C   UNL     1      -9.314  37.913  -1.363  1.00  0.00    -0.064 C 
ATOM     17  C   UNL     1     -11.165  37.557   0.249  1.00  0.00     0.032 C 
ATOM     18  C   UNL     1     -10.305  38.671  -2.262  1.00  0.00    -0.008 C 
ATOM     19  C   UNL     1     -12.221  37.614  -0.864  1.00  0.00     0.009 C 
ATOM     20  C   UNL     1     -11.646  37.831  -2.285  1.00  0.00     0.007 C 
ATOM     21  C   UNL     1      -9.755  38.760  -3.714  1.00  0.00     0.014 C 
ATOM     22  C   UNL     1     -10.448  40.110  -1.682  1.00  0.00     0.016 C 
ATOM     23  C   UNL     1     -12.724  38.191  -3.390  1.00  0.00    -0.006 C 
ATOM     24  C   UNL     1     -10.799  39.242  -4.736  1.00  0.00     0.033 C 
ATOM     25  C   UNL     1     -12.007  38.317  -4.775  1.00  0.00     0.120 C 
ATOM     26  C   UNL     1     -13.749  37.040  -3.486  1.00  0.00     0.014 C 
ATOM     27  C   UNL     1     -13.508  39.483  -3.079  1.00  0.00     0.014 C 
BRANCH  25  28
ATOM     28  O   UNL     1     -12.870  38.800  -5.786  1.00  0.00    -0.393 OA
ATOM     29  H   UNL     1     -13.808  38.547  -5.560  1.00  0.00     0.210 HD
ENDBRANCH  25  28
ENDBRANCH   2   6
ENDBRANCH   1   2
BRANCH   1  30
ATOM     30  C   UNL     1      -2.745  36.706   1.741  1.00  0.00     0.031 C 
BRANCH  30  31
ATOM     31  C   UNL     1      -1.703  37.214   2.738  1.00  0.00    -0.075 C 
ATOM     32  C   UNL     1      -1.479  38.530   2.849  1.00  0.00     0.008 C 
BRANCH  31  33
ATOM     33  C   UNL     1      -1.090  36.273   3.759  1.00  0.00     0.008 C 
ATOM     34  C   UNL     1      -1.388  36.735   5.188  1.00  0.00     0.012 C 
ATOM     35  C   UNL     1      -1.548  34.828   3.546  1.00  0.00     0.012 C 
ENDBRANCH  31  33
ENDBRANCH  30  31
ENDBRANCH   1  30
TORSDOF 7
ENDMDL
MODEL 5
REMARK VINA RESULT:    -6.806      1.742      2.905
REMARK INTER + INTRA:         -10.279
REMARK INTER:                  -9.280
REMARK INTRA:                  -0.999
REMARK UNBOUND:                -0.886
REMARK SMILES C=C(CC[C@@H](C(=O)[O-])[C@@H]1CC[C@@]2(C)C3=C(CC[C@@]12C)[C@@]1(C)CC[C@H](O)C(C)(C)[C@@H]1CC3)C(C)C
REMARK SMILES IDX 4 1 5 2 6 3 7 4 8 5 9 6 10 7 18 8 11 9 12 10 17 11 19 12
REMARK SMILES IDX 13 13 14 14 16 15 15 16 31 17 20 18 30 19 29 20 22 21 21 22
REMARK SMILES IDX 26 23 23 24 24 25 27 26 28 27 25 28 3 30 2 31 1 32 32 33
REMARK SMILES IDX 33 34 34 35
REMARK H PARENT 25 29
REMARK Flexibility Score: inf
ROOT
ATOM      1  C   UNL     1      -4.864  37.205   2.970  1.00  0.00     0.014 C 
ENDROOT
BRANCH   1   2
ATOM      2  C   UNL     1      -4.673  37.905   1.581  1.00  0.00     0.039 C 
BRANCH   2   3
ATOM      3  C   UNL     1      -3.223  37.949   1.176  1.00  0.00     0.045 C 
ATOM      4  O   UNL     1      -2.420  37.073   1.583  1.00  0.00    -0.550 OA
ATOM      5  O   UNL     1      -2.756  38.992   0.402  1.00  0.00    -0.550 OA
ENDBRANCH   2   3
BRANCH   2   6
ATOM      6  C   UNL     1      -5.653  37.506   0.400  1.00  0.00     0.004 C 
ATOM      7  C   UNL     1      -4.959  36.994  -0.856  1.00  0.00     0.006 C 
ATOM      8  C   UNL     1      -6.791  38.468  -0.159  1.00  0.00    -0.020 C 
ATOM      9  C   UNL     1      -6.094  36.732  -1.816  1.00  0.00     0.012 C 
ATOM     10  C   UNL     1      -7.058  37.950  -1.661  1.00  0.00    -0.006 C 
ATOM     11  C   UNL     1      -8.073  38.306   0.701  1.00  0.00     0.012 C 
ATOM     12  C   UNL     1      -6.360  39.971  -0.108  1.00  0.00     0.012 C 
ATOM     13  C   UNL     1      -6.694  38.990  -2.764  1.00  0.00     0.017 C 
ATOM     14  C   UNL     1      -8.528  37.528  -1.948  1.00  0.00    -0.064 C 
ATOM     15  C   UNL     1      -9.309  38.849  -0.003  1.00  0.00     0.032 C 
ATOM     16  C   UNL     1      -9.578  38.081  -1.282  1.00  0.00    -0.064 C 
ATOM     17  C   UNL     1      -8.808  36.560  -3.084  1.00  0.00     0.032 C 
ATOM     18  C   UNL     1     -11.008  37.925  -1.825  1.00  0.00    -0.008 C 
ATOM     19  C   UNL     1      -9.965  36.974  -4.005  1.00  0.00     0.009 C 
ATOM     20  C   UNL     1     -10.920  38.033  -3.402  1.00  0.00     0.007 C 
ATOM     21  C   UNL     1     -11.911  39.078  -1.302  1.00  0.00     0.014 C 
ATOM     22  C   UNL     1     -11.557  36.567  -1.296  1.00  0.00     0.016 C 
ATOM     23  C   UNL     1     -12.270  38.243  -4.204  1.00  0.00    -0.006 C 
ATOM     24  C   UNL     1     -13.270  39.164  -2.020  1.00  0.00     0.033 C 
ATOM     25  C   UNL     1     -13.097  39.380  -3.516  1.00  0.00     0.120 C 
ATOM     26  C   UNL     1     -11.935  38.699  -5.641  1.00  0.00     0.014 C 
ATOM     27  C   UNL     1     -13.121  36.961  -4.314  1.00  0.00     0.014 C 
BRANCH  25  28
ATOM     28  O   UNL     1     -14.391  39.516  -4.071  1.00  0.00    -0.393 OA
ATOM     29  H   UNL     1     -15.047  39.656  -3.333  1.00  0.00     0.210 HD
ENDBRANCH  25  28
ENDBRANCH   2   6
ENDBRANCH   1   2
BRANCH   1  30
ATOM     30  C   UNL     1      -5.310  35.726   2.857  1.00  0.00     0.031 C 
BRANCH  30  31
ATOM     31  C   UNL     1      -4.663  34.820   3.904  1.00  0.00    -0.075 C 
ATOM     32  C   UNL     1      -3.337  34.864   4.091  1.00  0.00     0.008 C 
BRANCH  31  33
ATOM     33  C   UNL     1      -5.521  34.044   4.887  1.00  0.00     0.008 C 
ATOM     34  C   UNL     1      -6.996  34.438   4.765  1.00  0.00     0.012 C 
ATOM     35  C   UNL     1      -5.344  32.533   4.727  1.00  0.00     0.012 C 
ENDBRANCH  31  33
ENDBRANCH  30  31
ENDBRANCH   1  30
TORSDOF 7
ENDMDL
MODEL 6
REMARK VINA RESULT:    -6.769      3.309     10.206
REMARK INTER + INTRA:         -10.226
REMARK INTER:                  -8.697
REMARK INTRA:                  -1.529
REMARK UNBOUND:                -0.886
REMARK SMILES C=C(CC[C@@H](C(=O)[O-])[C@@H]1CC[C@@]2(C)C3=C(CC[C@@]12C)[C@@]1(C)CC[C@H](O)C(C)(C)[C@@H]1CC3)C(C)C
REMARK SMILES IDX 4 1 5 2 6 3 7 4 8 5 9 6 10 7 18 8 11 9 12 10 17 11 19 12
REMARK SMILES IDX 13 13 14 14 16 15 15 16 31 17 20 18 30 19 29 20 22 21 21 22
REMARK SMILES IDX 26 23 23 24 24 25 27 26 28 27 25 28 3 30 2 31 1 32 32 33
REMARK SMILES IDX 33 34 34 35
REMARK H PARENT 25 29
REMARK Flexibility Score: inf
ROOT
ATOM      1  C   UNL     1     -12.301  38.618  -5.340  1.00  0.00     0.014 C 
ENDROOT
BRANCH   1   2
ATOM      2  C   UNL     1     -12.721  37.962  -3.981  1.00  0.00     0.039 C 
BRANCH   2   3
ATOM      3  C   UNL     1     -13.834  36.963  -4.167  1.00  0.00     0.045 C 
ATOM      4  O   UNL     1     -13.591  35.814  -4.611  1.00  0.00    -0.550 OA
ATOM      5  O   UNL     1     -15.139  37.331  -3.908  1.00  0.00    -0.550 OA
ENDBRANCH   2   3
BRANCH   2   6
ATOM      6  C   UNL     1     -11.577  37.465  -3.003  1.00  0.00     0.004 C 
ATOM      7  C   UNL     1     -12.072  36.724  -1.769  1.00  0.00     0.006 C 
ATOM      8  C   UNL     1     -10.429  38.415  -2.441  1.00  0.00    -0.020 C 
ATOM      9  C   UNL     1     -10.809  36.406  -1.004  1.00  0.00     0.012 C 
ATOM     10  C   UNL     1      -9.941  37.702  -1.082  1.00  0.00    -0.006 C 
ATOM     11  C   UNL     1      -9.263  38.477  -3.464  1.00  0.00     0.012 C 
ATOM     12  C   UNL     1     -10.944  39.873  -2.205  1.00  0.00     0.012 C 
ATOM     13  C   UNL     1     -10.214  38.537   0.206  1.00  0.00     0.017 C 
ATOM     14  C   UNL     1      -8.425  37.351  -1.043  1.00  0.00    -0.064 C 
ATOM     15  C   UNL     1      -7.977  38.999  -2.838  1.00  0.00     0.032 C 
ATOM     16  C   UNL     1      -7.503  38.072  -1.737  1.00  0.00    -0.064 C 
ATOM     17  C   UNL     1      -7.948  36.249  -0.115  1.00  0.00     0.032 C 
ATOM     18  C   UNL     1      -6.008  37.942  -1.400  1.00  0.00    -0.008 C 
ATOM     19  C   UNL     1      -6.705  36.605   0.714  1.00  0.00     0.009 C 
ATOM     20  C   UNL     1      -5.896  37.809   0.173  1.00  0.00     0.007 C 
ATOM     21  C   UNL     1      -5.244  39.223  -1.842  1.00  0.00     0.014 C 
ATOM     22  C   UNL     1      -5.459  36.722  -2.198  1.00  0.00     0.016 C 
ATOM     23  C   UNL     1      -4.466  37.996   0.830  1.00  0.00    -0.006 C 
ATOM     24  C   UNL     1      -3.810  39.302  -1.289  1.00  0.00     0.033 C 
ATOM     25  C   UNL     1      -3.799  39.280   0.233  1.00  0.00     0.120 C 
ATOM     26  C   UNL     1      -4.635  38.209   2.350  1.00  0.00     0.014 C 
ATOM     27  C   UNL     1      -3.540  36.778   0.635  1.00  0.00     0.014 C 
BRANCH  25  28
ATOM     28  O   UNL     1      -2.453  39.428   0.642  1.00  0.00    -0.393 OA
ATOM     29  H   UNL     1      -2.375  40.241   1.214  1.00  0.00     0.210 HD
ENDBRANCH  25  28
ENDBRANCH   2   6
ENDBRANCH   1   2
BRANCH   1  30
ATOM     30  C   UNL     1     -13.181  39.829  -5.737  1.00  0.00     0.031 C 
BRANCH  30  31
ATOM     31  C   UNL     1     -12.568  41.174  -5.345  1.00  0.00    -0.075 C 
ATOM     32  C   UNL     1     -13.234  41.991  -4.519  1.00  0.00     0.008 C 
BRANCH  31  33
ATOM     33  C   UNL     1     -11.125  41.493  -5.694  1.00  0.00     0.008 C 
ATOM     34  C   UNL     1     -11.003  42.010  -7.130  1.00  0.00     0.012 C 
ATOM     35  C   UNL     1     -10.507  42.482  -4.703  1.00  0.00     0.012 C 
ENDBRANCH  31  33
ENDBRANCH  30  31
ENDBRANCH   1  30
TORSDOF 7
ENDMDL
MODEL 7
REMARK VINA RESULT:    -6.693      2.407      4.319
REMARK INTER + INTRA:         -10.122
REMARK INTER:                  -9.158
REMARK INTRA:                  -0.964
REMARK UNBOUND:                -0.886
REMARK SMILES C=C(CC[C@@H](C(=O)[O-])[C@@H]1CC[C@@]2(C)C3=C(CC[C@@]12C)[C@@]1(C)CC[C@H](O)C(C)(C)[C@@H]1CC3)C(C)C
REMARK SMILES IDX 4 1 5 2 6 3 7 4 8 5 9 6 10 7 18 8 11 9 12 10 17 11 19 12
REMARK SMILES IDX 13 13 14 14 16 15 15 16 31 17 20 18 30 19 29 20 22 21 21 22
REMARK SMILES IDX 26 23 23 24 24 25 27 26 28 27 25 28 3 30 2 31 1 32 32 33
REMARK SMILES IDX 33 34 34 35
REMARK H PARENT 25 29
REMARK Flexibility Score: inf
ROOT
ATOM      1  C   UNL     1      -3.944  33.905   7.102  1.00  0.00     0.014 C 
ENDROOT
BRANCH   1   2
ATOM      2  C   UNL     1      -3.526  33.230   5.751  1.00  0.00     0.039 C 
BRANCH   2   3
ATOM      3  C   UNL     1      -4.245  31.923   5.538  1.00  0.00     0.045 C 
ATOM      4  O   UNL     1      -5.206  31.848   4.732  1.00  0.00    -0.550 OA
ATOM      5  O   UNL     1      -3.888  30.813   6.278  1.00  0.00    -0.550 OA
ENDBRANCH   2   3
BRANCH   2   6
ATOM      6  C   UNL     1      -3.453  34.136   4.452  1.00  0.00     0.004 C 
ATOM      7  C   UNL     1      -2.098  34.785   4.206  1.00  0.00     0.006 C 
ATOM      8  C   UNL     1      -4.495  35.296   4.131  1.00  0.00    -0.020 C 
ATOM      9  C   UNL     1      -2.311  35.608   2.957  1.00  0.00     0.012 C 
ATOM     10  C   UNL     1      -3.702  36.293   3.145  1.00  0.00    -0.006 C 
ATOM     11  C   UNL     1      -5.730  34.696   3.409  1.00  0.00     0.012 C 
ATOM     12  C   UNL     1      -4.993  36.008   5.433  1.00  0.00     0.012 C 
ATOM     13  C   UNL     1      -3.458  37.713   3.739  1.00  0.00     0.017 C 
ATOM     14  C   UNL     1      -4.390  36.524   1.768  1.00  0.00    -0.064 C 
ATOM     15  C   UNL     1      -6.555  35.761   2.700  1.00  0.00     0.032 C 
ATOM     16  C   UNL     1      -5.739  36.437   1.616  1.00  0.00    -0.064 C 
ATOM     17  C   UNL     1      -3.546  36.975   0.590  1.00  0.00     0.032 C 
ATOM     18  C   UNL     1      -6.416  37.019   0.364  1.00  0.00    -0.008 C 
ATOM     19  C   UNL     1      -4.145  38.137  -0.217  1.00  0.00     0.009 C 
ATOM     20  C   UNL     1      -5.659  38.364   0.010  1.00  0.00     0.007 C 
ATOM     21  C   UNL     1      -7.904  37.355   0.663  1.00  0.00     0.014 C 
ATOM     22  C   UNL     1      -6.353  35.926  -0.745  1.00  0.00     0.016 C 
ATOM     23  C   UNL     1      -6.346  39.346  -1.027  1.00  0.00    -0.006 C 
ATOM     24  C   UNL     1      -8.573  38.201  -0.435  1.00  0.00     0.033 C 
ATOM     25  C   UNL     1      -7.850  39.526  -0.634  1.00  0.00     0.120 C 
ATOM     26  C   UNL     1      -5.662  40.728  -0.938  1.00  0.00     0.014 C 
ATOM     27  C   UNL     1      -6.233  38.868  -2.489  1.00  0.00     0.014 C 
BRANCH  25  28
ATOM     28  O   UNL     1      -8.576  40.256  -1.604  1.00  0.00    -0.393 OA
ATOM     29  H   UNL     1      -8.624  41.211  -1.323  1.00  0.00     0.210 HD
ENDBRANCH  25  28
ENDBRANCH   2   6
ENDBRANCH   1   2
BRANCH   1  30
ATOM     30  C   UNL     1      -2.773  34.619   7.821  1.00  0.00     0.031 C 
BRANCH  30  31
ATOM     31  C   UNL     1      -3.216  35.841   8.627  1.00  0.00    -0.075 C 
ATOM     32  C   UNL     1      -3.897  35.671   9.767  1.00  0.00     0.008 C 
BRANCH  31  33
ATOM     33  C   UNL     1      -2.697  37.224   8.276  1.00  0.00     0.008 C 
ATOM     34  C   UNL     1      -1.815  37.183   7.024  1.00  0.00     0.012 C 
ATOM     35  C   UNL     1      -3.836  38.232   8.108  1.00  0.00     0.012 C 
ENDBRANCH  31  33
ENDBRANCH  30  31
ENDBRANCH   1  30
TORSDOF 7
ENDMDL
MODEL 8
REMARK VINA RESULT:    -6.680      5.323      7.536
REMARK INTER + INTRA:         -10.105
REMARK INTER:                  -8.777
REMARK INTRA:                  -1.328
REMARK UNBOUND:                -0.886
REMARK SMILES C=C(CC[C@@H](C(=O)[O-])[C@@H]1CC[C@@]2(C)C3=C(CC[C@@]12C)[C@@]1(C)CC[C@H](O)C(C)(C)[C@@H]1CC3)C(C)C
REMARK SMILES IDX 4 1 5 2 6 3 7 4 8 5 9 6 10 7 18 8 11 9 12 10 17 11 19 12
REMARK SMILES IDX 13 13 14 14 16 15 15 16 31 17 20 18 30 19 29 20 22 21 21 22
REMARK SMILES IDX 26 23 23 24 24 25 27 26 28 27 25 28 3 30 2 31 1 32 32 33
REMARK SMILES IDX 33 34 34 35
REMARK H PARENT 25 29
REMARK Flexibility Score: inf
ROOT
ATOM      1  C   UNL     1     -14.232  37.642   5.740  1.00  0.00     0.014 C 
ENDROOT
BRANCH   1   2
ATOM      2  C   UNL     1     -12.784  38.074   5.326  1.00  0.00     0.039 C 
BRANCH   2   3
ATOM      3  C   UNL     1     -11.826  37.985   6.485  1.00  0.00     0.045 C 
ATOM      4  O   UNL     1     -11.842  36.991   7.252  1.00  0.00    -0.550 OA
ATOM      5  O   UNL     1     -10.963  39.031   6.745  1.00  0.00    -0.550 OA
ENDBRANCH   2   3
BRANCH   2   6
ATOM      6  C   UNL     1     -12.194  37.510   3.967  1.00  0.00     0.004 C 
ATOM      7  C   UNL     1     -11.060  36.507   4.134  1.00  0.00     0.006 C 
ATOM      8  C   UNL     1     -11.706  38.440   2.770  1.00  0.00    -0.020 C 
ATOM      9  C   UNL     1     -10.663  36.169   2.716  1.00  0.00     0.012 C 
ATOM     10  C   UNL     1     -10.656  37.531   1.953  1.00  0.00    -0.006 C 
ATOM     11  C   UNL     1     -12.918  38.801   1.870  1.00  0.00     0.012 C 
ATOM     12  C   UNL     1     -11.072  39.773   3.289  1.00  0.00     0.012 C 
ATOM     13  C   UNL     1      -9.197  38.080   1.968  1.00  0.00     0.017 C 
ATOM     14  C   UNL     1     -11.012  37.322   0.452  1.00  0.00    -0.064 C 
ATOM     15  C   UNL     1     -12.485  39.313   0.502  1.00  0.00     0.032 C 
ATOM     16  C   UNL     1     -11.723  38.243  -0.253  1.00  0.00    -0.064 C 
ATOM     17  C   UNL     1     -10.451  36.114  -0.276  1.00  0.00     0.032 C 
ATOM     18  C   UNL     1     -11.744  38.192  -1.790  1.00  0.00    -0.008 C 
ATOM     19  C   UNL     1      -9.850  36.421  -1.655  1.00  0.00     0.009 C 
ATOM     20  C   UNL     1     -10.292  37.775  -2.261  1.00  0.00     0.007 C 
ATOM     21  C   UNL     1     -12.066  39.598  -2.371  1.00  0.00     0.014 C 
ATOM     22  C   UNL     1     -12.872  37.200  -2.203  1.00  0.00     0.016 C 
ATOM     23  C   UNL     1      -9.929  37.968  -3.792  1.00  0.00    -0.006 C 
ATOM     24  C   UNL     1     -11.825  39.704  -3.887  1.00  0.00     0.033 C 
ATOM     25  C   UNL     1     -10.378  39.397  -4.243  1.00  0.00     0.120 C 
ATOM     26  C   UNL     1      -8.397  37.874  -3.960  1.00  0.00     0.014 C 
ATOM     27  C   UNL     1     -10.560  36.899  -4.708  1.00  0.00     0.014 C 
BRANCH  25  28
ATOM     28  O   UNL     1     -10.242  39.589  -5.638  1.00  0.00    -0.393 OA
ATOM     29  H   UNL     1     -11.142  39.765  -6.030  1.00  0.00     0.210 HD
ENDBRANCH  25  28
ENDBRANCH   2   6
ENDBRANCH   1   2
BRANCH   1  30
ATOM     30  C   UNL     1     -14.881  36.641   4.753  1.00  0.00     0.031 C 
BRANCH  30  31
ATOM     31  C   UNL     1     -15.074  35.246   5.349  1.00  0.00    -0.075 C 
ATOM     32  C   UNL     1     -14.005  34.529   5.717  1.00  0.00     0.008 C 
BRANCH  31  33
ATOM     33  C   UNL     1     -16.459  34.761   5.739  1.00  0.00     0.008 C 
ATOM     34  C   UNL     1     -17.015  35.564   6.918  1.00  0.00     0.012 C 
ATOM     35  C   UNL     1     -17.426  34.790   4.554  1.00  0.00     0.012 C 
ENDBRANCH  31  33
ENDBRANCH  30  31
ENDBRANCH   1  30
TORSDOF 7
ENDMDL
MODEL 9
REMARK VINA RESULT:    -6.618      2.264      5.204
REMARK INTER + INTRA:         -10.018
REMARK INTER:                  -7.980
REMARK INTRA:                  -2.039
REMARK UNBOUND:                -0.886
REMARK SMILES C=C(CC[C@@H](C(=O)[O-])[C@@H]1CC[C@@]2(C)C3=C(CC[C@@]12C)[C@@]1(C)CC[C@H](O)C(C)(C)[C@@H]1CC3)C(C)C
REMARK SMILES IDX 4 1 5 2 6 3 7 4 8 5 9 6 10 7 18 8 11 9 12 10 17 11 19 12
REMARK SMILES IDX 13 13 14 14 16 15 15 16 31 17 20 18 30 19 29 20 22 21 21 22
REMARK SMILES IDX 26 23 23 24 24 25 27 26 28 27 25 28 3 30 2 31 1 32 32 33
REMARK SMILES IDX 33 34 34 35
REMARK H PARENT 25 29
REMARK Flexibility Score: inf
ROOT
ATOM      1  C   UNL     1      -4.102  37.015   2.079  1.00  0.00     0.014 C 
ENDROOT
BRANCH   1   2
ATOM      2  C   UNL     1      -5.274  35.992   2.268  1.00  0.00     0.039 C 
BRANCH   2   3
ATOM      3  C   UNL     1      -5.205  35.312   3.611  1.00  0.00     0.045 C 
ATOM      4  O   UNL     1      -5.004  35.980   4.655  1.00  0.00    -0.550 OA
ATOM      5  O   UNL     1      -5.303  33.937   3.691  1.00  0.00    -0.550 OA
ENDBRANCH   2   3
BRANCH   2   6
ATOM      6  C   UNL     1      -6.737  36.443   1.857  1.00  0.00     0.004 C 
ATOM      7  C   UNL     1      -7.841  35.932   2.772  1.00  0.00     0.006 C 
ATOM      8  C   UNL     1      -7.336  36.251   0.394  1.00  0.00    -0.020 C 
ATOM      9  C   UNL     1      -9.108  36.461   2.144  1.00  0.00     0.012 C 
ATOM     10  C   UNL     1      -8.932  36.239   0.608  1.00  0.00    -0.006 C 
ATOM     11  C   UNL     1      -6.922  37.454  -0.496  1.00  0.00     0.012 C 
ATOM     12  C   UNL     1      -6.809  34.943  -0.284  1.00  0.00     0.012 C 
ATOM     13  C   UNL     1      -9.611  34.884   0.241  1.00  0.00     0.017 C 
ATOM     14  C   UNL     1      -9.701  37.327  -0.196  1.00  0.00    -0.064 C 
ATOM     15  C   UNL     1      -7.783  37.567  -1.746  1.00  0.00     0.032 C 
ATOM     16  C   UNL     1      -9.233  37.813  -1.377  1.00  0.00    -0.064 C 
ATOM     17  C   UNL     1     -11.069  37.773   0.290  1.00  0.00     0.032 C 
ATOM     18  C   UNL     1     -10.166  38.596  -2.316  1.00  0.00    -0.008 C 
ATOM     19  C   UNL     1     -12.142  37.851  -0.806  1.00  0.00     0.009 C 
ATOM     20  C   UNL     1     -11.585  37.898  -2.249  1.00  0.00     0.007 C 
ATOM     21  C   UNL     1      -9.646  38.516  -3.780  1.00  0.00     0.014 C 
ATOM     22  C   UNL     1     -10.149  40.082  -1.850  1.00  0.00     0.016 C 
ATOM     23  C   UNL     1     -12.649  38.280  -3.360  1.00  0.00    -0.006 C 
ATOM     24  C   UNL     1     -10.663  39.022  -4.818  1.00  0.00     0.033 C 
ATOM     25  C   UNL     1     -11.959  38.225  -4.763  1.00  0.00     0.120 C 
ATOM     26  C   UNL     1     -13.786  37.236  -3.346  1.00  0.00     0.014 C 
ATOM     27  C   UNL     1     -13.291  39.665  -3.139  1.00  0.00     0.014 C 
BRANCH  25  28
ATOM     28  O   UNL     1     -12.794  38.714  -5.794  1.00  0.00    -0.393 OA
ATOM     29  H   UNL     1     -12.968  39.683  -5.638  1.00  0.00     0.210 HD
ENDBRANCH  25  28
ENDBRANCH   2   6
ENDBRANCH   1   2
BRANCH   1  30
ATOM     30  C   UNL     1      -4.491  38.469   2.441  1.00  0.00     0.031 C 
BRANCH  30  31
ATOM     31  C   UNL     1      -4.473  39.415   1.239  1.00  0.00    -0.075 C 
ATOM     32  C   UNL     1      -3.680  39.145   0.195  1.00  0.00     0.008 C 
BRANCH  31  33
ATOM     33  C   UNL     1      -5.505  40.522   1.116  1.00  0.00     0.008 C 
ATOM     34  C   UNL     1      -5.762  40.878  -0.351  1.00  0.00     0.012 C 
ATOM     35  C   UNL     1      -6.811  40.163   1.827  1.00  0.00     0.012 C 
ENDBRANCH  31  33
ENDBRANCH  30  31
ENDBRANCH   1  30
TORSDOF 7
ENDMDL
