MODEL 1
REMARK VINA RESULT:    -4.859      0.000      0.000
REMARK INTER + INTRA:         -11.872
REMARK INTER:                  -9.403
REMARK INTRA:                  -2.468
REMARK UNBOUND:                -2.468
REMARK SMILES CCCCCCCCCCCCCCCCCC(=O)[O-]
REMARK SMILES IDX 10 1 11 2 12 3 13 4 14 5 15 6 16 7 17 8 18 9 19 10 20 11
REMARK SMILES IDX 9 12 8 13 7 14 6 15 5 16 4 17 3 18 2 19 1 20
REMARK H PARENT
REMARK Flexibility Score: inf
ROOT
ATOM      1  C   UNL     1      13.265  12.004   4.378  1.00  0.00     0.000 C 
ENDROOT
BRANCH   1   2
ATOM      2  C   UNL     1      12.189  12.183   3.293  1.00  0.00     0.000 C 
BRANCH   2   3
ATOM      3  C   UNL     1      12.353  13.493   2.499  1.00  0.00     0.000 C 
BRANCH   3   4
ATOM      4  C   UNL     1      13.098  13.355   1.159  1.00  0.00     0.000 C 
BRANCH   4   5
ATOM      5  C   UNL     1      14.377  14.207   1.093  1.00  0.00     0.000 C 
BRANCH   5   6
ATOM      6  C   UNL     1      14.116  15.679   1.480  1.00  0.00     0.000 C 
BRANCH   6   7
ATOM      7  C   UNL     1      15.143  16.243   2.477  1.00  0.00     0.006 C 
BRANCH   7   8
ATOM      8  C   UNL     1      15.653  15.191   3.469  1.00  0.00     0.053 C 
BRANCH   8   9
ATOM      9  C   UNL     1      17.105  14.917   3.239  1.00  0.00     0.041 C 
ATOM     10  O   UNL     1      17.545  13.738   3.301  1.00  0.00    -0.550 OA
ATOM     11  O   UNL     1      17.983  15.967   3.006  1.00  0.00    -0.550 OA
ENDBRANCH   8   9
ENDBRANCH   7   8
ENDBRANCH   6   7
ENDBRANCH   5   6
ENDBRANCH   4   5
ENDBRANCH   3   4
ENDBRANCH   2   3
ENDBRANCH   1   2
BRANCH   1  12
ATOM     12  C   UNL     1      13.205  13.103   5.452  1.00  0.00     0.000 C 
BRANCH  12  13
ATOM     13  C   UNL     1      11.860  13.131   6.195  1.00  0.00    -0.000 C 
BRANCH  13  14
ATOM     14  C   UNL     1      11.264  14.544   6.197  1.00  0.00    -0.000 C 
BRANCH  14  15
ATOM     15  C   UNL     1       9.740  14.498   6.006  1.00  0.00    -0.000 C 
BRANCH  15  16
ATOM     16  C   UNL     1       9.333  14.153   4.565  1.00  0.00    -0.000 C 
BRANCH  16  17
ATOM     17  C   UNL     1       8.198  13.121   4.499  1.00  0.00    -0.000 C 
BRANCH  17  18
ATOM     18  C   UNL     1       8.751  11.717   4.213  1.00  0.00    -0.000 C 
BRANCH  18  19
ATOM     19  C   UNL     1       8.984  10.901   5.493  1.00  0.00    -0.003 C 
ATOM     20  C   UNL     1      10.118   9.886   5.350  1.00  0.00     0.004 C 
ENDBRANCH  18  19
ENDBRANCH  17  18
ENDBRANCH  16  17
ENDBRANCH  15  16
ENDBRANCH  14  15
ENDBRANCH  13  14
ENDBRANCH  12  13
ENDBRANCH   1  12
TORSDOF 16
ENDMDL
MODEL 2
REMARK VINA RESULT:    -4.757      1.271      2.860
REMARK INTER + INTRA:         -11.674
REMARK INTER:                  -8.957
REMARK INTRA:                  -2.717
REMARK UNBOUND:                -2.468
REMARK SMILES CCCCCCCCCCCCCCCCCC(=O)[O-]
REMARK SMILES IDX 10 1 11 2 12 3 13 4 14 5 15 6 16 7 17 8 18 9 19 10 20 11
REMARK SMILES IDX 9 12 8 13 7 14 6 15 5 16 4 17 3 18 2 19 1 20
REMARK H PARENT
REMARK Flexibility Score: inf
ROOT
ATOM      1  C   UNL     1      11.640  14.609   6.229  1.00  0.00     0.000 C 
ENDROOT
BRANCH   1   2
ATOM      2  C   UNL     1      10.223  14.867   5.689  1.00  0.00     0.000 C 
BRANCH   2   3
ATOM      3  C   UNL     1      10.159  14.864   4.150  1.00  0.00     0.000 C 
BRANCH   3   4
ATOM      4  C   UNL     1      11.354  15.530   3.447  1.00  0.00     0.000 C 
BRANCH   4   5
ATOM      5  C   UNL     1      11.888  14.709   2.260  1.00  0.00     0.000 C 
BRANCH   5   6
ATOM      6  C   UNL     1      13.329  15.110   1.876  1.00  0.00     0.000 C 
BRANCH   6   7
ATOM      7  C   UNL     1      14.287  15.181   3.078  1.00  0.00     0.006 C 
BRANCH   7   8
ATOM      8  C   UNL     1      15.761  15.262   2.662  1.00  0.00     0.053 C 
BRANCH   8   9
ATOM      9  C   UNL     1      16.430  13.937   2.853  1.00  0.00     0.041 C 
ATOM     10  O   UNL     1      15.898  12.889   2.403  1.00  0.00    -0.550 OA
ATOM     11  O   UNL     1      17.616  13.854   3.572  1.00  0.00    -0.550 OA
ENDBRANCH   8   9
ENDBRANCH   7   8
ENDBRANCH   6   7
ENDBRANCH   5   6
ENDBRANCH   4   5
ENDBRANCH   3   4
ENDBRANCH   2   3
ENDBRANCH   1   2
BRANCH   1  12
ATOM     12  C   UNL     1      12.017  13.118   6.202  1.00  0.00     0.000 C 
BRANCH  12  13
ATOM     13  C   UNL     1      13.262  12.839   5.345  1.00  0.00    -0.000 C 
BRANCH  13  14
ATOM     14  C   UNL     1      12.960  11.795   4.263  1.00  0.00    -0.000 C 
BRANCH  14  15
ATOM     15  C   UNL     1      11.452  11.516   4.174  1.00  0.00    -0.000 C 
BRANCH  15  16
ATOM     16  C   UNL     1      11.103  10.047   4.458  1.00  0.00    -0.000 C 
BRANCH  16  17
ATOM     17  C   UNL     1       9.976   9.893   5.490  1.00  0.00    -0.000 C 
BRANCH  17  18
ATOM     18  C   UNL     1       8.982  11.060   5.393  1.00  0.00    -0.000 C 
BRANCH  18  19
ATOM     19  C   UNL     1       8.561  11.595   6.770  1.00  0.00    -0.003 C 
ATOM     20  C   UNL     1       7.159  12.203   6.766  1.00  0.00     0.004 C 
ENDBRANCH  18  19
ENDBRANCH  17  18
ENDBRANCH  16  17
ENDBRANCH  15  16
ENDBRANCH  14  15
ENDBRANCH  13  14
ENDBRANCH  12  13
ENDBRANCH   1  12
TORSDOF 16
ENDMDL
MODEL 3
REMARK VINA RESULT:    -4.744      1.777      3.388
REMARK INTER + INTRA:         -11.649
REMARK INTER:                  -9.330
REMARK INTRA:                  -2.319
REMARK UNBOUND:                -2.468
REMARK SMILES CCCCCCCCCCCCCCCCCC(=O)[O-]
REMARK SMILES IDX 10 1 11 2 12 3 13 4 14 5 15 6 16 7 17 8 18 9 19 10 20 11
REMARK SMILES IDX 9 12 8 13 7 14 6 15 5 16 4 17 3 18 2 19 1 20
REMARK H PARENT
REMARK Flexibility Score: inf
ROOT
ATOM      1  C   UNL     1      11.889  11.909   3.613  1.00  0.00     0.000 C 
ENDROOT
BRANCH   1   2
ATOM      2  C   UNL     1      12.916  12.040   4.751  1.00  0.00     0.000 C 
BRANCH   2   3
ATOM      3  C   UNL     1      12.508  13.083   5.809  1.00  0.00     0.000 C 
BRANCH   3   4
ATOM      4  C   UNL     1      11.816  14.339   5.252  1.00  0.00     0.000 C 
BRANCH   4   5
ATOM      5  C   UNL     1      12.810  15.417   4.786  1.00  0.00     0.000 C 
BRANCH   5   6
ATOM      6  C   UNL     1      13.020  15.392   3.257  1.00  0.00     0.000 C 
BRANCH   6   7
ATOM      7  C   UNL     1      14.498  15.294   2.842  1.00  0.00     0.006 C 
BRANCH   7   8
ATOM      8  C   UNL     1      15.368  14.586   3.888  1.00  0.00     0.053 C 
BRANCH   8   9
ATOM      9  C   UNL     1      16.325  13.648   3.223  1.00  0.00     0.041 C 
ATOM     10  O   UNL     1      15.933  12.902   2.288  1.00  0.00    -0.550 OA
ATOM     11  O   UNL     1      17.636  13.560   3.671  1.00  0.00    -0.550 OA
ENDBRANCH   8   9
ENDBRANCH   7   8
ENDBRANCH   6   7
ENDBRANCH   5   6
ENDBRANCH   4   5
ENDBRANCH   3   4
ENDBRANCH   2   3
ENDBRANCH   1   2
BRANCH   1  12
ATOM     12  C   UNL     1      10.738  10.952   3.968  1.00  0.00     0.000 C 
BRANCH  12  13
ATOM     13  C   UNL     1       9.374  11.659   4.015  1.00  0.00    -0.000 C 
BRANCH  13  14
ATOM     14  C   UNL     1       8.575  11.226   5.250  1.00  0.00    -0.000 C 
BRANCH  14  15
ATOM     15  C   UNL     1       9.511  10.878   6.417  1.00  0.00    -0.000 C 
BRANCH  15  16
ATOM     16  C   UNL     1       8.970  11.356   7.774  1.00  0.00    -0.000 C 
BRANCH  16  17
ATOM     17  C   UNL     1       7.471  11.688   7.731  1.00  0.00    -0.000 C 
BRANCH  17  18
ATOM     18  C   UNL     1       7.215  13.127   8.202  1.00  0.00    -0.000 C 
BRANCH  18  19
ATOM     19  C   UNL     1       7.120  14.123   7.035  1.00  0.00    -0.003 C 
ATOM     20  C   UNL     1       8.402  14.931   6.842  1.00  0.00     0.004 C 
ENDBRANCH  18  19
ENDBRANCH  17  18
ENDBRANCH  16  17
ENDBRANCH  15  16
ENDBRANCH  14  15
ENDBRANCH  13  14
ENDBRANCH  12  13
ENDBRANCH   1  12
TORSDOF 16
ENDMDL
MODEL 4
REMARK VINA RESULT:    -4.732      1.381      2.571
REMARK INTER + INTRA:         -11.627
REMARK INTER:                  -8.657
REMARK INTRA:                  -2.970
REMARK UNBOUND:                -2.468
REMARK SMILES CCCCCCCCCCCCCCCCCC(=O)[O-]
REMARK SMILES IDX 10 1 11 2 12 3 13 4 14 5 15 6 16 7 17 8 18 9 19 10 20 11
REMARK SMILES IDX 9 12 8 13 7 14 6 15 5 16 4 17 3 18 2 19 1 20
REMARK H PARENT
REMARK Flexibility Score: inf
ROOT
ATOM      1  C   UNL     1      12.140  16.266   4.241  1.00  0.00     0.000 C 
ENDROOT
BRANCH   1   2
ATOM      2  C   UNL     1      11.302  16.383   2.956  1.00  0.00     0.000 C 
BRANCH   2   3
ATOM      3  C   UNL     1      11.205  15.054   2.182  1.00  0.00     0.000 C 
BRANCH   3   4
ATOM      4  C   UNL     1      12.238  14.879   1.056  1.00  0.00     0.000 C 
BRANCH   4   5
ATOM      5  C   UNL     1      12.988  13.537   1.132  1.00  0.00     0.000 C 
BRANCH   5   6
ATOM      6  C   UNL     1      14.266  13.634   1.994  1.00  0.00     0.000 C 
BRANCH   6   7
ATOM      7  C   UNL     1      14.999  14.979   1.857  1.00  0.00     0.006 C 
BRANCH   7   8
ATOM      8  C   UNL     1      15.663  15.433   3.162  1.00  0.00     0.053 C 
BRANCH   8   9
ATOM      9  C   UNL     1      17.128  15.133   3.135  1.00  0.00     0.041 C 
ATOM     10  O   UNL     1      17.535  13.951   3.286  1.00  0.00    -0.550 OA
ATOM     11  O   UNL     1      18.047  16.165   2.995  1.00  0.00    -0.550 OA
ENDBRANCH   8   9
ENDBRANCH   7   8
ENDBRANCH   6   7
ENDBRANCH   5   6
ENDBRANCH   4   5
ENDBRANCH   3   4
ENDBRANCH   2   3
ENDBRANCH   1   2
BRANCH   1  12
ATOM     12  C   UNL     1      11.670  15.115   5.146  1.00  0.00     0.000 C 
BRANCH  12  13
ATOM     13  C   UNL     1      12.762  14.059   5.376  1.00  0.00    -0.000 C 
BRANCH  13  14
ATOM     14  C   UNL     1      12.145  12.681   5.642  1.00  0.00    -0.000 C 
BRANCH  14  15
ATOM     15  C   UNL     1      12.236  11.788   4.395  1.00  0.00    -0.000 C 
BRANCH  15  16
ATOM     16  C   UNL     1      10.914  11.069   4.082  1.00  0.00    -0.000 C 
BRANCH  16  17
ATOM     17  C   UNL     1       9.920  11.121   5.251  1.00  0.00    -0.000 C 
BRANCH  17  18
ATOM     18  C   UNL     1       8.528  11.554   4.767  1.00  0.00    -0.000 C 
BRANCH  18  19
ATOM     19  C   UNL     1       8.587  12.701   3.746  1.00  0.00    -0.003 C 
ATOM     20  C   UNL     1       8.236  14.057   4.358  1.00  0.00     0.004 C 
ENDBRANCH  18  19
ENDBRANCH  17  18
ENDBRANCH  16  17
ENDBRANCH  15  16
ENDBRANCH  14  15
ENDBRANCH  13  14
ENDBRANCH  12  13
ENDBRANCH   1  12
TORSDOF 16
ENDMDL
MODEL 5
REMARK VINA RESULT:    -4.723      4.008      7.238
REMARK INTER + INTRA:         -11.608
REMARK INTER:                  -8.915
REMARK INTRA:                  -2.694
REMARK UNBOUND:                -2.468
REMARK SMILES CCCCCCCCCCCCCCCCCC(=O)[O-]
REMARK SMILES IDX 10 1 11 2 12 3 13 4 14 5 15 6 16 7 17 8 18 9 19 10 20 11
REMARK SMILES IDX 9 12 8 13 7 14 6 15 5 16 4 17 3 18 2 19 1 20
REMARK H PARENT
REMARK Flexibility Score: inf
ROOT
ATOM      1  C   UNL     1       9.431  14.148   5.047  1.00  0.00     0.000 C 
ENDROOT
BRANCH   1   2
ATOM      2  C   UNL     1       9.371  13.496   3.655  1.00  0.00     0.000 C 
BRANCH   2   3
ATOM      3  C   UNL     1       9.217  11.964   3.718  1.00  0.00     0.000 C 
BRANCH   3   4
ATOM      4  C   UNL     1       8.503  11.432   4.972  1.00  0.00     0.000 C 
BRANCH   4   5
ATOM      5  C   UNL     1       9.423  10.598   5.880  1.00  0.00     0.000 C 
BRANCH   5   6
ATOM      6  C   UNL     1       9.272  10.978   7.368  1.00  0.00     0.000 C 
BRANCH   6   7
ATOM      7  C   UNL     1       8.008  11.803   7.666  1.00  0.00     0.006 C 
BRANCH   7   8
ATOM      8  C   UNL     1       8.319  13.163   8.303  1.00  0.00     0.053 C 
BRANCH   8   9
ATOM      9  C   UNL     1       7.237  14.147   7.987  1.00  0.00     0.041 C 
ATOM     10  O   UNL     1       6.385  13.887   7.097  1.00  0.00    -0.550 OA
ATOM     11  O   UNL     1       7.200  15.372   8.640  1.00  0.00    -0.550 OA
ENDBRANCH   8   9
ENDBRANCH   7   8
ENDBRANCH   6   7
ENDBRANCH   5   6
ENDBRANCH   4   5
ENDBRANCH   3   4
ENDBRANCH   2   3
ENDBRANCH   1   2
BRANCH   1  12
ATOM     12  C   UNL     1      10.854  14.587   5.429  1.00  0.00     0.000 C 
BRANCH  12  13
ATOM     13  C   UNL     1      11.651  13.472   6.123  1.00  0.00    -0.000 C 
BRANCH  13  14
ATOM     14  C   UNL     1      13.009  13.263   5.442  1.00  0.00    -0.000 C 
BRANCH  14  15
ATOM     15  C   UNL     1      12.959  12.074   4.470  1.00  0.00    -0.000 C 
BRANCH  15  16
ATOM     16  C   UNL     1      12.906  12.513   2.998  1.00  0.00    -0.000 C 
BRANCH  16  17
ATOM     17  C   UNL     1      13.221  14.005   2.812  1.00  0.00    -0.000 C 
BRANCH  17  18
ATOM     18  C   UNL     1      14.599  14.197   2.165  1.00  0.00    -0.000 C 
BRANCH  18  19
ATOM     19  C   UNL     1      15.585  13.075   2.526  1.00  0.00    -0.003 C 
ATOM     20  C   UNL     1      16.572  13.483   3.619  1.00  0.00     0.004 C 
ENDBRANCH  18  19
ENDBRANCH  17  18
ENDBRANCH  16  17
ENDBRANCH  15  16
ENDBRANCH  14  15
ENDBRANCH  13  14
ENDBRANCH  12  13
ENDBRANCH   1  12
TORSDOF 16
ENDMDL
MODEL 6
REMARK VINA RESULT:    -4.705      4.134      6.444
REMARK INTER + INTRA:         -11.574
REMARK INTER:                  -8.594
REMARK INTRA:                  -2.980
REMARK UNBOUND:                -2.468
REMARK SMILES CCCCCCCCCCCCCCCCCC(=O)[O-]
REMARK SMILES IDX 10 1 11 2 12 3 13 4 14 5 15 6 16 7 17 8 18 9 19 10 20 11
REMARK SMILES IDX 9 12 8 13 7 14 6 15 5 16 4 17 3 18 2 19 1 20
REMARK H PARENT
REMARK Flexibility Score: inf
ROOT
ATOM      1  C   UNL     1      13.435  13.971   4.900  1.00  0.00     0.000 C 
ENDROOT
BRANCH   1   2
ATOM      2  C   UNL     1      13.687  12.631   4.188  1.00  0.00     0.000 C 
BRANCH   2   3
ATOM      3  C   UNL     1      12.555  11.611   4.415  1.00  0.00     0.000 C 
BRANCH   3   4
ATOM      4  C   UNL     1      11.435  11.633   3.360  1.00  0.00     0.000 C 
BRANCH   4   5
ATOM      5  C   UNL     1      10.067  11.216   3.927  1.00  0.00     0.000 C 
BRANCH   5   6
ATOM      6  C   UNL     1      10.199  10.456   5.264  1.00  0.00     0.000 C 
BRANCH   6   7
ATOM      7  C   UNL     1       9.284  11.003   6.374  1.00  0.00     0.006 C 
BRANCH   7   8
ATOM      8  C   UNL     1       7.968  11.576   5.836  1.00  0.00     0.053 C 
BRANCH   8   9
ATOM      9  C   UNL     1       7.142  12.128   6.955  1.00  0.00     0.041 C 
ATOM     10  O   UNL     1       6.883  11.416   7.961  1.00  0.00    -0.550 OA
ATOM     11  O   UNL     1       6.616  13.410   6.864  1.00  0.00    -0.550 OA
ENDBRANCH   8   9
ENDBRANCH   7   8
ENDBRANCH   6   7
ENDBRANCH   5   6
ENDBRANCH   4   5
ENDBRANCH   3   4
ENDBRANCH   2   3
ENDBRANCH   1   2
BRANCH   1  12
ATOM     12  C   UNL     1      12.433  13.842   6.059  1.00  0.00     0.000 C 
BRANCH  12  13
ATOM     13  C   UNL     1      11.482  15.046   6.155  1.00  0.00    -0.000 C 
BRANCH  13  14
ATOM     14  C   UNL     1      10.020  14.600   6.028  1.00  0.00    -0.000 C 
BRANCH  14  15
ATOM     15  C   UNL     1       9.319  15.335   4.875  1.00  0.00    -0.000 C 
BRANCH  15  16
ATOM     16  C   UNL     1       9.548  14.657   3.514  1.00  0.00    -0.000 C 
BRANCH  16  17
ATOM     17  C   UNL     1      10.128  15.616   2.464  1.00  0.00    -0.000 C 
BRANCH  17  18
ATOM     18  C   UNL     1      11.635  15.380   2.281  1.00  0.00    -0.000 C 
BRANCH  18  19
ATOM     19  C   UNL     1      11.997  14.955   0.850  1.00  0.00    -0.003 C 
ATOM     20  C   UNL     1      13.281  14.129   0.785  1.00  0.00     0.004 C 
ENDBRANCH  18  19
ENDBRANCH  17  18
ENDBRANCH  16  17
ENDBRANCH  15  16
ENDBRANCH  14  15
ENDBRANCH  13  14
ENDBRANCH  12  13
ENDBRANCH   1  12
TORSDOF 16
ENDMDL
MODEL 7
REMARK VINA RESULT:    -4.689      1.641      3.725
REMARK INTER + INTRA:         -11.544
REMARK INTER:                  -9.304
REMARK INTRA:                  -2.240
REMARK UNBOUND:                -2.468
REMARK SMILES CCCCCCCCCCCCCCCCCC(=O)[O-]
REMARK SMILES IDX 10 1 11 2 12 3 13 4 14 5 15 6 16 7 17 8 18 9 19 10 20 11
REMARK SMILES IDX 9 12 8 13 7 14 6 15 5 16 4 17 3 18 2 19 1 20
REMARK H PARENT
REMARK Flexibility Score: inf
ROOT
ATOM      1  C   UNL     1       9.303  11.331   6.346  1.00  0.00     0.000 C 
ENDROOT
BRANCH   1   2
ATOM      2  C   UNL     1       9.745  10.169   5.439  1.00  0.00     0.000 C 
BRANCH   2   3
ATOM      3  C   UNL     1      10.906  10.551   4.502  1.00  0.00     0.000 C 
BRANCH   3   4
ATOM      4  C   UNL     1      11.775  11.725   4.985  1.00  0.00     0.000 C 
BRANCH   4   5
ATOM      5  C   UNL     1      13.083  11.873   4.188  1.00  0.00     0.000 C 
BRANCH   5   6
ATOM      6  C   UNL     1      12.880  12.662   2.877  1.00  0.00     0.000 C 
BRANCH   6   7
ATOM      7  C   UNL     1      13.951  13.739   2.636  1.00  0.00     0.006 C 
BRANCH   7   8
ATOM      8  C   UNL     1      15.369  13.162   2.545  1.00  0.00     0.053 C 
BRANCH   8   9
ATOM      9  C   UNL     1      16.346  14.066   3.228  1.00  0.00     0.041 C 
ATOM     10  O   UNL     1      16.043  15.267   3.458  1.00  0.00    -0.550 OA
ATOM     11  O   UNL     1      17.609  13.597   3.565  1.00  0.00    -0.550 OA
ENDBRANCH   8   9
ENDBRANCH   7   8
ENDBRANCH   6   7
ENDBRANCH   5   6
ENDBRANCH   4   5
ENDBRANCH   3   4
ENDBRANCH   2   3
ENDBRANCH   1   2
BRANCH   1  12
ATOM     12  C   UNL     1       7.863  11.786   6.058  1.00  0.00     0.000 C 
BRANCH  12  13
ATOM     13  C   UNL     1       7.119  12.233   7.327  1.00  0.00    -0.000 C 
BRANCH  13  14
ATOM     14  C   UNL     1       6.847  13.743   7.299  1.00  0.00    -0.000 C 
BRANCH  14  15
ATOM     15  C   UNL     1       8.082  14.532   7.760  1.00  0.00    -0.000 C 
BRANCH  15  16
ATOM     16  C   UNL     1       8.717  15.354   6.626  1.00  0.00    -0.000 C 
BRANCH  16  17
ATOM     17  C   UNL     1      10.235  15.143   6.520  1.00  0.00    -0.000 C 
BRANCH  17  18
ATOM     18  C   UNL     1      10.669  15.027   5.052  1.00  0.00    -0.000 C 
BRANCH  18  19
ATOM     19  C   UNL     1       9.481  15.062   4.078  1.00  0.00    -0.003 C 
ATOM     20  C   UNL     1       9.254  13.726   3.373  1.00  0.00     0.004 C 
ENDBRANCH  18  19
ENDBRANCH  17  18
ENDBRANCH  16  17
ENDBRANCH  15  16
ENDBRANCH  14  15
ENDBRANCH  13  14
ENDBRANCH  12  13
ENDBRANCH   1  12
TORSDOF 16
ENDMDL
MODEL 8
REMARK VINA RESULT:    -4.641      3.848      7.144
REMARK INTER + INTRA:         -11.450
REMARK INTER:                  -8.927
REMARK INTRA:                  -2.524
REMARK UNBOUND:                -2.468
REMARK SMILES CCCCCCCCCCCCCCCCCC(=O)[O-]
REMARK SMILES IDX 10 1 11 2 12 3 13 4 14 5 15 6 16 7 17 8 18 9 19 10 20 11
REMARK SMILES IDX 9 12 8 13 7 14 6 15 5 16 4 17 3 18 2 19 1 20
REMARK H PARENT
REMARK Flexibility Score: inf
ROOT
ATOM      1  C   UNL     1      10.777  15.278   4.093  1.00  0.00     0.000 C 
ENDROOT
BRANCH   1   2
ATOM      2  C   UNL     1       9.908  14.357   3.219  1.00  0.00     0.000 C 
BRANCH   2   3
ATOM      3  C   UNL     1       8.894  13.537   4.038  1.00  0.00     0.000 C 
BRANCH   3   4
ATOM      4  C   UNL     1       8.742  12.068   3.605  1.00  0.00     0.000 C 
BRANCH   4   5
ATOM      5  C   UNL     1       9.791  11.142   4.244  1.00  0.00     0.000 C 
BRANCH   5   6
ATOM      6  C   UNL     1       9.319  10.578   5.602  1.00  0.00     0.000 C 
BRANCH   6   7
ATOM      7  C   UNL     1       9.604  11.515   6.788  1.00  0.00     0.006 C 
BRANCH   7   8
ATOM      8  C   UNL     1       8.441  11.588   7.785  1.00  0.00     0.053 C 
BRANCH   8   9
ATOM      9  C   UNL     1       7.393  12.536   7.295  1.00  0.00     0.041 C 
ATOM     10  O   UNL     1       6.435  12.115   6.594  1.00  0.00    -0.550 OA
ATOM     11  O   UNL     1       7.501  13.894   7.569  1.00  0.00    -0.550 OA
ENDBRANCH   8   9
ENDBRANCH   7   8
ENDBRANCH   6   7
ENDBRANCH   5   6
ENDBRANCH   4   5
ENDBRANCH   3   4
ENDBRANCH   2   3
ENDBRANCH   1   2
BRANCH   1  12
ATOM     12  C   UNL     1      11.308  14.567   5.349  1.00  0.00     0.000 C 
BRANCH  12  13
ATOM     13  C   UNL     1      12.792  14.186   5.230  1.00  0.00    -0.000 C 
BRANCH  13  14
ATOM     14  C   UNL     1      12.962  12.664   5.136  1.00  0.00    -0.000 C 
BRANCH  14  15
ATOM     15  C   UNL     1      13.145  12.221   3.677  1.00  0.00    -0.000 C 
BRANCH  15  16
ATOM     16  C   UNL     1      13.798  13.305   2.805  1.00  0.00    -0.000 C 
BRANCH  16  17
ATOM     17  C   UNL     1      13.113  13.462   1.440  1.00  0.00    -0.000 C 
BRANCH  17  18
ATOM     18  C   UNL     1      13.010  14.942   1.046  1.00  0.00    -0.000 C 
BRANCH  18  19
ATOM     19  C   UNL     1      14.364  15.540   0.635  1.00  0.00    -0.003 C 
ATOM     20  C   UNL     1      14.339  16.158  -0.763  1.00  0.00     0.004 C 
ENDBRANCH  18  19
ENDBRANCH  17  18
ENDBRANCH  16  17
ENDBRANCH  15  16
ENDBRANCH  14  15
ENDBRANCH  13  14
ENDBRANCH  12  13
ENDBRANCH   1  12
TORSDOF 16
ENDMDL
MODEL 9
REMARK VINA RESULT:    -4.607      4.553      7.441
REMARK INTER + INTRA:         -11.384
REMARK INTER:                  -8.083
REMARK INTRA:                  -3.300
REMARK UNBOUND:                -2.468
REMARK SMILES CCCCCCCCCCCCCCCCCC(=O)[O-]
REMARK SMILES IDX 10 1 11 2 12 3 13 4 14 5 15 6 16 7 17 8 18 9 19 10 20 11
REMARK SMILES IDX 9 12 8 13 7 14 6 15 5 16 4 17 3 18 2 19 1 20
REMARK H PARENT
REMARK Flexibility Score: inf
ROOT
ATOM      1  C   UNL     1       9.977  11.234   3.727  1.00  0.00     0.000 C 
ENDROOT
BRANCH   1   2
ATOM      2  C   UNL     1       8.762  11.234   4.670  1.00  0.00     0.000 C 
BRANCH   2   3
ATOM      3  C   UNL     1       9.147  10.987   6.142  1.00  0.00     0.000 C 
BRANCH   3   4
ATOM      4  C   UNL     1       8.251  11.690   7.176  1.00  0.00     0.000 C 
BRANCH   4   5
ATOM      5  C   UNL     1       7.154  12.556   6.533  1.00  0.00     0.000 C 
BRANCH   5   6
ATOM      6  C   UNL     1       6.808  13.790   7.393  1.00  0.00     0.000 C 
BRANCH   6   7
ATOM      7  C   UNL     1       7.902  14.156   8.410  1.00  0.00     0.006 C 
BRANCH   7   8
ATOM      8  C   UNL     1       7.359  14.336   9.833  1.00  0.00     0.053 C 
BRANCH   8   9
ATOM      9  C   UNL     1       7.559  13.086  10.630  1.00  0.00     0.041 C 
ATOM     10  O   UNL     1       8.712  12.599  10.765  1.00  0.00    -0.550 OA
ATOM     11  O   UNL     1       6.465  12.431  11.181  1.00  0.00    -0.550 OA
ENDBRANCH   8   9
ENDBRANCH   7   8
ENDBRANCH   6   7
ENDBRANCH   5   6
ENDBRANCH   4   5
ENDBRANCH   3   4
ENDBRANCH   2   3
ENDBRANCH   1   2
BRANCH   1  12
ATOM     12  C   UNL     1      11.310  11.131   4.486  1.00  0.00     0.000 C 
BRANCH  12  13
ATOM     13  C   UNL     1      12.410  12.013   3.874  1.00  0.00    -0.000 C 
BRANCH  13  14
ATOM     14  C   UNL     1      12.593  13.302   4.684  1.00  0.00    -0.000 C 
BRANCH  14  15
ATOM     15  C   UNL     1      12.151  13.102   6.142  1.00  0.00    -0.000 C 
BRANCH  15  16
ATOM     16  C   UNL     1      11.099  14.130   6.588  1.00  0.00    -0.000 C 
BRANCH  16  17
ATOM     17  C   UNL     1      10.942  15.289   5.593  1.00  0.00    -0.000 C 
BRANCH  17  18
ATOM     18  C   UNL     1       9.460  15.586   5.326  1.00  0.00    -0.000 C 
BRANCH  18  19
ATOM     19  C   UNL     1       8.897  14.777   4.147  1.00  0.00    -0.003 C 
ATOM     20  C   UNL     1       9.757  14.889   2.888  1.00  0.00     0.004 C 
ENDBRANCH  18  19
ENDBRANCH  17  18
ENDBRANCH  16  17
ENDBRANCH  15  16
ENDBRANCH  14  15
ENDBRANCH  13  14
ENDBRANCH  12  13
ENDBRANCH   1  12
TORSDOF 16
ENDMDL
