MODEL 1
REMARK VINA RESULT:    -5.698      0.000      0.000
REMARK INTER + INTRA:          -6.802
REMARK INTER:                  -7.031
REMARK INTRA:                   0.229
REMARK UNBOUND:                 0.229
REMARK SMILES Oc1cc(O)c2cc(O)c(-c3cc(O)c(O)c(O)c3)[o+]c2c1
REMARK SMILES IDX 10 1 20 2 21 3 22 4 2 5 3 6 4 7 6 8 7 9 8 10 11 11 12 12
REMARK SMILES IDX 13 13 19 14 15 15 17 16 14 17 16 19 18 21 9 23 1 25 5 27
REMARK H PARENT 14 18 16 20 18 22 9 24 1 26 5 28
REMARK Flexibility Score: inf
ROOT
ATOM      1  C   UNL     1      45.339  16.345  -3.436  1.00  0.00     0.402 A 
ATOM      2  O   UNL     1      45.880  15.310  -2.799  1.00  0.00    -0.202 OA
ATOM      3  C   UNL     1      47.006  14.721  -3.187  1.00  0.00     0.368 A 
ATOM      4  C   UNL     1      47.495  13.637  -2.452  1.00  0.00     0.162 A 
ATOM      5  C   UNL     1      48.674  12.998  -2.837  1.00  0.00     0.128 A 
ATOM      6  C   UNL     1      49.372  13.444  -3.966  1.00  0.00     0.093 A 
ATOM      7  C   UNL     1      48.903  14.528  -4.718  1.00  0.00     0.136 A 
ATOM      8  C   UNL     1      47.706  15.183  -4.328  1.00  0.00     0.125 A 
ATOM      9  C   UNL     1      47.169  16.285  -5.014  1.00  0.00     0.078 A 
ATOM     10  C   UNL     1      45.987  16.881  -4.566  1.00  0.00     0.223 A 
ENDROOT
BRANCH   1  11
ATOM     11  C   UNL     1      44.074  16.907  -2.912  1.00  0.00     0.091 A 
ATOM     12  C   UNL     1      43.158  16.062  -2.267  1.00  0.00     0.068 A 
ATOM     13  C   UNL     1      41.946  16.562  -1.780  1.00  0.00     0.162 A 
ATOM     14  C   UNL     1      43.743  18.260  -3.096  1.00  0.00     0.068 A 
ATOM     15  C   UNL     1      41.629  17.919  -1.947  1.00  0.00     0.200 A 
ATOM     16  C   UNL     1      42.530  18.769  -2.612  1.00  0.00     0.162 A 
BRANCH  13  17
ATOM     17  O   UNL     1      41.070  15.691  -1.132  1.00  0.00    -0.504 OA
ATOM     18  H   UNL     1      40.983  15.666  -0.122  1.00  0.00     0.293 HD
ENDBRANCH  13  17
BRANCH  15  19
ATOM     19  O   UNL     1      40.418  18.411  -1.454  1.00  0.00    -0.502 OA
ATOM     20  H   UNL     1      39.656  18.679  -2.065  1.00  0.00     0.293 HD
ENDBRANCH  15  19
BRANCH  16  21
ATOM     21  O   UNL     1      42.214  20.115  -2.795  1.00  0.00    -0.504 OA
ATOM     22  H   UNL     1      42.641  20.666  -3.529  1.00  0.00     0.293 HD
ENDBRANCH  16  21
ENDBRANCH   1  11
BRANCH  10  23
ATOM     23  O   UNL     1      45.480  18.005  -5.217  1.00  0.00    -0.500 OA
ATOM     24  H   UNL     1      45.692  18.199  -6.189  1.00  0.00     0.294 HD
ENDBRANCH  10  23
BRANCH   5  25
ATOM     25  O   UNL     1      49.145  11.919  -2.092  1.00  0.00    -0.507 OA
ATOM     26  H   UNL     1      48.582  11.089  -1.947  1.00  0.00     0.293 HD
ENDBRANCH   5  25
BRANCH   7  27
ATOM     27  O   UNL     1      49.656  14.911  -5.833  1.00  0.00    -0.507 OA
ATOM     28  H   UNL     1      50.610  15.238  -5.792  1.00  0.00     0.293 HD
ENDBRANCH   7  27
TORSDOF 7
ENDMDL
MODEL 2
REMARK VINA RESULT:    -5.690      1.343      6.907
REMARK INTER + INTRA:          -6.792
REMARK INTER:                  -7.114
REMARK INTRA:                   0.323
REMARK UNBOUND:                 0.229
REMARK SMILES Oc1cc(O)c2cc(O)c(-c3cc(O)c(O)c(O)c3)[o+]c2c1
REMARK SMILES IDX 10 1 20 2 21 3 22 4 2 5 3 6 4 7 6 8 7 9 8 10 11 11 12 12
REMARK SMILES IDX 13 13 19 14 15 15 17 16 14 17 16 19 18 21 9 23 1 25 5 27
REMARK H PARENT 14 18 16 20 18 22 9 24 1 26 5 28
REMARK Flexibility Score: inf
ROOT
ATOM      1  C   UNL     1      46.475  16.414  -4.274  1.00  0.00     0.402 A 
ATOM      2  O   UNL     1      45.583  15.980  -3.388  1.00  0.00    -0.202 OA
ATOM      3  C   UNL     1      44.373  16.511  -3.249  1.00  0.00     0.368 A 
ATOM      4  C   UNL     1      43.506  15.988  -2.286  1.00  0.00     0.162 A 
ATOM      5  C   UNL     1      42.231  16.526  -2.117  1.00  0.00     0.128 A 
ATOM      6  C   UNL     1      41.816  17.598  -2.916  1.00  0.00     0.093 A 
ATOM      7  C   UNL     1      42.665  18.141  -3.889  1.00  0.00     0.136 A 
ATOM      8  C   UNL     1      43.963  17.593  -4.065  1.00  0.00     0.125 A 
ATOM      9  C   UNL     1      44.876  18.064  -5.023  1.00  0.00     0.078 A 
ATOM     10  C   UNL     1      46.136  17.469  -5.142  1.00  0.00     0.223 A 
ENDROOT
BRANCH   1  11
ATOM     11  C   UNL     1      47.796  15.746  -4.324  1.00  0.00     0.091 A 
ATOM     12  C   UNL     1      47.988  14.546  -3.624  1.00  0.00     0.068 A 
ATOM     13  C   UNL     1      49.231  13.903  -3.638  1.00  0.00     0.162 A 
ATOM     14  C   UNL     1      48.879  16.318  -5.012  1.00  0.00     0.068 A 
ATOM     15  C   UNL     1      50.305  14.467  -4.344  1.00  0.00     0.200 A 
ATOM     16  C   UNL     1      50.128  15.681  -5.030  1.00  0.00     0.162 A 
BRANCH  13  17
ATOM     17  O   UNL     1      49.377  12.704  -2.940  1.00  0.00    -0.504 OA
ATOM     18  H   UNL     1      48.615  12.043  -2.838  1.00  0.00     0.293 HD
ENDBRANCH  13  17
BRANCH  15  19
ATOM     19  O   UNL     1      51.541  13.817  -4.355  1.00  0.00    -0.502 OA
ATOM     20  H   UNL     1      51.811  13.159  -3.635  1.00  0.00     0.293 HD
ENDBRANCH  15  19
BRANCH  16  21
ATOM     21  O   UNL     1      51.195  16.255  -5.722  1.00  0.00    -0.504 OA
ATOM     22  H   UNL     1      51.701  17.050  -5.352  1.00  0.00     0.293 HD
ENDBRANCH  16  21
ENDBRANCH   1  11
BRANCH  10  23
ATOM     23  O   UNL     1      47.024  17.903  -6.125  1.00  0.00    -0.500 OA
ATOM     24  H   UNL     1      47.941  18.268  -5.892  1.00  0.00     0.294 HD
ENDBRANCH  10  23
BRANCH   5  25
ATOM     25  O   UNL     1      41.382  15.991  -1.152  1.00  0.00    -0.507 OA
ATOM     26  H   UNL     1      41.622  16.006  -0.167  1.00  0.00     0.293 HD
ENDBRANCH   5  25
BRANCH   7  27
ATOM     27  O   UNL     1      42.178  19.212  -4.643  1.00  0.00    -0.507 OA
ATOM     28  H   UNL     1      41.456  19.846  -4.333  1.00  0.00     0.293 HD
ENDBRANCH   7  27
TORSDOF 7
ENDMDL
MODEL 3
REMARK VINA RESULT:    -5.599      1.186      1.688
REMARK INTER + INTRA:          -6.680
REMARK INTER:                  -6.296
REMARK INTRA:                  -0.384
REMARK UNBOUND:                 0.229
REMARK SMILES Oc1cc(O)c2cc(O)c(-c3cc(O)c(O)c(O)c3)[o+]c2c1
REMARK SMILES IDX 10 1 20 2 21 3 22 4 2 5 3 6 4 7 6 8 7 9 8 10 11 11 12 12
REMARK SMILES IDX 13 13 19 14 15 15 17 16 14 17 16 19 18 21 9 23 1 25 5 27
REMARK H PARENT 14 18 16 20 18 22 9 24 1 26 5 28
REMARK Flexibility Score: inf
ROOT
ATOM      1  C   UNL     1      45.126  16.007  -3.568  1.00  0.00     0.402 A 
ATOM      2  O   UNL     1      45.720  14.935  -3.049  1.00  0.00    -0.202 OA
ATOM      3  C   UNL     1      46.981  14.603  -3.306  1.00  0.00     0.368 A 
ATOM      4  C   UNL     1      47.516  13.455  -2.716  1.00  0.00     0.162 A 
ATOM      5  C   UNL     1      48.835  13.081  -2.968  1.00  0.00     0.128 A 
ATOM      6  C   UNL     1      49.630  13.858  -3.820  1.00  0.00     0.093 A 
ATOM      7  C   UNL     1      49.117  15.014  -4.424  1.00  0.00     0.136 A 
ATOM      8  C   UNL     1      47.775  15.399  -4.166  1.00  0.00     0.125 A 
ATOM      9  C   UNL     1      47.183  16.547  -4.717  1.00  0.00     0.078 A 
ATOM     10  C   UNL     1      45.856  16.865  -4.412  1.00  0.00     0.223 A 
ENDROOT
BRANCH   1  11
ATOM     11  C   UNL     1      43.712  16.264  -3.214  1.00  0.00     0.091 A 
ATOM     12  C   UNL     1      43.413  17.000  -2.057  1.00  0.00     0.068 A 
ATOM     13  C   UNL     1      42.086  17.242  -1.688  1.00  0.00     0.162 A 
ATOM     14  C   UNL     1      42.658  15.740  -3.982  1.00  0.00     0.068 A 
ATOM     15  C   UNL     1      41.036  16.734  -2.470  1.00  0.00     0.200 A 
ATOM     16  C   UNL     1      41.326  15.977  -3.618  1.00  0.00     0.162 A 
BRANCH  13  17
ATOM     17  O   UNL     1      41.832  17.990  -0.538  1.00  0.00    -0.504 OA
ATOM     18  H   UNL     1      41.897  19.001  -0.528  1.00  0.00     0.293 HD
ENDBRANCH  13  17
BRANCH  15  19
ATOM     19  O   UNL     1      39.714  16.983  -2.096  1.00  0.00    -0.502 OA
ATOM     20  H   UNL     1      39.380  16.821  -1.154  1.00  0.00     0.293 HD
ENDBRANCH  15  19
BRANCH  16  21
ATOM     21  O   UNL     1      40.288  15.457  -4.392  1.00  0.00    -0.504 OA
ATOM     22  H   UNL     1      39.641  16.059  -4.886  1.00  0.00     0.293 HD
ENDBRANCH  16  21
ENDBRANCH   1  11
BRANCH  10  23
ATOM     23  O   UNL     1      45.282  18.031  -4.919  1.00  0.00    -0.500 OA
ATOM     24  H   UNL     1      45.808  18.676  -5.498  1.00  0.00     0.294 HD
ENDBRANCH  10  23
BRANCH   5  25
ATOM     25  O   UNL     1      49.351  11.933  -2.370  1.00  0.00    -0.507 OA
ATOM     26  H   UNL     1      49.394  11.834  -1.363  1.00  0.00     0.293 HD
ENDBRANCH   5  25
BRANCH   7  27
ATOM     27  O   UNL     1      49.972  15.734  -5.263  1.00  0.00    -0.507 OA
ATOM     28  H   UNL     1      50.977  15.637  -5.272  1.00  0.00     0.293 HD
ENDBRANCH   7  27
TORSDOF 7
ENDMDL
MODEL 4
REMARK VINA RESULT:    -5.575      1.512      2.755
REMARK INTER + INTRA:          -6.650
REMARK INTER:                  -6.675
REMARK INTRA:                   0.025
REMARK UNBOUND:                 0.229
REMARK SMILES Oc1cc(O)c2cc(O)c(-c3cc(O)c(O)c(O)c3)[o+]c2c1
REMARK SMILES IDX 10 1 20 2 21 3 22 4 2 5 3 6 4 7 6 8 7 9 8 10 11 11 12 12
REMARK SMILES IDX 13 13 19 14 15 15 17 16 14 17 16 19 18 21 9 23 1 25 5 27
REMARK H PARENT 14 18 16 20 18 22 9 24 1 26 5 28
REMARK Flexibility Score: inf
ROOT
ATOM      1  C   UNL     1      46.053  15.674  -3.545  1.00  0.00     0.402 A 
ATOM      2  O   UNL     1      47.203  16.169  -3.994  1.00  0.00    -0.202 OA
ATOM      3  C   UNL     1      48.323  15.458  -4.071  1.00  0.00     0.368 A 
ATOM      4  C   UNL     1      49.484  16.068  -4.554  1.00  0.00     0.162 A 
ATOM      5  C   UNL     1      50.674  15.347  -4.645  1.00  0.00     0.128 A 
ATOM      6  C   UNL     1      50.708  14.004  -4.248  1.00  0.00     0.093 A 
ATOM      7  C   UNL     1      49.558  13.370  -3.761  1.00  0.00     0.136 A 
ATOM      8  C   UNL     1      48.344  14.100  -3.670  1.00  0.00     0.125 A 
ATOM      9  C   UNL     1      47.141  13.543  -3.207  1.00  0.00     0.078 A 
ATOM     10  C   UNL     1      45.983  14.324  -3.151  1.00  0.00     0.223 A 
ENDROOT
BRANCH   1  11
ATOM     11  C   UNL     1      44.875  16.571  -3.496  1.00  0.00     0.091 A 
ATOM     12  C   UNL     1      44.045  16.557  -2.365  1.00  0.00     0.068 A 
ATOM     13  C   UNL     1      42.915  17.379  -2.300  1.00  0.00     0.162 A 
ATOM     14  C   UNL     1      44.538  17.396  -4.582  1.00  0.00     0.068 A 
ATOM     15  C   UNL     1      42.594  18.218  -3.379  1.00  0.00     0.200 A 
ATOM     16  C   UNL     1      43.407  18.222  -4.525  1.00  0.00     0.162 A 
BRANCH  13  17
ATOM     17  O   UNL     1      42.124  17.346  -1.151  1.00  0.00    -0.504 OA
ATOM     18  H   UNL     1      42.324  16.724  -0.376  1.00  0.00     0.293 HD
ENDBRANCH  13  17
BRANCH  15  19
ATOM     19  O   UNL     1      41.466  19.038  -3.304  1.00  0.00    -0.502 OA
ATOM     20  H   UNL     1      40.602  18.729  -2.874  1.00  0.00     0.293 HD
ENDBRANCH  15  19
BRANCH  16  21
ATOM     21  O   UNL     1      43.086  19.042  -5.607  1.00  0.00    -0.504 OA
ATOM     22  H   UNL     1      42.930  18.662  -6.533  1.00  0.00     0.293 HD
ENDBRANCH  16  21
ENDBRANCH   1  11
BRANCH  10  23
ATOM     23  O   UNL     1      44.777  13.759  -2.738  1.00  0.00    -0.500 OA
ATOM     24  H   UNL     1      44.737  12.836  -2.320  1.00  0.00     0.294 HD
ENDBRANCH  10  23
BRANCH   5  25
ATOM     25  O   UNL     1      51.822  15.972  -5.128  1.00  0.00    -0.507 OA
ATOM     26  H   UNL     1      52.025  16.942  -4.919  1.00  0.00     0.293 HD
ENDBRANCH   5  25
BRANCH   7  27
ATOM     27  O   UNL     1      49.675  12.029  -3.383  1.00  0.00    -0.507 OA
ATOM     28  H   UNL     1      48.918  11.474  -3.011  1.00  0.00     0.293 HD
ENDBRANCH   7  27
TORSDOF 7
ENDMDL
MODEL 5
REMARK VINA RESULT:    -5.509      1.591      3.293
REMARK INTER + INTRA:          -6.569
REMARK INTER:                  -6.469
REMARK INTRA:                  -0.100
REMARK UNBOUND:                 0.229
REMARK SMILES Oc1cc(O)c2cc(O)c(-c3cc(O)c(O)c(O)c3)[o+]c2c1
REMARK SMILES IDX 10 1 20 2 21 3 22 4 2 5 3 6 4 7 6 8 7 9 8 10 11 11 12 12
REMARK SMILES IDX 13 13 19 14 15 15 17 16 14 17 16 19 18 21 9 23 1 25 5 27
REMARK H PARENT 14 18 16 20 18 22 9 24 1 26 5 28
REMARK Flexibility Score: inf
ROOT
ATOM      1  C   UNL     1      46.329  15.891  -3.830  1.00  0.00     0.402 A 
ATOM      2  O   UNL     1      47.540  16.300  -4.200  1.00  0.00    -0.202 OA
ATOM      3  C   UNL     1      48.605  15.505  -4.221  1.00  0.00     0.368 A 
ATOM      4  C   UNL     1      49.837  16.028  -4.622  1.00  0.00     0.162 A 
ATOM      5  C   UNL     1      50.971  15.217  -4.653  1.00  0.00     0.128 A 
ATOM      6  C   UNL     1      50.877  13.872  -4.278  1.00  0.00     0.093 A 
ATOM      7  C   UNL     1      49.654  13.323  -3.873  1.00  0.00     0.136 A 
ATOM      8  C   UNL     1      48.496  14.144  -3.844  1.00  0.00     0.125 A 
ATOM      9  C   UNL     1      47.227  13.678  -3.464  1.00  0.00     0.078 A 
ATOM     10  C   UNL     1      46.132  14.546  -3.465  1.00  0.00     0.223 A 
ENDROOT
BRANCH   1  11
ATOM     11  C   UNL     1      45.224  16.877  -3.838  1.00  0.00     0.091 A 
ATOM     12  C   UNL     1      45.043  17.701  -4.959  1.00  0.00     0.068 A 
ATOM     13  C   UNL     1      44.020  18.654  -4.986  1.00  0.00     0.162 A 
ATOM     14  C   UNL     1      44.386  17.044  -2.723  1.00  0.00     0.068 A 
ATOM     15  C   UNL     1      43.170  18.803  -3.877  1.00  0.00     0.200 A 
ATOM     16  C   UNL     1      43.358  17.997  -2.741  1.00  0.00     0.162 A 
BRANCH  13  17
ATOM     17  O   UNL     1      43.864  19.444  -6.125  1.00  0.00    -0.504 OA
ATOM     18  H   UNL     1      44.610  19.570  -6.799  1.00  0.00     0.293 HD
ENDBRANCH  13  17
BRANCH  15  19
ATOM     19  O   UNL     1      42.149  19.754  -3.914  1.00  0.00    -0.502 OA
ATOM     20  H   UNL     1      42.270  20.690  -3.547  1.00  0.00     0.293 HD
ENDBRANCH  15  19
BRANCH  16  21
ATOM     21  O   UNL     1      42.527  18.150  -1.631  1.00  0.00    -0.504 OA
ATOM     22  H   UNL     1      42.903  18.304  -0.704  1.00  0.00     0.293 HD
ENDBRANCH  16  21
ENDBRANCH   1  11
BRANCH  10  23
ATOM     23  O   UNL     1      44.863  14.072  -3.135  1.00  0.00    -0.500 OA
ATOM     24  H   UNL     1      44.478  13.237  -3.563  1.00  0.00     0.294 HD
ENDBRANCH  10  23
BRANCH   5  25
ATOM     25  O   UNL     1      52.191  15.757  -5.055  1.00  0.00    -0.507 OA
ATOM     26  H   UNL     1      52.354  16.043  -6.014  1.00  0.00     0.293 HD
ENDBRANCH   5  25
BRANCH   7  27
ATOM     27  O   UNL     1      49.642  11.973  -3.512  1.00  0.00    -0.507 OA
ATOM     28  H   UNL     1      48.815  11.461  -3.242  1.00  0.00     0.293 HD
ENDBRANCH   7  27
TORSDOF 7
ENDMDL
MODEL 6
REMARK VINA RESULT:    -5.348      1.956      7.263
REMARK INTER + INTRA:          -6.370
REMARK INTER:                  -6.058
REMARK INTRA:                  -0.312
REMARK UNBOUND:                 0.229
REMARK SMILES Oc1cc(O)c2cc(O)c(-c3cc(O)c(O)c(O)c3)[o+]c2c1
REMARK SMILES IDX 10 1 20 2 21 3 22 4 2 5 3 6 4 7 6 8 7 9 8 10 11 11 12 12
REMARK SMILES IDX 13 13 19 14 15 15 17 16 14 17 16 19 18 21 9 23 1 25 5 27
REMARK H PARENT 14 18 16 20 18 22 9 24 1 26 5 28
REMARK Flexibility Score: inf
ROOT
ATOM      1  C   UNL     1      43.889  16.832  -3.337  1.00  0.00     0.402 A 
ATOM      2  O   UNL     1      43.753  17.879  -2.527  1.00  0.00    -0.202 OA
ATOM      3  C   UNL     1      42.610  18.539  -2.372  1.00  0.00     0.368 A 
ATOM      4  C   UNL     1      42.567  19.630  -1.499  1.00  0.00     0.162 A 
ATOM      5  C   UNL     1      41.382  20.342  -1.318  1.00  0.00     0.128 A 
ATOM      6  C   UNL     1      40.228  19.964  -2.015  1.00  0.00     0.093 A 
ATOM      7  C   UNL     1      40.245  18.874  -2.895  1.00  0.00     0.136 A 
ATOM      8  C   UNL     1      41.449  18.145  -3.080  1.00  0.00     0.125 A 
ATOM      9  C   UNL     1      41.555  17.033  -3.930  1.00  0.00     0.078 A 
ATOM     10  C   UNL     1      42.775  16.362  -4.057  1.00  0.00     0.223 A 
ENDROOT
BRANCH   1  11
ATOM     11  C   UNL     1      45.219  16.188  -3.433  1.00  0.00     0.091 A 
ATOM     12  C   UNL     1      45.442  14.968  -2.776  1.00  0.00     0.068 A 
ATOM     13  C   UNL     1      46.694  14.346  -2.832  1.00  0.00     0.162 A 
ATOM     14  C   UNL     1      46.280  16.798  -4.121  1.00  0.00     0.068 A 
ATOM     15  C   UNL     1      47.746  14.950  -3.539  1.00  0.00     0.200 A 
ATOM     16  C   UNL     1      47.538  16.182  -4.182  1.00  0.00     0.162 A 
BRANCH  13  17
ATOM     17  O   UNL     1      46.871  13.127  -2.177  1.00  0.00    -0.504 OA
ATOM     18  H   UNL     1      46.666  12.241  -2.624  1.00  0.00     0.293 HD
ENDBRANCH  13  17
BRANCH  15  19
ATOM     19  O   UNL     1      48.991  14.320  -3.594  1.00  0.00    -0.502 OA
ATOM     20  H   UNL     1      49.415  13.891  -2.780  1.00  0.00     0.293 HD
ENDBRANCH  15  19
BRANCH  16  21
ATOM     21  O   UNL     1      48.583  16.795  -4.874  1.00  0.00    -0.504 OA
ATOM     22  H   UNL     1      49.544  16.499  -4.754  1.00  0.00     0.293 HD
ENDBRANCH  16  21
ENDBRANCH   1  11
BRANCH  10  23
ATOM     23  O   UNL     1      42.869  15.228  -4.863  1.00  0.00    -0.500 OA
ATOM     24  H   UNL     1      42.600  15.245  -5.841  1.00  0.00     0.294 HD
ENDBRANCH  10  23
BRANCH   5  25
ATOM     25  O   UNL     1      41.359  21.426  -0.444  1.00  0.00    -0.507 OA
ATOM     26  H   UNL     1      41.315  22.380  -0.784  1.00  0.00     0.293 HD
ENDBRANCH   5  25
BRANCH   7  27
ATOM     27  O   UNL     1      39.053  18.563  -3.555  1.00  0.00    -0.507 OA
ATOM     28  H   UNL     1      38.544  19.204  -4.146  1.00  0.00     0.293 HD
ENDBRANCH   7  27
TORSDOF 7
ENDMDL
MODEL 7
REMARK VINA RESULT:    -5.323      1.952      7.485
REMARK INTER + INTRA:          -6.338
REMARK INTER:                  -6.040
REMARK INTRA:                  -0.299
REMARK UNBOUND:                 0.229
REMARK SMILES Oc1cc(O)c2cc(O)c(-c3cc(O)c(O)c(O)c3)[o+]c2c1
REMARK SMILES IDX 10 1 20 2 21 3 22 4 2 5 3 6 4 7 6 8 7 9 8 10 11 11 12 12
REMARK SMILES IDX 13 13 19 14 15 15 17 16 14 17 16 19 18 21 9 23 1 25 5 27
REMARK H PARENT 14 18 16 20 18 22 9 24 1 26 5 28
REMARK Flexibility Score: inf
ROOT
ATOM      1  C   UNL     1      43.887  16.837  -3.299  1.00  0.00     0.402 A 
ATOM      2  O   UNL     1      43.737  17.890  -2.500  1.00  0.00    -0.202 OA
ATOM      3  C   UNL     1      42.589  18.546  -2.364  1.00  0.00     0.368 A 
ATOM      4  C   UNL     1      42.531  19.645  -1.502  1.00  0.00     0.162 A 
ATOM      5  C   UNL     1      41.341  20.353  -1.340  1.00  0.00     0.128 A 
ATOM      6  C   UNL     1      40.197  19.963  -2.047  1.00  0.00     0.093 A 
ATOM      7  C   UNL     1      40.228  18.866  -2.917  1.00  0.00     0.136 A 
ATOM      8  C   UNL     1      41.438  18.140  -3.081  1.00  0.00     0.125 A 
ATOM      9  C   UNL     1      41.559  17.021  -3.920  1.00  0.00     0.078 A 
ATOM     10  C   UNL     1      42.783  16.355  -4.027  1.00  0.00     0.223 A 
ENDROOT
BRANCH   1  11
ATOM     11  C   UNL     1      45.221  16.198  -3.373  1.00  0.00     0.091 A 
ATOM     12  C   UNL     1      46.244  16.823  -4.102  1.00  0.00     0.068 A 
ATOM     13  C   UNL     1      47.508  16.232  -4.207  1.00  0.00     0.162 A 
ATOM     14  C   UNL     1      45.469  14.951  -2.777  1.00  0.00     0.068 A 
ATOM     15  C   UNL     1      47.758  14.995  -3.591  1.00  0.00     0.200 A 
ATOM     16  C   UNL     1      46.732  14.352  -2.877  1.00  0.00     0.162 A 
BRANCH  13  17
ATOM     17  O   UNL     1      48.503  16.893  -4.928  1.00  0.00    -0.504 OA
ATOM     18  H   UNL     1      49.457  16.554  -4.965  1.00  0.00     0.293 HD
ENDBRANCH  13  17
BRANCH  15  19
ATOM     19  O   UNL     1      49.024  14.415  -3.697  1.00  0.00    -0.502 OA
ATOM     20  H   UNL     1      49.710  14.736  -4.369  1.00  0.00     0.293 HD
ENDBRANCH  15  19
BRANCH  16  21
ATOM     21  O   UNL     1      46.969  13.116  -2.276  1.00  0.00    -0.504 OA
ATOM     22  H   UNL     1      46.231  12.433  -2.157  1.00  0.00     0.293 HD
ENDBRANCH  16  21
ENDBRANCH   1  11
BRANCH  10  23
ATOM     23  O   UNL     1      42.891  15.214  -4.822  1.00  0.00    -0.500 OA
ATOM     24  H   UNL     1      42.128  14.900  -5.411  1.00  0.00     0.294 HD
ENDBRANCH  10  23
BRANCH   5  25
ATOM     25  O   UNL     1      41.303  21.445  -0.476  1.00  0.00    -0.507 OA
ATOM     26  H   UNL     1      41.054  22.371  -0.804  1.00  0.00     0.293 HD
ENDBRANCH   5  25
BRANCH   7  27
ATOM     27  O   UNL     1      39.045  18.542  -3.587  1.00  0.00    -0.507 OA
ATOM     28  H   UNL     1      38.298  17.991  -3.191  1.00  0.00     0.293 HD
ENDBRANCH   7  27
TORSDOF 7
ENDMDL
MODEL 8
REMARK VINA RESULT:    -5.311      1.395      7.231
REMARK INTER + INTRA:          -6.324
REMARK INTER:                  -6.396
REMARK INTRA:                   0.072
REMARK UNBOUND:                 0.229
REMARK SMILES Oc1cc(O)c2cc(O)c(-c3cc(O)c(O)c(O)c3)[o+]c2c1
REMARK SMILES IDX 10 1 20 2 21 3 22 4 2 5 3 6 4 7 6 8 7 9 8 10 11 11 12 12
REMARK SMILES IDX 13 13 19 14 15 15 17 16 14 17 16 19 18 21 9 23 1 25 5 27
REMARK H PARENT 14 18 16 20 18 22 9 24 1 26 5 28
REMARK Flexibility Score: inf
ROOT
ATOM      1  C   UNL     1      44.676  15.920  -2.888  1.00  0.00     0.402 A 
ATOM      2  O   UNL     1      44.557  17.241  -2.792  1.00  0.00    -0.202 OA
ATOM      3  C   UNL     1      43.394  17.858  -2.610  1.00  0.00     0.368 A 
ATOM      4  C   UNL     1      43.369  19.253  -2.525  1.00  0.00     0.162 A 
ATOM      5  C   UNL     1      42.163  19.927  -2.336  1.00  0.00     0.128 A 
ATOM      6  C   UNL     1      40.969  19.204  -2.234  1.00  0.00     0.093 A 
ATOM      7  C   UNL     1      40.966  17.805  -2.316  1.00  0.00     0.136 A 
ATOM      8  C   UNL     1      42.193  17.116  -2.504  1.00  0.00     0.125 A 
ATOM      9  C   UNL     1      42.287  15.717  -2.585  1.00  0.00     0.078 A 
ATOM     10  C   UNL     1      43.532  15.108  -2.767  1.00  0.00     0.223 A 
ENDROOT
BRANCH   1  11
ATOM     11  C   UNL     1      46.027  15.351  -3.102  1.00  0.00     0.091 A 
ATOM     12  C   UNL     1      46.430  14.233  -2.356  1.00  0.00     0.068 A 
ATOM     13  C   UNL     1      47.707  13.687  -2.522  1.00  0.00     0.162 A 
ATOM     14  C   UNL     1      46.936  15.941  -3.995  1.00  0.00     0.068 A 
ATOM     15  C   UNL     1      48.605  14.267  -3.432  1.00  0.00     0.200 A 
ATOM     16  C   UNL     1      48.218  15.401  -4.167  1.00  0.00     0.162 A 
BRANCH  13  17
ATOM     17  O   UNL     1      48.063  12.567  -1.772  1.00  0.00    -0.504 OA
ATOM     18  H   UNL     1      49.015  12.220  -1.740  1.00  0.00     0.293 HD
ENDBRANCH  13  17
BRANCH  15  19
ATOM     19  O   UNL     1      49.876  13.713  -3.595  1.00  0.00    -0.502 OA
ATOM     20  H   UNL     1      50.264  13.049  -2.936  1.00  0.00     0.293 HD
ENDBRANCH  15  19
BRANCH  16  21
ATOM     21  O   UNL     1      49.110  15.991  -5.062  1.00  0.00    -0.504 OA
ATOM     22  H   UNL     1      48.955  16.921  -5.432  1.00  0.00     0.293 HD
ENDBRANCH  16  21
ENDBRANCH   1  11
BRANCH  10  23
ATOM     23  O   UNL     1      43.633  13.717  -2.798  1.00  0.00    -0.500 OA
ATOM     24  H   UNL     1      44.476  13.237  -2.502  1.00  0.00     0.294 HD
ENDBRANCH  10  23
BRANCH   5  25
ATOM     25  O   UNL     1      42.159  21.318  -2.253  1.00  0.00    -0.507 OA
ATOM     26  H   UNL     1      43.019  21.853  -2.284  1.00  0.00     0.293 HD
ENDBRANCH   5  25
BRANCH   7  27
ATOM     27  O   UNL     1      39.733  17.157  -2.207  1.00  0.00    -0.507 OA
ATOM     28  H   UNL     1      38.839  17.626  -2.220  1.00  0.00     0.293 HD
ENDBRANCH   7  27
TORSDOF 7
ENDMDL
MODEL 9
REMARK VINA RESULT:    -5.234      1.379      6.753
REMARK INTER + INTRA:          -6.228
REMARK INTER:                  -6.417
REMARK INTRA:                   0.189
REMARK UNBOUND:                 0.229
REMARK SMILES Oc1cc(O)c2cc(O)c(-c3cc(O)c(O)c(O)c3)[o+]c2c1
REMARK SMILES IDX 10 1 20 2 21 3 22 4 2 5 3 6 4 7 6 8 7 9 8 10 11 11 12 12
REMARK SMILES IDX 13 13 19 14 15 15 17 16 14 17 16 19 18 21 9 23 1 25 5 27
REMARK H PARENT 14 18 16 20 18 22 9 24 1 26 5 28
REMARK Flexibility Score: inf
ROOT
ATOM      1  C   UNL     1      45.925  15.672  -3.573  1.00  0.00     0.402 A 
ATOM      2  O   UNL     1      44.881  15.889  -2.778  1.00  0.00    -0.202 OA
ATOM      3  C   UNL     1      44.003  16.867  -2.977  1.00  0.00     0.368 A 
ATOM      4  C   UNL     1      42.939  17.017  -2.083  1.00  0.00     0.162 A 
ATOM      5  C   UNL     1      42.003  18.035  -2.265  1.00  0.00     0.128 A 
ATOM      6  C   UNL     1      42.129  18.912  -3.349  1.00  0.00     0.093 A 
ATOM      7  C   UNL     1      43.186  18.783  -4.259  1.00  0.00     0.136 A 
ATOM      8  C   UNL     1      44.139  17.746  -4.078  1.00  0.00     0.125 A 
ATOM      9  C   UNL     1      45.222  17.533  -4.946  1.00  0.00     0.078 A 
ATOM     10  C   UNL     1      46.117  16.486  -4.706  1.00  0.00     0.223 A 
ENDROOT
BRANCH   1  11
ATOM     11  C   UNL     1      46.841  14.557  -3.240  1.00  0.00     0.091 A 
ATOM     12  C   UNL     1      46.363  13.476  -2.484  1.00  0.00     0.068 A 
ATOM     13  C   UNL     1      47.210  12.418  -2.137  1.00  0.00     0.162 A 
ATOM     14  C   UNL     1      48.194  14.584  -3.616  1.00  0.00     0.068 A 
ATOM     15  C   UNL     1      48.557  12.439  -2.533  1.00  0.00     0.200 A 
ATOM     16  C   UNL     1      49.050  13.528  -3.272  1.00  0.00     0.162 A 
BRANCH  13  17
ATOM     17  O   UNL     1      46.692  11.355  -1.397  1.00  0.00    -0.504 OA
ATOM     18  H   UNL     1      47.276  10.600  -1.057  1.00  0.00     0.293 HD
ENDBRANCH  13  17
BRANCH  15  19
ATOM     19  O   UNL     1      49.394  11.377  -2.186  1.00  0.00    -0.502 OA
ATOM     20  H   UNL     1      50.372  11.352  -2.451  1.00  0.00     0.293 HD
ENDBRANCH  15  19
BRANCH  16  21
ATOM     21  O   UNL     1      50.390  13.562  -3.656  1.00  0.00    -0.504 OA
ATOM     22  H   UNL     1      50.689  13.237  -4.567  1.00  0.00     0.293 HD
ENDBRANCH  16  21
ENDBRANCH   1  11
BRANCH  10  23
ATOM     23  O   UNL     1      47.165  16.243  -5.594  1.00  0.00    -0.500 OA
ATOM     24  H   UNL     1      47.115  15.505  -6.287  1.00  0.00     0.294 HD
ENDBRANCH  10  23
BRANCH   5  25
ATOM     25  O   UNL     1      40.949  18.169  -1.364  1.00  0.00    -0.507 OA
ATOM     26  H   UNL     1      40.559  19.076  -1.135  1.00  0.00     0.293 HD
ENDBRANCH   5  25
BRANCH   7  27
ATOM     27  O   UNL     1      43.244  19.700  -5.312  1.00  0.00    -0.507 OA
ATOM     28  H   UNL     1      42.446  19.997  -5.854  1.00  0.00     0.293 HD
ENDBRANCH   7  27
TORSDOF 7
ENDMDL
