MODEL 1
REMARK VINA RESULT:    -2.923      0.000      0.000
REMARK INTER + INTRA:          -3.110
REMARK INTER:                  -3.093
REMARK INTRA:                  -0.017
REMARK UNBOUND:                -0.017
REMARK SMILES O=C([O-])c1cccnc1
REMARK SMILES IDX 4 1 5 2 9 3 6 4 8 5 7 6 2 7 1 8 3 9
REMARK H PARENT
REMARK Flexibility Score: inf
ROOT
ATOM      1  C   UNL     1     -23.976  29.614 -19.046  1.00  0.00     0.016 A 
ATOM      2  C   UNL     1     -24.656  29.996 -20.214  1.00  0.00     0.013 A 
ATOM      3  C   UNL     1     -22.739  28.959 -19.177  1.00  0.00     0.120 A 
ATOM      4  C   UNL     1     -24.103  29.726 -21.467  1.00  0.00     0.021 A 
ATOM      5  N   UNL     1     -22.223  28.709 -20.409  1.00  0.00    -0.264 NA
ATOM      6  C   UNL     1     -22.873  29.074 -21.546  1.00  0.00     0.111 A 
ENDROOT
BRANCH   1   7
ATOM      7  C   UNL     1     -24.545  29.891 -17.709  1.00  0.00     0.073 C 
ATOM      8  O   UNL     1     -24.510  31.054 -17.227  1.00  0.00    -0.545 OA
ATOM      9  O   UNL     1     -25.125  28.869 -16.965  1.00  0.00    -0.545 OA
ENDBRANCH   1   7
TORSDOF 1
ENDMDL
MODEL 2
REMARK VINA RESULT:    -2.914     16.922     17.784
REMARK INTER + INTRA:          -3.101
REMARK INTER:                  -3.085
REMARK INTRA:                  -0.016
REMARK UNBOUND:                -0.017
REMARK SMILES O=C([O-])c1cccnc1
REMARK SMILES IDX 4 1 5 2 9 3 6 4 8 5 7 6 2 7 1 8 3 9
REMARK H PARENT
REMARK Flexibility Score: inf
ROOT
ATOM      1  C   UNL     1     -19.154  13.263 -24.001  1.00  0.00     0.016 A 
ATOM      2  C   UNL     1     -20.280  12.882 -24.749  1.00  0.00     0.013 A 
ATOM      3  C   UNL     1     -19.357  13.888 -22.759  1.00  0.00     0.120 A 
ATOM      4  C   UNL     1     -21.564  13.126 -24.257  1.00  0.00     0.021 A 
ATOM      5  N   UNL     1     -20.618  14.112 -22.302  1.00  0.00    -0.264 NA
ATOM      6  C   UNL     1     -21.714  13.749 -23.018  1.00  0.00     0.111 A 
ENDROOT
BRANCH   1   7
ATOM      7  C   UNL     1     -17.786  13.014 -24.505  1.00  0.00     0.073 C 
ATOM      8  O   UNL     1     -17.254  11.879 -24.379  1.00  0.00    -0.545 OA
ATOM      9  O   UNL     1     -17.068  14.031 -25.125  1.00  0.00    -0.545 OA
ENDBRANCH   1   7
TORSDOF 1
ENDMDL
MODEL 3
REMARK VINA RESULT:    -2.773     16.188     17.062
REMARK INTER + INTRA:          -2.951
REMARK INTER:                  -2.931
REMARK INTRA:                  -0.020
REMARK UNBOUND:                -0.017
REMARK SMILES O=C([O-])c1cccnc1
REMARK SMILES IDX 4 1 5 2 9 3 6 4 8 5 7 6 2 7 1 8 3 9
REMARK H PARENT
REMARK Flexibility Score: inf
ROOT
ATOM      1  C   UNL     1     -19.938  13.672 -23.212  1.00  0.00     0.016 A 
ATOM      2  C   UNL     1     -19.407  13.045 -24.351  1.00  0.00     0.013 A 
ATOM      3  C   UNL     1     -19.052  14.087 -22.203  1.00  0.00     0.120 A 
ATOM      4  C   UNL     1     -18.029  12.847 -24.464  1.00  0.00     0.021 A 
ATOM      5  N   UNL     1     -17.715  13.883 -22.338  1.00  0.00    -0.264 NA
ATOM      6  C   UNL     1     -17.190  13.277 -23.436  1.00  0.00     0.111 A 
ENDROOT
BRANCH   1   7
ATOM      7  C   UNL     1     -21.394  13.891 -23.073  1.00  0.00     0.073 C 
ATOM      8  O   UNL     1     -22.212  12.996 -23.416  1.00  0.00    -0.545 OA
ATOM      9  O   UNL     1     -21.881  15.089 -22.561  1.00  0.00    -0.545 OA
ENDBRANCH   1   7
TORSDOF 1
ENDMDL
MODEL 4
REMARK VINA RESULT:    -2.745      2.748      3.583
REMARK INTER + INTRA:          -2.922
REMARK INTER:                  -2.903
REMARK INTRA:                  -0.020
REMARK UNBOUND:                -0.017
REMARK SMILES O=C([O-])c1cccnc1
REMARK SMILES IDX 4 1 5 2 9 3 6 4 8 5 7 6 2 7 1 8 3 9
REMARK H PARENT
REMARK Flexibility Score: inf
ROOT
ATOM      1  C   UNL     1     -23.274  29.272 -19.887  1.00  0.00     0.016 A 
ATOM      2  C   UNL     1     -24.371  29.954 -19.336  1.00  0.00     0.013 A 
ATOM      3  C   UNL     1     -22.268  28.812 -19.021  1.00  0.00     0.120 A 
ATOM      4  C   UNL     1     -24.445  30.162 -17.957  1.00  0.00     0.021 A 
ATOM      5  N   UNL     1     -22.366  29.027 -17.682  1.00  0.00    -0.264 NA
ATOM      6  C   UNL     1     -23.422  29.686 -17.137  1.00  0.00     0.111 A 
ENDROOT
BRANCH   1   7
ATOM      7  C   UNL     1     -23.176  29.042 -21.345  1.00  0.00     0.073 C 
ATOM      8  O   UNL     1     -23.443  29.966 -22.159  1.00  0.00    -0.545 OA
ATOM      9  O   UNL     1     -22.787  27.801 -21.838  1.00  0.00    -0.545 OA
ENDBRANCH   1   7
TORSDOF 1
ENDMDL
MODEL 5
REMARK VINA RESULT:    -2.717      3.250      3.981
REMARK INTER + INTRA:          -2.893
REMARK INTER:                  -2.876
REMARK INTRA:                  -0.017
REMARK UNBOUND:                -0.017
REMARK SMILES O=C([O-])c1cccnc1
REMARK SMILES IDX 4 1 5 2 9 3 6 4 8 5 7 6 2 7 1 8 3 9
REMARK H PARENT
REMARK Flexibility Score: inf
ROOT
ATOM      1  C   UNL     1     -22.347  28.757 -20.733  1.00  0.00     0.016 A 
ATOM      2  C   UNL     1     -23.258  29.291 -21.659  1.00  0.00     0.013 A 
ATOM      3  C   UNL     1     -22.653  28.849 -19.364  1.00  0.00     0.120 A 
ATOM      4  C   UNL     1     -24.436  29.895 -21.215  1.00  0.00     0.021 A 
ATOM      5  N   UNL     1     -23.808  29.442 -18.959  1.00  0.00    -0.264 NA
ATOM      6  C   UNL     1     -24.696  29.962 -19.846  1.00  0.00     0.111 A 
ENDROOT
BRANCH   1   7
ATOM      7  C   UNL     1     -21.093  28.113 -21.182  1.00  0.00     0.073 C 
ATOM      8  O   UNL     1     -21.117  26.979 -21.731  1.00  0.00    -0.545 OA
ATOM      9  O   UNL     1     -19.871  28.751 -21.004  1.00  0.00    -0.545 OA
ENDBRANCH   1   7
TORSDOF 1
ENDMDL
MODEL 6
REMARK VINA RESULT:    -2.711     15.533     16.265
REMARK INTER + INTRA:          -2.886
REMARK INTER:                  -2.869
REMARK INTRA:                  -0.017
REMARK UNBOUND:                -0.017
REMARK SMILES O=C([O-])c1cccnc1
REMARK SMILES IDX 4 1 5 2 9 3 6 4 8 5 7 6 2 7 1 8 3 9
REMARK H PARENT
REMARK Flexibility Score: inf
ROOT
ATOM      1  C   UNL     1     -20.758  14.095 -22.349  1.00  0.00     0.016 A 
ATOM      2  C   UNL     1     -21.718  13.568 -23.228  1.00  0.00     0.013 A 
ATOM      3  C   UNL     1     -19.402  14.005 -22.709  1.00  0.00     0.120 A 
ATOM      4  C   UNL     1     -21.320  12.972 -24.427  1.00  0.00     0.021 A 
ATOM      5  N   UNL     1     -19.042  13.420 -23.882  1.00  0.00    -0.264 NA
ATOM      6  C   UNL     1     -19.963  12.906 -24.740  1.00  0.00     0.111 A 
ENDROOT
BRANCH   1   7
ATOM      7  C   UNL     1     -21.159  14.729 -21.075  1.00  0.00     0.073 C 
ATOM      8  O   UNL     1     -21.690  15.871 -21.068  1.00  0.00    -0.545 OA
ATOM      9  O   UNL     1     -20.953  14.073 -19.866  1.00  0.00    -0.545 OA
ENDBRANCH   1   7
TORSDOF 1
ENDMDL
MODEL 7
REMARK VINA RESULT:    -2.562      2.089      2.458
REMARK INTER + INTRA:          -2.728
REMARK INTER:                  -2.706
REMARK INTRA:                  -0.022
REMARK UNBOUND:                -0.017
REMARK SMILES O=C([O-])c1cccnc1
REMARK SMILES IDX 4 1 5 2 9 3 6 4 8 5 7 6 2 7 1 8 3 9
REMARK H PARENT
REMARK Flexibility Score: inf
ROOT
ATOM      1  C   UNL     1     -22.898  28.876 -19.584  1.00  0.00     0.016 A 
ATOM      2  C   UNL     1     -24.081  29.629 -19.511  1.00  0.00     0.013 A 
ATOM      3  C   UNL     1     -22.661  28.112 -20.739  1.00  0.00     0.120 A 
ATOM      4  C   UNL     1     -24.991  29.609 -20.571  1.00  0.00     0.021 A 
ATOM      5  N   UNL     1     -23.563  28.111 -21.757  1.00  0.00    -0.264 NA
ATOM      6  C   UNL     1     -24.711  28.836 -21.697  1.00  0.00     0.111 A 
ENDROOT
BRANCH   1   7
ATOM      7  C   UNL     1     -21.922  28.883 -18.472  1.00  0.00     0.073 C 
ATOM      8  O   UNL     1     -20.721  28.559 -18.672  1.00  0.00    -0.545 OA
ATOM      9  O   UNL     1     -22.317  29.248 -17.190  1.00  0.00    -0.545 OA
ENDBRANCH   1   7
TORSDOF 1
ENDMDL
MODEL 8
REMARK VINA RESULT:    -2.519     16.011     16.734
REMARK INTER + INTRA:          -2.683
REMARK INTER:                  -2.662
REMARK INTRA:                  -0.021
REMARK UNBOUND:                -0.017
REMARK SMILES O=C([O-])c1cccnc1
REMARK SMILES IDX 4 1 5 2 9 3 6 4 8 5 7 6 2 7 1 8 3 9
REMARK H PARENT
REMARK Flexibility Score: inf
ROOT
ATOM      1  C   UNL     1     -20.601  13.830 -22.889  1.00  0.00     0.016 A 
ATOM      2  C   UNL     1     -19.213  13.736 -23.083  1.00  0.00     0.013 A 
ATOM      3  C   UNL     1     -21.075  14.190 -21.616  1.00  0.00     0.120 A 
ATOM      4  C   UNL     1     -18.338  13.998 -22.027  1.00  0.00     0.021 A 
ATOM      5  N   UNL     1     -20.201  14.440 -20.605  1.00  0.00    -0.264 NA
ATOM      6  C   UNL     1     -18.857  14.352 -20.781  1.00  0.00     0.111 A 
ENDROOT
BRANCH   1   7
ATOM      7  C   UNL     1     -21.545  13.557 -23.995  1.00  0.00     0.073 C 
ATOM      8  O   UNL     1     -22.602  14.230 -24.115  1.00  0.00    -0.545 OA
ATOM      9  O   UNL     1     -21.277  12.551 -24.917  1.00  0.00    -0.545 OA
ENDBRANCH   1   7
TORSDOF 1
ENDMDL
