MODEL 1
REMARK VINA RESULT:    -7.485      0.000      0.000
REMARK INTER + INTRA:          -7.485
REMARK INTER:                  -7.485
REMARK INTRA:                   0.000
REMARK UNBOUND:                 0.000
REMARK SMILES C=C1CCC[C@@]2(C)CC(=O)C(=C(C)C)C[C@H]12
REMARK SMILES IDX 13 1 12 2 11 3 15 4 16 5 2 6 1 7 3 8 4 9 5 10 6 11 8 12 9 13
REMARK SMILES IDX 10 14 7 15 14 16
REMARK H PARENT
REMARK Flexibility Score: inf
ROOT
ATOM      1  C   UNL     1       0.261 -13.286  28.988  1.00  0.00     0.039 C 
ATOM      2  C   UNL     1      -0.630 -13.078  30.192  1.00  0.00    -0.070 C 
ATOM      3  C   UNL     1      -1.991 -13.123  30.082  1.00  0.00    -0.006 C 
ATOM      4  C   UNL     1      -2.661 -13.408  28.744  1.00  0.00     0.047 C 
ATOM      5  C   UNL     1      -4.050 -14.086  28.881  1.00  0.00     0.025 C 
ATOM      6  C   UNL     1      -4.799 -14.279  27.557  1.00  0.00    -0.073 C 
ATOM      7  C   UNL     1      -4.258 -14.043  26.348  1.00  0.00     0.008 C 
ATOM      8  C   UNL     1      -6.221 -14.789  27.614  1.00  0.00     0.031 C 
ATOM      9  C   UNL     1      -6.605 -15.229  29.028  1.00  0.00     0.005 C 
ATOM     10  C   UNL     1      -6.361 -14.117  30.063  1.00  0.00     0.008 C 
ATOM     11  C   UNL     1      -4.981 -13.369  29.916  1.00  0.00    -0.018 C 
ATOM     12  C   UNL     1      -4.268 -13.368  31.291  1.00  0.00     0.088 C 
ATOM     13  C   UNL     1      -2.892 -12.776  31.217  1.00  0.00     0.159 C 
ATOM     14  O   UNL     1      -2.530 -11.975  32.120  1.00  0.00    -0.295 OA
ATOM     15  C   UNL     1      -5.263 -11.902  29.486  1.00  0.00     0.012 C 
ATOM     16  C   UNL     1       0.056 -12.857  31.520  1.00  0.00     0.039 C 
ENDROOT
TORSDOF 0
ENDMDL
MODEL 2
REMARK VINA RESULT:    -6.593      1.636      3.770
REMARK INTER + INTRA:          -6.593
REMARK INTER:                  -6.593
REMARK INTRA:                   0.000
REMARK UNBOUND:                 0.000
REMARK SMILES C=C1CCC[C@@]2(C)CC(=O)C(=C(C)C)C[C@H]12
REMARK SMILES IDX 13 1 12 2 11 3 15 4 16 5 2 6 1 7 3 8 4 9 5 10 6 11 8 12 9 13
REMARK SMILES IDX 10 14 7 15 14 16
REMARK H PARENT
REMARK Flexibility Score: inf
ROOT
ATOM      1  C   UNL     1      -6.008 -15.024  31.684  1.00  0.00     0.039 C 
ATOM      2  C   UNL     1      -5.085 -13.844  31.894  1.00  0.00    -0.070 C 
ATOM      3  C   UNL     1      -4.346 -13.331  30.865  1.00  0.00    -0.006 C 
ATOM      4  C   UNL     1      -4.441 -13.918  29.462  1.00  0.00     0.047 C 
ATOM      5  C   UNL     1      -4.136 -12.889  28.341  1.00  0.00     0.025 C 
ATOM      6  C   UNL     1      -4.110 -13.477  26.926  1.00  0.00    -0.073 C 
ATOM      7  C   UNL     1      -4.479 -14.737  26.630  1.00  0.00     0.008 C 
ATOM      8  C   UNL     1      -3.667 -12.580  25.792  1.00  0.00     0.031 C 
ATOM      9  C   UNL     1      -3.510 -11.128  26.251  1.00  0.00     0.005 C 
ATOM     10  C   UNL     1      -2.575 -11.008  27.467  1.00  0.00     0.008 C 
ATOM     11  C   UNL     1      -2.823 -12.076  28.600  1.00  0.00    -0.018 C 
ATOM     12  C   UNL     1      -2.969 -11.337  29.954  1.00  0.00     0.088 C 
ATOM     13  C   UNL     1      -3.322 -12.269  31.074  1.00  0.00     0.159 C 
ATOM     14  O   UNL     1      -2.726 -12.142  32.177  1.00  0.00    -0.295 OA
ATOM     15  C   UNL     1      -1.588 -13.019  28.663  1.00  0.00     0.012 C 
ATOM     16  C   UNL     1      -5.050 -13.240  33.278  1.00  0.00     0.039 C 
ENDROOT
TORSDOF 0
ENDMDL
MODEL 3
REMARK VINA RESULT:    -6.497      1.969      5.353
REMARK INTER + INTRA:          -6.497
REMARK INTER:                  -6.497
REMARK INTRA:                   0.000
REMARK UNBOUND:                 0.000
REMARK SMILES C=C1CCC[C@@]2(C)CC(=O)C(=C(C)C)C[C@H]12
REMARK SMILES IDX 13 1 12 2 11 3 15 4 16 5 2 6 1 7 3 8 4 9 5 10 6 11 8 12 9 13
REMARK SMILES IDX 10 14 7 15 14 16
REMARK H PARENT
REMARK Flexibility Score: inf
ROOT
ATOM      1  C   UNL     1      -7.060 -14.499  29.124  1.00  0.00     0.039 C 
ATOM      2  C   UNL     1      -5.874 -14.383  28.194  1.00  0.00    -0.070 C 
ATOM      3  C   UNL     1      -4.763 -13.669  28.548  1.00  0.00    -0.006 C 
ATOM      4  C   UNL     1      -4.672 -12.982  29.905  1.00  0.00     0.047 C 
ATOM      5  C   UNL     1      -3.218 -12.832  30.424  1.00  0.00     0.025 C 
ATOM      6  C   UNL     1      -3.085 -12.041  31.730  1.00  0.00    -0.073 C 
ATOM      7  C   UNL     1      -4.133 -11.641  32.475  1.00  0.00     0.008 C 
ATOM      8  C   UNL     1      -1.694 -11.713  32.224  1.00  0.00     0.031 C 
ATOM      9  C   UNL     1      -0.622 -12.432  31.403  1.00  0.00     0.005 C 
ATOM     10  C   UNL     1      -0.768 -12.153  29.897  1.00  0.00     0.008 C 
ATOM     11  C   UNL     1      -2.243 -12.243  29.349  1.00  0.00    -0.018 C 
ATOM     12  C   UNL     1      -2.257 -13.181  28.115  1.00  0.00     0.088 C 
ATOM     13  C   UNL     1      -3.645 -13.416  27.597  1.00  0.00     0.159 C 
ATOM     14  O   UNL     1      -3.840 -13.376  26.353  1.00  0.00    -0.295 OA
ATOM     15  C   UNL     1      -2.691 -10.820  28.913  1.00  0.00     0.012 C 
ATOM     16  C   UNL     1      -5.960 -15.122  26.879  1.00  0.00     0.039 C 
ENDROOT
TORSDOF 0
ENDMDL
MODEL 4
REMARK VINA RESULT:    -6.291      2.406      4.074
REMARK INTER + INTRA:          -6.291
REMARK INTER:                  -6.291
REMARK INTRA:                   0.000
REMARK UNBOUND:                 0.000
REMARK SMILES C=C1CCC[C@@]2(C)CC(=O)C(=C(C)C)C[C@H]12
REMARK SMILES IDX 13 1 12 2 11 3 15 4 16 5 2 6 1 7 3 8 4 9 5 10 6 11 8 12 9 13
REMARK SMILES IDX 10 14 7 15 14 16
REMARK H PARENT
REMARK Flexibility Score: inf
ROOT
ATOM      1  C   UNL     1      -4.990 -15.192  32.798  1.00  0.00     0.039 C 
ATOM      2  C   UNL     1      -5.094 -13.687  32.900  1.00  0.00    -0.070 C 
ATOM      3  C   UNL     1      -4.505 -12.872  31.975  1.00  0.00    -0.006 C 
ATOM      4  C   UNL     1      -3.740 -13.451  30.792  1.00  0.00     0.047 C 
ATOM      5  C   UNL     1      -3.741 -12.529  29.544  1.00  0.00     0.025 C 
ATOM      6  C   UNL     1      -2.883 -13.032  28.378  1.00  0.00    -0.073 C 
ATOM      7  C   UNL     1      -2.300 -14.244  28.344  1.00  0.00     0.008 C 
ATOM      8  C   UNL     1      -2.702 -12.121  27.185  1.00  0.00     0.031 C 
ATOM      9  C   UNL     1      -3.609 -10.892  27.273  1.00  0.00     0.005 C 
ATOM     10  C   UNL     1      -3.423 -10.133  28.598  1.00  0.00     0.008 C 
ATOM     11  C   UNL     1      -3.361 -11.047  29.880  1.00  0.00    -0.018 C 
ATOM     12  C   UNL     1      -4.375 -10.510  30.921  1.00  0.00     0.088 C 
ATOM     13  C   UNL     1      -4.466 -11.391  32.132  1.00  0.00     0.159 C 
ATOM     14  O   UNL     1      -4.491 -10.852  33.270  1.00  0.00    -0.295 OA
ATOM     15  C   UNL     1      -1.926 -10.963  30.473  1.00  0.00     0.012 C 
ATOM     16  C   UNL     1      -5.907 -13.134  34.047  1.00  0.00     0.039 C 
ENDROOT
TORSDOF 0
ENDMDL
MODEL 5
REMARK VINA RESULT:    -6.237      2.683      5.291
REMARK INTER + INTRA:          -6.237
REMARK INTER:                  -6.237
REMARK INTRA:                   0.000
REMARK UNBOUND:                 0.000
REMARK SMILES C=C1CCC[C@@]2(C)CC(=O)C(=C(C)C)C[C@H]12
REMARK SMILES IDX 13 1 12 2 11 3 15 4 16 5 2 6 1 7 3 8 4 9 5 10 6 11 8 12 9 13
REMARK SMILES IDX 10 14 7 15 14 16
REMARK H PARENT
REMARK Flexibility Score: inf
ROOT
ATOM      1  C   UNL     1      -6.057 -10.300  34.556  1.00  0.00     0.039 C 
ATOM      2  C   UNL     1      -5.958 -11.789  34.311  1.00  0.00    -0.070 C 
ATOM      3  C   UNL     1      -5.177 -12.292  33.308  1.00  0.00    -0.006 C 
ATOM      4  C   UNL     1      -4.360 -11.369  32.413  1.00  0.00     0.047 C 
ATOM      5  C   UNL     1      -3.081 -12.036  31.843  1.00  0.00     0.025 C 
ATOM      6  C   UNL     1      -2.299 -11.172  30.847  1.00  0.00    -0.073 C 
ATOM      7  C   UNL     1      -2.579  -9.880  30.594  1.00  0.00     0.008 C 
ATOM      8  C   UNL     1      -1.129 -11.801  30.125  1.00  0.00     0.031 C 
ATOM      9  C   UNL     1      -0.797 -13.184  30.690  1.00  0.00     0.005 C 
ATOM     10  C   UNL     1      -2.024 -14.112  30.696  1.00  0.00     0.008 C 
ATOM     11  C   UNL     1      -3.354 -13.446  31.218  1.00  0.00    -0.018 C 
ATOM     12  C   UNL     1      -3.966 -14.353  32.315  1.00  0.00     0.088 C 
ATOM     13  C   UNL     1      -5.177 -13.738  32.951  1.00  0.00     0.159 C 
ATOM     14  O   UNL     1      -6.186 -14.464  33.155  1.00  0.00    -0.295 OA
ATOM     15  C   UNL     1      -4.350 -13.343  30.028  1.00  0.00     0.012 C 
ATOM     16  C   UNL     1      -6.729 -12.689  35.247  1.00  0.00     0.039 C 
ENDROOT
TORSDOF 0
ENDMDL
MODEL 6
REMARK VINA RESULT:    -6.211      2.044      4.826
REMARK INTER + INTRA:          -6.211
REMARK INTER:                  -6.211
REMARK INTRA:                   0.000
REMARK UNBOUND:                 0.000
REMARK SMILES C=C1CCC[C@@]2(C)CC(=O)C(=C(C)C)C[C@H]12
REMARK SMILES IDX 13 1 12 2 11 3 15 4 16 5 2 6 1 7 3 8 4 9 5 10 6 11 8 12 9 13
REMARK SMILES IDX 10 14 7 15 14 16
REMARK H PARENT
REMARK Flexibility Score: inf
ROOT
ATOM      1  C   UNL     1      -6.667 -14.752  27.632  1.00  0.00     0.039 C 
ATOM      2  C   UNL     1      -6.557 -14.798  29.140  1.00  0.00    -0.070 C 
ATOM      3  C   UNL     1      -5.593 -14.091  29.802  1.00  0.00    -0.006 C 
ATOM      4  C   UNL     1      -4.606 -13.212  29.045  1.00  0.00     0.047 C 
ATOM      5  C   UNL     1      -4.080 -12.014  29.879  1.00  0.00     0.025 C 
ATOM      6  C   UNL     1      -2.998 -11.179  29.185  1.00  0.00    -0.073 C 
ATOM      7  C   UNL     1      -2.632 -11.343  27.901  1.00  0.00     0.008 C 
ATOM      8  C   UNL     1      -2.320 -10.089  29.985  1.00  0.00     0.031 C 
ATOM      9  C   UNL     1      -3.004  -9.875  31.337  1.00  0.00     0.005 C 
ATOM     10  C   UNL     1      -3.112 -11.183  32.140  1.00  0.00     0.008 C 
ATOM     11  C   UNL     1      -3.590 -12.432  31.307  1.00  0.00    -0.018 C 
ATOM     12  C   UNL     1      -4.775 -13.100  32.050  1.00  0.00     0.088 C 
ATOM     13  C   UNL     1      -5.369 -14.234  31.268  1.00  0.00     0.159 C 
ATOM     14  O   UNL     1      -5.654 -15.301  31.874  1.00  0.00    -0.295 OA
ATOM     15  C   UNL     1      -2.411 -13.441  31.216  1.00  0.00     0.012 C 
ATOM     16  C   UNL     1      -7.583 -15.628  29.875  1.00  0.00     0.039 C 
ENDROOT
TORSDOF 0
ENDMDL
MODEL 7
REMARK VINA RESULT:    -6.110      1.845      5.206
REMARK INTER + INTRA:          -6.110
REMARK INTER:                  -6.110
REMARK INTRA:                   0.000
REMARK UNBOUND:                 0.000
REMARK SMILES C=C1CCC[C@@]2(C)CC(=O)C(=C(C)C)C[C@H]12
REMARK SMILES IDX 13 1 12 2 11 3 15 4 16 5 2 6 1 7 3 8 4 9 5 10 6 11 8 12 9 13
REMARK SMILES IDX 10 14 7 15 14 16
REMARK H PARENT
REMARK Flexibility Score: inf
ROOT
ATOM      1  C   UNL     1      -5.970 -14.717  32.499  1.00  0.00     0.039 C 
ATOM      2  C   UNL     1      -5.919 -14.718  30.988  1.00  0.00    -0.070 C 
ATOM      3  C   UNL     1      -4.870 -14.158  30.313  1.00  0.00    -0.006 C 
ATOM      4  C   UNL     1      -3.702 -13.531  31.062  1.00  0.00     0.047 C 
ATOM      5  C   UNL     1      -2.367 -13.577  30.274  1.00  0.00     0.025 C 
ATOM      6  C   UNL     1      -1.199 -12.851  30.951  1.00  0.00    -0.073 C 
ATOM      7  C   UNL     1      -1.251 -12.350  32.199  1.00  0.00     0.008 C 
ATOM      8  C   UNL     1       0.094 -12.713  30.181  1.00  0.00     0.031 C 
ATOM      9  C   UNL     1       0.070 -13.531  28.888  1.00  0.00     0.005 C 
ATOM     10  C   UNL     1      -1.149 -13.189  28.014  1.00  0.00     0.008 C 
ATOM     11  C   UNL     1      -2.513 -13.079  28.796  1.00  0.00    -0.018 C 
ATOM     12  C   UNL     1      -3.564 -13.968  28.086  1.00  0.00     0.088 C 
ATOM     13  C   UNL     1      -4.866 -14.014  28.831  1.00  0.00     0.159 C 
ATOM     14  O   UNL     1      -5.939 -13.911  28.179  1.00  0.00    -0.295 OA
ATOM     15  C   UNL     1      -2.984 -11.598  28.753  1.00  0.00     0.012 C 
ATOM     16  C   UNL     1      -7.059 -15.398  30.265  1.00  0.00     0.039 C 
ENDROOT
TORSDOF 0
ENDMDL
MODEL 8
REMARK VINA RESULT:    -5.680      1.651      3.483
REMARK INTER + INTRA:          -5.680
REMARK INTER:                  -5.680
REMARK INTRA:                   0.000
REMARK UNBOUND:                 0.000
REMARK SMILES C=C1CCC[C@@]2(C)CC(=O)C(=C(C)C)C[C@H]12
REMARK SMILES IDX 13 1 12 2 11 3 15 4 16 5 2 6 1 7 3 8 4 9 5 10 6 11 8 12 9 13
REMARK SMILES IDX 10 14 7 15 14 16
REMARK H PARENT
REMARK Flexibility Score: inf
ROOT
ATOM      1  C   UNL     1      -5.009 -11.320  32.999  1.00  0.00     0.039 C 
ATOM      2  C   UNL     1      -3.797 -10.995  32.155  1.00  0.00    -0.070 C 
ATOM      3  C   UNL     1      -3.544 -11.664  30.991  1.00  0.00    -0.006 C 
ATOM      4  C   UNL     1      -4.488 -12.749  30.488  1.00  0.00     0.047 C 
ATOM      5  C   UNL     1      -4.480 -12.908  28.945  1.00  0.00     0.025 C 
ATOM      6  C   UNL     1      -5.331 -14.069  28.419  1.00  0.00    -0.073 C 
ATOM      7  C   UNL     1      -6.158 -14.802  29.187  1.00  0.00     0.008 C 
ATOM      8  C   UNL     1      -5.257 -14.393  26.944  1.00  0.00     0.031 C 
ATOM      9  C   UNL     1      -4.465 -13.333  26.174  1.00  0.00     0.005 C 
ATOM     10  C   UNL     1      -3.068 -13.110  26.776  1.00  0.00     0.008 C 
ATOM     11  C   UNL     1      -3.035 -13.000  28.348  1.00  0.00    -0.018 C 
ATOM     12  C   UNL     1      -2.266 -11.713  28.740  1.00  0.00     0.088 C 
ATOM     13  C   UNL     1      -2.285 -11.467  30.219  1.00  0.00     0.159 C 
ATOM     14  O   UNL     1      -1.218 -11.112  30.786  1.00  0.00    -0.295 OA
ATOM     15  C   UNL     1      -2.279 -14.237  28.910  1.00  0.00     0.012 C 
ATOM     16  C   UNL     1      -2.907  -9.875  32.641  1.00  0.00     0.039 C 
ENDROOT
TORSDOF 0
ENDMDL
MODEL 9
REMARK VINA RESULT:    -5.601      1.947      3.837
REMARK INTER + INTRA:          -5.601
REMARK INTER:                  -5.601
REMARK INTRA:                   0.000
REMARK UNBOUND:                 0.000
REMARK SMILES C=C1CCC[C@@]2(C)CC(=O)C(=C(C)C)C[C@H]12
REMARK SMILES IDX 13 1 12 2 11 3 15 4 16 5 2 6 1 7 3 8 4 9 5 10 6 11 8 12 9 13
REMARK SMILES IDX 10 14 7 15 14 16
REMARK H PARENT
REMARK Flexibility Score: inf
ROOT
ATOM      1  C   UNL     1       0.556 -12.852  31.209  1.00  0.00     0.039 C 
ATOM      2  C   UNL     1      -0.247 -13.224  29.982  1.00  0.00    -0.070 C 
ATOM      3  C   UNL     1      -1.577 -12.924  29.888  1.00  0.00    -0.006 C 
ATOM      4  C   UNL     1      -2.295 -12.185  31.009  1.00  0.00     0.047 C 
ATOM      5  C   UNL     1      -3.505 -11.346  30.519  1.00  0.00     0.025 C 
ATOM      6  C   UNL     1      -4.318 -10.684  31.637  1.00  0.00    -0.073 C 
ATOM      7  C   UNL     1      -3.945 -10.674  32.930  1.00  0.00     0.008 C 
ATOM      8  C   UNL     1      -5.601  -9.978  31.261  1.00  0.00     0.031 C 
ATOM      9  C   UNL     1      -5.762  -9.875  29.742  1.00  0.00     0.005 C 
ATOM     10  C   UNL     1      -5.648 -11.248  29.058  1.00  0.00     0.008 C 
ATOM     11  C   UNL     1      -4.462 -12.148  29.574  1.00  0.00    -0.018 C 
ATOM     12  C   UNL     1      -3.642 -12.636  28.353  1.00  0.00     0.088 C 
ATOM     13  C   UNL     1      -2.422 -13.407  28.761  1.00  0.00     0.159 C 
ATOM     14  O   UNL     1      -2.145 -14.470  28.142  1.00  0.00    -0.295 OA
ATOM     15  C   UNL     1      -5.065 -13.379  30.309  1.00  0.00     0.012 C 
ATOM     16  C   UNL     1       0.499 -13.903  28.858  1.00  0.00     0.039 C 
ENDROOT
TORSDOF 0
ENDMDL
