MODEL 1
REMARK VINA RESULT:    -4.853      0.000      0.000
REMARK INTER + INTRA:          -5.629
REMARK INTER:                  -5.421
REMARK INTRA:                  -0.208
REMARK UNBOUND:                -0.208
REMARK SMILES O=C([O-])C=Cc1ccccc1
REMARK SMILES IDX 4 1 5 2 2 3 1 4 3 5 6 6 7 7 11 8 8 9 10 10 9 11
REMARK H PARENT
REMARK Flexibility Score: inf
ROOT
ATOM      1  C   UNL     1       4.485  10.193   8.848  1.00  0.00     0.025 C 
ATOM      2  C   UNL     1       4.892   9.711   7.664  1.00  0.00     0.010 C 
ENDROOT
BRANCH   1   3
ATOM      3  C   UNL     1       4.548  11.607   9.263  1.00  0.00     0.064 C 
ATOM      4  O   UNL     1       5.650  12.090   9.636  1.00  0.00    -0.545 OA
ATOM      5  O   UNL     1       3.407  12.398   9.323  1.00  0.00    -0.545 OA
ENDBRANCH   1   3
BRANCH   2   6
ATOM      6  C   UNL     1       5.646  10.470   6.645  1.00  0.00    -0.026 A 
ATOM      7  C   UNL     1       4.974  10.956   5.513  1.00  0.00     0.008 A 
ATOM      8  C   UNL     1       7.041  10.624   6.735  1.00  0.00     0.008 A 
ATOM      9  C   UNL     1       5.677  11.633   4.512  1.00  0.00     0.001 A 
ATOM     10  C   UNL     1       7.742  11.302   5.732  1.00  0.00     0.001 A 
ATOM     11  C   UNL     1       7.060  11.810   4.624  1.00  0.00     0.000 A 
ENDBRANCH   2   6
TORSDOF 2
ENDMDL
MODEL 2
REMARK VINA RESULT:    -4.768      0.197      1.763
REMARK INTER + INTRA:          -5.534
REMARK INTER:                  -5.354
REMARK INTRA:                  -0.180
REMARK UNBOUND:                -0.208
REMARK SMILES O=C([O-])C=Cc1ccccc1
REMARK SMILES IDX 4 1 5 2 2 3 1 4 3 5 6 6 7 7 11 8 8 9 10 10 9 11
REMARK H PARENT
REMARK Flexibility Score: inf
ROOT
ATOM      1  C   UNL     1       4.290  10.176   8.715  1.00  0.00     0.025 C 
ATOM      2  C   UNL     1       4.711   9.714   7.528  1.00  0.00     0.010 C 
ENDROOT
BRANCH   1   3
ATOM      3  C   UNL     1       4.415  11.569   9.184  1.00  0.00     0.064 C 
ATOM      4  O   UNL     1       3.405  12.320   9.158  1.00  0.00    -0.545 OA
ATOM      5  O   UNL     1       5.638  12.094   9.584  1.00  0.00    -0.545 OA
ENDBRANCH   1   3
BRANCH   2   6
ATOM      6  C   UNL     1       5.538  10.465   6.562  1.00  0.00    -0.026 A 
ATOM      7  C   UNL     1       6.913  10.608   6.799  1.00  0.00     0.008 A 
ATOM      8  C   UNL     1       4.957  11.128   5.466  1.00  0.00     0.008 A 
ATOM      9  C   UNL     1       7.706  11.357   5.924  1.00  0.00     0.001 A 
ATOM     10  C   UNL     1       5.752  11.877   4.592  1.00  0.00     0.001 A 
ATOM     11  C   UNL     1       7.127  11.988   4.819  1.00  0.00     0.000 A 
ENDBRANCH   2   6
TORSDOF 2
ENDMDL
MODEL 3
REMARK VINA RESULT:    -4.746      1.684      2.377
REMARK INTER + INTRA:          -5.509
REMARK INTER:                  -5.228
REMARK INTRA:                  -0.281
REMARK UNBOUND:                -0.208
REMARK SMILES O=C([O-])C=Cc1ccccc1
REMARK SMILES IDX 4 1 5 2 2 3 1 4 3 5 6 6 7 7 11 8 8 9 10 10 9 11
REMARK H PARENT
REMARK Flexibility Score: inf
ROOT
ATOM      1  C   UNL     1       4.422  11.189   8.748  1.00  0.00     0.025 C 
ATOM      2  C   UNL     1       5.253  11.986   8.059  1.00  0.00     0.010 C 
ENDROOT
BRANCH   1   3
ATOM      3  C   UNL     1       4.322   9.725   8.598  1.00  0.00     0.064 C 
ATOM      4  O   UNL     1       5.131   8.986   9.218  1.00  0.00    -0.545 OA
ATOM      5  O   UNL     1       3.403   9.145   7.731  1.00  0.00    -0.545 OA
ENDBRANCH   1   3
BRANCH   2   6
ATOM      6  C   UNL     1       6.072  11.572   6.901  1.00  0.00    -0.026 A 
ATOM      7  C   UNL     1       7.432  11.285   7.090  1.00  0.00     0.008 A 
ATOM      8  C   UNL     1       5.542  11.562   5.599  1.00  0.00     0.008 A 
ATOM      9  C   UNL     1       8.239  10.940   6.001  1.00  0.00     0.001 A 
ATOM     10  C   UNL     1       6.350  11.217   4.511  1.00  0.00     0.001 A 
ATOM     11  C   UNL     1       7.697  10.901   4.712  1.00  0.00     0.000 A 
ENDBRANCH   2   6
TORSDOF 2
ENDMDL
MODEL 4
REMARK VINA RESULT:    -4.633      2.436      4.348
REMARK INTER + INTRA:          -5.383
REMARK INTER:                  -5.125
REMARK INTRA:                  -0.258
REMARK UNBOUND:                -0.208
REMARK SMILES O=C([O-])C=Cc1ccccc1
REMARK SMILES IDX 4 1 5 2 2 3 1 4 3 5 6 6 7 7 11 8 8 9 10 10 9 11
REMARK H PARENT
REMARK Flexibility Score: inf
ROOT
ATOM      1  C   UNL     1       7.438  11.114   5.963  1.00  0.00     0.025 C 
ATOM      2  C   UNL     1       7.031  10.789   7.199  1.00  0.00     0.010 C 
ENDROOT
BRANCH   1   3
ATOM      3  C   UNL     1       6.597  11.733   4.921  1.00  0.00     0.064 C 
ATOM      4  O   UNL     1       6.452  12.984   4.911  1.00  0.00    -0.545 OA
ATOM      5  O   UNL     1       5.903  10.963   3.996  1.00  0.00    -0.545 OA
ENDBRANCH   1   3
BRANCH   2   6
ATOM      6  C   UNL     1       5.632  10.817   7.675  1.00  0.00    -0.026 A 
ATOM      7  C   UNL     1       5.224  11.834   8.550  1.00  0.00     0.008 A 
ATOM      8  C   UNL     1       4.732   9.786   7.351  1.00  0.00     0.008 A 
ATOM      9  C   UNL     1       3.919  11.851   9.052  1.00  0.00     0.001 A 
ATOM     10  C   UNL     1       3.427   9.806   7.854  1.00  0.00     0.001 A 
ATOM     11  C   UNL     1       3.019  10.840   8.701  1.00  0.00     0.000 A 
ENDBRANCH   2   6
TORSDOF 2
ENDMDL
MODEL 5
REMARK VINA RESULT:    -4.545      2.249      4.306
REMARK INTER + INTRA:          -5.285
REMARK INTER:                  -5.054
REMARK INTRA:                  -0.231
REMARK UNBOUND:                -0.208
REMARK SMILES O=C([O-])C=Cc1ccccc1
REMARK SMILES IDX 4 1 5 2 2 3 1 4 3 5 6 6 7 7 11 8 8 9 10 10 9 11
REMARK H PARENT
REMARK Flexibility Score: inf
ROOT
ATOM      1  C   UNL     1       7.684  10.944   6.874  1.00  0.00     0.025 C 
ATOM      2  C   UNL     1       7.212  10.806   8.123  1.00  0.00     0.010 C 
ENDROOT
BRANCH   1   3
ATOM      3  C   UNL     1       6.878  11.296   5.690  1.00  0.00     0.064 C 
ATOM      4  O   UNL     1       6.736  10.449   4.769  1.00  0.00    -0.545 OA
ATOM      5  O   UNL     1       6.332  12.564   5.534  1.00  0.00    -0.545 OA
ENDBRANCH   1   3
BRANCH   2   6
ATOM      6  C   UNL     1       5.784  10.792   8.502  1.00  0.00    -0.026 A 
ATOM      7  C   UNL     1       5.015   9.648   8.244  1.00  0.00     0.008 A 
ATOM      8  C   UNL     1       5.157  11.940   9.019  1.00  0.00     0.008 A 
ATOM      9  C   UNL     1       3.650   9.631   8.549  1.00  0.00     0.001 A 
ATOM     10  C   UNL     1       3.792  11.921   9.323  1.00  0.00     0.001 A 
ATOM     11  C   UNL     1       3.040  10.766   9.092  1.00  0.00     0.000 A 
ENDBRANCH   2   6
TORSDOF 2
ENDMDL
MODEL 6
REMARK VINA RESULT:    -4.406      2.323      4.278
REMARK INTER + INTRA:          -5.130
REMARK INTER:                  -5.038
REMARK INTRA:                  -0.092
REMARK UNBOUND:                -0.208
REMARK SMILES O=C([O-])C=Cc1ccccc1
REMARK SMILES IDX 4 1 5 2 2 3 1 4 3 5 6 6 7 7 11 8 8 9 10 10 9 11
REMARK H PARENT
REMARK Flexibility Score: inf
ROOT
ATOM      1  C   UNL     1       6.396  11.720   4.937  1.00  0.00     0.025 C 
ATOM      2  C   UNL     1       5.279  11.200   5.467  1.00  0.00     0.010 C 
ENDROOT
BRANCH   1   3
ATOM      3  C   UNL     1       7.660  11.949   5.663  1.00  0.00     0.064 C 
ATOM      4  O   UNL     1       7.987  13.125   5.973  1.00  0.00    -0.545 OA
ATOM      5  O   UNL     1       8.533  10.906   5.948  1.00  0.00    -0.545 OA
ENDBRANCH   1   3
BRANCH   2   6
ATOM      6  C   UNL     1       5.052  10.942   6.904  1.00  0.00    -0.026 A 
ATOM      7  C   UNL     1       4.660   9.661   7.320  1.00  0.00     0.008 A 
ATOM      8  C   UNL     1       5.120  11.981   7.850  1.00  0.00     0.008 A 
ATOM      9  C   UNL     1       4.392   9.408   8.669  1.00  0.00     0.001 A 
ATOM     10  C   UNL     1       4.851  11.725   9.198  1.00  0.00     0.001 A 
ATOM     11  C   UNL     1       4.491  10.439   9.608  1.00  0.00     0.000 A 
ENDBRANCH   2   6
TORSDOF 2
ENDMDL
MODEL 7
REMARK VINA RESULT:    -4.334      1.957      2.786
REMARK INTER + INTRA:          -5.049
REMARK INTER:                  -4.808
REMARK INTRA:                  -0.241
REMARK UNBOUND:                -0.208
REMARK SMILES O=C([O-])C=Cc1ccccc1
REMARK SMILES IDX 4 1 5 2 2 3 1 4 3 5 6 6 7 7 11 8 8 9 10 10 9 11
REMARK H PARENT
REMARK Flexibility Score: inf
ROOT
ATOM      1  C   UNL     1       3.817  10.080   7.210  1.00  0.00     0.025 C 
ATOM      2  C   UNL     1       4.626  10.887   6.508  1.00  0.00     0.010 C 
ENDROOT
BRANCH   1   3
ATOM      3  C   UNL     1       3.966   9.755   8.641  1.00  0.00     0.064 C 
ATOM      4  O   UNL     1       3.212  10.312   9.481  1.00  0.00    -0.545 OA
ATOM      5  O   UNL     1       4.968   8.904   9.091  1.00  0.00    -0.545 OA
ENDBRANCH   1   3
BRANCH   2   6
ATOM      6  C   UNL     1       5.909  11.440   6.987  1.00  0.00    -0.026 A 
ATOM      7  C   UNL     1       7.087  10.699   6.808  1.00  0.00     0.008 A 
ATOM      8  C   UNL     1       5.958  12.646   7.711  1.00  0.00     0.008 A 
ATOM      9  C   UNL     1       8.305  11.181   7.298  1.00  0.00     0.001 A 
ATOM     10  C   UNL     1       7.178  13.125   8.200  1.00  0.00     0.001 A 
ATOM     11  C   UNL     1       8.351  12.395   7.990  1.00  0.00     0.000 A 
ENDBRANCH   2   6
TORSDOF 2
ENDMDL
MODEL 8
REMARK VINA RESULT:    -4.195      2.326      4.611
REMARK INTER + INTRA:          -4.894
REMARK INTER:                  -4.782
REMARK INTRA:                  -0.112
REMARK UNBOUND:                -0.208
REMARK SMILES O=C([O-])C=Cc1ccccc1
REMARK SMILES IDX 4 1 5 2 2 3 1 4 3 5 6 6 7 7 11 8 8 9 10 10 9 11
REMARK H PARENT
REMARK Flexibility Score: inf
ROOT
ATOM      1  C   UNL     1       6.011  10.254   7.390  1.00  0.00     0.025 C 
ATOM      2  C   UNL     1       5.531  10.431   8.630  1.00  0.00     0.010 C 
ENDROOT
BRANCH   1   3
ATOM      3  C   UNL     1       5.457  10.860   6.164  1.00  0.00     0.064 C 
ATOM      4  O   UNL     1       6.183  11.620   5.471  1.00  0.00    -0.545 OA
ATOM      5  O   UNL     1       4.131  10.668   5.796  1.00  0.00    -0.545 OA
ENDBRANCH   1   3
BRANCH   2   6
ATOM      6  C   UNL     1       4.260  11.103   8.968  1.00  0.00    -0.026 A 
ATOM      7  C   UNL     1       4.261  12.478   9.245  1.00  0.00     0.008 A 
ATOM      8  C   UNL     1       3.067  10.373   9.118  1.00  0.00     0.008 A 
ATOM      9  C   UNL     1       3.078  13.125   9.616  1.00  0.00     0.001 A 
ATOM     10  C   UNL     1       1.885  11.022   9.489  1.00  0.00     0.001 A 
ATOM     11  C   UNL     1       1.889  12.398   9.733  1.00  0.00     0.000 A 
ENDBRANCH   2   6
TORSDOF 2
ENDMDL
MODEL 9
REMARK VINA RESULT:    -4.006     17.644     18.792
REMARK INTER + INTRA:          -4.683
REMARK INTER:                  -4.835
REMARK INTRA:                   0.152
REMARK UNBOUND:                -0.208
REMARK SMILES O=C([O-])C=Cc1ccccc1
REMARK SMILES IDX 4 1 5 2 2 3 1 4 3 5 6 6 7 7 11 8 8 9 10 10 9 11
REMARK H PARENT
REMARK Flexibility Score: inf
ROOT
ATOM      1  C   UNL     1      -8.352   9.909  -5.788  1.00  0.00     0.025 C 
ATOM      2  C   UNL     1      -7.213   9.357  -6.231  1.00  0.00     0.010 C 
ENDROOT
BRANCH   1   3
ATOM      3  C   UNL     1      -8.849  11.250  -6.150  1.00  0.00     0.064 C 
ATOM      4  O   UNL     1     -10.044  11.383  -6.524  1.00  0.00    -0.545 OA
ATOM      5  O   UNL     1      -8.010  12.357  -6.159  1.00  0.00    -0.545 OA
ENDBRANCH   1   3
BRANCH   2   6
ATOM      6  C   UNL     1      -6.165  10.057  -7.002  1.00  0.00    -0.026 A 
ATOM      7  C   UNL     1      -6.064   9.836  -8.384  1.00  0.00     0.008 A 
ATOM      8  C   UNL     1      -5.203  10.860  -6.362  1.00  0.00     0.008 A 
ATOM      9  C   UNL     1      -5.049  10.449  -9.125  1.00  0.00     0.001 A 
ATOM     10  C   UNL     1      -4.189  11.472  -7.106  1.00  0.00     0.001 A 
ATOM     11  C   UNL     1      -4.115  11.271  -8.487  1.00  0.00     0.000 A 
ENDBRANCH   2   6
TORSDOF 2
ENDMDL
