MODEL 1
REMARK VINA RESULT:    -3.217      0.000      0.000
REMARK INTER + INTRA:          -8.254
REMARK INTER:                  -6.038
REMARK INTRA:                  -2.217
REMARK UNBOUND:                -2.217
REMARK SMILES O=C([O-])CCCCCCCCCCCCCCC(=O)[O-]
REMARK SMILES IDX 10 1 9 2 8 3 7 4 6 5 5 6 4 7 2 8 1 9 3 10 11 11 12 12 13 13
REMARK SMILES IDX 14 14 15 15 16 16 17 17 18 18 19 19 20 20
REMARK H PARENT
REMARK Flexibility Score: inf
ROOT
ATOM      1  C   UNL     1     101.809  62.234 226.248  1.00  0.00     0.000 C 
ENDROOT
BRANCH   1   2
ATOM      2  C   UNL     1     101.370  62.003 227.700  1.00  0.00     0.000 C 
BRANCH   2   3
ATOM      3  C   UNL     1     100.338  63.034 228.186  1.00  0.00     0.000 C 
BRANCH   3   4
ATOM      4  C   UNL     1      98.877  62.551 228.064  1.00  0.00     0.000 C 
BRANCH   4   5
ATOM      5  C   UNL     1      97.891  63.499 228.770  1.00  0.00     0.000 C 
BRANCH   5   6
ATOM      6  C   UNL     1      98.599  64.633 229.528  1.00  0.00     0.006 C 
BRANCH   6   7
ATOM      7  C   UNL     1      97.676  65.829 229.795  1.00  0.00     0.053 C 
BRANCH   7   8
ATOM      8  C   UNL     1      96.543  65.423 230.685  1.00  0.00     0.041 C 
ATOM      9  O   UNL     1      96.766  64.756 231.730  1.00  0.00    -0.550 OA
ATOM     10  O   UNL     1      95.237  65.739 230.336  1.00  0.00    -0.550 OA
ENDBRANCH   7   8
ENDBRANCH   6   7
ENDBRANCH   5   6
ENDBRANCH   4   5
ENDBRANCH   3   4
ENDBRANCH   2   3
ENDBRANCH   1   2
BRANCH   1  11
ATOM     11  C   UNL     1     102.013  63.730 225.966  1.00  0.00     0.000 C 
BRANCH  11  12
ATOM     12  C   UNL     1     101.258  64.207 224.715  1.00  0.00     0.000 C 
BRANCH  12  13
ATOM     13  C   UNL     1     100.694  65.630 224.874  1.00  0.00     0.000 C 
BRANCH  13  14
ATOM     14  C   UNL     1      99.358  65.665 225.639  1.00  0.00     0.000 C 
BRANCH  14  15
ATOM     15  C   UNL     1      98.374  64.534 225.289  1.00  0.00     0.000 C 
BRANCH  15  16
ATOM     16  C   UNL     1      96.961  65.047 224.961  1.00  0.00     0.006 C 
BRANCH  16  17
ATOM     17  C   UNL     1      96.652  66.379 225.657  1.00  0.00     0.053 C 
BRANCH  17  18
ATOM     18  C   UNL     1      95.636  66.212 226.745  1.00  0.00     0.041 C 
ATOM     19  O   UNL     1      95.184  65.069 227.021  1.00  0.00    -0.550 OA
ATOM     20  O   UNL     1      95.159  67.324 227.429  1.00  0.00    -0.550 OA
ENDBRANCH  17  18
ENDBRANCH  16  17
ENDBRANCH  15  16
ENDBRANCH  14  15
ENDBRANCH  13  14
ENDBRANCH  12  13
ENDBRANCH  11  12
ENDBRANCH   1  11
TORSDOF 15
ENDMDL
MODEL 2
REMARK VINA RESULT:    -3.158      2.718      4.837
REMARK INTER + INTRA:          -8.144
REMARK INTER:                  -5.564
REMARK INTRA:                  -2.580
REMARK UNBOUND:                -2.217
REMARK SMILES O=C([O-])CCCCCCCCCCCCCCC(=O)[O-]
REMARK SMILES IDX 10 1 9 2 8 3 7 4 6 5 5 6 4 7 2 8 1 9 3 10 11 11 12 12 13 13
REMARK SMILES IDX 14 14 15 15 16 16 17 17 18 18 19 19 20 20
REMARK H PARENT
REMARK Flexibility Score: inf
ROOT
ATOM      1  C   UNL     1      96.038  66.619 224.266  1.00  0.00     0.000 C 
ENDROOT
BRANCH   1   2
ATOM      2  C   UNL     1      96.283  65.172 224.714  1.00  0.00     0.000 C 
BRANCH   2   3
ATOM      3  C   UNL     1      97.772  64.852 224.925  1.00  0.00     0.000 C 
BRANCH   3   4
ATOM      4  C   UNL     1      98.046  63.964 226.158  1.00  0.00     0.000 C 
BRANCH   4   5
ATOM      5  C   UNL     1      97.116  64.303 227.336  1.00  0.00     0.000 C 
BRANCH   5   6
ATOM      6  C   UNL     1      97.638  63.765 228.677  1.00  0.00     0.006 C 
BRANCH   6   7
ATOM      7  C   UNL     1      97.924  64.883 229.689  1.00  0.00     0.053 C 
BRANCH   7   8
ATOM      8  C   UNL     1      96.707  65.160 230.515  1.00  0.00     0.041 C 
ATOM      9  O   UNL     1      96.597  64.664 231.667  1.00  0.00    -0.550 OA
ATOM     10  O   UNL     1      95.674  65.929 229.995  1.00  0.00    -0.550 OA
ENDBRANCH   7   8
ENDBRANCH   6   7
ENDBRANCH   5   6
ENDBRANCH   4   5
ENDBRANCH   3   4
ENDBRANCH   2   3
ENDBRANCH   1   2
BRANCH   1  11
ATOM     11  C   UNL     1      96.891  67.600 225.085  1.00  0.00     0.000 C 
BRANCH  11  12
ATOM     12  C   UNL     1      96.340  67.826 226.502  1.00  0.00     0.000 C 
BRANCH  12  13
ATOM     13  C   UNL     1      97.453  67.943 227.557  1.00  0.00     0.000 C 
BRANCH  13  14
ATOM     14  C   UNL     1      98.859  68.051 226.937  1.00  0.00     0.000 C 
BRANCH  14  15
ATOM     15  C   UNL     1      99.847  66.951 227.364  1.00  0.00     0.000 C 
BRANCH  15  16
ATOM     16  C   UNL     1     100.811  66.539 226.237  1.00  0.00     0.006 C 
BRANCH  16  17
ATOM     17  C   UNL     1     101.507  65.203 226.529  1.00  0.00     0.053 C 
BRANCH  17  18
ATOM     18  C   UNL     1     101.885  64.488 225.269  1.00  0.00     0.041 C 
ATOM     19  O   UNL     1     102.971  63.853 225.201  1.00  0.00    -0.550 OA
ATOM     20  O   UNL     1     101.057  64.553 224.155  1.00  0.00    -0.550 OA
ENDBRANCH  17  18
ENDBRANCH  16  17
ENDBRANCH  15  16
ENDBRANCH  14  15
ENDBRANCH  13  14
ENDBRANCH  12  13
ENDBRANCH  11  12
ENDBRANCH   1  11
TORSDOF 15
ENDMDL
MODEL 3
REMARK VINA RESULT:    -3.083      2.630      4.926
REMARK INTER + INTRA:          -8.004
REMARK INTER:                  -5.662
REMARK INTRA:                  -2.342
REMARK UNBOUND:                -2.217
REMARK SMILES O=C([O-])CCCCCCCCCCCCCCC(=O)[O-]
REMARK SMILES IDX 10 1 9 2 8 3 7 4 6 5 5 6 4 7 2 8 1 9 3 10 11 11 12 12 13 13
REMARK SMILES IDX 14 14 15 15 16 16 17 17 18 18 19 19 20 20
REMARK H PARENT
REMARK Flexibility Score: inf
ROOT
ATOM      1  C   UNL     1      97.366  65.952 224.799  1.00  0.00     0.000 C 
ENDROOT
BRANCH   1   2
ATOM      2  C   UNL     1      98.556  66.757 225.338  1.00  0.00     0.000 C 
BRANCH   2   3
ATOM      3  C   UNL     1      98.141  67.833 226.356  1.00  0.00     0.000 C 
BRANCH   3   4
ATOM      4  C   UNL     1      96.683  68.311 226.191  1.00  0.00     0.000 C 
BRANCH   4   5
ATOM      5  C   UNL     1      95.880  68.186 227.497  1.00  0.00     0.000 C 
BRANCH   5   6
ATOM      6  C   UNL     1      96.746  67.738 228.685  1.00  0.00     0.006 C 
BRANCH   6   7
ATOM      7  C   UNL     1      96.020  67.881 230.030  1.00  0.00     0.053 C 
BRANCH   7   8
ATOM      8  C   UNL     1      96.059  66.587 230.781  1.00  0.00     0.041 C 
ATOM      9  O   UNL     1      95.464  65.573 230.329  1.00  0.00    -0.550 OA
ATOM     10  O   UNL     1      96.712  66.513 232.005  1.00  0.00    -0.550 OA
ENDBRANCH   7   8
ENDBRANCH   6   7
ENDBRANCH   5   6
ENDBRANCH   4   5
ENDBRANCH   3   4
ENDBRANCH   2   3
ENDBRANCH   1   2
BRANCH   1  11
ATOM     11  C   UNL     1      97.320  64.552 225.430  1.00  0.00     0.000 C 
BRANCH  11  12
ATOM     12  C   UNL     1      96.700  64.554 226.837  1.00  0.00     0.000 C 
BRANCH  12  13
ATOM     13  C   UNL     1      97.578  63.826 227.869  1.00  0.00     0.000 C 
BRANCH  13  14
ATOM     14  C   UNL     1      98.759  64.681 228.363  1.00  0.00     0.000 C 
BRANCH  14  15
ATOM     15  C   UNL     1     100.149  64.045 228.180  1.00  0.00     0.000 C 
BRANCH  15  16
ATOM     16  C   UNL     1     100.249  63.178 226.912  1.00  0.00     0.006 C 
BRANCH  16  17
ATOM     17  C   UNL     1     101.592  63.357 226.192  1.00  0.00     0.053 C 
BRANCH  17  18
ATOM     18  C   UNL     1     101.577  64.546 225.281  1.00  0.00     0.041 C 
ATOM     19  O   UNL     1     101.028  64.471 224.150  1.00  0.00    -0.550 OA
ATOM     20  O   UNL     1     102.203  65.726 225.664  1.00  0.00    -0.550 OA
ENDBRANCH  17  18
ENDBRANCH  16  17
ENDBRANCH  15  16
ENDBRANCH  14  15
ENDBRANCH  13  14
ENDBRANCH  12  13
ENDBRANCH  11  12
ENDBRANCH   1  11
TORSDOF 15
ENDMDL
MODEL 4
REMARK VINA RESULT:    -3.041      2.625      5.301
REMARK INTER + INTRA:          -7.925
REMARK INTER:                  -5.601
REMARK INTRA:                  -2.324
REMARK UNBOUND:                -2.217
REMARK SMILES O=C([O-])CCCCCCCCCCCCCCC(=O)[O-]
REMARK SMILES IDX 10 1 9 2 8 3 7 4 6 5 5 6 4 7 2 8 1 9 3 10 11 11 12 12 13 13
REMARK SMILES IDX 14 14 15 15 16 16 17 17 18 18 19 19 20 20
REMARK H PARENT
REMARK Flexibility Score: inf
ROOT
ATOM      1  C   UNL     1      97.425  64.516 225.397  1.00  0.00     0.000 C 
ENDROOT
BRANCH   1   2
ATOM      2  C   UNL     1      96.641  64.583 226.714  1.00  0.00     0.000 C 
BRANCH   2   3
ATOM      3  C   UNL     1      97.444  64.062 227.918  1.00  0.00     0.000 C 
BRANCH   3   4
ATOM      4  C   UNL     1      98.970  64.222 227.760  1.00  0.00     0.000 C 
BRANCH   4   5
ATOM      5  C   UNL     1      99.457  65.615 228.197  1.00  0.00     0.000 C 
BRANCH   5   6
ATOM      6  C   UNL     1     100.237  66.345 227.091  1.00  0.00     0.006 C 
BRANCH   6   7
ATOM      7  C   UNL     1     101.330  65.468 226.466  1.00  0.00     0.053 C 
BRANCH   7   8
ATOM      8  C   UNL     1     101.320  65.607 224.976  1.00  0.00     0.041 C 
ATOM      9  O   UNL     1     101.698  66.680 224.437  1.00  0.00    -0.550 OA
ATOM     10  O   UNL     1     100.847  64.568 224.185  1.00  0.00    -0.550 OA
ENDBRANCH   7   8
ENDBRANCH   6   7
ENDBRANCH   5   6
ENDBRANCH   4   5
ENDBRANCH   3   4
ENDBRANCH   2   3
ENDBRANCH   1   2
BRANCH   1  11
ATOM     11  C   UNL     1      97.262  65.815 224.594  1.00  0.00     0.000 C 
BRANCH  11  12
ATOM     12  C   UNL     1      96.112  66.694 225.112  1.00  0.00     0.000 C 
BRANCH  12  13
ATOM     13  C   UNL     1      96.613  67.968 225.813  1.00  0.00     0.000 C 
BRANCH  13  14
ATOM     14  C   UNL     1      96.012  68.156 227.219  1.00  0.00     0.000 C 
BRANCH  14  15
ATOM     15  C   UNL     1      97.040  68.308 228.354  1.00  0.00     0.000 C 
BRANCH  15  16
ATOM     16  C   UNL     1      96.412  68.186 229.753  1.00  0.00     0.006 C 
BRANCH  16  17
ATOM     17  C   UNL     1      97.173  67.196 230.645  1.00  0.00     0.053 C 
BRANCH  17  18
ATOM     18  C   UNL     1      96.346  65.988 230.964  1.00  0.00     0.041 C 
ATOM     19  O   UNL     1      96.672  65.229 231.914  1.00  0.00    -0.550 OA
ATOM     20  O   UNL     1      95.235  65.680 230.187  1.00  0.00    -0.550 OA
ENDBRANCH  17  18
ENDBRANCH  16  17
ENDBRANCH  15  16
ENDBRANCH  14  15
ENDBRANCH  13  14
ENDBRANCH  12  13
ENDBRANCH  11  12
ENDBRANCH   1  11
TORSDOF 15
ENDMDL
MODEL 5
REMARK VINA RESULT:    -2.965      3.108      6.226
REMARK INTER + INTRA:          -7.781
REMARK INTER:                  -5.128
REMARK INTRA:                  -2.653
REMARK UNBOUND:                -2.217
REMARK SMILES O=C([O-])CCCCCCCCCCCCCCC(=O)[O-]
REMARK SMILES IDX 10 1 9 2 8 3 7 4 6 5 5 6 4 7 2 8 1 9 3 10 11 11 12 12 13 13
REMARK SMILES IDX 14 14 15 15 16 16 17 17 18 18 19 19 20 20
REMARK H PARENT
REMARK Flexibility Score: inf
ROOT
ATOM      1  C   UNL     1      95.226  66.138 226.196  1.00  0.00     0.000 C 
ENDROOT
BRANCH   1   2
ATOM      2  C   UNL     1      95.259  66.066 224.664  1.00  0.00     0.000 C 
BRANCH   2   3
ATOM      3  C   UNL     1      96.634  65.654 224.112  1.00  0.00     0.000 C 
BRANCH   3   4
ATOM      4  C   UNL     1      97.373  64.627 224.996  1.00  0.00     0.000 C 
BRANCH   4   5
ATOM      5  C   UNL     1      98.842  65.017 225.234  1.00  0.00     0.000 C 
BRANCH   5   6
ATOM      6  C   UNL     1      99.045  66.537 225.327  1.00  0.00     0.006 C 
BRANCH   6   7
ATOM      7  C   UNL     1     100.274  66.917 226.163  1.00  0.00     0.053 C 
BRANCH   7   8
ATOM      8  C   UNL     1     101.530  66.633 225.400  1.00  0.00     0.041 C 
ATOM      9  O   UNL     1     101.844  67.343 224.408  1.00  0.00    -0.550 OA
ATOM     10  O   UNL     1     102.330  65.554 225.754  1.00  0.00    -0.550 OA
ENDBRANCH   7   8
ENDBRANCH   6   7
ENDBRANCH   5   6
ENDBRANCH   4   5
ENDBRANCH   3   4
ENDBRANCH   2   3
ENDBRANCH   1   2
BRANCH   1  11
ATOM     11  C   UNL     1      95.667  67.524 226.690  1.00  0.00     0.000 C 
BRANCH  11  12
ATOM     12  C   UNL     1      96.529  67.454 227.961  1.00  0.00     0.000 C 
BRANCH  12  13
ATOM     13  C   UNL     1      96.783  66.009 228.424  1.00  0.00     0.000 C 
BRANCH  13  14
ATOM     14  C   UNL     1      98.169  65.818 229.066  1.00  0.00     0.000 C 
BRANCH  14  15
ATOM     15  C   UNL     1      98.753  64.399 228.949  1.00  0.00     0.000 C 
BRANCH  15  16
ATOM     16  C   UNL     1      97.735  63.371 228.426  1.00  0.00     0.006 C 
BRANCH  16  17
ATOM     17  C   UNL     1      98.414  62.184 227.731  1.00  0.00     0.053 C 
BRANCH  17  18
ATOM     18  C   UNL     1      98.126  60.892 228.432  1.00  0.00     0.041 C 
ATOM     19  O   UNL     1      97.476  60.888 229.511  1.00  0.00    -0.550 OA
ATOM     20  O   UNL     1      98.608  59.695 227.915  1.00  0.00    -0.550 OA
ENDBRANCH  17  18
ENDBRANCH  16  17
ENDBRANCH  15  16
ENDBRANCH  14  15
ENDBRANCH  13  14
ENDBRANCH  12  13
ENDBRANCH  11  12
ENDBRANCH   1  11
TORSDOF 15
ENDMDL
MODEL 6
REMARK VINA RESULT:    -2.938      3.664      6.285
REMARK INTER + INTRA:          -7.732
REMARK INTER:                  -4.997
REMARK INTRA:                  -2.735
REMARK UNBOUND:                -2.217
REMARK SMILES O=C([O-])CCCCCCCCCCCCCCC(=O)[O-]
REMARK SMILES IDX 10 1 9 2 8 3 7 4 6 5 5 6 4 7 2 8 1 9 3 10 11 11 12 12 13 13
REMARK SMILES IDX 14 14 15 15 16 16 17 17 18 18 19 19 20 20
REMARK H PARENT
REMARK Flexibility Score: inf
ROOT
ATOM      1  C   UNL     1      96.008  64.966 227.393  1.00  0.00     0.000 C 
ENDROOT
BRANCH   1   2
ATOM      2  C   UNL     1      95.572  65.530 226.035  1.00  0.00     0.000 C 
BRANCH   2   3
ATOM      3  C   UNL     1      96.609  65.292 224.925  1.00  0.00     0.000 C 
BRANCH   3   4
ATOM      4  C   UNL     1      97.779  64.382 225.355  1.00  0.00     0.000 C 
BRANCH   4   5
ATOM      5  C   UNL     1      99.148  65.007 225.039  1.00  0.00     0.000 C 
BRANCH   5   6
ATOM      6  C   UNL     1      99.231  66.488 225.441  1.00  0.00     0.006 C 
BRANCH   6   7
ATOM      7  C   UNL     1     100.321  66.754 226.487  1.00  0.00     0.053 C 
BRANCH   7   8
ATOM      8  C   UNL     1     101.528  67.358 225.839  1.00  0.00     0.041 C 
ATOM      9  O   UNL     1     102.344  68.032 226.523  1.00  0.00    -0.550 OA
ATOM     10  O   UNL     1     101.727  67.217 224.472  1.00  0.00    -0.550 OA
ENDBRANCH   7   8
ENDBRANCH   6   7
ENDBRANCH   5   6
ENDBRANCH   4   5
ENDBRANCH   3   4
ENDBRANCH   2   3
ENDBRANCH   1   2
BRANCH   1  11
ATOM     11  C   UNL     1      96.439  66.092 228.345  1.00  0.00     0.000 C 
BRANCH  11  12
ATOM     12  C   UNL     1      97.694  65.737 229.157  1.00  0.00     0.000 C 
BRANCH  12  13
ATOM     13  C   UNL     1      98.063  64.247 229.052  1.00  0.00     0.000 C 
BRANCH  13  14
ATOM     14  C   UNL     1      99.537  64.018 228.667  1.00  0.00     0.000 C 
BRANCH  14  15
ATOM     15  C   UNL     1      99.840  62.655 228.021  1.00  0.00     0.000 C 
BRANCH  15  16
ATOM     16  C   UNL     1     100.996  62.714 227.007  1.00  0.00     0.006 C 
BRANCH  16  17
ATOM     17  C   UNL     1     102.147  63.605 227.493  1.00  0.00     0.053 C 
BRANCH  17  18
ATOM     18  C   UNL     1     102.951  64.144 226.349  1.00  0.00     0.041 C 
ATOM     19  O   UNL     1     102.563  63.970 225.164  1.00  0.00    -0.550 OA
ATOM     20  O   UNL     1     104.149  64.805 226.591  1.00  0.00    -0.550 OA
ENDBRANCH  17  18
ENDBRANCH  16  17
ENDBRANCH  15  16
ENDBRANCH  14  15
ENDBRANCH  13  14
ENDBRANCH  12  13
ENDBRANCH  11  12
ENDBRANCH   1  11
TORSDOF 15
ENDMDL
MODEL 7
REMARK VINA RESULT:    -2.928      2.916      5.568
REMARK INTER + INTRA:          -7.712
REMARK INTER:                  -4.963
REMARK INTRA:                  -2.748
REMARK UNBOUND:                -2.217
REMARK SMILES O=C([O-])CCCCCCCCCCCCCCC(=O)[O-]
REMARK SMILES IDX 10 1 9 2 8 3 7 4 6 5 5 6 4 7 2 8 1 9 3 10 11 11 12 12 13 13
REMARK SMILES IDX 14 14 15 15 16 16 17 17 18 18 19 19 20 20
REMARK H PARENT
REMARK Flexibility Score: inf
ROOT
ATOM      1  C   UNL     1      97.075  64.864 224.950  1.00  0.00     0.000 C 
ENDROOT
BRANCH   1   2
ATOM      2  C   UNL     1      95.899  65.556 225.652  1.00  0.00     0.000 C 
BRANCH   2   3
ATOM      3  C   UNL     1      95.948  67.089 225.534  1.00  0.00     0.000 C 
BRANCH   3   4
ATOM      4  C   UNL     1      97.154  67.609 224.724  1.00  0.00     0.000 C 
BRANCH   4   5
ATOM      5  C   UNL     1      98.157  68.376 225.604  1.00  0.00     0.000 C 
BRANCH   5   6
ATOM      6  C   UNL     1      99.577  68.382 225.017  1.00  0.00     0.006 C 
BRANCH   6   7
ATOM      7  C   UNL     1     100.659  68.227 226.094  1.00  0.00     0.053 C 
BRANCH   7   8
ATOM      8  C   UNL     1     101.912  67.669 225.496  1.00  0.00     0.041 C 
ATOM      9  O   UNL     1     102.613  66.848 226.145  1.00  0.00    -0.550 OA
ATOM     10  O   UNL     1     102.332  68.091 224.241  1.00  0.00    -0.550 OA
ENDBRANCH   7   8
ENDBRANCH   6   7
ENDBRANCH   5   6
ENDBRANCH   4   5
ENDBRANCH   3   4
ENDBRANCH   2   3
ENDBRANCH   1   2
BRANCH   1  11
ATOM     11  C   UNL     1      97.987  64.162 225.968  1.00  0.00     0.000 C 
BRANCH  11  12
ATOM     12  C   UNL     1      99.442  64.652 225.898  1.00  0.00     0.000 C 
BRANCH  12  13
ATOM     13  C   UNL     1     100.129  64.657 227.275  1.00  0.00     0.000 C 
BRANCH  13  14
ATOM     14  C   UNL     1      99.156  64.949 228.431  1.00  0.00     0.000 C 
BRANCH  14  15
ATOM     15  C   UNL     1      98.975  66.438 228.773  1.00  0.00     0.000 C 
BRANCH  15  16
ATOM     16  C   UNL     1      97.499  66.873 228.805  1.00  0.00     0.006 C 
BRANCH  16  17
ATOM     17  C   UNL     1      96.572  65.741 229.265  1.00  0.00     0.053 C 
BRANCH  17  18
ATOM     18  C   UNL     1      96.330  65.789 230.743  1.00  0.00     0.041 C 
ATOM     19  O   UNL     1      96.440  64.744 231.437  1.00  0.00    -0.550 OA
ATOM     20  O   UNL     1      95.946  66.980 231.348  1.00  0.00    -0.550 OA
ENDBRANCH  17  18
ENDBRANCH  16  17
ENDBRANCH  15  16
ENDBRANCH  14  15
ENDBRANCH  13  14
ENDBRANCH  12  13
ENDBRANCH  11  12
ENDBRANCH   1  11
TORSDOF 15
ENDMDL
MODEL 8
REMARK VINA RESULT:    -2.915      3.896      5.837
REMARK INTER + INTRA:          -7.688
REMARK INTER:                  -5.086
REMARK INTRA:                  -2.602
REMARK UNBOUND:                -2.217
REMARK SMILES O=C([O-])CCCCCCCCCCCCCCC(=O)[O-]
REMARK SMILES IDX 10 1 9 2 8 3 7 4 6 5 5 6 4 7 2 8 1 9 3 10 11 11 12 12 13 13
REMARK SMILES IDX 14 14 15 15 16 16 17 17 18 18 19 19 20 20
REMARK H PARENT
REMARK Flexibility Score: inf
ROOT
ATOM      1  C   UNL     1      98.593  65.152 229.484  1.00  0.00     0.000 C 
ENDROOT
BRANCH   1   2
ATOM      2  C   UNL     1      99.165  63.728 229.493  1.00  0.00     0.000 C 
BRANCH   2   3
ATOM      3  C   UNL     1      98.235  62.704 228.821  1.00  0.00     0.000 C 
BRANCH   3   4
ATOM      4  C   UNL     1      98.771  62.172 227.475  1.00  0.00     0.000 C 
BRANCH   4   5
ATOM      5  C   UNL     1     100.236  61.712 227.573  1.00  0.00     0.000 C 
BRANCH   5   6
ATOM      6  C   UNL     1     101.153  62.438 226.577  1.00  0.00     0.006 C 
BRANCH   6   7
ATOM      7  C   UNL     1     102.461  62.917 227.222  1.00  0.00     0.053 C 
BRANCH   7   8
ATOM      8  C   UNL     1     103.609  62.710 226.285  1.00  0.00     0.041 C 
ATOM      9  O   UNL     1     103.887  63.583 225.420  1.00  0.00    -0.550 OA
ATOM     10  O   UNL     1     104.344  61.532 226.335  1.00  0.00    -0.550 OA
ENDBRANCH   7   8
ENDBRANCH   6   7
ENDBRANCH   5   6
ENDBRANCH   4   5
ENDBRANCH   3   4
ENDBRANCH   2   3
ENDBRANCH   1   2
BRANCH   1  11
ATOM     11  C   UNL     1      97.059  65.128 229.398  1.00  0.00     0.000 C 
BRANCH  11  12
ATOM     12  C   UNL     1      96.520  65.905 228.186  1.00  0.00     0.000 C 
BRANCH  12  13
ATOM     13  C   UNL     1      95.833  64.991 227.157  1.00  0.00     0.000 C 
BRANCH  13  14
ATOM     14  C   UNL     1      96.597  64.908 225.823  1.00  0.00     0.000 C 
BRANCH  14  15
ATOM     15  C   UNL     1      97.729  65.936 225.653  1.00  0.00     0.000 C 
BRANCH  15  16
ATOM     16  C   UNL     1      99.113  65.283 225.485  1.00  0.00     0.006 C 
BRANCH  16  17
ATOM     17  C   UNL     1     100.218  66.077 226.195  1.00  0.00     0.053 C 
BRANCH  17  18
ATOM     18  C   UNL     1     101.493  66.077 225.408  1.00  0.00     0.041 C 
ATOM     19  O   UNL     1     102.513  66.663 225.856  1.00  0.00    -0.550 OA
ATOM     20  O   UNL     1     101.543  65.462 224.163  1.00  0.00    -0.550 OA
ENDBRANCH  17  18
ENDBRANCH  16  17
ENDBRANCH  15  16
ENDBRANCH  14  15
ENDBRANCH  13  14
ENDBRANCH  12  13
ENDBRANCH  11  12
ENDBRANCH   1  11
TORSDOF 15
ENDMDL
MODEL 9
REMARK VINA RESULT:    -2.896      2.953      5.560
REMARK INTER + INTRA:          -7.651
REMARK INTER:                  -5.260
REMARK INTRA:                  -2.391
REMARK UNBOUND:                -2.217
REMARK SMILES O=C([O-])CCCCCCCCCCCCCCC(=O)[O-]
REMARK SMILES IDX 10 1 9 2 8 3 7 4 6 5 5 6 4 7 2 8 1 9 3 10 11 11 12 12 13 13
REMARK SMILES IDX 14 14 15 15 16 16 17 17 18 18 19 19 20 20
REMARK H PARENT
REMARK Flexibility Score: inf
ROOT
ATOM      1  C   UNL     1      99.901  65.290 229.040  1.00  0.00     0.000 C 
ENDROOT
BRANCH   1   2
ATOM      2  C   UNL     1     100.312  65.422 227.568  1.00  0.00     0.000 C 
BRANCH   2   3
ATOM      3  C   UNL     1      99.147  65.835 226.653  1.00  0.00     0.000 C 
BRANCH   3   4
ATOM      4  C   UNL     1      98.891  64.848 225.494  1.00  0.00     0.000 C 
BRANCH   4   5
ATOM      5  C   UNL     1      97.436  64.904 224.995  1.00  0.00     0.000 C 
BRANCH   5   6
ATOM      6  C   UNL     1      96.413  64.806 226.137  1.00  0.00     0.006 C 
BRANCH   6   7
ATOM      7  C   UNL     1      95.302  65.857 226.025  1.00  0.00     0.053 C 
BRANCH   7   8
ATOM      8  C   UNL     1      95.677  67.095 226.778  1.00  0.00     0.041 C 
ATOM      9  O   UNL     1      96.131  68.097 226.164  1.00  0.00    -0.550 OA
ATOM     10  O   UNL     1      95.572  67.125 228.162  1.00  0.00    -0.550 OA
ENDBRANCH   7   8
ENDBRANCH   6   7
ENDBRANCH   5   6
ENDBRANCH   4   5
ENDBRANCH   3   4
ENDBRANCH   2   3
ENDBRANCH   1   2
BRANCH   1  11
ATOM     11  C   UNL     1      98.500  64.672 229.166  1.00  0.00     0.000 C 
BRANCH  11  12
ATOM     12  C   UNL     1      98.538  63.151 229.380  1.00  0.00     0.000 C 
BRANCH  12  13
ATOM     13  C   UNL     1      98.146  62.367 228.115  1.00  0.00     0.000 C 
BRANCH  13  14
ATOM     14  C   UNL     1      99.148  61.251 227.765  1.00  0.00     0.000 C 
BRANCH  14  15
ATOM     15  C   UNL     1     100.630  61.621 227.956  1.00  0.00     0.000 C 
BRANCH  15  16
ATOM     16  C   UNL     1     101.297  62.118 226.660  1.00  0.00     0.006 C 
BRANCH  16  17
ATOM     17  C   UNL     1     102.743  62.574 226.891  1.00  0.00     0.053 C 
BRANCH  17  18
ATOM     18  C   UNL     1     103.239  63.434 225.769  1.00  0.00     0.041 C 
ATOM     19  O   UNL     1     102.422  64.038 225.025  1.00  0.00    -0.550 OA
ATOM     20  O   UNL     1     104.602  63.538 225.521  1.00  0.00    -0.550 OA
ENDBRANCH  17  18
ENDBRANCH  16  17
ENDBRANCH  15  16
ENDBRANCH  14  15
ENDBRANCH  13  14
ENDBRANCH  12  13
ENDBRANCH  11  12
ENDBRANCH   1  11
TORSDOF 15
ENDMDL
