MODEL 1
REMARK VINA RESULT:    -5.085      0.000      0.000
REMARK INTER + INTRA:          -5.714
REMARK INTER:                  -5.531
REMARK INTRA:                  -0.184
REMARK UNBOUND:                -0.184
REMARK SMILES C=C(C)[C@H]1CC[C@H](C)C[C@@H]1O
REMARK SMILES IDX 8 1 7 2 6 3 5 4 4 5 10 6 9 7 11 8 2 10 1 11 3 12
REMARK H PARENT 11 9
REMARK Flexibility Score: inf
ROOT
ATOM      1  C   UNL     1     117.495 120.379 135.375  1.00  0.00     0.008 C 
ATOM      2  C   UNL     1     116.529 120.927 134.319  1.00  0.00    -0.012 C 
ATOM      3  C   UNL     1     117.250 121.108 132.971  1.00  0.00     0.004 C 
ATOM      4  C   UNL     1     116.288 121.641 131.902  1.00  0.00     0.011 C 
ATOM      5  C   UNL     1     115.069 120.710 131.742  1.00  0.00     0.043 C 
ATOM      6  C   UNL     1     114.340 120.519 133.092  1.00  0.00     0.121 C 
ATOM      7  C   UNL     1     115.315 119.992 134.161  1.00  0.00     0.035 C 
ENDROOT
BRANCH   6   8
ATOM      8  O   UNL     1     113.286 119.605 132.927  1.00  0.00    -0.392 OA
ATOM      9  H   UNL     1     113.030 119.631 131.968  1.00  0.00     0.210 HD
ENDBRANCH   6   8
BRANCH   5  10
ATOM     10  C   UNL     1     114.127 121.223 130.660  1.00  0.00    -0.075 C 
ATOM     11  C   UNL     1     114.017 120.598 129.475  1.00  0.00     0.008 C 
ATOM     12  C   UNL     1     113.295 122.456 130.903  1.00  0.00     0.039 C 
ENDBRANCH   5  10
TORSDOF 2
ENDMDL
MODEL 2
REMARK VINA RESULT:    -4.881      1.867      4.889
REMARK INTER + INTRA:          -5.492
REMARK INTER:                  -5.305
REMARK INTRA:                  -0.187
REMARK UNBOUND:                -0.184
REMARK SMILES C=C(C)[C@H]1CC[C@H](C)C[C@@H]1O
REMARK SMILES IDX 8 1 7 2 6 3 5 4 4 5 10 6 9 7 11 8 2 10 1 11 3 12
REMARK H PARENT 11 9
REMARK Flexibility Score: inf
ROOT
ATOM      1  C   UNL     1     113.360 122.632 127.124  1.00  0.00     0.008 C 
ATOM      2  C   UNL     1     113.315 122.049 128.541  1.00  0.00    -0.012 C 
ATOM      3  C   UNL     1     114.449 121.027 128.741  1.00  0.00     0.004 C 
ATOM      4  C   UNL     1     114.423 120.450 130.161  1.00  0.00     0.011 C 
ATOM      5  C   UNL     1     114.515 121.572 131.215  1.00  0.00     0.043 C 
ATOM      6  C   UNL     1     113.381 122.605 131.021  1.00  0.00     0.121 C 
ATOM      7  C   UNL     1     113.409 123.174 129.590  1.00  0.00     0.035 C 
ENDROOT
BRANCH   6   8
ATOM      8  O   UNL     1     113.541 123.652 131.945  1.00  0.00    -0.392 OA
ATOM      9  H   UNL     1     113.831 123.239 132.800  1.00  0.00     0.210 HD
ENDBRANCH   6   8
BRANCH   5  10
ATOM     10  C   UNL     1     114.518 120.997 132.627  1.00  0.00    -0.075 C 
ATOM     11  C   UNL     1     113.550 120.163 133.044  1.00  0.00     0.008 C 
ATOM     12  C   UNL     1     115.620 121.362 133.589  1.00  0.00     0.039 C 
ENDBRANCH   5  10
TORSDOF 2
ENDMDL
MODEL 3
REMARK VINA RESULT:    -4.866     15.139     16.454
REMARK INTER + INTRA:          -5.476
REMARK INTER:                  -5.320
REMARK INTRA:                  -0.156
REMARK UNBOUND:                -0.184
REMARK SMILES C=C(C)[C@H]1CC[C@H](C)C[C@@H]1O
REMARK SMILES IDX 8 1 7 2 6 3 5 4 4 5 10 6 9 7 11 8 2 10 1 11 3 12
REMARK H PARENT 11 9
REMARK Flexibility Score: inf
ROOT
ATOM      1  C   UNL     1     122.408 119.403 120.706  1.00  0.00     0.008 C 
ATOM      2  C   UNL     1     123.766 119.958 120.264  1.00  0.00    -0.012 C 
ATOM      3  C   UNL     1     123.578 121.121 119.273  1.00  0.00     0.004 C 
ATOM      4  C   UNL     1     124.931 121.696 118.837  1.00  0.00     0.011 C 
ATOM      5  C   UNL     1     125.755 122.153 120.058  1.00  0.00     0.043 C 
ATOM      6  C   UNL     1     125.948 120.992 121.060  1.00  0.00     0.121 C 
ATOM      7  C   UNL     1     124.585 120.416 121.486  1.00  0.00     0.035 C 
ENDROOT
BRANCH   6   8
ATOM      8  O   UNL     1     126.633 121.463 122.193  1.00  0.00    -0.392 OA
ATOM      9  H   UNL     1     127.253 120.740 122.476  1.00  0.00     0.210 HD
ENDBRANCH   6   8
BRANCH   5  10
ATOM     10  C   UNL     1     127.089 122.751 119.624  1.00  0.00    -0.075 C 
ATOM     11  C   UNL     1     127.285 124.080 119.604  1.00  0.00     0.008 C 
ATOM     12  C   UNL     1     128.221 121.848 119.203  1.00  0.00     0.039 C 
ENDBRANCH   5  10
TORSDOF 2
ENDMDL
MODEL 4
REMARK VINA RESULT:    -4.801     15.090     16.341
REMARK INTER + INTRA:          -5.405
REMARK INTER:                  -5.293
REMARK INTRA:                  -0.112
REMARK UNBOUND:                -0.184
REMARK SMILES C=C(C)[C@H]1CC[C@H](C)C[C@@H]1O
REMARK SMILES IDX 8 1 7 2 6 3 5 4 4 5 10 6 9 7 11 8 2 10 1 11 3 12
REMARK H PARENT 11 9
REMARK Flexibility Score: inf
ROOT
ATOM      1  C   UNL     1     122.310 119.667 121.588  1.00  0.00     0.008 C 
ATOM      2  C   UNL     1     123.368 120.709 121.211  1.00  0.00    -0.012 C 
ATOM      3  C   UNL     1     124.736 120.330 121.807  1.00  0.00     0.004 C 
ATOM      4  C   UNL     1     125.807 121.358 121.421  1.00  0.00     0.011 C 
ATOM      5  C   UNL     1     125.906 121.503 119.889  1.00  0.00     0.043 C 
ATOM      6  C   UNL     1     124.536 121.882 119.281  1.00  0.00     0.121 C 
ATOM      7  C   UNL     1     123.465 120.849 119.679  1.00  0.00     0.035 C 
ENDROOT
BRANCH   6   8
ATOM      8  O   UNL     1     124.644 121.928 117.881  1.00  0.00    -0.392 OA
ATOM      9  H   UNL     1     123.985 122.601 117.564  1.00  0.00     0.210 HD
ENDBRANCH   6   8
BRANCH   5  10
ATOM     10  C   UNL     1     126.990 122.504 119.504  1.00  0.00    -0.075 C 
ATOM     11  C   UNL     1     126.775 123.829 119.575  1.00  0.00     0.008 C 
ATOM     12  C   UNL     1     128.335 122.016 119.030  1.00  0.00     0.039 C 
ENDBRANCH   5  10
TORSDOF 2
ENDMDL
MODEL 5
REMARK VINA RESULT:    -4.767      2.255      3.194
REMARK INTER + INTRA:          -5.369
REMARK INTER:                  -5.180
REMARK INTRA:                  -0.189
REMARK UNBOUND:                -0.184
REMARK SMILES C=C(C)[C@H]1CC[C@H](C)C[C@@H]1O
REMARK SMILES IDX 8 1 7 2 6 3 5 4 4 5 10 6 9 7 11 8 2 10 1 11 3 12
REMARK H PARENT 11 9
REMARK Flexibility Score: inf
ROOT
ATOM      1  C   UNL     1     115.175 119.989 133.820  1.00  0.00     0.008 C 
ATOM      2  C   UNL     1     115.171 120.751 132.490  1.00  0.00    -0.012 C 
ATOM      3  C   UNL     1     114.121 120.158 131.532  1.00  0.00     0.004 C 
ATOM      4  C   UNL     1     114.097 120.923 130.204  1.00  0.00     0.011 C 
ATOM      5  C   UNL     1     113.830 122.424 130.436  1.00  0.00     0.043 C 
ATOM      6  C   UNL     1     114.878 123.029 131.399  1.00  0.00     0.121 C 
ATOM      7  C   UNL     1     114.901 122.249 132.727  1.00  0.00     0.035 C 
ENDROOT
BRANCH   6   8
ATOM      8  O   UNL     1     114.559 124.373 131.651  1.00  0.00    -0.392 OA
ATOM      9  H   UNL     1     113.587 124.405 131.853  1.00  0.00     0.210 HD
ENDBRANCH   6   8
BRANCH   5  10
ATOM     10  C   UNL     1     113.776 123.181 129.114  1.00  0.00    -0.075 C 
ATOM     11  C   UNL     1     112.623 123.688 128.645  1.00  0.00     0.008 C 
ATOM     12  C   UNL     1     115.031 123.373 128.301  1.00  0.00     0.039 C 
ENDBRANCH   5  10
TORSDOF 2
ENDMDL
MODEL 6
REMARK VINA RESULT:    -4.605      1.956      2.624
REMARK INTER + INTRA:          -5.192
REMARK INTER:                  -4.997
REMARK INTRA:                  -0.196
REMARK UNBOUND:                -0.184
REMARK SMILES C=C(C)[C@H]1CC[C@H](C)C[C@@H]1O
REMARK SMILES IDX 8 1 7 2 6 3 5 4 4 5 10 6 9 7 11 8 2 10 1 11 3 12
REMARK H PARENT 11 9
REMARK Flexibility Score: inf
ROOT
ATOM      1  C   UNL     1     115.552 120.007 134.691  1.00  0.00     0.008 C 
ATOM      2  C   UNL     1     115.383 120.391 133.217  1.00  0.00    -0.012 C 
ATOM      3  C   UNL     1     113.964 120.046 132.729  1.00  0.00     0.004 C 
ATOM      4  C   UNL     1     113.779 120.441 131.259  1.00  0.00     0.011 C 
ATOM      5  C   UNL     1     114.074 121.940 131.049  1.00  0.00     0.043 C 
ATOM      6  C   UNL     1     115.496 122.297 131.538  1.00  0.00     0.121 C 
ATOM      7  C   UNL     1     115.676 121.890 133.012  1.00  0.00     0.035 C 
ENDROOT
BRANCH   6   8
ATOM      8  O   UNL     1     115.702 123.681 131.406  1.00  0.00    -0.392 OA
ATOM      9  H   UNL     1     114.990 124.129 131.936  1.00  0.00     0.210 HD
ENDBRANCH   6   8
BRANCH   5  10
ATOM     10  C   UNL     1     113.861 122.341 129.593  1.00  0.00    -0.075 C 
ATOM     11  C   UNL     1     114.537 121.741 128.598  1.00  0.00     0.008 C 
ATOM     12  C   UNL     1     112.880 123.431 129.244  1.00  0.00     0.039 C 
ENDBRANCH   5  10
TORSDOF 2
ENDMDL
MODEL 7
REMARK VINA RESULT:    -4.527      1.539      2.402
REMARK INTER + INTRA:          -5.107
REMARK INTER:                  -4.914
REMARK INTRA:                  -0.193
REMARK UNBOUND:                -0.184
REMARK SMILES C=C(C)[C@H]1CC[C@H](C)C[C@@H]1O
REMARK SMILES IDX 8 1 7 2 6 3 5 4 4 5 10 6 9 7 11 8 2 10 1 11 3 12
REMARK H PARENT 11 9
REMARK Flexibility Score: inf
ROOT
ATOM      1  C   UNL     1     117.578 120.115 135.362  1.00  0.00     0.008 C 
ATOM      2  C   UNL     1     116.727 120.176 134.089  1.00  0.00    -0.012 C 
ATOM      3  C   UNL     1     115.230 120.230 134.444  1.00  0.00     0.004 C 
ATOM      4  C   UNL     1     114.369 120.308 133.177  1.00  0.00     0.011 C 
ATOM      5  C   UNL     1     114.765 121.523 132.314  1.00  0.00     0.043 C 
ATOM      6  C   UNL     1     116.268 121.479 131.955  1.00  0.00     0.121 C 
ATOM      7  C   UNL     1     117.124 121.393 133.232  1.00  0.00     0.035 C 
ENDROOT
BRANCH   6   8
ATOM      8  O   UNL     1     116.610 122.638 131.239  1.00  0.00    -0.392 OA
ATOM      9  H   UNL     1     117.061 123.249 131.879  1.00  0.00     0.210 HD
ENDBRANCH   6   8
BRANCH   5  10
ATOM     10  C   UNL     1     113.890 121.618 131.069  1.00  0.00    -0.075 C 
ATOM     11  C   UNL     1     113.020 122.629 130.902  1.00  0.00     0.008 C 
ATOM     12  C   UNL     1     113.987 120.565 129.995  1.00  0.00     0.039 C 
ENDBRANCH   5  10
TORSDOF 2
ENDMDL
MODEL 8
REMARK VINA RESULT:    -4.425      2.484      3.723
REMARK INTER + INTRA:          -4.996
REMARK INTER:                  -4.801
REMARK INTRA:                  -0.195
REMARK UNBOUND:                -0.184
REMARK SMILES C=C(C)[C@H]1CC[C@H](C)C[C@@H]1O
REMARK SMILES IDX 8 1 7 2 6 3 5 4 4 5 10 6 9 7 11 8 2 10 1 11 3 12
REMARK H PARENT 11 9
REMARK Flexibility Score: inf
ROOT
ATOM      1  C   UNL     1     117.866 125.702 131.104  1.00  0.00     0.008 C 
ATOM      2  C   UNL     1     116.967 124.473 130.929  1.00  0.00    -0.012 C 
ATOM      3  C   UNL     1     117.624 123.230 131.556  1.00  0.00     0.004 C 
ATOM      4  C   UNL     1     116.726 121.998 131.400  1.00  0.00     0.011 C 
ATOM      5  C   UNL     1     115.336 122.246 132.021  1.00  0.00     0.043 C 
ATOM      6  C   UNL     1     114.669 123.494 131.400  1.00  0.00     0.121 C 
ATOM      7  C   UNL     1     115.582 124.725 131.553  1.00  0.00     0.035 C 
ENDROOT
BRANCH   6   8
ATOM      8  O   UNL     1     113.443 123.737 132.042  1.00  0.00    -0.392 OA
ATOM      9  H   UNL     1     113.245 122.935 132.595  1.00  0.00     0.210 HD
ENDBRANCH   6   8
BRANCH   5  10
ATOM     10  C   UNL     1     114.451 121.011 131.893  1.00  0.00    -0.075 C 
ATOM     11  C   UNL     1     114.174 120.471 130.694  1.00  0.00     0.008 C 
ATOM     12  C   UNL     1     113.865 120.370 133.125  1.00  0.00     0.039 C 
ENDBRANCH   5  10
TORSDOF 2
ENDMDL
MODEL 9
REMARK VINA RESULT:    -4.311      1.946      4.782
REMARK INTER + INTRA:          -4.872
REMARK INTER:                  -4.686
REMARK INTRA:                  -0.186
REMARK UNBOUND:                -0.184
REMARK SMILES C=C(C)[C@H]1CC[C@H](C)C[C@@H]1O
REMARK SMILES IDX 8 1 7 2 6 3 5 4 4 5 10 6 9 7 11 8 2 10 1 11 3 12
REMARK H PARENT 11 9
REMARK Flexibility Score: inf
ROOT
ATOM      1  C   UNL     1     113.460 121.841 131.649  1.00  0.00     0.008 C 
ATOM      2  C   UNL     1     114.554 121.642 132.704  1.00  0.00    -0.012 C 
ATOM      3  C   UNL     1     114.315 120.340 133.490  1.00  0.00     0.004 C 
ATOM      4  C   UNL     1     115.414 120.122 134.538  1.00  0.00     0.011 C 
ATOM      5  C   UNL     1     116.809 120.109 133.880  1.00  0.00     0.043 C 
ATOM      6  C   UNL     1     117.057 121.412 133.087  1.00  0.00     0.121 C 
ATOM      7  C   UNL     1     115.945 121.627 132.043  1.00  0.00     0.035 C 
ENDROOT
BRANCH   6   8
ATOM      8  O   UNL     1     118.301 121.333 132.437  1.00  0.00    -0.392 OA
ATOM      9  H   UNL     1     118.990 121.243 133.147  1.00  0.00     0.210 HD
ENDBRANCH   6   8
BRANCH   5  10
ATOM     10  C   UNL     1     117.899 119.864 134.917  1.00  0.00    -0.075 C 
ATOM     11  C   UNL     1     118.575 118.702 134.960  1.00  0.00     0.008 C 
ATOM     12  C   UNL     1     118.239 120.932 135.924  1.00  0.00     0.039 C 
ENDBRANCH   5  10
TORSDOF 2
ENDMDL
