MODEL 1
REMARK VINA RESULT:    -6.552      0.000      0.000
REMARK INTER + INTRA:          -9.087
REMARK INTER:                  -8.467
REMARK INTRA:                  -0.620
REMARK UNBOUND:                -0.620
REMARK SMILES CCCCC(=O)c1ccccc1C(=O)[O-]
REMARK SMILES IDX 4 1 5 2 6 3 7 4 12 5 11 6 10 7 8 8 9 9 13 10 14 11 15 12
REMARK SMILES IDX 3 13 2 14 1 15
REMARK H PARENT
REMARK Flexibility Score: inf
ROOT
ATOM      1  C   UNL     1     130.763 126.647 128.051  1.00  0.00     0.081 C 
ENDROOT
BRANCH   1   2
ATOM      2  C   UNL     1     129.419 125.971 127.990  1.00  0.00     0.163 C 
ATOM      3  O   UNL     1     128.526 126.458 127.247  1.00  0.00    -0.294 OA
BRANCH   2   4
ATOM      4  C   UNL     1     129.121 124.757 128.794  1.00  0.00     0.027 A 
ATOM      5  C   UNL     1     128.822 123.504 128.189  1.00  0.00     0.008 A 
ATOM      6  C   UNL     1     128.419 122.428 129.002  1.00  0.00     0.011 A 
ATOM      7  C   UNL     1     128.348 122.567 130.388  1.00  0.00     0.001 A 
ATOM      8  C   UNL     1     129.060 124.867 130.197  1.00  0.00     0.012 A 
ATOM      9  C   UNL     1     128.679 123.782 130.985  1.00  0.00     0.001 A 
BRANCH   5  10
ATOM     10  C   UNL     1     128.983 123.260 126.736  1.00  0.00     0.072 C 
ATOM     11  O   UNL     1     127.993 123.353 125.963  1.00  0.00    -0.545 OA
ATOM     12  O   UNL     1     130.210 122.867 126.213  1.00  0.00    -0.545 OA
ENDBRANCH   5  10
ENDBRANCH   2   4
ENDBRANCH   1   2
BRANCH   1  13
ATOM     13  C   UNL     1     131.226 127.167 126.679  1.00  0.00     0.008 C 
BRANCH  13  14
ATOM     14  C   UNL     1     131.827 126.060 125.802  1.00  0.00    -0.003 C 
ATOM     15  C   UNL     1     131.079 125.942 124.476  1.00  0.00     0.004 C 
ENDBRANCH  13  14
ENDBRANCH   1  13
TORSDOF 5
ENDMDL
MODEL 2
REMARK VINA RESULT:    -6.467      0.991      4.605
REMARK INTER + INTRA:          -8.978
REMARK INTER:                  -8.636
REMARK INTRA:                  -0.341
REMARK UNBOUND:                -0.620
REMARK SMILES CCCCC(=O)c1ccccc1C(=O)[O-]
REMARK SMILES IDX 4 1 5 2 6 3 7 4 12 5 11 6 10 7 8 8 9 9 13 10 14 11 15 12
REMARK SMILES IDX 3 13 2 14 1 15
REMARK H PARENT
REMARK Flexibility Score: inf
ROOT
ATOM      1  C   UNL     1     128.973 124.695 129.664  1.00  0.00     0.081 C 
ENDROOT
BRANCH   1   2
ATOM      2  C   UNL     1     128.581 125.393 128.388  1.00  0.00     0.163 C 
ATOM      3  O   UNL     1     127.361 125.616 128.167  1.00  0.00    -0.294 OA
BRANCH   2   4
ATOM      4  C   UNL     1     129.595 125.806 127.384  1.00  0.00     0.027 A 
ATOM      5  C   UNL     1     130.110 124.902 126.413  1.00  0.00     0.008 A 
ATOM      6  C   UNL     1     131.163 125.319 125.577  1.00  0.00     0.011 A 
ATOM      7  C   UNL     1     131.676 126.613 125.665  1.00  0.00     0.001 A 
ATOM      8  C   UNL     1     130.117 127.113 127.441  1.00  0.00     0.012 A 
ATOM      9  C   UNL     1     131.146 127.511 126.588  1.00  0.00     0.001 A 
BRANCH   5  10
ATOM     10  C   UNL     1     129.536 123.552 126.194  1.00  0.00     0.072 C 
ATOM     11  O   UNL     1     130.288 122.542 126.154  1.00  0.00    -0.545 OA
ATOM     12  O   UNL     1     128.174 123.387 125.971  1.00  0.00    -0.545 OA
ENDBRANCH   5  10
ENDBRANCH   2   4
ENDBRANCH   1   2
BRANCH   1  13
ATOM     13  C   UNL     1     128.628 123.196 129.649  1.00  0.00     0.008 C 
BRANCH  13  14
ATOM     14  C   UNL     1     128.280 122.657 131.043  1.00  0.00    -0.003 C 
ATOM     15  C   UNL     1     128.613 123.680 132.127  1.00  0.00     0.004 C 
ENDBRANCH  13  14
ENDBRANCH   1  13
TORSDOF 5
ENDMDL
MODEL 3
REMARK VINA RESULT:    -6.367      2.107      5.462
REMARK INTER + INTRA:          -8.848
REMARK INTER:                  -8.383
REMARK INTRA:                  -0.465
REMARK UNBOUND:                -0.620
REMARK SMILES CCCCC(=O)c1ccccc1C(=O)[O-]
REMARK SMILES IDX 4 1 5 2 6 3 7 4 12 5 11 6 10 7 8 8 9 9 13 10 14 11 15 12
REMARK SMILES IDX 3 13 2 14 1 15
REMARK H PARENT
REMARK Flexibility Score: inf
ROOT
ATOM      1  C   UNL     1     128.104 125.339 127.999  1.00  0.00     0.081 C 
ENDROOT
BRANCH   1   2
ATOM      2  C   UNL     1     128.609 124.939 126.638  1.00  0.00     0.163 C 
ATOM      3  O   UNL     1     128.762 123.714 126.382  1.00  0.00    -0.294 OA
BRANCH   2   4
ATOM      4  C   UNL     1     128.942 125.950 125.602  1.00  0.00     0.027 A 
ATOM      5  C   UNL     1     130.101 126.772 125.692  1.00  0.00     0.008 A 
ATOM      6  C   UNL     1     130.288 127.799 124.748  1.00  0.00     0.011 A 
ATOM      7  C   UNL     1     129.376 127.993 123.712  1.00  0.00     0.001 A 
ATOM      8  C   UNL     1     128.045 126.153 124.535  1.00  0.00     0.012 A 
ATOM      9  C   UNL     1     128.262 127.164 123.599  1.00  0.00     0.001 A 
BRANCH   5  10
ATOM     10  C   UNL     1     131.162 126.548 126.702  1.00  0.00     0.072 C 
ATOM     11  O   UNL     1     131.940 125.562 126.597  1.00  0.00    -0.545 OA
ATOM     12  O   UNL     1     131.279 127.382 127.808  1.00  0.00    -0.545 OA
ENDBRANCH   5  10
ENDBRANCH   2   4
ENDBRANCH   1   2
BRANCH   1  13
ATOM     13  C   UNL     1     128.995 124.813 129.138  1.00  0.00     0.008 C 
BRANCH  13  14
ATOM     14  C   UNL     1     128.376 123.609 129.861  1.00  0.00    -0.003 C 
ATOM     15  C   UNL     1     128.591 123.704 131.370  1.00  0.00     0.004 C 
ENDBRANCH  13  14
ENDBRANCH   1  13
TORSDOF 5
ENDMDL
MODEL 4
REMARK VINA RESULT:    -6.253      2.317      4.081
REMARK INTER + INTRA:          -8.701
REMARK INTER:                  -8.203
REMARK INTRA:                  -0.498
REMARK UNBOUND:                -0.620
REMARK SMILES CCCCC(=O)c1ccccc1C(=O)[O-]
REMARK SMILES IDX 4 1 5 2 6 3 7 4 12 5 11 6 10 7 8 8 9 9 13 10 14 11 15 12
REMARK SMILES IDX 3 13 2 14 1 15
REMARK H PARENT
REMARK Flexibility Score: inf
ROOT
ATOM      1  C   UNL     1     130.658 126.367 123.938  1.00  0.00     0.081 C 
ENDROOT
BRANCH   1   2
ATOM      2  C   UNL     1     131.244 126.019 125.281  1.00  0.00     0.163 C 
ATOM      3  O   UNL     1     132.482 126.172 125.463  1.00  0.00    -0.294 OA
BRANCH   2   4
ATOM      4  C   UNL     1     130.402 125.489 126.385  1.00  0.00     0.027 A 
ATOM      5  C   UNL     1     130.192 126.214 127.591  1.00  0.00     0.008 A 
ATOM      6  C   UNL     1     129.494 125.600 128.648  1.00  0.00     0.011 A 
ATOM      7  C   UNL     1     128.979 124.311 128.511  1.00  0.00     0.001 A 
ATOM      8  C   UNL     1     129.856 124.197 126.263  1.00  0.00     0.012 A 
ATOM      9  C   UNL     1     129.150 123.616 127.317  1.00  0.00     0.001 A 
BRANCH   5  10
ATOM     10  C   UNL     1     130.617 127.625 127.760  1.00  0.00     0.072 C 
ATOM     11  O   UNL     1     130.109 128.530 127.047  1.00  0.00    -0.545 OA
ATOM     12  O   UNL     1     131.621 127.961 128.660  1.00  0.00    -0.545 OA
ENDBRANCH   5  10
ENDBRANCH   2   4
ENDBRANCH   1   2
BRANCH   1  13
ATOM     13  C   UNL     1     129.503 127.378 124.041  1.00  0.00     0.008 C 
BRANCH  13  14
ATOM     14  C   UNL     1     128.137 126.744 123.739  1.00  0.00    -0.003 C 
ATOM     15  C   UNL     1     127.348 127.590 122.743  1.00  0.00     0.004 C 
ENDBRANCH  13  14
ENDBRANCH   1  13
TORSDOF 5
ENDMDL
MODEL 5
REMARK VINA RESULT:    -5.807      1.704      4.831
REMARK INTER + INTRA:          -8.124
REMARK INTER:                  -7.532
REMARK INTRA:                  -0.592
REMARK UNBOUND:                -0.620
REMARK SMILES CCCCC(=O)c1ccccc1C(=O)[O-]
REMARK SMILES IDX 4 1 5 2 6 3 7 4 12 5 11 6 10 7 8 8 9 9 13 10 14 11 15 12
REMARK SMILES IDX 3 13 2 14 1 15
REMARK H PARENT
REMARK Flexibility Score: inf
ROOT
ATOM      1  C   UNL     1     128.185 124.280 127.034  1.00  0.00     0.081 C 
ENDROOT
BRANCH   1   2
ATOM      2  C   UNL     1     129.613 124.545 126.638  1.00  0.00     0.163 C 
ATOM      3  O   UNL     1     130.287 123.611 126.126  1.00  0.00    -0.294 OA
BRANCH   2   4
ATOM      4  C   UNL     1     130.247 125.872 126.852  1.00  0.00     0.027 A 
ATOM      5  C   UNL     1     130.746 126.654 125.772  1.00  0.00     0.008 A 
ATOM      6  C   UNL     1     131.453 127.839 126.052  1.00  0.00     0.011 A 
ATOM      7  C   UNL     1     131.633 128.269 127.366  1.00  0.00     0.001 A 
ATOM      8  C   UNL     1     130.426 126.337 128.169  1.00  0.00     0.012 A 
ATOM      9  C   UNL     1     131.111 127.526 128.422  1.00  0.00     0.001 A 
BRANCH   5  10
ATOM     10  C   UNL     1     130.493 126.310 124.352  1.00  0.00     0.072 C 
ATOM     11  O   UNL     1     129.426 126.675 123.792  1.00  0.00    -0.545 OA
ATOM     12  O   UNL     1     131.397 125.532 123.638  1.00  0.00    -0.545 OA
ENDBRANCH   5  10
ENDBRANCH   2   4
ENDBRANCH   1   2
BRANCH   1  13
ATOM     13  C   UNL     1     128.073 123.359 128.262  1.00  0.00     0.008 C 
BRANCH  13  14
ATOM     14  C   UNL     1     127.729 124.128 129.545  1.00  0.00    -0.003 C 
ATOM     15  C   UNL     1     128.699 123.779 130.672  1.00  0.00     0.004 C 
ENDBRANCH  13  14
ENDBRANCH   1  13
TORSDOF 5
ENDMDL
MODEL 6
REMARK VINA RESULT:    -5.754      2.486      4.358
REMARK INTER + INTRA:          -8.056
REMARK INTER:                  -7.562
REMARK INTRA:                  -0.494
REMARK UNBOUND:                -0.620
REMARK SMILES CCCCC(=O)c1ccccc1C(=O)[O-]
REMARK SMILES IDX 4 1 5 2 6 3 7 4 12 5 11 6 10 7 8 8 9 9 13 10 14 11 15 12
REMARK SMILES IDX 3 13 2 14 1 15
REMARK H PARENT
REMARK Flexibility Score: inf
ROOT
ATOM      1  C   UNL     1     129.247 127.441 123.734  1.00  0.00     0.081 C 
ENDROOT
BRANCH   1   2
ATOM      2  C   UNL     1     130.288 126.594 124.418  1.00  0.00     0.163 C 
ATOM      3  O   UNL     1     130.935 125.755 123.735  1.00  0.00    -0.294 OA
BRANCH   2   4
ATOM      4  C   UNL     1     130.556 126.715 125.874  1.00  0.00     0.027 A 
ATOM      5  C   UNL     1     130.081 125.755 126.813  1.00  0.00     0.008 A 
ATOM      6  C   UNL     1     130.255 125.996 128.188  1.00  0.00     0.011 A 
ATOM      7  C   UNL     1     130.916 127.140 128.635  1.00  0.00     0.001 A 
ATOM      8  C   UNL     1     131.236 127.852 126.350  1.00  0.00     0.012 A 
ATOM      9  C   UNL     1     131.416 128.060 127.717  1.00  0.00     0.001 A 
BRANCH   5  10
ATOM     10  C   UNL     1     129.470 124.469 126.400  1.00  0.00     0.072 C 
ATOM     11  O   UNL     1     130.199 123.486 126.104  1.00  0.00    -0.545 OA
ATOM     12  O   UNL     1     128.091 124.346 126.275  1.00  0.00    -0.545 OA
ENDBRANCH   5  10
ENDBRANCH   2   4
ENDBRANCH   1   2
BRANCH   1  13
ATOM     13  C   UNL     1     127.862 126.771 123.710  1.00  0.00     0.008 C 
BRANCH  13  14
ATOM     14  C   UNL     1     127.019 127.203 122.502  1.00  0.00    -0.003 C 
ATOM     15  C   UNL     1     127.397 128.610 122.043  1.00  0.00     0.004 C 
ENDBRANCH  13  14
ENDBRANCH   1  13
TORSDOF 5
ENDMDL
MODEL 7
REMARK VINA RESULT:    -5.383      1.920      4.840
REMARK INTER + INTRA:          -7.577
REMARK INTER:                  -7.146
REMARK INTRA:                  -0.431
REMARK UNBOUND:                -0.620
REMARK SMILES CCCCC(=O)c1ccccc1C(=O)[O-]
REMARK SMILES IDX 4 1 5 2 6 3 7 4 12 5 11 6 10 7 8 8 9 9 13 10 14 11 15 12
REMARK SMILES IDX 3 13 2 14 1 15
REMARK H PARENT
REMARK Flexibility Score: inf
ROOT
ATOM      1  C   UNL     1     128.259 124.279 129.718  1.00  0.00     0.081 C 
ENDROOT
BRANCH   1   2
ATOM      2  C   UNL     1     128.233 124.972 128.381  1.00  0.00     0.163 C 
ATOM      3  O   UNL     1     127.348 125.843 128.165  1.00  0.00    -0.294 OA
BRANCH   2   4
ATOM      4  C   UNL     1     129.211 124.641 127.313  1.00  0.00     0.027 A 
ATOM      5  C   UNL     1     130.094 125.617 126.768  1.00  0.00     0.008 A 
ATOM      6  C   UNL     1     130.903 125.271 125.669  1.00  0.00     0.011 A 
ATOM      7  C   UNL     1     130.875 123.982 125.138  1.00  0.00     0.001 A 
ATOM      8  C   UNL     1     129.215 123.342 126.772  1.00  0.00     0.012 A 
ATOM      9  C   UNL     1     130.041 123.017 125.696  1.00  0.00     0.001 A 
BRANCH   5  10
ATOM     10  C   UNL     1     130.251 126.969 127.355  1.00  0.00     0.072 C 
ATOM     11  O   UNL     1     129.798 127.978 126.753  1.00  0.00    -0.545 OA
ATOM     12  O   UNL     1     130.949 127.151 128.543  1.00  0.00    -0.545 OA
ENDBRANCH   5  10
ENDBRANCH   2   4
ENDBRANCH   1   2
BRANCH   1  13
ATOM     13  C   UNL     1     129.345 124.838 130.653  1.00  0.00     0.008 C 
BRANCH  13  14
ATOM     14  C   UNL     1     129.099 124.477 132.124  1.00  0.00    -0.003 C 
ATOM     15  C   UNL     1     128.461 123.096 132.253  1.00  0.00     0.004 C 
ENDBRANCH  13  14
ENDBRANCH   1  13
TORSDOF 5
ENDMDL
MODEL 8
REMARK VINA RESULT:    -5.348      3.200      5.236
REMARK INTER + INTRA:          -7.531
REMARK INTER:                  -7.779
REMARK INTRA:                   0.248
REMARK UNBOUND:                -0.620
REMARK SMILES CCCCC(=O)c1ccccc1C(=O)[O-]
REMARK SMILES IDX 4 1 5 2 6 3 7 4 12 5 11 6 10 7 8 8 9 9 13 10 14 11 15 12
REMARK SMILES IDX 3 13 2 14 1 15
REMARK H PARENT
REMARK Flexibility Score: inf
ROOT
ATOM      1  C   UNL     1     128.241 127.869 123.205  1.00  0.00     0.081 C 
ENDROOT
BRANCH   1   2
ATOM      2  C   UNL     1     128.369 126.691 124.134  1.00  0.00     0.163 C 
ATOM      3  O   UNL     1     127.359 125.966 124.340  1.00  0.00    -0.294 OA
BRANCH   2   4
ATOM      4  C   UNL     1     129.648 126.376 124.821  1.00  0.00     0.027 A 
ATOM      5  C   UNL     1     129.687 125.767 126.108  1.00  0.00     0.008 A 
ATOM      6  C   UNL     1     130.925 125.617 126.759  1.00  0.00     0.011 A 
ATOM      7  C   UNL     1     132.110 126.021 126.144  1.00  0.00     0.001 A 
ATOM      8  C   UNL     1     130.860 126.758 124.213  1.00  0.00     0.012 A 
ATOM      9  C   UNL     1     132.078 126.579 124.868  1.00  0.00     0.001 A 
BRANCH   5  10
ATOM     10  C   UNL     1     128.478 125.218 126.767  1.00  0.00     0.072 C 
ATOM     11  O   UNL     1     128.153 124.013 126.594  1.00  0.00    -0.545 OA
ATOM     12  O   UNL     1     127.655 126.033 127.535  1.00  0.00    -0.545 OA
ENDBRANCH   5  10
ENDBRANCH   2   4
ENDBRANCH   1   2
BRANCH   1  13
ATOM     13  C   UNL     1     127.168 127.655 122.124  1.00  0.00     0.008 C 
BRANCH  13  14
ATOM     14  C   UNL     1     126.015 128.664 122.230  1.00  0.00    -0.003 C 
ATOM     15  C   UNL     1     126.459 130.055 121.784  1.00  0.00     0.004 C 
ENDBRANCH  13  14
ENDBRANCH   1  13
TORSDOF 5
ENDMDL
MODEL 9
REMARK VINA RESULT:    -4.951      9.418     11.368
REMARK INTER + INTRA:          -7.018
REMARK INTER:                  -6.276
REMARK INTRA:                  -0.742
REMARK UNBOUND:                -0.620
REMARK SMILES CCCCC(=O)c1ccccc1C(=O)[O-]
REMARK SMILES IDX 4 1 5 2 6 3 7 4 12 5 11 6 10 7 8 8 9 9 13 10 14 11 15 12
REMARK SMILES IDX 3 13 2 14 1 15
REMARK H PARENT
REMARK Flexibility Score: inf
ROOT
ATOM      1  C   UNL     1     119.684 125.073 130.925  1.00  0.00     0.081 C 
ENDROOT
BRANCH   1   2
ATOM      2  C   UNL     1     119.543 126.557 131.142  1.00  0.00     0.163 C 
ATOM      3  O   UNL     1     118.403 127.028 131.404  1.00  0.00    -0.294 OA
BRANCH   2   4
ATOM      4  C   UNL     1     120.708 127.473 131.041  1.00  0.00     0.027 A 
ATOM      5  C   UNL     1     121.259 128.124 132.181  1.00  0.00     0.008 A 
ATOM      6  C   UNL     1     122.276 129.080 131.999  1.00  0.00     0.011 A 
ATOM      7  C   UNL     1     122.771 129.365 130.727  1.00  0.00     0.001 A 
ATOM      8  C   UNL     1     121.237 127.764 129.769  1.00  0.00     0.012 A 
ATOM      9  C   UNL     1     122.260 128.700 129.615  1.00  0.00     0.001 A 
BRANCH   5  10
ATOM     10  C   UNL     1     120.855 127.787 133.567  1.00  0.00     0.072 C 
ATOM     11  O   UNL     1     121.472 126.894 134.207  1.00  0.00    -0.545 OA
ATOM     12  O   UNL     1     119.759 128.404 134.157  1.00  0.00    -0.545 OA
ENDBRANCH   5  10
ENDBRANCH   2   4
ENDBRANCH   1   2
BRANCH   1  13
ATOM     13  C   UNL     1     120.120 124.328 132.197  1.00  0.00     0.008 C 
BRANCH  13  14
ATOM     14  C   UNL     1     118.929 123.849 133.038  1.00  0.00    -0.003 C 
ATOM     15  C   UNL     1     118.834 124.626 134.349  1.00  0.00     0.004 C 
ENDBRANCH  13  14
ENDBRANCH   1  13
TORSDOF 5
ENDMDL
