MODEL 1
REMARK VINA RESULT:    -6.764      0.000      0.000
REMARK INTER + INTRA:          -8.501
REMARK INTER:                  -8.148
REMARK INTRA:                  -0.353
REMARK UNBOUND:                -0.353
REMARK SMILES Oc1cc(O)c2cc(O)c(-c3ccc(O)c(O)c3)[o+]c2c1.[Cl-]
REMARK SMILES IDX 10 1 19 2 20 3 21 4 2 5 3 6 4 7 6 8 7 9 8 10 11 11 12 12
REMARK SMILES IDX 13 13 14 14 18 15 16 16 15 17 17 19 9 21 1 23 5 25
REMARK H PARENT 15 18 17 20 9 22 1 24 5 26
REMARK Flexibility Score: inf
ROOT
ATOM      1  C   UNL     1      15.103  14.901  62.156  1.00  0.00     0.402 A 
ATOM      2  O   UNL     1      16.139  15.735  62.193  1.00  0.00    -0.202 OA
ATOM      3  C   UNL     1      17.101  15.745  61.275  1.00  0.00     0.368 A 
ATOM      4  C   UNL     1      18.148  16.662  61.398  1.00  0.00     0.162 A 
ATOM      5  C   UNL     1      19.171  16.695  60.445  1.00  0.00     0.128 A 
ATOM      6  C   UNL     1      19.145  15.808  59.366  1.00  0.00     0.093 A 
ATOM      7  C   UNL     1      18.107  14.881  59.221  1.00  0.00     0.136 A 
ATOM      8  C   UNL     1      17.068  14.840  60.186  1.00  0.00     0.125 A 
ATOM      9  C   UNL     1      15.995  13.936  60.128  1.00  0.00     0.078 A 
ATOM     10  C   UNL     1      15.010  13.953  61.120  1.00  0.00     0.223 A 
ENDROOT
BRANCH   1  11
ATOM     11  C   UNL     1      14.091  14.995  63.233  1.00  0.00     0.087 A 
ATOM     12  C   UNL     1      14.325  14.354  64.459  1.00  0.00     0.022 A 
ATOM     13  C   UNL     1      13.392  14.445  65.496  1.00  0.00     0.051 A 
ATOM     14  C   UNL     1      12.221  15.193  65.326  1.00  0.00     0.157 A 
ATOM     15  C   UNL     1      12.922  15.761  63.074  1.00  0.00     0.068 A 
ATOM     16  C   UNL     1      11.986  15.856  64.115  1.00  0.00     0.158 A 
BRANCH  14  17
ATOM     17  O   UNL     1      11.287  15.285  66.357  1.00  0.00    -0.504 OA
ATOM     18  H   UNL     1      10.456  15.857  66.271  1.00  0.00     0.293 HD
ENDBRANCH  14  17
BRANCH  16  19
ATOM     19  O   UNL     1      10.825  16.610  63.954  1.00  0.00    -0.504 OA
ATOM     20  H   UNL     1      10.548  17.308  64.635  1.00  0.00     0.293 HD
ENDBRANCH  16  19
ENDBRANCH   1  11
BRANCH  10  21
ATOM     21  O   UNL     1      13.971  13.022  61.091  1.00  0.00    -0.500 OA
ATOM     22  H   UNL     1      13.003  13.307  60.990  1.00  0.00     0.294 HD
ENDBRANCH  10  21
BRANCH   5  23
ATOM     23  O   UNL     1      20.218  17.606  60.561  1.00  0.00    -0.507 OA
ATOM     24  H   UNL     1      20.667  17.788  61.451  1.00  0.00     0.293 HD
ENDBRANCH   5  23
BRANCH   7  25
ATOM     25  O   UNL     1      18.153  14.032  58.111  1.00  0.00    -0.507 OA
ATOM     26  H   UNL     1      17.432  13.366  57.871  1.00  0.00     0.293 HD
ENDBRANCH   7  25
TORSDOF 6
ENDMDL
MODEL 2
REMARK VINA RESULT:    -6.678      3.177      6.294
REMARK INTER + INTRA:          -8.398
REMARK INTER:                  -8.403
REMARK INTRA:                   0.005
REMARK UNBOUND:                -0.353
REMARK SMILES Oc1cc(O)c2cc(O)c(-c3ccc(O)c(O)c3)[o+]c2c1.[Cl-]
REMARK SMILES IDX 10 1 19 2 20 3 21 4 2 5 3 6 4 7 6 8 7 9 8 10 11 11 12 12
REMARK SMILES IDX 13 13 14 14 18 15 16 16 15 17 17 19 9 21 1 23 5 25
REMARK H PARENT 15 18 17 20 9 22 1 24 5 26
REMARK Flexibility Score: inf
ROOT
ATOM      1  C   UNL     1      13.816  15.785  63.159  1.00  0.00     0.402 A 
ATOM      2  O   UNL     1      12.602  16.250  63.440  1.00  0.00    -0.202 OA
ATOM      3  C   UNL     1      12.305  17.545  63.467  1.00  0.00     0.368 A 
ATOM      4  C   UNL     1      10.998  17.937  63.770  1.00  0.00     0.162 A 
ATOM      5  C   UNL     1      10.659  19.294  63.801  1.00  0.00     0.128 A 
ATOM      6  C   UNL     1      11.630  20.260  63.529  1.00  0.00     0.093 A 
ATOM      7  C   UNL     1      12.945  19.893  63.222  1.00  0.00     0.136 A 
ATOM      8  C   UNL     1      13.296  18.518  63.192  1.00  0.00     0.125 A 
ATOM      9  C   UNL     1      14.592  18.058  62.907  1.00  0.00     0.078 A 
ATOM     10  C   UNL     1      14.864  16.687  62.900  1.00  0.00     0.223 A 
ENDROOT
BRANCH   1  11
ATOM     11  C   UNL     1      14.018  14.318  63.151  1.00  0.00     0.087 A 
ATOM     12  C   UNL     1      14.709  13.721  62.083  1.00  0.00     0.022 A 
ATOM     13  C   UNL     1      14.928  12.342  62.065  1.00  0.00     0.051 A 
ATOM     14  C   UNL     1      14.475  11.541  63.120  1.00  0.00     0.157 A 
ATOM     15  C   UNL     1      13.583  13.512  64.218  1.00  0.00     0.068 A 
ATOM     16  C   UNL     1      13.805  12.127  64.201  1.00  0.00     0.158 A 
BRANCH  14  17
ATOM     17  O   UNL     1      14.691  10.164  63.104  1.00  0.00    -0.504 OA
ATOM     18  H   UNL     1      13.984   9.512  63.423  1.00  0.00     0.293 HD
ENDBRANCH  14  17
BRANCH  16  19
ATOM     19  O   UNL     1      13.367  11.328  65.256  1.00  0.00    -0.504 OA
ATOM     20  H   UNL     1      12.477  11.495  65.713  1.00  0.00     0.293 HD
ENDBRANCH  16  19
ENDBRANCH   1  11
BRANCH  10  21
ATOM     21  O   UNL     1      16.162  16.232  62.667  1.00  0.00    -0.500 OA
ATOM     22  H   UNL     1      16.421  15.783  61.795  1.00  0.00     0.294 HD
ENDBRANCH  10  21
BRANCH   5  23
ATOM     23  O   UNL     1       9.358  19.692  64.103  1.00  0.00    -0.507 OA
ATOM     24  H   UNL     1       8.554  19.197  63.736  1.00  0.00     0.293 HD
ENDBRANCH   5  23
BRANCH   7  25
ATOM     25  O   UNL     1      13.856  20.921  62.958  1.00  0.00    -0.507 OA
ATOM     26  H   UNL     1      14.852  20.789  62.857  1.00  0.00     0.293 HD
ENDBRANCH   7  25
TORSDOF 6
ENDMDL
MODEL 3
REMARK VINA RESULT:    -6.481      1.432      2.637
REMARK INTER + INTRA:          -8.161
REMARK INTER:                  -7.977
REMARK INTRA:                  -0.183
REMARK UNBOUND:                -0.353
REMARK SMILES Oc1cc(O)c2cc(O)c(-c3ccc(O)c(O)c3)[o+]c2c1.[Cl-]
REMARK SMILES IDX 10 1 19 2 20 3 21 4 2 5 3 6 4 7 6 8 7 9 8 10 11 11 12 12
REMARK SMILES IDX 13 13 14 14 18 15 16 16 15 17 17 19 9 21 1 23 5 25
REMARK H PARENT 15 18 17 20 9 22 1 24 5 26
REMARK Flexibility Score: inf
ROOT
ATOM      1  C   UNL     1      14.694  15.712  62.397  1.00  0.00     0.402 A 
ATOM      2  O   UNL     1      15.122  14.643  61.730  1.00  0.00    -0.202 OA
ATOM      3  C   UNL     1      15.949  14.714  60.692  1.00  0.00     0.368 A 
ATOM      4  C   UNL     1      16.346  13.535  60.056  1.00  0.00     0.162 A 
ATOM      5  C   UNL     1      17.218  13.581  58.965  1.00  0.00     0.128 A 
ATOM      6  C   UNL     1      17.695  14.812  58.508  1.00  0.00     0.093 A 
ATOM      7  C   UNL     1      17.314  16.008  59.128  1.00  0.00     0.136 A 
ATOM      8  C   UNL     1      16.426  15.967  60.235  1.00  0.00     0.125 A 
ATOM      9  C   UNL     1      15.980  17.115  60.909  1.00  0.00     0.078 A 
ATOM     10  C   UNL     1      15.101  16.996  61.990  1.00  0.00     0.223 A 
ENDROOT
BRANCH   1  11
ATOM     11  C   UNL     1      13.780  15.501  63.544  1.00  0.00     0.087 A 
ATOM     12  C   UNL     1      14.255  14.853  64.695  1.00  0.00     0.022 A 
ATOM     13  C   UNL     1      13.416  14.661  65.796  1.00  0.00     0.051 A 
ATOM     14  C   UNL     1      12.097  15.128  65.767  1.00  0.00     0.157 A 
ATOM     15  C   UNL     1      12.460  15.986  63.527  1.00  0.00     0.068 A 
ATOM     16  C   UNL     1      11.618  15.795  64.633  1.00  0.00     0.158 A 
BRANCH  14  17
ATOM     17  O   UNL     1      11.256  14.937  66.863  1.00  0.00    -0.504 OA
ATOM     18  H   UNL     1      11.371  14.149  67.489  1.00  0.00     0.293 HD
ENDBRANCH  14  17
BRANCH  16  19
ATOM     19  O   UNL     1      10.308  16.270  64.613  1.00  0.00    -0.504 OA
ATOM     20  H   UNL     1       9.839  16.567  65.461  1.00  0.00     0.293 HD
ENDBRANCH  16  19
ENDBRANCH   1  11
BRANCH  10  21
ATOM     21  O   UNL     1      14.617  18.138  62.628  1.00  0.00    -0.500 OA
ATOM     22  H   UNL     1      13.658  18.445  62.515  1.00  0.00     0.294 HD
ENDBRANCH  10  21
BRANCH   5  23
ATOM     23  O   UNL     1      17.617  12.410  58.326  1.00  0.00    -0.507 OA
ATOM     24  H   UNL     1      18.337  11.812  58.715  1.00  0.00     0.293 HD
ENDBRANCH   5  23
BRANCH   7  25
ATOM     25  O   UNL     1      17.839  17.196  58.613  1.00  0.00    -0.507 OA
ATOM     26  H   UNL     1      17.854  17.436  57.632  1.00  0.00     0.293 HD
ENDBRANCH   7  25
TORSDOF 6
ENDMDL
MODEL 4
REMARK VINA RESULT:    -6.121      1.679      7.145
REMARK INTER + INTRA:          -7.727
REMARK INTER:                  -7.549
REMARK INTRA:                  -0.179
REMARK UNBOUND:                -0.353
REMARK SMILES Oc1cc(O)c2cc(O)c(-c3ccc(O)c(O)c3)[o+]c2c1.[Cl-]
REMARK SMILES IDX 10 1 19 2 20 3 21 4 2 5 3 6 4 7 6 8 7 9 8 10 11 11 12 12
REMARK SMILES IDX 13 13 14 14 18 15 16 16 15 17 17 19 9 21 1 23 5 25
REMARK H PARENT 15 18 17 20 9 22 1 24 5 26
REMARK Flexibility Score: inf
ROOT
ATOM      1  C   UNL     1      14.277  15.494  62.966  1.00  0.00     0.402 A 
ATOM      2  O   UNL     1      13.462  16.539  62.852  1.00  0.00    -0.202 OA
ATOM      3  C   UNL     1      12.412  16.736  63.642  1.00  0.00     0.368 A 
ATOM      4  C   UNL     1      11.615  17.866  63.446  1.00  0.00     0.162 A 
ATOM      5  C   UNL     1      10.506  18.099  64.266  1.00  0.00     0.128 A 
ATOM      6  C   UNL     1      10.194  17.196  65.285  1.00  0.00     0.093 A 
ATOM      7  C   UNL     1      10.977  16.056  65.503  1.00  0.00     0.136 A 
ATOM      8  C   UNL     1      12.102  15.814  64.672  1.00  0.00     0.125 A 
ATOM      9  C   UNL     1      12.935  14.692  64.808  1.00  0.00     0.078 A 
ATOM     10  C   UNL     1      14.023  14.518  63.948  1.00  0.00     0.223 A 
ENDROOT
BRANCH   1  11
ATOM     11  C   UNL     1      15.420  15.392  62.030  1.00  0.00     0.087 A 
ATOM     12  C   UNL     1      15.460  14.342  61.099  1.00  0.00     0.022 A 
ATOM     13  C   UNL     1      16.518  14.238  60.194  1.00  0.00     0.051 A 
ATOM     14  C   UNL     1      17.545  15.190  60.196  1.00  0.00     0.157 A 
ATOM     15  C   UNL     1      16.443  16.358  62.015  1.00  0.00     0.068 A 
ATOM     16  C   UNL     1      17.505  16.255  61.105  1.00  0.00     0.158 A 
BRANCH  14  17
ATOM     17  O   UNL     1      18.603  15.089  59.295  1.00  0.00    -0.504 OA
ATOM     18  H   UNL     1      18.473  14.718  58.362  1.00  0.00     0.293 HD
ENDBRANCH  14  17
BRANCH  16  19
ATOM     19  O   UNL     1      18.521  17.209  61.095  1.00  0.00    -0.504 OA
ATOM     20  H   UNL     1      18.626  17.880  61.848  1.00  0.00     0.293 HD
ENDBRANCH  16  19
ENDBRANCH   1  11
BRANCH  10  21
ATOM     21  O   UNL     1      14.821  13.378  64.050  1.00  0.00    -0.500 OA
ATOM     22  H   UNL     1      14.450  12.496  64.384  1.00  0.00     0.294 HD
ENDBRANCH  10  21
BRANCH   5  23
ATOM     23  O   UNL     1       9.707  19.224  64.076  1.00  0.00    -0.507 OA
ATOM     24  H   UNL     1       9.562  19.902  64.814  1.00  0.00     0.293 HD
ENDBRANCH   5  23
BRANCH   7  25
ATOM     25  O   UNL     1      10.600  15.205  66.546  1.00  0.00    -0.507 OA
ATOM     26  H   UNL     1      10.860  15.338  67.513  1.00  0.00     0.293 HD
ENDBRANCH   7  25
TORSDOF 6
ENDMDL
MODEL 5
REMARK VINA RESULT:    -6.099      3.139      6.902
REMARK INTER + INTRA:          -7.700
REMARK INTER:                  -7.431
REMARK INTRA:                  -0.269
REMARK UNBOUND:                -0.353
REMARK SMILES Oc1cc(O)c2cc(O)c(-c3ccc(O)c(O)c3)[o+]c2c1.[Cl-]
REMARK SMILES IDX 10 1 19 2 20 3 21 4 2 5 3 6 4 7 6 8 7 9 8 10 11 11 12 12
REMARK SMILES IDX 13 13 14 14 18 15 16 16 15 17 17 19 9 21 1 23 5 25
REMARK H PARENT 15 18 17 20 9 22 1 24 5 26
REMARK Flexibility Score: inf
ROOT
ATOM      1  C   UNL     1      15.081  12.572  61.899  1.00  0.00     0.402 A 
ATOM      2  O   UNL     1      14.980  13.896  61.813  1.00  0.00    -0.202 OA
ATOM      3  C   UNL     1      14.393  14.644  62.741  1.00  0.00     0.368 A 
ATOM      4  C   UNL     1      14.339  16.029  62.564  1.00  0.00     0.162 A 
ATOM      5  C   UNL     1      13.729  16.840  63.527  1.00  0.00     0.128 A 
ATOM      6  C   UNL     1      13.172  16.262  64.670  1.00  0.00     0.093 A 
ATOM      7  C   UNL     1      13.214  14.878  64.871  1.00  0.00     0.136 A 
ATOM      8  C   UNL     1      13.829  14.050  63.896  1.00  0.00     0.125 A 
ATOM      9  C   UNL     1      13.905  12.652  64.007  1.00  0.00     0.078 A 
ATOM     10  C   UNL     1      14.523  11.901  63.003  1.00  0.00     0.223 A 
ENDROOT
BRANCH   1  11
ATOM     11  C   UNL     1      15.769  11.850  60.803  1.00  0.00     0.087 A 
ATOM     12  C   UNL     1      15.195  11.832  59.521  1.00  0.00     0.022 A 
ATOM     13  C   UNL     1      15.836  11.174  58.469  1.00  0.00     0.051 A 
ATOM     14  C   UNL     1      17.066  10.539  58.678  1.00  0.00     0.157 A 
ATOM     15  C   UNL     1      17.014  11.228  61.004  1.00  0.00     0.068 A 
ATOM     16  C   UNL     1      17.659  10.569  59.947  1.00  0.00     0.158 A 
BRANCH  14  17
ATOM     17  O   UNL     1      17.708   9.880  57.630  1.00  0.00    -0.504 OA
ATOM     18  H   UNL     1      18.652  10.118  57.353  1.00  0.00     0.293 HD
ENDBRANCH  14  17
BRANCH  16  19
ATOM     19  O   UNL     1      18.890   9.948  60.148  1.00  0.00    -0.504 OA
ATOM     20  H   UNL     1      19.697  10.465  60.478  1.00  0.00     0.293 HD
ENDBRANCH  16  19
ENDBRANCH   1  11
BRANCH  10  21
ATOM     21  O   UNL     1      14.554  10.510  63.088  1.00  0.00    -0.500 OA
ATOM     22  H   UNL     1      13.958   9.927  62.511  1.00  0.00     0.294 HD
ENDBRANCH  10  21
BRANCH   5  23
ATOM     23  O   UNL     1      13.672  18.221  63.356  1.00  0.00    -0.507 OA
ATOM     24  H   UNL     1      12.864  18.758  63.648  1.00  0.00     0.293 HD
ENDBRANCH   5  23
BRANCH   7  25
ATOM     25  O   UNL     1      12.637  14.380  66.043  1.00  0.00    -0.507 OA
ATOM     26  H   UNL     1      12.453  14.933  66.868  1.00  0.00     0.293 HD
ENDBRANCH   7  25
TORSDOF 6
ENDMDL
MODEL 6
REMARK VINA RESULT:    -6.055      4.747      6.775
REMARK INTER + INTRA:          -7.648
REMARK INTER:                  -7.371
REMARK INTRA:                  -0.277
REMARK UNBOUND:                -0.353
REMARK SMILES Oc1cc(O)c2cc(O)c(-c3ccc(O)c(O)c3)[o+]c2c1.[Cl-]
REMARK SMILES IDX 10 1 19 2 20 3 21 4 2 5 3 6 4 7 6 8 7 9 8 10 11 11 12 12
REMARK SMILES IDX 13 13 14 14 18 15 16 16 15 17 17 19 9 21 1 23 5 25
REMARK H PARENT 15 18 17 20 9 22 1 24 5 26
REMARK Flexibility Score: inf
ROOT
ATOM      1  C   UNL     1      12.256  19.557  63.524  1.00  0.00     0.402 A 
ATOM      2  O   UNL     1      13.482  19.131  63.227  1.00  0.00    -0.202 OA
ATOM      3  C   UNL     1      13.802  17.845  63.124  1.00  0.00     0.368 A 
ATOM      4  C   UNL     1      15.116  17.495  62.805  1.00  0.00     0.162 A 
ATOM      5  C   UNL     1      15.479  16.150  62.688  1.00  0.00     0.128 A 
ATOM      6  C   UNL     1      14.523  15.152  62.891  1.00  0.00     0.093 A 
ATOM      7  C   UNL     1      13.199  15.477  63.211  1.00  0.00     0.136 A 
ATOM      8  C   UNL     1      12.826  16.840  63.334  1.00  0.00     0.125 A 
ATOM      9  C   UNL     1      11.527  17.258  63.665  1.00  0.00     0.078 A 
ATOM     10  C   UNL     1      11.235  18.621  63.773  1.00  0.00     0.223 A 
ENDROOT
BRANCH   1  11
ATOM     11  C   UNL     1      12.023  21.018  63.599  1.00  0.00     0.087 A 
ATOM     12  C   UNL     1      11.273  21.650  62.595  1.00  0.00     0.022 A 
ATOM     13  C   UNL     1      11.024  23.024  62.656  1.00  0.00     0.051 A 
ATOM     14  C   UNL     1      11.507  23.781  63.730  1.00  0.00     0.157 A 
ATOM     15  C   UNL     1      12.489  21.779  64.686  1.00  0.00     0.068 A 
ATOM     16  C   UNL     1      12.237  23.158  64.749  1.00  0.00     0.158 A 
BRANCH  14  17
ATOM     17  O   UNL     1      11.262  25.152  63.793  1.00  0.00    -0.504 OA
ATOM     18  H   UNL     1      10.503  25.530  64.348  1.00  0.00     0.293 HD
ENDBRANCH  14  17
BRANCH  16  19
ATOM     19  O   UNL     1      12.705  23.913  65.824  1.00  0.00    -0.504 OA
ATOM     20  H   UNL     1      13.691  23.948  66.057  1.00  0.00     0.293 HD
ENDBRANCH  16  19
ENDBRANCH   1  11
BRANCH  10  21
ATOM     21  O   UNL     1       9.958  19.036  64.150  1.00  0.00    -0.500 OA
ATOM     22  H   UNL     1       9.321  19.465  63.489  1.00  0.00     0.294 HD
ENDBRANCH  10  21
BRANCH   5  23
ATOM     23  O   UNL     1      16.787  15.794  62.370  1.00  0.00    -0.507 OA
ATOM     24  H   UNL     1      17.295  16.253  61.623  1.00  0.00     0.293 HD
ENDBRANCH   5  23
BRANCH   7  25
ATOM     25  O   UNL     1      12.303  14.419  63.394  1.00  0.00    -0.507 OA
ATOM     26  H   UNL     1      11.995  13.799  62.660  1.00  0.00     0.293 HD
ENDBRANCH   7  25
TORSDOF 6
ENDMDL
MODEL 7
REMARK VINA RESULT:    -6.054      5.492      7.883
REMARK INTER + INTRA:          -7.646
REMARK INTER:                  -7.394
REMARK INTRA:                  -0.252
REMARK UNBOUND:                -0.353
REMARK SMILES Oc1cc(O)c2cc(O)c(-c3ccc(O)c(O)c3)[o+]c2c1.[Cl-]
REMARK SMILES IDX 10 1 19 2 20 3 21 4 2 5 3 6 4 7 6 8 7 9 8 10 11 11 12 12
REMARK SMILES IDX 13 13 14 14 18 15 16 16 15 17 17 19 9 21 1 23 5 25
REMARK H PARENT 15 18 17 20 9 22 1 24 5 26
REMARK Flexibility Score: inf
ROOT
ATOM      1  C   UNL     1      12.562  20.467  63.152  1.00  0.00     0.402 A 
ATOM      2  O   UNL     1      13.515  19.543  63.244  1.00  0.00    -0.202 OA
ATOM      3  C   UNL     1      13.263  18.250  63.422  1.00  0.00     0.368 A 
ATOM      4  C   UNL     1      14.332  17.354  63.503  1.00  0.00     0.162 A 
ATOM      5  C   UNL     1      14.096  15.988  63.687  1.00  0.00     0.128 A 
ATOM      6  C   UNL     1      12.785  15.518  63.790  1.00  0.00     0.093 A 
ATOM      7  C   UNL     1      11.696  16.395  63.710  1.00  0.00     0.136 A 
ATOM      8  C   UNL     1      11.931  17.782  63.527  1.00  0.00     0.125 A 
ATOM      9  C   UNL     1      10.903  18.736  63.449  1.00  0.00     0.078 A 
ATOM     10  C   UNL     1      11.212  20.088  63.273  1.00  0.00     0.223 A 
ENDROOT
BRANCH   1  11
ATOM     11  C   UNL     1      12.970  21.875  62.944  1.00  0.00     0.087 A 
ATOM     12  C   UNL     1      13.443  22.278  61.685  1.00  0.00     0.022 A 
ATOM     13  C   UNL     1      13.815  23.606  61.460  1.00  0.00     0.051 A 
ATOM     14  C   UNL     1      13.705  24.553  62.486  1.00  0.00     0.157 A 
ATOM     15  C   UNL     1      12.841  22.834  63.965  1.00  0.00     0.068 A 
ATOM     16  C   UNL     1      13.213  24.167  63.739  1.00  0.00     0.158 A 
BRANCH  14  17
ATOM     17  O   UNL     1      14.076  25.878  62.266  1.00  0.00    -0.504 OA
ATOM     18  H   UNL     1      15.021  26.127  61.999  1.00  0.00     0.293 HD
ENDBRANCH  14  17
BRANCH  16  19
ATOM     19  O   UNL     1      13.091  25.116  64.754  1.00  0.00    -0.504 OA
ATOM     20  H   UNL     1      13.620  25.980  64.738  1.00  0.00     0.293 HD
ENDBRANCH  16  19
ENDBRANCH   1  11
BRANCH  10  21
ATOM     21  O   UNL     1      10.194  21.041  63.246  1.00  0.00    -0.500 OA
ATOM     22  H   UNL     1       9.502  21.061  62.506  1.00  0.00     0.294 HD
ENDBRANCH  10  21
BRANCH   5  23
ATOM     23  O   UNL     1      15.157  15.090  63.769  1.00  0.00    -0.507 OA
ATOM     24  H   UNL     1      15.971  15.174  63.172  1.00  0.00     0.293 HD
ENDBRANCH   5  23
BRANCH   7  25
ATOM     25  O   UNL     1      10.416  15.844  63.818  1.00  0.00    -0.507 OA
ATOM     26  H   UNL     1       9.957  15.320  63.086  1.00  0.00     0.293 HD
ENDBRANCH   7  25
TORSDOF 6
ENDMDL
MODEL 8
REMARK VINA RESULT:    -5.799      2.696      4.300
REMARK INTER + INTRA:          -7.338
REMARK INTER:                  -7.291
REMARK INTRA:                  -0.047
REMARK UNBOUND:                -0.353
REMARK SMILES Oc1cc(O)c2cc(O)c(-c3ccc(O)c(O)c3)[o+]c2c1.[Cl-]
REMARK SMILES IDX 10 1 19 2 20 3 21 4 2 5 3 6 4 7 6 8 7 9 8 10 11 11 12 12
REMARK SMILES IDX 13 13 14 14 18 15 16 16 15 17 17 19 9 21 1 23 5 25
REMARK H PARENT 15 18 17 20 9 22 1 24 5 26
REMARK Flexibility Score: inf
ROOT
ATOM      1  C   UNL     1      13.791  15.129  63.081  1.00  0.00     0.402 A 
ATOM      2  O   UNL     1      14.558  14.857  62.029  1.00  0.00    -0.202 OA
ATOM      3  C   UNL     1      15.043  13.646  61.772  1.00  0.00     0.368 A 
ATOM      4  C   UNL     1      15.838  13.458  60.639  1.00  0.00     0.162 A 
ATOM      5  C   UNL     1      16.358  12.194  60.344  1.00  0.00     0.128 A 
ATOM      6  C   UNL     1      16.081  11.115  61.186  1.00  0.00     0.093 A 
ATOM      7  C   UNL     1      15.286  11.277  62.327  1.00  0.00     0.136 A 
ATOM      8  C   UNL     1      14.758  12.558  62.632  1.00  0.00     0.125 A 
ATOM      9  C   UNL     1      13.963  12.817  63.761  1.00  0.00     0.078 A 
ATOM     10  C   UNL     1      13.483  14.108  63.999  1.00  0.00     0.223 A 
ENDROOT
BRANCH   1  11
ATOM     11  C   UNL     1      13.304  16.517  63.252  1.00  0.00     0.087 A 
ATOM     12  C   UNL     1      14.198  17.587  63.090  1.00  0.00     0.022 A 
ATOM     13  C   UNL     1      13.756  18.906  63.228  1.00  0.00     0.051 A 
ATOM     14  C   UNL     1      12.412  19.173  63.514  1.00  0.00     0.157 A 
ATOM     15  C   UNL     1      11.950  16.791  63.519  1.00  0.00     0.068 A 
ATOM     16  C   UNL     1      11.506  18.114  63.655  1.00  0.00     0.158 A 
BRANCH  14  17
ATOM     17  O   UNL     1      11.968  20.487  63.653  1.00  0.00    -0.504 OA
ATOM     18  H   UNL     1      12.607  21.244  63.863  1.00  0.00     0.293 HD
ENDBRANCH  14  17
BRANCH  16  19
ATOM     19  O   UNL     1      10.165  18.385  63.926  1.00  0.00    -0.504 OA
ATOM     20  H   UNL     1       9.495  18.539  63.181  1.00  0.00     0.293 HD
ENDBRANCH  16  19
ENDBRANCH   1  11
BRANCH  10  21
ATOM     21  O   UNL     1      12.736  14.376  65.146  1.00  0.00    -0.500 OA
ATOM     22  H   UNL     1      13.175  14.495  66.052  1.00  0.00     0.294 HD
ENDBRANCH  10  21
BRANCH   5  23
ATOM     23  O   UNL     1      17.152  12.000  59.216  1.00  0.00    -0.507 OA
ATOM     24  H   UNL     1      18.074  12.411  59.139  1.00  0.00     0.293 HD
ENDBRANCH   5  23
BRANCH   7  25
ATOM     25  O   UNL     1      15.052  10.146  63.115  1.00  0.00    -0.507 OA
ATOM     26  H   UNL     1      15.725   9.409  63.269  1.00  0.00     0.293 HD
ENDBRANCH   7  25
TORSDOF 6
ENDMDL
MODEL 9
REMARK VINA RESULT:    -5.778      2.576      7.147
REMARK INTER + INTRA:          -7.313
REMARK INTER:                  -6.973
REMARK INTRA:                  -0.340
REMARK UNBOUND:                -0.353
REMARK SMILES Oc1cc(O)c2cc(O)c(-c3ccc(O)c(O)c3)[o+]c2c1.[Cl-]
REMARK SMILES IDX 10 1 19 2 20 3 21 4 2 5 3 6 4 7 6 8 7 9 8 10 11 11 12 12
REMARK SMILES IDX 13 13 14 14 18 15 16 16 15 17 17 19 9 21 1 23 5 25
REMARK H PARENT 15 18 17 20 9 22 1 24 5 26
REMARK Flexibility Score: inf
ROOT
ATOM      1  C   UNL     1      14.500  16.927  62.313  1.00  0.00     0.402 A 
ATOM      2  O   UNL     1      14.145  18.200  62.466  1.00  0.00    -0.202 OA
ATOM      3  C   UNL     1      13.010  18.576  63.047  1.00  0.00     0.368 A 
ATOM      4  C   UNL     1      12.725  19.939  63.165  1.00  0.00     0.162 A 
ATOM      5  C   UNL     1      11.540  20.361  63.774  1.00  0.00     0.128 A 
ATOM      6  C   UNL     1      10.637  19.417  64.267  1.00  0.00     0.093 A 
ATOM      7  C   UNL     1      10.899  18.046  64.162  1.00  0.00     0.136 A 
ATOM      8  C   UNL     1      12.099  17.611  63.542  1.00  0.00     0.125 A 
ATOM      9  C   UNL     1      12.438  16.258  63.381  1.00  0.00     0.078 A 
ATOM     10  C   UNL     1      13.637  15.906  62.754  1.00  0.00     0.223 A 
ENDROOT
BRANCH   1  11
ATOM     11  C   UNL     1      15.796  16.636  61.658  1.00  0.00     0.087 A 
ATOM     12  C   UNL     1      15.834  16.409  60.273  1.00  0.00     0.022 A 
ATOM     13  C   UNL     1      17.048  16.153  59.631  1.00  0.00     0.051 A 
ATOM     14  C   UNL     1      18.242  16.134  60.361  1.00  0.00     0.157 A 
ATOM     15  C   UNL     1      17.000  16.636  62.384  1.00  0.00     0.068 A 
ATOM     16  C   UNL     1      18.219  16.380  61.740  1.00  0.00     0.158 A 
BRANCH  14  17
ATOM     17  O   UNL     1      19.455  15.877  59.724  1.00  0.00    -0.504 OA
ATOM     18  H   UNL     1      19.887  14.961  59.754  1.00  0.00     0.293 HD
ENDBRANCH  14  17
BRANCH  16  19
ATOM     19  O   UNL     1      19.412  16.375  62.462  1.00  0.00    -0.504 OA
ATOM     20  H   UNL     1      20.312  16.445  62.000  1.00  0.00     0.293 HD
ENDBRANCH  16  19
ENDBRANCH   1  11
BRANCH  10  21
ATOM     21  O   UNL     1      13.951  14.563  62.548  1.00  0.00    -0.500 OA
ATOM     22  H   UNL     1      13.260  13.898  62.218  1.00  0.00     0.294 HD
ENDBRANCH  10  21
BRANCH   5  23
ATOM     23  O   UNL     1      11.250  21.718  63.895  1.00  0.00    -0.507 OA
ATOM     24  H   UNL     1      11.359  22.208  64.775  1.00  0.00     0.293 HD
ENDBRANCH   5  23
BRANCH   7  25
ATOM     25  O   UNL     1       9.946  17.166  64.684  1.00  0.00    -0.507 OA
ATOM     26  H   UNL     1       9.108  17.455  65.168  1.00  0.00     0.293 HD
ENDBRANCH   7  25
TORSDOF 6
ENDMDL
