MODEL 1
REMARK VINA RESULT:    -3.711      0.000      0.000
REMARK INTER + INTRA:          -4.978
REMARK INTER:                  -4.471
REMARK INTRA:                  -0.507
REMARK UNBOUND:                -0.507
REMARK SMILES NC(=O)C[C@@H]([NH3+])C(=O)[O-]
REMARK SMILES IDX 4 1 5 2 6 3 7 7 8 8 9 9 2 10 3 11 1 12
REMARK H PARENT 6 4 6 5 6 6 1 13 1 14
REMARK Flexibility Score: inf
ROOT
ATOM      1  C   UNL     1      33.959  35.504  12.872  1.00  0.00     0.171 C 
ENDROOT
BRANCH   1   2
ATOM      2  C   UNL     1      34.193  36.805  13.667  1.00  0.00     0.237 C 
BRANCH   2   3
ATOM      3  N   UNL     1      33.552  36.723  14.985  1.00  0.00    -0.350 N 
ATOM      4  H   UNL     1      32.527  36.537  14.888  1.00  0.00     0.345 HD
ATOM      5  H   UNL     1      33.990  35.954  15.545  1.00  0.00     0.345 HD
ATOM      6  H   UNL     1      33.691  37.621  15.503  1.00  0.00     0.345 HD
ENDBRANCH   2   3
BRANCH   2   7
ATOM      7  C   UNL     1      35.665  37.090  13.819  1.00  0.00     0.100 C 
ATOM      8  O   UNL     1      36.182  38.097  13.266  1.00  0.00    -0.544 OA
ATOM      9  O   UNL     1      36.458  36.249  14.589  1.00  0.00    -0.544 OA
ENDBRANCH   2   7
ENDBRANCH   1   2
BRANCH   1  10
ATOM     10  C   UNL     1      33.826  34.316  13.781  1.00  0.00     0.223 C 
ATOM     11  O   UNL     1      32.688  33.982  14.211  1.00  0.00    -0.275 OA
ATOM     12  N   UNL     1      34.970  33.538  14.131  1.00  0.00    -0.369 N 
ATOM     13  H   UNL     1      35.917  33.789  13.768  1.00  0.00     0.159 HD
ATOM     14  H   UNL     1      34.871  32.704  14.751  1.00  0.00     0.159 HD
ENDBRANCH   1  10
TORSDOF 4
ENDMDL
MODEL 2
REMARK VINA RESULT:    -3.671      1.947      2.979
REMARK INTER + INTRA:          -4.929
REMARK INTER:                  -4.488
REMARK INTRA:                  -0.441
REMARK UNBOUND:                -0.507
REMARK SMILES NC(=O)C[C@@H]([NH3+])C(=O)[O-]
REMARK SMILES IDX 4 1 5 2 6 3 7 7 8 8 9 9 2 10 3 11 1 12
REMARK H PARENT 6 4 6 5 6 6 1 13 1 14
REMARK Flexibility Score: inf
ROOT
ATOM      1  C   UNL     1      35.201  36.967  13.388  1.00  0.00     0.171 C 
ENDROOT
BRANCH   1   2
ATOM      2  C   UNL     1      34.893  36.550  14.841  1.00  0.00     0.237 C 
BRANCH   2   3
ATOM      3  N   UNL     1      33.561  37.024  15.238  1.00  0.00    -0.350 N 
ATOM      4  H   UNL     1      33.502  37.132  16.277  1.00  0.00     0.345 HD
ATOM      5  H   UNL     1      33.363  37.946  14.783  1.00  0.00     0.345 HD
ATOM      6  H   UNL     1      32.833  36.342  14.922  1.00  0.00     0.345 HD
ENDBRANCH   2   3
BRANCH   2   7
ATOM      7  C   UNL     1      34.986  35.055  15.007  1.00  0.00     0.100 C 
ATOM      8  O   UNL     1      33.964  34.331  14.870  1.00  0.00    -0.544 OA
ATOM      9  O   UNL     1      36.209  34.465  15.298  1.00  0.00    -0.544 OA
ENDBRANCH   2   7
ENDBRANCH   1   2
BRANCH   1  10
ATOM     10  C   UNL     1      33.956  37.015  12.550  1.00  0.00     0.223 C 
ATOM     11  O   UNL     1      33.425  38.127  12.282  1.00  0.00    -0.275 OA
ATOM     12  N   UNL     1      33.392  35.816  12.019  1.00  0.00    -0.369 N 
ATOM     13  H   UNL     1      33.830  34.889  12.215  1.00  0.00     0.159 HD
ATOM     14  H   UNL     1      32.535  35.855  11.425  1.00  0.00     0.159 HD
ENDBRANCH   1  10
TORSDOF 4
ENDMDL
MODEL 3
REMARK VINA RESULT:    -3.569     10.397     11.126
REMARK INTER + INTRA:          -4.807
REMARK INTER:                  -4.528
REMARK INTRA:                  -0.279
REMARK UNBOUND:                -0.507
REMARK SMILES NC(=O)C[C@@H]([NH3+])C(=O)[O-]
REMARK SMILES IDX 4 1 5 2 6 3 7 7 8 8 9 9 2 10 3 11 1 12
REMARK H PARENT 6 4 6 5 6 6 1 13 1 14
REMARK Flexibility Score: inf
ROOT
ATOM      1  C   UNL     1      29.806  34.114  23.571  1.00  0.00     0.171 C 
ENDROOT
BRANCH   1   2
ATOM      2  C   UNL     1      30.831  33.239  22.821  1.00  0.00     0.237 C 
BRANCH   2   3
ATOM      3  N   UNL     1      31.970  34.051  22.375  1.00  0.00    -0.350 N 
ATOM      4  H   UNL     1      31.821  34.393  21.398  1.00  0.00     0.345 HD
ATOM      5  H   UNL     1      32.091  34.872  23.013  1.00  0.00     0.345 HD
ATOM      6  H   UNL     1      32.846  33.481  22.408  1.00  0.00     0.345 HD
ENDBRANCH   2   3
BRANCH   2   7
ATOM      7  C   UNL     1      31.309  32.101  23.686  1.00  0.00     0.100 C 
ATOM      8  O   UNL     1      32.059  32.320  24.674  1.00  0.00    -0.544 OA
ATOM      9  O   UNL     1      30.906  30.802  23.407  1.00  0.00    -0.544 OA
ENDBRANCH   2   7
ENDBRANCH   1   2
BRANCH   1  10
ATOM     10  C   UNL     1      30.370  35.466  23.903  1.00  0.00     0.223 C 
ATOM     11  O   UNL     1      31.159  35.592  24.878  1.00  0.00    -0.275 OA
ATOM     12  N   UNL     1      30.053  36.602  23.098  1.00  0.00    -0.369 N 
ATOM     13  H   UNL     1      29.417  36.512  22.276  1.00  0.00     0.159 HD
ATOM     14  H   UNL     1      30.459  37.537  23.324  1.00  0.00     0.159 HD
ENDBRANCH   1  10
TORSDOF 4
ENDMDL
MODEL 4
REMARK VINA RESULT:    -3.563     18.530     19.680
REMARK INTER + INTRA:          -4.799
REMARK INTER:                  -4.280
REMARK INTRA:                  -0.519
REMARK UNBOUND:                -0.507
REMARK SMILES NC(=O)C[C@@H]([NH3+])C(=O)[O-]
REMARK SMILES IDX 4 1 5 2 6 3 7 7 8 8 9 9 2 10 3 11 1 12
REMARK H PARENT 6 4 6 5 6 6 1 13 1 14
REMARK Flexibility Score: inf
ROOT
ATOM      1  C   UNL     1      31.847  26.819  31.597  1.00  0.00     0.171 C 
ENDROOT
BRANCH   1   2
ATOM      2  C   UNL     1      31.361  25.593  30.797  1.00  0.00     0.237 C 
BRANCH   2   3
ATOM      3  N   UNL     1      30.941  25.995  29.448  1.00  0.00    -0.350 N 
ATOM      4  H   UNL     1      31.563  25.567  28.724  1.00  0.00     0.345 HD
ATOM      5  H   UNL     1      29.954  25.689  29.279  1.00  0.00     0.345 HD
ATOM      6  H   UNL     1      30.978  27.037  29.361  1.00  0.00     0.345 HD
ENDBRANCH   2   3
BRANCH   2   7
ATOM      7  C   UNL     1      32.435  24.538  30.716  1.00  0.00     0.100 C 
ATOM      8  O   UNL     1      32.301  23.441  31.321  1.00  0.00    -0.544 OA
ATOM      9  O   UNL     1      33.574  24.766  29.955  1.00  0.00    -0.544 OA
ENDBRANCH   2   7
ENDBRANCH   1   2
BRANCH   1  10
ATOM     10  C   UNL     1      32.392  27.889  30.694  1.00  0.00     0.223 C 
ATOM     11  O   UNL     1      31.628  28.795  30.265  1.00  0.00    -0.275 OA
ATOM     12  N   UNL     1      33.778  27.911  30.351  1.00  0.00    -0.369 N 
ATOM     13  H   UNL     1      34.429  27.179  30.713  1.00  0.00     0.159 HD
ATOM     14  H   UNL     1      34.156  28.664  29.736  1.00  0.00     0.159 HD
ENDBRANCH   1  10
TORSDOF 4
ENDMDL
MODEL 5
REMARK VINA RESULT:    -3.548      1.827      2.001
REMARK INTER + INTRA:          -4.781
REMARK INTER:                  -4.309
REMARK INTRA:                  -0.472
REMARK UNBOUND:                -0.507
REMARK SMILES NC(=O)C[C@@H]([NH3+])C(=O)[O-]
REMARK SMILES IDX 4 1 5 2 6 3 7 7 8 8 9 9 2 10 3 11 1 12
REMARK H PARENT 6 4 6 5 6 6 1 13 1 14
REMARK Flexibility Score: inf
ROOT
ATOM      1  C   UNL     1      33.908  35.031  14.583  1.00  0.00     0.171 C 
ENDROOT
BRANCH   1   2
ATOM      2  C   UNL     1      33.768  36.565  14.661  1.00  0.00     0.237 C 
BRANCH   2   3
ATOM      3  N   UNL     1      34.366  37.073  15.902  1.00  0.00    -0.350 N 
ATOM      4  H   UNL     1      34.965  37.909  15.710  1.00  0.00     0.345 HD
ATOM      5  H   UNL     1      33.611  37.338  16.577  1.00  0.00     0.345 HD
ATOM      6  H   UNL     1      34.951  36.326  16.344  1.00  0.00     0.345 HD
ENDBRANCH   2   3
BRANCH   2   7
ATOM      7  C   UNL     1      34.405  37.229  13.466  1.00  0.00     0.100 C 
ATOM      8  O   UNL     1      33.697  37.626  12.503  1.00  0.00    -0.544 OA
ATOM      9  O   UNL     1      35.780  37.422  13.431  1.00  0.00    -0.544 OA
ENDBRANCH   2   7
ENDBRANCH   1   2
BRANCH   1  10
ATOM     10  C   UNL     1      35.126  34.549  15.317  1.00  0.00     0.223 C 
ATOM     11  O   UNL     1      35.004  34.036  16.462  1.00  0.00    -0.275 OA
ATOM     12  N   UNL     1      36.416  34.628  14.711  1.00  0.00    -0.369 N 
ATOM     13  H   UNL     1      36.533  35.032  13.756  1.00  0.00     0.159 HD
ATOM     14  H   UNL     1      37.259  34.278  15.219  1.00  0.00     0.159 HD
ENDBRANCH   1  10
TORSDOF 4
ENDMDL
MODEL 6
REMARK VINA RESULT:    -3.538     18.847     20.037
REMARK INTER + INTRA:          -4.770
REMARK INTER:                  -4.277
REMARK INTRA:                  -0.493
REMARK UNBOUND:                -0.507
REMARK SMILES NC(=O)C[C@@H]([NH3+])C(=O)[O-]
REMARK SMILES IDX 4 1 5 2 6 3 7 7 8 8 9 9 2 10 3 11 1 12
REMARK H PARENT 6 4 6 5 6 6 1 13 1 14
REMARK Flexibility Score: inf
ROOT
ATOM      1  C   UNL     1      31.445  26.072  29.831  1.00  0.00     0.171 C 
ENDROOT
BRANCH   1   2
ATOM      2  C   UNL     1      32.667  25.136  29.930  1.00  0.00     0.237 C 
BRANCH   2   3
ATOM      3  N   UNL     1      33.896  25.915  30.121  1.00  0.00    -0.350 N 
ATOM      4  H   UNL     1      33.795  26.873  29.713  1.00  0.00     0.345 HD
ATOM      5  H   UNL     1      34.108  25.997  31.143  1.00  0.00     0.345 HD
ATOM      6  H   UNL     1      34.700  25.429  29.660  1.00  0.00     0.345 HD
ENDBRANCH   2   3
BRANCH   2   7
ATOM      7  C   UNL     1      32.499  24.143  31.051  1.00  0.00     0.100 C 
ATOM      8  O   UNL     1      33.291  23.170  31.168  1.00  0.00    -0.544 OA
ATOM      9  O   UNL     1      31.475  24.307  31.975  1.00  0.00    -0.544 OA
ENDBRANCH   2   7
ENDBRANCH   1   2
BRANCH   1  10
ATOM     10  C   UNL     1      31.664  27.350  30.589  1.00  0.00     0.223 C 
ATOM     11  O   UNL     1      32.175  28.344  30.005  1.00  0.00    -0.275 OA
ATOM     12  N   UNL     1      31.262  27.461  31.954  1.00  0.00    -0.369 N 
ATOM     13  H   UNL     1      30.820  26.655  32.447  1.00  0.00     0.159 HD
ATOM     14  H   UNL     1      31.402  28.356  32.473  1.00  0.00     0.159 HD
ENDBRANCH   1  10
TORSDOF 4
ENDMDL
MODEL 7
REMARK VINA RESULT:    -3.501     18.030     19.238
REMARK INTER + INTRA:          -4.725
REMARK INTER:                  -4.236
REMARK INTRA:                  -0.489
REMARK UNBOUND:                -0.507
REMARK SMILES NC(=O)C[C@@H]([NH3+])C(=O)[O-]
REMARK SMILES IDX 4 1 5 2 6 3 7 7 8 8 9 9 2 10 3 11 1 12
REMARK H PARENT 6 4 6 5 6 6 1 13 1 14
REMARK Flexibility Score: inf
ROOT
ATOM      1  C   UNL     1      32.107  27.294  29.913  1.00  0.00     0.171 C 
ENDROOT
BRANCH   1   2
ATOM      2  C   UNL     1      31.084  26.141  29.870  1.00  0.00     0.237 C 
BRANCH   2   3
ATOM      3  N   UNL     1      31.202  25.397  28.610  1.00  0.00    -0.350 N 
ATOM      4  H   UNL     1      30.272  25.017  28.316  1.00  0.00     0.345 HD
ATOM      5  H   UNL     1      31.569  26.028  27.859  1.00  0.00     0.345 HD
ATOM      6  H   UNL     1      31.874  24.605  28.728  1.00  0.00     0.345 HD
ENDBRANCH   2   3
BRANCH   2   7
ATOM      7  C   UNL     1      31.264  25.212  31.043  1.00  0.00     0.100 C 
ATOM      8  O   UNL     1      30.508  25.295  32.047  1.00  0.00    -0.544 OA
ATOM      9  O   UNL     1      32.260  24.244  31.014  1.00  0.00    -0.544 OA
ENDBRANCH   2   7
ENDBRANCH   1   2
BRANCH   1  10
ATOM     10  C   UNL     1      33.368  26.943  29.176  1.00  0.00     0.223 C 
ATOM     11  O   UNL     1      33.541  27.358  27.998  1.00  0.00    -0.275 OA
ATOM     12  N   UNL     1      34.390  26.176  29.813  1.00  0.00    -0.369 N 
ATOM     13  H   UNL     1      34.272  25.840  30.794  1.00  0.00     0.159 HD
ATOM     14  H   UNL     1      35.271  25.946  29.303  1.00  0.00     0.159 HD
ENDBRANCH   1  10
TORSDOF 4
ENDMDL
MODEL 8
REMARK VINA RESULT:    -3.421     18.337     19.300
REMARK INTER + INTRA:          -4.628
REMARK INTER:                  -4.150
REMARK INTRA:                  -0.478
REMARK UNBOUND:                -0.507
REMARK SMILES NC(=O)C[C@@H]([NH3+])C(=O)[O-]
REMARK SMILES IDX 4 1 5 2 6 3 7 7 8 8 9 9 2 10 3 11 1 12
REMARK H PARENT 6 4 6 5 6 6 1 13 1 14
REMARK Flexibility Score: inf
ROOT
ATOM      1  C   UNL     1      32.576  25.300  31.120  1.00  0.00     0.171 C 
ENDROOT
BRANCH   1   2
ATOM      2  C   UNL     1      32.647  25.621  29.613  1.00  0.00     0.237 C 
BRANCH   2   3
ATOM      3  N   UNL     1      31.296  25.714  29.045  1.00  0.00    -0.350 N 
ATOM      4  H   UNL     1      31.015  24.806  28.609  1.00  0.00     0.345 HD
ATOM      5  H   UNL     1      30.611  25.963  29.797  1.00  0.00     0.345 HD
ATOM      6  H   UNL     1      31.269  26.466  28.318  1.00  0.00     0.345 HD
ENDBRANCH   2   3
BRANCH   2   7
ATOM      7  C   UNL     1      33.406  26.900  29.367  1.00  0.00     0.100 C 
ATOM      8  O   UNL     1      34.627  26.870  29.060  1.00  0.00    -0.544 OA
ATOM      9  O   UNL     1      32.753  28.123  29.460  1.00  0.00    -0.544 OA
ENDBRANCH   2   7
ENDBRANCH   1   2
BRANCH   1  10
ATOM     10  C   UNL     1      31.326  25.849  31.745  1.00  0.00     0.223 C 
ATOM     11  O   UNL     1      30.350  25.083  31.969  1.00  0.00    -0.275 OA
ATOM     12  N   UNL     1      31.248  27.223  32.125  1.00  0.00    -0.369 N 
ATOM     13  H   UNL     1      32.053  27.867  31.964  1.00  0.00     0.159 HD
ATOM     14  H   UNL     1      30.382  27.597  32.573  1.00  0.00     0.159 HD
ENDBRANCH   1  10
TORSDOF 4
ENDMDL
MODEL 9
REMARK VINA RESULT:    -3.381      9.909     10.469
REMARK INTER + INTRA:          -4.579
REMARK INTER:                  -4.101
REMARK INTRA:                  -0.478
REMARK UNBOUND:                -0.507
REMARK SMILES NC(=O)C[C@@H]([NH3+])C(=O)[O-]
REMARK SMILES IDX 4 1 5 2 6 3 7 7 8 8 9 9 2 10 3 11 1 12
REMARK H PARENT 6 4 6 5 6 6 1 13 1 14
REMARK Flexibility Score: inf
ROOT
ATOM      1  C   UNL     1      30.929  32.466  23.718  1.00  0.00     0.171 C 
ENDROOT
BRANCH   1   2
ATOM      2  C   UNL     1      31.291  33.952  23.519  1.00  0.00     0.237 C 
BRANCH   2   3
ATOM      3  N   UNL     1      31.981  34.145  22.237  1.00  0.00    -0.350 N 
ATOM      4  H   UNL     1      33.001  34.318  22.388  1.00  0.00     0.345 HD
ATOM      5  H   UNL     1      31.860  33.294  21.639  1.00  0.00     0.345 HD
ATOM      6  H   UNL     1      31.565  34.961  21.731  1.00  0.00     0.345 HD
ENDBRANCH   2   3
BRANCH   2   7
ATOM      7  C   UNL     1      30.062  34.823  23.586  1.00  0.00     0.100 C 
ATOM      8  O   UNL     1      30.161  36.076  23.503  1.00  0.00    -0.544 OA
ATOM      9  O   UNL     1      28.808  34.242  23.723  1.00  0.00    -0.544 OA
ENDBRANCH   2   7
ENDBRANCH   1   2
BRANCH   1  10
ATOM     10  C   UNL     1      30.670  31.779  22.408  1.00  0.00     0.223 C 
ATOM     11  O   UNL     1      31.633  31.290  21.758  1.00  0.00    -0.275 OA
ATOM     12  N   UNL     1      29.339  31.639  21.913  1.00  0.00    -0.369 N 
ATOM     13  H   UNL     1      28.528  32.021  22.448  1.00  0.00     0.159 HD
ATOM     14  H   UNL     1      29.162  31.147  21.009  1.00  0.00     0.159 HD
ENDBRANCH   1  10
TORSDOF 4
ENDMDL
