MODEL 1
REMARK VINA RESULT:    25.176      0.000      0.000
REMARK INTER + INTRA:          64.074
REMARK INTER:                  66.387
REMARK INTRA:                  -2.313
REMARK UNBOUND:                -2.313
REMARK SMILES CCCCCCCCCCCCCCCCCCCCCCCCCCCCCC(=O)[O-]
REMARK SMILES IDX 16 1 17 2 18 3 19 4 20 5 21 6 22 7 23 8 24 9 25 10 26 11
REMARK SMILES IDX 27 12 28 13 29 14 30 15 31 16 32 17 15 18 14 19 13 20 12 21
REMARK SMILES IDX 11 22 10 23 9 24 8 25 7 26 6 27 5 28 4 29 3 30 2 31 1 32
REMARK H PARENT
REMARK Flexibility Score: inf
ROOT
ATOM      1  C   UNL     1      38.035 -22.990  -1.991  1.00  0.00     0.000 C 
ENDROOT
BRANCH   1   2
ATOM      2  C   UNL     1      39.512 -23.431  -2.000  1.00  0.00     0.000 C 
BRANCH   2   3
ATOM      3  C   UNL     1      40.509 -22.330  -2.409  1.00  0.00     0.000 C 
BRANCH   3   4
ATOM      4  C   UNL     1      41.262 -21.742  -1.206  1.00  0.00     0.000 C 
BRANCH   4   5
ATOM      5  C   UNL     1      42.781 -21.889  -1.380  1.00  0.00     0.000 C 
BRANCH   5   6
ATOM      6  C   UNL     1      43.489 -22.348  -0.094  1.00  0.00     0.000 C 
BRANCH   6   7
ATOM      7  C   UNL     1      44.841 -23.065  -0.304  1.00  0.00     0.000 C 
BRANCH   7   8
ATOM      8  C   UNL     1      44.743 -24.539  -0.743  1.00  0.00     0.000 C 
BRANCH   8   9
ATOM      9  C   UNL     1      44.232 -24.701  -2.183  1.00  0.00     0.000 C 
BRANCH   9  10
ATOM     10  C   UNL     1      44.716 -26.005  -2.844  1.00  0.00     0.000 C 
BRANCH  10  11
ATOM     11  C   UNL     1      45.990 -25.872  -3.704  1.00  0.00     0.000 C 
BRANCH  11  12
ATOM     12  C   UNL     1      45.747 -25.798  -5.225  1.00  0.00     0.000 C 
BRANCH  12  13
ATOM     13  C   UNL     1      45.101 -24.491  -5.715  1.00  0.00     0.006 C 
BRANCH  13  14
ATOM     14  C   UNL     1      46.122 -23.362  -5.924  1.00  0.00     0.053 C 
BRANCH  14  15
ATOM     15  C   UNL     1      45.985 -22.765  -7.290  1.00  0.00     0.041 C 
ATOM     16  O   UNL     1      46.114 -21.523  -7.456  1.00  0.00    -0.550 OA
ATOM     17  O   UNL     1      45.719 -23.581  -8.383  1.00  0.00    -0.550 OA
ENDBRANCH  14  15
ENDBRANCH  13  14
ENDBRANCH  12  13
ENDBRANCH  11  12
ENDBRANCH  10  11
ENDBRANCH   9  10
ENDBRANCH   8   9
ENDBRANCH   7   8
ENDBRANCH   6   7
ENDBRANCH   5   6
ENDBRANCH   4   5
ENDBRANCH   3   4
ENDBRANCH   2   3
ENDBRANCH   1   2
BRANCH   1  18
ATOM     18  C   UNL     1      37.429 -22.698  -3.379  1.00  0.00     0.000 C 
BRANCH  18  19
ATOM     19  C   UNL     1      35.906 -22.462  -3.394  1.00  0.00     0.000 C 
BRANCH  19  20
ATOM     20  C   UNL     1      35.493 -21.276  -4.281  1.00  0.00     0.000 C 
BRANCH  20  21
ATOM     21  C   UNL     1      35.081 -20.040  -3.467  1.00  0.00     0.000 C 
BRANCH  21  22
ATOM     22  C   UNL     1      36.224 -19.481  -2.601  1.00  0.00     0.000 C 
BRANCH  22  23
ATOM     23  C   UNL     1      35.736 -19.055  -1.203  1.00  0.00     0.000 C 
BRANCH  23  24
ATOM     24  C   UNL     1      36.852 -19.024  -0.142  1.00  0.00    -0.000 C 
BRANCH  24  25
ATOM     25  C   UNL     1      38.209 -19.481  -0.705  1.00  0.00    -0.000 C 
BRANCH  25  26
ATOM     26  C   UNL     1      39.381 -19.101   0.224  1.00  0.00    -0.000 C 
BRANCH  26  27
ATOM     27  C   UNL     1      39.339 -17.643   0.713  1.00  0.00    -0.000 C 
BRANCH  27  28
ATOM     28  C   UNL     1      39.567 -16.627  -0.417  1.00  0.00    -0.000 C 
BRANCH  28  29
ATOM     29  C   UNL     1      38.296 -15.838  -0.785  1.00  0.00    -0.000 C 
BRANCH  29  30
ATOM     30  C   UNL     1      38.430 -14.301  -0.723  1.00  0.00    -0.000 C 
BRANCH  30  31
ATOM     31  C   UNL     1      37.162 -13.553  -0.272  1.00  0.00    -0.003 C 
ATOM     32  C   UNL     1      35.875 -14.221  -0.751  1.00  0.00     0.004 C 
ENDBRANCH  30  31
ENDBRANCH  29  30
ENDBRANCH  28  29
ENDBRANCH  27  28
ENDBRANCH  26  27
ENDBRANCH  25  26
ENDBRANCH  24  25
ENDBRANCH  23  24
ENDBRANCH  22  23
ENDBRANCH  21  22
ENDBRANCH  20  21
ENDBRANCH  19  20
ENDBRANCH  18  19
ENDBRANCH   1  18
TORSDOF 28
ENDMDL
MODEL 2
REMARK VINA RESULT:    25.449      4.330     10.145
REMARK INTER + INTRA:          64.792
REMARK INTER:                  66.025
REMARK INTRA:                  -1.233
REMARK UNBOUND:                -2.313
REMARK SMILES CCCCCCCCCCCCCCCCCCCCCCCCCCCCCC(=O)[O-]
REMARK SMILES IDX 16 1 17 2 18 3 19 4 20 5 21 6 22 7 23 8 24 9 25 10 26 11
REMARK SMILES IDX 27 12 28 13 29 14 30 15 31 16 32 17 15 18 14 19 13 20 12 21
REMARK SMILES IDX 11 22 10 23 9 24 8 25 7 26 6 27 5 28 4 29 3 30 2 31 1 32
REMARK H PARENT
REMARK Flexibility Score: inf
ROOT
ATOM      1  C   UNL     1      39.099 -22.404  -1.212  1.00  0.00     0.000 C 
ENDROOT
BRANCH   1   2
ATOM      2  C   UNL     1      38.918 -20.944  -0.751  1.00  0.00     0.000 C 
BRANCH   2   3
ATOM      3  C   UNL     1      37.637 -20.261  -1.264  1.00  0.00     0.000 C 
BRANCH   3   4
ATOM      4  C   UNL     1      37.402 -18.887  -0.617  1.00  0.00     0.000 C 
BRANCH   4   5
ATOM      5  C   UNL     1      38.734 -18.183  -0.320  1.00  0.00     0.000 C 
BRANCH   5   6
ATOM      6  C   UNL     1      38.710 -17.390   0.998  1.00  0.00     0.000 C 
BRANCH   6   7
ATOM      7  C   UNL     1      39.892 -17.663   1.954  1.00  0.00     0.000 C 
BRANCH   7   8
ATOM      8  C   UNL     1      40.956 -18.642   1.423  1.00  0.00     0.000 C 
BRANCH   8   9
ATOM      9  C   UNL     1      42.231 -17.933   0.937  1.00  0.00     0.000 C 
BRANCH   9  10
ATOM     10  C   UNL     1      42.270 -16.444   1.329  1.00  0.00     0.000 C 
BRANCH  10  11
ATOM     11  C   UNL     1      42.675 -15.476   0.198  1.00  0.00     0.000 C 
BRANCH  11  12
ATOM     12  C   UNL     1      41.771 -15.518  -1.051  1.00  0.00     0.000 C 
BRANCH  12  13
ATOM     13  C   UNL     1      40.614 -14.504  -1.048  1.00  0.00     0.006 C 
BRANCH  13  14
ATOM     14  C   UNL     1      39.235 -15.171  -1.164  1.00  0.00     0.053 C 
BRANCH  14  15
ATOM     15  C   UNL     1      38.231 -14.476  -0.298  1.00  0.00     0.041 C 
ATOM     16  O   UNL     1      38.612 -13.687   0.607  1.00  0.00    -0.550 OA
ATOM     17  O   UNL     1      36.873 -14.695  -0.493  1.00  0.00    -0.550 OA
ENDBRANCH  14  15
ENDBRANCH  13  14
ENDBRANCH  12  13
ENDBRANCH  11  12
ENDBRANCH  10  11
ENDBRANCH   9  10
ENDBRANCH   8   9
ENDBRANCH   7   8
ENDBRANCH   6   7
ENDBRANCH   5   6
ENDBRANCH   4   5
ENDBRANCH   3   4
ENDBRANCH   2   3
ENDBRANCH   1   2
BRANCH   1  18
ATOM     18  C   UNL     1      38.293 -22.800  -2.467  1.00  0.00     0.000 C 
BRANCH  18  19
ATOM     19  C   UNL     1      38.685 -24.148  -3.099  1.00  0.00     0.000 C 
BRANCH  19  20
ATOM     20  C   UNL     1      39.899 -24.799  -2.416  1.00  0.00     0.000 C 
BRANCH  20  21
ATOM     21  C   UNL     1      41.209 -24.042  -2.683  1.00  0.00     0.000 C 
BRANCH  21  22
ATOM     22  C   UNL     1      42.380 -24.974  -3.043  1.00  0.00     0.000 C 
BRANCH  22  23
ATOM     23  C   UNL     1      43.746 -24.290  -2.842  1.00  0.00     0.000 C 
BRANCH  23  24
ATOM     24  C   UNL     1      44.929 -25.276  -2.798  1.00  0.00    -0.000 C 
BRANCH  24  25
ATOM     25  C   UNL     1      46.120 -24.727  -1.992  1.00  0.00    -0.000 C 
BRANCH  25  26
ATOM     26  C   UNL     1      45.717 -24.342  -0.553  1.00  0.00    -0.000 C 
BRANCH  26  27
ATOM     27  C   UNL     1      45.491 -25.549   0.374  1.00  0.00    -0.000 C 
BRANCH  27  28
ATOM     28  C   UNL     1      45.761 -25.225   1.852  1.00  0.00    -0.000 C 
BRANCH  28  29
ATOM     29  C   UNL     1      45.702 -26.468   2.761  1.00  0.00    -0.000 C 
BRANCH  29  30
ATOM     30  C   UNL     1      45.332 -26.193   4.234  1.00  0.00    -0.000 C 
BRANCH  30  31
ATOM     31  C   UNL     1      46.125 -27.009   5.271  1.00  0.00    -0.003 C 
ATOM     32  C   UNL     1      46.008 -26.447   6.687  1.00  0.00     0.004 C 
ENDBRANCH  30  31
ENDBRANCH  29  30
ENDBRANCH  28  29
ENDBRANCH  27  28
ENDBRANCH  26  27
ENDBRANCH  25  26
ENDBRANCH  24  25
ENDBRANCH  23  24
ENDBRANCH  22  23
ENDBRANCH  21  22
ENDBRANCH  20  21
ENDBRANCH  19  20
ENDBRANCH  18  19
ENDBRANCH   1  18
TORSDOF 28
ENDMDL
MODEL 3
REMARK VINA RESULT:    26.092      3.554      5.569
REMARK INTER + INTRA:          66.489
REMARK INTER:                  68.449
REMARK INTRA:                  -1.960
REMARK UNBOUND:                -2.313
REMARK SMILES CCCCCCCCCCCCCCCCCCCCCCCCCCCCCC(=O)[O-]
REMARK SMILES IDX 16 1 17 2 18 3 19 4 20 5 21 6 22 7 23 8 24 9 25 10 26 11
REMARK SMILES IDX 27 12 28 13 29 14 30 15 31 16 32 17 15 18 14 19 13 20 12 21
REMARK SMILES IDX 11 22 10 23 9 24 8 25 7 26 6 27 5 28 4 29 3 30 2 31 1 32
REMARK H PARENT
REMARK Flexibility Score: inf
ROOT
ATOM      1  C   UNL     1      38.047 -20.601  -1.015  1.00  0.00     0.000 C 
ENDROOT
BRANCH   1   2
ATOM      2  C   UNL     1      38.415 -21.893  -1.771  1.00  0.00     0.000 C 
BRANCH   2   3
ATOM      3  C   UNL     1      39.911 -22.260  -1.728  1.00  0.00     0.000 C 
BRANCH   3   4
ATOM      4  C   UNL     1      40.225 -23.543  -2.512  1.00  0.00     0.000 C 
BRANCH   4   5
ATOM      5  C   UNL     1      41.723 -23.641  -2.831  1.00  0.00     0.000 C 
BRANCH   5   6
ATOM      6  C   UNL     1      42.368 -24.929  -2.288  1.00  0.00     0.000 C 
BRANCH   6   7
ATOM      7  C   UNL     1      43.668 -25.366  -2.998  1.00  0.00     0.000 C 
BRANCH   7   8
ATOM      8  C   UNL     1      44.312 -24.302  -3.907  1.00  0.00     0.000 C 
BRANCH   8   9
ATOM      9  C   UNL     1      45.544 -23.639  -3.271  1.00  0.00     0.000 C 
BRANCH   9  10
ATOM     10  C   UNL     1      45.315 -23.241  -1.801  1.00  0.00     0.000 C 
BRANCH  10  11
ATOM     11  C   UNL     1      46.122 -24.053  -0.766  1.00  0.00     0.000 C 
BRANCH  11  12
ATOM     12  C   UNL     1      45.955 -23.596   0.696  1.00  0.00     0.000 C 
BRANCH  12  13
ATOM     13  C   UNL     1      45.856 -24.737   1.725  1.00  0.00     0.006 C 
BRANCH  13  14
ATOM     14  C   UNL     1      44.842 -25.818   1.321  1.00  0.00     0.053 C 
BRANCH  14  15
ATOM     15  C   UNL     1      44.784 -26.905   2.348  1.00  0.00     0.041 C 
ATOM     16  O   UNL     1      45.389 -26.775   3.445  1.00  0.00    -0.550 OA
ATOM     17  O   UNL     1      44.057 -28.062   2.097  1.00  0.00    -0.550 OA
ENDBRANCH  14  15
ENDBRANCH  13  14
ENDBRANCH  12  13
ENDBRANCH  11  12
ENDBRANCH  10  11
ENDBRANCH   9  10
ENDBRANCH   8   9
ENDBRANCH   7   8
ENDBRANCH   6   7
ENDBRANCH   5   6
ENDBRANCH   4   5
ENDBRANCH   3   4
ENDBRANCH   2   3
ENDBRANCH   1   2
BRANCH   1  18
ATOM     18  C   UNL     1      39.242 -19.705  -0.627  1.00  0.00     0.000 C 
BRANCH  18  19
ATOM     19  C   UNL     1      38.894 -18.499   0.267  1.00  0.00     0.000 C 
BRANCH  19  20
ATOM     20  C   UNL     1      37.724 -18.782   1.224  1.00  0.00     0.000 C 
BRANCH  20  21
ATOM     21  C   UNL     1      36.592 -17.751   1.100  1.00  0.00     0.000 C 
BRANCH  21  22
ATOM     22  C   UNL     1      35.929 -17.750  -0.289  1.00  0.00     0.000 C 
BRANCH  22  23
ATOM     23  C   UNL     1      35.202 -16.423  -0.582  1.00  0.00     0.000 C 
BRANCH  23  24
ATOM     24  C   UNL     1      36.135 -15.307  -1.090  1.00  0.00    -0.000 C 
BRANCH  24  25
ATOM     25  C   UNL     1      37.293 -15.022  -0.118  1.00  0.00    -0.000 C 
BRANCH  25  26
ATOM     26  C   UNL     1      37.928 -13.637  -0.362  1.00  0.00    -0.000 C 
BRANCH  26  27
ATOM     27  C   UNL     1      39.452 -13.678  -0.566  1.00  0.00    -0.000 C 
BRANCH  27  28
ATOM     28  C   UNL     1      40.066 -15.038  -0.199  1.00  0.00    -0.000 C 
BRANCH  28  29
ATOM     29  C   UNL     1      41.034 -15.571  -1.272  1.00  0.00    -0.000 C 
BRANCH  29  30
ATOM     30  C   UNL     1      42.519 -15.201  -1.067  1.00  0.00    -0.000 C 
BRANCH  30  31
ATOM     31  C   UNL     1      43.014 -15.265   0.389  1.00  0.00    -0.003 C 
ATOM     32  C   UNL     1      43.328 -16.688   0.849  1.00  0.00     0.004 C 
ENDBRANCH  30  31
ENDBRANCH  29  30
ENDBRANCH  28  29
ENDBRANCH  27  28
ENDBRANCH  26  27
ENDBRANCH  25  26
ENDBRANCH  24  25
ENDBRANCH  23  24
ENDBRANCH  22  23
ENDBRANCH  21  22
ENDBRANCH  20  21
ENDBRANCH  19  20
ENDBRANCH  18  19
ENDBRANCH   1  18
TORSDOF 28
ENDMDL
MODEL 4
REMARK VINA RESULT:    26.373      5.401     11.850
REMARK INTER + INTRA:          67.230
REMARK INTER:                  67.727
REMARK INTRA:                  -0.497
REMARK UNBOUND:                -2.313
REMARK SMILES CCCCCCCCCCCCCCCCCCCCCCCCCCCCCC(=O)[O-]
REMARK SMILES IDX 16 1 17 2 18 3 19 4 20 5 21 6 22 7 23 8 24 9 25 10 26 11
REMARK SMILES IDX 27 12 28 13 29 14 30 15 31 16 32 17 15 18 14 19 13 20 12 21
REMARK SMILES IDX 11 22 10 23 9 24 8 25 7 26 6 27 5 28 4 29 3 30 2 31 1 32
REMARK H PARENT
REMARK Flexibility Score: inf
ROOT
ATOM      1  C   UNL     1      40.270 -20.865   0.422  1.00  0.00     0.000 C 
ENDROOT
BRANCH   1   2
ATOM      2  C   UNL     1      40.212 -20.833  -1.118  1.00  0.00     0.000 C 
BRANCH   2   3
ATOM      3  C   UNL     1      38.869 -21.282  -1.722  1.00  0.00     0.000 C 
BRANCH   3   4
ATOM      4  C   UNL     1      37.692 -21.075  -0.757  1.00  0.00     0.000 C 
BRANCH   4   5
ATOM      5  C   UNL     1      36.703 -20.037  -1.308  1.00  0.00     0.000 C 
BRANCH   5   6
ATOM      6  C   UNL     1      36.671 -18.742  -0.478  1.00  0.00     0.000 C 
BRANCH   6   7
ATOM      7  C   UNL     1      37.961 -17.895  -0.525  1.00  0.00     0.000 C 
BRANCH   7   8
ATOM      8  C   UNL     1      38.795 -17.893   0.770  1.00  0.00     0.000 C 
BRANCH   8   9
ATOM      9  C   UNL     1      40.284 -17.603   0.521  1.00  0.00     0.000 C 
BRANCH   9  10
ATOM     10  C   UNL     1      40.540 -16.157   0.055  1.00  0.00     0.000 C 
BRANCH  10  11
ATOM     11  C   UNL     1      39.409 -15.527  -0.785  1.00  0.00     0.000 C 
BRANCH  11  12
ATOM     12  C   UNL     1      38.820 -14.222  -0.212  1.00  0.00     0.000 C 
BRANCH  12  13
ATOM     13  C   UNL     1      37.697 -13.593  -1.056  1.00  0.00     0.006 C 
BRANCH  13  14
ATOM     14  C   UNL     1      36.524 -14.554  -1.299  1.00  0.00     0.053 C 
BRANCH  14  15
ATOM     15  C   UNL     1      35.320 -14.134  -0.516  1.00  0.00     0.041 C 
ATOM     16  O   UNL     1      35.072 -12.912  -0.339  1.00  0.00    -0.550 OA
ATOM     17  O   UNL     1      34.466 -15.093   0.016  1.00  0.00    -0.550 OA
ENDBRANCH  14  15
ENDBRANCH  13  14
ENDBRANCH  12  13
ENDBRANCH  11  12
ENDBRANCH  10  11
ENDBRANCH   9  10
ENDBRANCH   8   9
ENDBRANCH   7   8
ENDBRANCH   6   7
ENDBRANCH   5   6
ENDBRANCH   4   5
ENDBRANCH   3   4
ENDBRANCH   2   3
ENDBRANCH   1   2
BRANCH   1  18
ATOM     18  C   UNL     1      41.562 -21.461   1.018  1.00  0.00     0.000 C 
BRANCH  18  19
ATOM     19  C   UNL     1      42.808 -21.358   0.117  1.00  0.00     0.000 C 
BRANCH  19  20
ATOM     20  C   UNL     1      43.935 -22.314   0.543  1.00  0.00     0.000 C 
BRANCH  20  21
ATOM     21  C   UNL     1      44.761 -22.827  -0.647  1.00  0.00     0.000 C 
BRANCH  21  22
ATOM     22  C   UNL     1      44.407 -24.270  -1.048  1.00  0.00     0.000 C 
BRANCH  22  23
ATOM     23  C   UNL     1      44.743 -25.279   0.067  1.00  0.00     0.000 C 
BRANCH  23  24
ATOM     24  C   UNL     1      45.037 -24.620   1.428  1.00  0.00    -0.000 C 
BRANCH  24  25
ATOM     25  C   UNL     1      45.236 -25.654   2.550  1.00  0.00    -0.000 C 
BRANCH  25  26
ATOM     26  C   UNL     1      45.176 -27.103   2.019  1.00  0.00    -0.000 C 
BRANCH  26  27
ATOM     27  C   UNL     1      45.755 -28.145   2.991  1.00  0.00    -0.000 C 
BRANCH  27  28
ATOM     28  C   UNL     1      45.175 -28.026   4.409  1.00  0.00    -0.000 C 
BRANCH  28  29
ATOM     29  C   UNL     1      46.065 -28.682   5.482  1.00  0.00    -0.000 C 
BRANCH  29  30
ATOM     30  C   UNL     1      45.343 -29.655   6.437  1.00  0.00    -0.000 C 
BRANCH  30  31
ATOM     31  C   UNL     1      45.307 -29.218   7.913  1.00  0.00    -0.003 C 
ATOM     32  C   UNL     1      45.798 -27.785   8.120  1.00  0.00     0.004 C 
ENDBRANCH  30  31
ENDBRANCH  29  30
ENDBRANCH  28  29
ENDBRANCH  27  28
ENDBRANCH  26  27
ENDBRANCH  25  26
ENDBRANCH  24  25
ENDBRANCH  23  24
ENDBRANCH  22  23
ENDBRANCH  21  22
ENDBRANCH  20  21
ENDBRANCH  19  20
ENDBRANCH  18  19
ENDBRANCH   1  18
TORSDOF 28
ENDMDL
MODEL 5
REMARK VINA RESULT:    27.482      4.616     11.129
REMARK INTER + INTRA:          70.155
REMARK INTER:                  71.050
REMARK INTRA:                  -0.895
REMARK UNBOUND:                -2.313
REMARK SMILES CCCCCCCCCCCCCCCCCCCCCCCCCCCCCC(=O)[O-]
REMARK SMILES IDX 16 1 17 2 18 3 19 4 20 5 21 6 22 7 23 8 24 9 25 10 26 11
REMARK SMILES IDX 27 12 28 13 29 14 30 15 31 16 32 17 15 18 14 19 13 20 12 21
REMARK SMILES IDX 11 22 10 23 9 24 8 25 7 26 6 27 5 28 4 29 3 30 2 31 1 32
REMARK H PARENT
REMARK Flexibility Score: inf
ROOT
ATOM      1  C   UNL     1      37.916 -21.637  -2.409  1.00  0.00     0.000 C 
ENDROOT
BRANCH   1   2
ATOM      2  C   UNL     1      38.097 -21.021  -1.008  1.00  0.00     0.000 C 
BRANCH   2   3
ATOM      3  C   UNL     1      37.064 -19.940  -0.641  1.00  0.00     0.000 C 
BRANCH   3   4
ATOM      4  C   UNL     1      37.082 -19.592   0.855  1.00  0.00     0.000 C 
BRANCH   4   5
ATOM      5  C   UNL     1      38.485 -19.161   1.303  1.00  0.00     0.000 C 
BRANCH   5   6
ATOM      6  C   UNL     1      38.621 -17.636   1.465  1.00  0.00     0.000 C 
BRANCH   6   7
ATOM      7  C   UNL     1      39.813 -16.997   0.720  1.00  0.00     0.000 C 
BRANCH   7   8
ATOM      8  C   UNL     1      39.990 -17.441  -0.744  1.00  0.00     0.000 C 
BRANCH   8   9
ATOM      9  C   UNL     1      39.018 -16.735  -1.704  1.00  0.00     0.000 C 
BRANCH   9  10
ATOM     10  C   UNL     1      39.225 -15.209  -1.746  1.00  0.00     0.000 C 
BRANCH  10  11
ATOM     11  C   UNL     1      38.717 -14.442  -0.507  1.00  0.00     0.000 C 
BRANCH  11  12
ATOM     12  C   UNL     1      37.190 -14.480  -0.296  1.00  0.00     0.000 C 
BRANCH  12  13
ATOM     13  C   UNL     1      36.446 -13.199  -0.714  1.00  0.00     0.006 C 
BRANCH  13  14
ATOM     14  C   UNL     1      35.225 -12.903   0.170  1.00  0.00     0.053 C 
BRANCH  14  15
ATOM     15  C   UNL     1      33.965 -13.379  -0.484  1.00  0.00     0.041 C 
ATOM     16  O   UNL     1      33.260 -14.264   0.066  1.00  0.00    -0.550 OA
ATOM     17  O   UNL     1      33.567 -12.840  -1.701  1.00  0.00    -0.550 OA
ENDBRANCH  14  15
ENDBRANCH  13  14
ENDBRANCH  12  13
ENDBRANCH  11  12
ENDBRANCH  10  11
ENDBRANCH   9  10
ENDBRANCH   8   9
ENDBRANCH   7   8
ENDBRANCH   6   7
ENDBRANCH   5   6
ENDBRANCH   4   5
ENDBRANCH   3   4
ENDBRANCH   2   3
ENDBRANCH   1   2
BRANCH   1  18
ATOM     18  C   UNL     1      38.440 -23.081  -2.564  1.00  0.00     0.000 C 
BRANCH  18  19
ATOM     19  C   UNL     1      39.606 -23.459  -1.631  1.00  0.00     0.000 C 
BRANCH  19  20
ATOM     20  C   UNL     1      40.605 -22.308  -1.426  1.00  0.00     0.000 C 
BRANCH  20  21
ATOM     21  C   UNL     1      42.068 -22.756  -1.570  1.00  0.00     0.000 C 
BRANCH  21  22
ATOM     22  C   UNL     1      42.271 -23.794  -2.688  1.00  0.00     0.000 C 
BRANCH  22  23
ATOM     23  C   UNL     1      43.349 -24.834  -2.323  1.00  0.00     0.000 C 
BRANCH  23  24
ATOM     24  C   UNL     1      44.576 -24.803  -3.254  1.00  0.00    -0.000 C 
BRANCH  24  25
ATOM     25  C   UNL     1      45.547 -23.661  -2.906  1.00  0.00    -0.000 C 
BRANCH  25  26
ATOM     26  C   UNL     1      45.875 -23.617  -1.399  1.00  0.00    -0.000 C 
BRANCH  26  27
ATOM     27  C   UNL     1      46.112 -25.002  -0.773  1.00  0.00    -0.000 C 
BRANCH  27  28
ATOM     28  C   UNL     1      45.192 -25.280   0.426  1.00  0.00    -0.000 C 
BRANCH  28  29
ATOM     29  C   UNL     1      45.777 -26.314   1.408  1.00  0.00    -0.000 C 
BRANCH  29  30
ATOM     30  C   UNL     1      45.194 -26.273   2.837  1.00  0.00    -0.000 C 
BRANCH  30  31
ATOM     31  C   UNL     1      46.107 -26.856   3.931  1.00  0.00    -0.003 C 
ATOM     32  C   UNL     1      45.482 -28.048   4.654  1.00  0.00     0.004 C 
ENDBRANCH  30  31
ENDBRANCH  29  30
ENDBRANCH  28  29
ENDBRANCH  27  28
ENDBRANCH  26  27
ENDBRANCH  25  26
ENDBRANCH  24  25
ENDBRANCH  23  24
ENDBRANCH  22  23
ENDBRANCH  21  22
ENDBRANCH  20  21
ENDBRANCH  19  20
ENDBRANCH  18  19
ENDBRANCH   1  18
TORSDOF 28
ENDMDL
MODEL 6
REMARK VINA RESULT:    27.813      6.805     13.417
REMARK INTER + INTRA:          71.027
REMARK INTER:                  72.419
REMARK INTRA:                  -1.392
REMARK UNBOUND:                -2.313
REMARK SMILES CCCCCCCCCCCCCCCCCCCCCCCCCCCCCC(=O)[O-]
REMARK SMILES IDX 16 1 17 2 18 3 19 4 20 5 21 6 22 7 23 8 24 9 25 10 26 11
REMARK SMILES IDX 27 12 28 13 29 14 30 15 31 16 32 17 15 18 14 19 13 20 12 21
REMARK SMILES IDX 11 22 10 23 9 24 8 25 7 26 6 27 5 28 4 29 3 30 2 31 1 32
REMARK H PARENT
REMARK Flexibility Score: inf
ROOT
ATOM      1  C   UNL     1      36.143 -22.066  -4.674  1.00  0.00     0.000 C 
ENDROOT
BRANCH   1   2
ATOM      2  C   UNL     1      34.705 -21.513  -4.634  1.00  0.00     0.000 C 
BRANCH   2   3
ATOM      3  C   UNL     1      33.603 -22.568  -4.848  1.00  0.00     0.000 C 
BRANCH   3   4
ATOM      4  C   UNL     1      32.368 -21.994  -5.558  1.00  0.00     0.000 C 
BRANCH   4   5
ATOM      5  C   UNL     1      31.655 -23.075  -6.383  1.00  0.00     0.000 C 
BRANCH   5   6
ATOM      6  C   UNL     1      30.238 -22.659  -6.817  1.00  0.00     0.000 C 
BRANCH   6   7
ATOM      7  C   UNL     1      29.719 -23.332  -8.106  1.00  0.00     0.000 C 
BRANCH   7   8
ATOM      8  C   UNL     1      28.439 -22.716  -8.701  1.00  0.00     0.000 C 
BRANCH   8   9
ATOM      9  C   UNL     1      27.159 -23.418  -8.221  1.00  0.00     0.000 C 
BRANCH   9  10
ATOM     10  C   UNL     1      26.638 -22.859  -6.884  1.00  0.00     0.000 C 
BRANCH  10  11
ATOM     11  C   UNL     1      27.320 -23.429  -5.622  1.00  0.00     0.000 C 
BRANCH  11  12
ATOM     12  C   UNL     1      26.981 -22.696  -4.309  1.00  0.00     0.000 C 
BRANCH  12  13
ATOM     13  C   UNL     1      26.908 -21.163  -4.423  1.00  0.00     0.006 C 
BRANCH  13  14
ATOM     14  C   UNL     1      28.143 -20.461  -3.838  1.00  0.00     0.053 C 
BRANCH  14  15
ATOM     15  C   UNL     1      28.036 -20.346  -2.350  1.00  0.00     0.041 C 
ATOM     16  O   UNL     1      29.058 -20.097  -1.657  1.00  0.00    -0.550 OA
ATOM     17  O   UNL     1      26.805 -20.509  -1.725  1.00  0.00    -0.550 OA
ENDBRANCH  14  15
ENDBRANCH  13  14
ENDBRANCH  12  13
ENDBRANCH  11  12
ENDBRANCH  10  11
ENDBRANCH   9  10
ENDBRANCH   8   9
ENDBRANCH   7   8
ENDBRANCH   6   7
ENDBRANCH   5   6
ENDBRANCH   4   5
ENDBRANCH   3   4
ENDBRANCH   2   3
ENDBRANCH   1   2
BRANCH   1  18
ATOM     18  C   UNL     1      36.887 -22.056  -3.321  1.00  0.00     0.000 C 
BRANCH  18  19
ATOM     19  C   UNL     1      37.979 -23.131  -3.166  1.00  0.00     0.000 C 
BRANCH  19  20
ATOM     20  C   UNL     1      38.714 -23.047  -1.818  1.00  0.00     0.000 C 
BRANCH  20  21
ATOM     21  C   UNL     1      40.146 -22.505  -1.953  1.00  0.00     0.000 C 
BRANCH  21  22
ATOM     22  C   UNL     1      41.067 -23.435  -2.762  1.00  0.00     0.000 C 
BRANCH  22  23
ATOM     23  C   UNL     1      42.378 -23.744  -2.013  1.00  0.00     0.000 C 
BRANCH  23  24
ATOM     24  C   UNL     1      43.159 -24.935  -2.601  1.00  0.00    -0.000 C 
BRANCH  24  25
ATOM     25  C   UNL     1      44.378 -24.486  -3.427  1.00  0.00    -0.000 C 
BRANCH  25  26
ATOM     26  C   UNL     1      45.622 -25.354  -3.144  1.00  0.00    -0.000 C 
BRANCH  26  27
ATOM     27  C   UNL     1      46.108 -25.289  -1.686  1.00  0.00    -0.000 C 
BRANCH  27  28
ATOM     28  C   UNL     1      46.063 -23.867  -1.105  1.00  0.00    -0.000 C 
BRANCH  28  29
ATOM     29  C   UNL     1      45.806 -23.844   0.413  1.00  0.00    -0.000 C 
BRANCH  29  30
ATOM     30  C   UNL     1      45.326 -25.178   1.024  1.00  0.00    -0.000 C 
BRANCH  30  31
ATOM     31  C   UNL     1      46.122 -25.660   2.250  1.00  0.00    -0.003 C 
ATOM     32  C   UNL     1      45.384 -26.727   3.057  1.00  0.00     0.004 C 
ENDBRANCH  30  31
ENDBRANCH  29  30
ENDBRANCH  28  29
ENDBRANCH  27  28
ENDBRANCH  26  27
ENDBRANCH  25  26
ENDBRANCH  24  25
ENDBRANCH  23  24
ENDBRANCH  22  23
ENDBRANCH  21  22
ENDBRANCH  20  21
ENDBRANCH  19  20
ENDBRANCH  18  19
ENDBRANCH   1  18
TORSDOF 28
ENDMDL
MODEL 7
REMARK VINA RESULT:    28.118      5.094     10.781
REMARK INTER + INTRA:          71.831
REMARK INTER:                  65.276
REMARK INTRA:                   6.555
REMARK UNBOUND:                -2.313
REMARK SMILES CCCCCCCCCCCCCCCCCCCCCCCCCCCCCC(=O)[O-]
REMARK SMILES IDX 16 1 17 2 18 3 19 4 20 5 21 6 22 7 23 8 24 9 25 10 26 11
REMARK SMILES IDX 27 12 28 13 29 14 30 15 31 16 32 17 15 18 14 19 13 20 12 21
REMARK SMILES IDX 11 22 10 23 9 24 8 25 7 26 6 27 5 28 4 29 3 30 2 31 1 32
REMARK H PARENT
REMARK Flexibility Score: inf
ROOT
ATOM      1  C   UNL     1      44.876 -24.983   0.596  1.00  0.00     0.000 C 
ENDROOT
BRANCH   1   2
ATOM      2  C   UNL     1      45.108 -24.017  -0.584  1.00  0.00     0.000 C 
BRANCH   2   3
ATOM      3  C   UNL     1      44.998 -24.665  -1.977  1.00  0.00     0.000 C 
BRANCH   3   4
ATOM      4  C   UNL     1      43.701 -24.281  -2.703  1.00  0.00     0.000 C 
BRANCH   4   5
ATOM      5  C   UNL     1      42.476 -24.526  -1.810  1.00  0.00     0.000 C 
BRANCH   5   6
ATOM      6  C   UNL     1      41.165 -24.024  -2.442  1.00  0.00     0.000 C 
BRANCH   6   7
ATOM      7  C   UNL     1      40.950 -22.496  -2.389  1.00  0.00     0.000 C 
BRANCH   7   8
ATOM      8  C   UNL     1      40.415 -21.952  -1.051  1.00  0.00     0.000 C 
BRANCH   8   9
ATOM      9  C   UNL     1      38.923 -21.586  -1.109  1.00  0.00     0.000 C 
BRANCH   9  10
ATOM     10  C   UNL     1      38.615 -20.233  -0.441  1.00  0.00     0.000 C 
BRANCH  10  11
ATOM     11  C   UNL     1      39.647 -19.118  -0.709  1.00  0.00     0.000 C 
BRANCH  11  12
ATOM     12  C   UNL     1      39.537 -17.890   0.217  1.00  0.00     0.000 C 
BRANCH  12  13
ATOM     13  C   UNL     1      38.440 -17.985   1.292  1.00  0.00     0.006 C 
BRANCH  13  14
ATOM     14  C   UNL     1      37.296 -18.931   0.896  1.00  0.00     0.053 C 
BRANCH  14  15
ATOM     15  C   UNL     1      36.697 -18.524  -0.415  1.00  0.00     0.041 C 
ATOM     16  O   UNL     1      35.980 -17.491  -0.491  1.00  0.00    -0.550 OA
ATOM     17  O   UNL     1      36.934 -19.283  -1.554  1.00  0.00    -0.550 OA
ENDBRANCH  14  15
ENDBRANCH  13  14
ENDBRANCH  12  13
ENDBRANCH  11  12
ENDBRANCH  10  11
ENDBRANCH   9  10
ENDBRANCH   8   9
ENDBRANCH   7   8
ENDBRANCH   6   7
ENDBRANCH   5   6
ENDBRANCH   4   5
ENDBRANCH   3   4
ENDBRANCH   2   3
ENDBRANCH   1   2
BRANCH   1  18
ATOM     18  C   UNL     1      45.982 -24.980   1.672  1.00  0.00     0.000 C 
BRANCH  18  19
ATOM     19  C   UNL     1      45.987 -26.203   2.610  1.00  0.00     0.000 C 
BRANCH  19  20
ATOM     20  C   UNL     1      45.288 -27.429   1.998  1.00  0.00     0.000 C 
BRANCH  20  21
ATOM     21  C   UNL     1      45.447 -28.693   2.857  1.00  0.00     0.000 C 
BRANCH  21  22
ATOM     22  C   UNL     1      46.125 -28.421   4.211  1.00  0.00     0.000 C 
BRANCH  22  23
ATOM     23  C   UNL     1      45.742 -29.471   5.271  1.00  0.00     0.000 C 
BRANCH  23  24
ATOM     24  C   UNL     1      45.962 -28.995   6.720  1.00  0.00    -0.000 C 
BRANCH  24  25
ATOM     25  C   UNL     1      45.946 -27.460   6.841  1.00  0.00    -0.000 C 
BRANCH  25  26
ATOM     26  C   UNL     1      45.640 -26.776   5.492  1.00  0.00    -0.000 C 
BRANCH  26  27
ATOM     27  C   UNL     1      44.490 -25.756   5.559  1.00  0.00    -0.000 C 
BRANCH  27  28
ATOM     28  C   UNL     1      43.347 -26.080   4.584  1.00  0.00    -0.000 C 
BRANCH  28  29
ATOM     29  C   UNL     1      42.153 -25.116   4.712  1.00  0.00    -0.000 C 
BRANCH  29  30
ATOM     30  C   UNL     1      42.519 -23.621   4.839  1.00  0.00    -0.000 C 
BRANCH  30  31
ATOM     31  C   UNL     1      42.294 -22.783   3.567  1.00  0.00    -0.003 C 
ATOM     32  C   UNL     1      43.578 -22.556   2.770  1.00  0.00     0.004 C 
ENDBRANCH  30  31
ENDBRANCH  29  30
ENDBRANCH  28  29
ENDBRANCH  27  28
ENDBRANCH  26  27
ENDBRANCH  25  26
ENDBRANCH  24  25
ENDBRANCH  23  24
ENDBRANCH  22  23
ENDBRANCH  21  22
ENDBRANCH  20  21
ENDBRANCH  19  20
ENDBRANCH  18  19
ENDBRANCH   1  18
TORSDOF 28
ENDMDL
