MODEL 1
REMARK VINA RESULT:    -4.913      0.000      0.000
REMARK INTER + INTRA:          -6.023
REMARK INTER:                  -5.774
REMARK INTRA:                  -0.249
REMARK UNBOUND:                -0.249
REMARK SMILES O=c1c(O)c(-c2ccc(O)cc2)oc2cc(O)cc(O)c12
REMARK SMILES IDX 5 1 3 2 2 3 1 4 21 5 19 6 18 7 16 8 15 9 14 10 13 11 6 12
REMARK SMILES IDX 7 13 8 14 9 15 12 16 11 17 10 18 4 20 20 22 17 24
REMARK H PARENT 10 19 4 21 20 23 17 25
REMARK Flexibility Score: inf
ROOT
ATOM      1  C   UNL     1       7.971  10.600   7.278  1.00  0.00     0.180 A 
ATOM      2  C   UNL     1       8.198  11.963   7.535  1.00  0.00     0.208 A 
ATOM      3  C   UNL     1       7.107  12.788   7.851  1.00  0.00     0.238 A 
ATOM      4  O   UNL     1       7.309  14.017   8.026  1.00  0.00    -0.285 OA
ATOM      5  C   UNL     1       5.805  12.236   7.923  1.00  0.00     0.111 A 
ATOM      6  C   UNL     1       4.632  12.970   8.274  1.00  0.00     0.134 A 
ATOM      7  C   UNL     1       3.378  12.352   8.187  1.00  0.00     0.093 A 
ATOM      8  C   UNL     1       3.262  11.008   7.823  1.00  0.00     0.123 A 
ATOM      9  C   UNL     1       4.406  10.267   7.536  1.00  0.00     0.094 A 
ATOM     10  C   UNL     1       5.667  10.866   7.580  1.00  0.00     0.146 A 
ATOM     11  O   UNL     1       6.731  10.126   7.289  1.00  0.00    -0.452 OA
ENDROOT
BRANCH   1  12
ATOM     12  C   UNL     1       9.074   9.663   6.962  1.00  0.00     0.021 A 
ATOM     13  C   UNL     1       9.599   9.626   5.660  1.00  0.00     0.016 A 
ATOM     14  C   UNL     1      10.625   8.734   5.334  1.00  0.00     0.047 A 
ATOM     15  C   UNL     1      11.128   7.856   6.304  1.00  0.00     0.115 A 
ATOM     16  C   UNL     1       9.571   8.765   7.925  1.00  0.00     0.016 A 
ATOM     17  C   UNL     1      10.596   7.873   7.596  1.00  0.00     0.047 A 
BRANCH  15  18
ATOM     18  O   UNL     1      12.150   6.963   5.991  1.00  0.00    -0.508 OA
ATOM     19  H   UNL     1      12.667   6.475   6.714  1.00  0.00     0.293 HD
ENDBRANCH  15  18
ENDBRANCH   1  12
BRANCH   2  20
ATOM     20  O   UNL     1       9.488  12.491   7.436  1.00  0.00    -0.502 OA
ATOM     21  H   UNL     1       9.699  13.311   6.879  1.00  0.00     0.293 HD
ENDBRANCH   2  20
BRANCH   6  22
ATOM     22  O   UNL     1       4.646  14.288   8.738  1.00  0.00    -0.507 OA
ATOM     23  H   UNL     1       4.961  14.572   9.654  1.00  0.00     0.293 HD
ENDBRANCH   6  22
BRANCH   8  24
ATOM     24  O   UNL     1       2.012  10.396   7.754  1.00  0.00    -0.508 OA
ATOM     25  H   UNL     1       1.468  10.205   8.588  1.00  0.00     0.293 HD
ENDBRANCH   8  24
TORSDOF 5
ENDMDL
MODEL 2
REMARK VINA RESULT:    -4.844      1.745      6.906
REMARK INTER + INTRA:          -5.942
REMARK INTER:                  -5.727
REMARK INTRA:                  -0.216
REMARK UNBOUND:                -0.249
REMARK SMILES O=c1c(O)c(-c2ccc(O)cc2)oc2cc(O)cc(O)c12
REMARK SMILES IDX 5 1 3 2 2 3 1 4 21 5 19 6 18 7 16 8 15 9 14 10 13 11 6 12
REMARK SMILES IDX 7 13 8 14 9 15 12 16 11 17 10 18 4 20 20 22 17 24
REMARK H PARENT 10 19 4 21 20 23 17 25
REMARK Flexibility Score: inf
ROOT
ATOM      1  C   UNL     1       7.715  10.606   7.803  1.00  0.00     0.180 A 
ATOM      2  C   UNL     1       7.968   9.781   8.913  1.00  0.00     0.208 A 
ATOM      3  C   UNL     1       8.980   8.812   8.824  1.00  0.00     0.238 A 
ATOM      4  O   UNL     1       9.165   8.040   9.800  1.00  0.00    -0.285 OA
ATOM      5  C   UNL     1       9.736   8.690   7.633  1.00  0.00     0.111 A 
ATOM      6  C   UNL     1      10.812   7.770   7.447  1.00  0.00     0.134 A 
ATOM      7  C   UNL     1      11.404   7.646   6.184  1.00  0.00     0.093 A 
ATOM      8  C   UNL     1      11.003   8.457   5.118  1.00  0.00     0.123 A 
ATOM      9  C   UNL     1       9.995   9.399   5.307  1.00  0.00     0.094 A 
ATOM     10  C   UNL     1       9.361   9.520   6.545  1.00  0.00     0.146 A 
ATOM     11  O   UNL     1       8.397  10.424   6.679  1.00  0.00    -0.452 OA
ENDROOT
BRANCH   1  12
ATOM     12  C   UNL     1       6.682  11.668   7.829  1.00  0.00     0.021 A 
ATOM     13  C   UNL     1       5.326  11.314   7.738  1.00  0.00     0.016 A 
ATOM     14  C   UNL     1       4.335  12.301   7.738  1.00  0.00     0.047 A 
ATOM     15  C   UNL     1       4.690  13.654   7.814  1.00  0.00     0.115 A 
ATOM     16  C   UNL     1       7.032  13.029   7.885  1.00  0.00     0.016 A 
ATOM     17  C   UNL     1       6.039  14.014   7.884  1.00  0.00     0.047 A 
BRANCH  15  18
ATOM     18  O   UNL     1       3.712  14.646   7.816  1.00  0.00    -0.508 OA
ATOM     19  H   UNL     1       3.090  14.775   8.606  1.00  0.00     0.293 HD
ENDBRANCH  15  18
ENDBRANCH   1  12
BRANCH   2  20
ATOM     20  O   UNL     1       7.194   9.904  10.069  1.00  0.00    -0.502 OA
ATOM     21  H   UNL     1       7.557   9.691  10.991  1.00  0.00     0.293 HD
ENDBRANCH   2  20
BRANCH   6  22
ATOM     22  O   UNL     1      11.349   6.981   8.468  1.00  0.00    -0.507 OA
ATOM     23  H   UNL     1      12.006   6.228   8.327  1.00  0.00     0.293 HD
ENDBRANCH   6  22
BRANCH   8  24
ATOM     24  O   UNL     1      11.609   8.338   3.869  1.00  0.00    -0.508 OA
ATOM     25  H   UNL     1      12.541   7.953   3.766  1.00  0.00     0.293 HD
ENDBRANCH   8  24
TORSDOF 5
ENDMDL
MODEL 3
REMARK VINA RESULT:    -4.753      2.322      2.859
REMARK INTER + INTRA:          -5.836
REMARK INTER:                  -5.585
REMARK INTRA:                  -0.251
REMARK UNBOUND:                -0.249
REMARK SMILES O=c1c(O)c(-c2ccc(O)cc2)oc2cc(O)cc(O)c12
REMARK SMILES IDX 5 1 3 2 2 3 1 4 21 5 19 6 18 7 16 8 15 9 14 10 13 11 6 12
REMARK SMILES IDX 7 13 8 14 9 15 12 16 11 17 10 18 4 20 20 22 17 24
REMARK H PARENT 10 19 4 21 20 23 17 25
REMARK Flexibility Score: inf
ROOT
ATOM      1  C   UNL     1       7.726  11.533   7.995  1.00  0.00     0.180 A 
ATOM      2  C   UNL     1       8.278  11.858   9.247  1.00  0.00     0.208 A 
ATOM      3  C   UNL     1       7.738  12.933   9.971  1.00  0.00     0.238 A 
ATOM      4  O   UNL     1       8.271  13.253  11.064  1.00  0.00    -0.285 OA
ATOM      5  C   UNL     1       6.644  13.659   9.442  1.00  0.00     0.111 A 
ATOM      6  C   UNL     1       5.992  14.741  10.107  1.00  0.00     0.134 A 
ATOM      7  C   UNL     1       5.004  15.471   9.435  1.00  0.00     0.093 A 
ATOM      8  C   UNL     1       4.600  15.117   8.145  1.00  0.00     0.123 A 
ATOM      9  C   UNL     1       5.188  14.026   7.511  1.00  0.00     0.094 A 
ATOM     10  C   UNL     1       6.201  13.301   8.142  1.00  0.00     0.146 A 
ATOM     11  O   UNL     1       6.743  12.274   7.498  1.00  0.00    -0.452 OA
ENDROOT
BRANCH   1  12
ATOM     12  C   UNL     1       8.225  10.398   7.185  1.00  0.00     0.021 A 
ATOM     13  C   UNL     1       9.389  10.557   6.416  1.00  0.00     0.016 A 
ATOM     14  C   UNL     1       9.865   9.506   5.626  1.00  0.00     0.047 A 
ATOM     15  C   UNL     1       9.173   8.288   5.583  1.00  0.00     0.115 A 
ATOM     16  C   UNL     1       7.525   9.179   7.122  1.00  0.00     0.016 A 
ATOM     17  C   UNL     1       8.002   8.130   6.330  1.00  0.00     0.047 A 
BRANCH  15  18
ATOM     18  O   UNL     1       9.638   7.233   4.801  1.00  0.00    -0.508 OA
ATOM     19  H   UNL     1      10.377   7.365   4.120  1.00  0.00     0.293 HD
ENDBRANCH  15  18
ENDBRANCH   1  12
BRANCH   2  20
ATOM     20  O   UNL     1       9.372  11.142   9.739  1.00  0.00    -0.502 OA
ATOM     21  H   UNL     1       9.453  10.137   9.640  1.00  0.00     0.293 HD
ENDBRANCH   2  20
BRANCH   6  22
ATOM     22  O   UNL     1       6.256  15.118  11.427  1.00  0.00    -0.507 OA
ATOM     23  H   UNL     1       5.641  14.946  12.208  1.00  0.00     0.293 HD
ENDBRANCH   6  22
BRANCH   8  24
ATOM     24  O   UNL     1       3.605  15.839   7.489  1.00  0.00    -0.508 OA
ATOM     25  H   UNL     1       3.318  15.608   6.545  1.00  0.00     0.293 HD
ENDBRANCH   8  24
TORSDOF 5
ENDMDL
MODEL 4
REMARK VINA RESULT:    -4.533      1.934      6.820
REMARK INTER + INTRA:          -5.577
REMARK INTER:                  -5.289
REMARK INTRA:                  -0.288
REMARK UNBOUND:                -0.249
REMARK SMILES O=c1c(O)c(-c2ccc(O)cc2)oc2cc(O)cc(O)c12
REMARK SMILES IDX 5 1 3 2 2 3 1 4 21 5 19 6 18 7 16 8 15 9 14 10 13 11 6 12
REMARK SMILES IDX 7 13 8 14 9 15 12 16 11 17 10 18 4 20 20 22 17 24
REMARK H PARENT 10 19 4 21 20 23 17 25
REMARK Flexibility Score: inf
ROOT
ATOM      1  C   UNL     1       7.031  11.140   7.758  1.00  0.00     0.180 A 
ATOM      2  C   UNL     1       6.281   9.952   7.794  1.00  0.00     0.208 A 
ATOM      3  C   UNL     1       6.826   8.786   7.234  1.00  0.00     0.238 A 
ATOM      4  O   UNL     1       6.127   7.739   7.220  1.00  0.00    -0.285 OA
ATOM      5  C   UNL     1       8.119   8.818   6.660  1.00  0.00     0.111 A 
ATOM      6  C   UNL     1       8.786   7.686   6.100  1.00  0.00     0.134 A 
ATOM      7  C   UNL     1      10.010   7.860   5.443  1.00  0.00     0.093 A 
ATOM      8  C   UNL     1      10.622   9.115   5.383  1.00  0.00     0.123 A 
ATOM      9  C   UNL     1      10.008  10.214   5.978  1.00  0.00     0.094 A 
ATOM     10  C   UNL     1       8.770  10.078   6.609  1.00  0.00     0.146 A 
ATOM     11  O   UNL     1       8.214  11.154   7.155  1.00  0.00    -0.452 OA
ENDROOT
BRANCH   1  12
ATOM     12  C   UNL     1       6.535  12.404   8.350  1.00  0.00     0.021 A 
ATOM     13  C   UNL     1       5.757  13.274   7.569  1.00  0.00     0.016 A 
ATOM     14  C   UNL     1       5.296  14.483   8.100  1.00  0.00     0.047 A 
ATOM     15  C   UNL     1       5.622  14.844   9.414  1.00  0.00     0.115 A 
ATOM     16  C   UNL     1       6.874  12.782   9.662  1.00  0.00     0.016 A 
ATOM     17  C   UNL     1       6.414  13.992  10.190  1.00  0.00     0.047 A 
BRANCH  15  18
ATOM     18  O   UNL     1       5.169  16.044   9.955  1.00  0.00    -0.508 OA
ATOM     19  H   UNL     1       5.592  16.446  10.783  1.00  0.00     0.293 HD
ENDBRANCH  15  18
ENDBRANCH   1  12
BRANCH   2  20
ATOM     20  O   UNL     1       4.997   9.949   8.345  1.00  0.00    -0.502 OA
ATOM     21  H   UNL     1       4.514   9.093   8.592  1.00  0.00     0.293 HD
ENDBRANCH   2  20
BRANCH   6  22
ATOM     22  O   UNL     1       8.305   6.376   6.187  1.00  0.00    -0.507 OA
ATOM     23  H   UNL     1       8.886   5.551   6.210  1.00  0.00     0.293 HD
ENDBRANCH   6  22
BRANCH   8  24
ATOM     24  O   UNL     1      11.848   9.277   4.740  1.00  0.00    -0.508 OA
ATOM     25  H   UNL     1      12.333  10.167   4.740  1.00  0.00     0.293 HD
ENDBRANCH   8  24
TORSDOF 5
ENDMDL
MODEL 5
REMARK VINA RESULT:    -4.487      3.749      9.148
REMARK INTER + INTRA:          -5.523
REMARK INTER:                  -5.222
REMARK INTRA:                  -0.300
REMARK UNBOUND:                -0.249
REMARK SMILES O=c1c(O)c(-c2ccc(O)cc2)oc2cc(O)cc(O)c12
REMARK SMILES IDX 5 1 3 2 2 3 1 4 21 5 19 6 18 7 16 8 15 9 14 10 13 11 6 12
REMARK SMILES IDX 7 13 8 14 9 15 12 16 11 17 10 18 4 20 20 22 17 24
REMARK H PARENT 10 19 4 21 20 23 17 25
REMARK Flexibility Score: inf
ROOT
ATOM      1  C   UNL     1      11.672   8.517   4.695  1.00  0.00     0.180 A 
ATOM      2  C   UNL     1      11.318   7.685   3.619  1.00  0.00     0.208 A 
ATOM      3  C   UNL     1      12.248   7.466   2.592  1.00  0.00     0.238 A 
ATOM      4  O   UNL     1      11.905   6.765   1.605  1.00  0.00    -0.285 OA
ATOM      5  C   UNL     1      13.528   8.068   2.661  1.00  0.00     0.111 A 
ATOM      6  C   UNL     1      14.564   7.883   1.696  1.00  0.00     0.134 A 
ATOM      7  C   UNL     1      15.744   8.631   1.796  1.00  0.00     0.093 A 
ATOM      8  C   UNL     1      15.951   9.508   2.864  1.00  0.00     0.123 A 
ATOM      9  C   UNL     1      14.970   9.651   3.842  1.00  0.00     0.094 A 
ATOM     10  C   UNL     1      13.768   8.946   3.749  1.00  0.00     0.146 A 
ATOM     11  O   UNL     1      12.856   9.119   4.698  1.00  0.00    -0.452 OA
ENDROOT
BRANCH   1  12
ATOM     12  C   UNL     1      10.754   8.775   5.829  1.00  0.00     0.021 A 
ATOM     13  C   UNL     1       9.923   9.906   5.800  1.00  0.00     0.016 A 
ATOM     14  C   UNL     1       9.064  10.182   6.869  1.00  0.00     0.047 A 
ATOM     15  C   UNL     1       9.039   9.337   7.987  1.00  0.00     0.115 A 
ATOM     16  C   UNL     1      10.737   7.942   6.963  1.00  0.00     0.016 A 
ATOM     17  C   UNL     1       9.879   8.221   8.030  1.00  0.00     0.047 A 
BRANCH  15  18
ATOM     18  O   UNL     1       8.187   9.600   9.057  1.00  0.00    -0.508 OA
ATOM     19  H   UNL     1       7.451  10.294   8.990  1.00  0.00     0.293 HD
ENDBRANCH  15  18
ENDBRANCH   1  12
BRANCH   2  20
ATOM     20  O   UNL     1      10.041   7.119   3.561  1.00  0.00    -0.502 OA
ATOM     21  H   UNL     1       9.796   6.398   2.893  1.00  0.00     0.293 HD
ENDBRANCH   2  20
BRANCH   6  22
ATOM     22  O   UNL     1      14.495   6.965   0.644  1.00  0.00    -0.507 OA
ATOM     23  H   UNL     1      15.196   6.860  -0.074  1.00  0.00     0.293 HD
ENDBRANCH   6  22
BRANCH   8  24
ATOM     24  O   UNL     1      17.134  10.237   2.965  1.00  0.00    -0.508 OA
ATOM     25  H   UNL     1      17.948  10.005   2.408  1.00  0.00     0.293 HD
ENDBRANCH   8  24
TORSDOF 5
ENDMDL
MODEL 6
REMARK VINA RESULT:    -4.415      3.111      4.790
REMARK INTER + INTRA:          -5.439
REMARK INTER:                  -5.246
REMARK INTRA:                  -0.193
REMARK UNBOUND:                -0.249
REMARK SMILES O=c1c(O)c(-c2ccc(O)cc2)oc2cc(O)cc(O)c12
REMARK SMILES IDX 5 1 3 2 2 3 1 4 21 5 19 6 18 7 16 8 15 9 14 10 13 11 6 12
REMARK SMILES IDX 7 13 8 14 9 15 12 16 11 17 10 18 4 20 20 22 17 24
REMARK H PARENT 10 19 4 21 20 23 17 25
REMARK Flexibility Score: inf
ROOT
ATOM      1  C   UNL     1       5.516  14.003   7.921  1.00  0.00     0.180 A 
ATOM      2  C   UNL     1       5.453  14.816   9.066  1.00  0.00     0.208 A 
ATOM      3  C   UNL     1       4.538  15.880   9.098  1.00  0.00     0.238 A 
ATOM      4  O   UNL     1       4.525  16.637  10.102  1.00  0.00    -0.285 OA
ATOM      5  C   UNL     1       3.684  16.107   7.991  1.00  0.00     0.111 A 
ATOM      6  C   UNL     1       2.690  17.130   7.931  1.00  0.00     0.134 A 
ATOM      7  C   UNL     1       1.992  17.346   6.737  1.00  0.00     0.093 A 
ATOM      8  C   UNL     1       2.206  16.533   5.621  1.00  0.00     0.123 A 
ATOM      9  C   UNL     1       3.131  15.494   5.689  1.00  0.00     0.094 A 
ATOM     10  C   UNL     1       3.868  15.278   6.855  1.00  0.00     0.146 A 
ATOM     11  O   UNL     1       4.748  14.282   6.874  1.00  0.00    -0.452 OA
ENDROOT
BRANCH   1  12
ATOM     12  C   UNL     1       6.438  12.848   7.823  1.00  0.00     0.021 A 
ATOM     13  C   UNL     1       7.814  13.075   7.657  1.00  0.00     0.016 A 
ATOM     14  C   UNL     1       8.700  12.000   7.540  1.00  0.00     0.047 A 
ATOM     15  C   UNL     1       8.218  10.684   7.571  1.00  0.00     0.115 A 
ATOM     16  C   UNL     1       5.959  11.525   7.833  1.00  0.00     0.016 A 
ATOM     17  C   UNL     1       6.847  10.452   7.714  1.00  0.00     0.047 A 
BRANCH  15  18
ATOM     18  O   UNL     1       9.091   9.605   7.456  1.00  0.00    -0.508 OA
ATOM     19  H   UNL     1       8.813   8.745   6.997  1.00  0.00     0.293 HD
ENDBRANCH  15  18
ENDBRANCH   1  12
BRANCH   2  20
ATOM     20  O   UNL     1       6.322  14.587  10.137  1.00  0.00    -0.502 OA
ATOM     21  H   UNL     1       6.565  15.311  10.803  1.00  0.00     0.293 HD
ENDBRANCH   2  20
BRANCH   6  22
ATOM     22  O   UNL     1       2.334  17.937   9.016  1.00  0.00    -0.507 OA
ATOM     23  H   UNL     1       1.593  18.620   9.006  1.00  0.00     0.293 HD
ENDBRANCH   6  22
BRANCH   8  24
ATOM     24  O   UNL     1       1.495  16.745   4.441  1.00  0.00    -0.508 OA
ATOM     25  H   UNL     1       0.826  16.066   4.096  1.00  0.00     0.293 HD
ENDBRANCH   8  24
TORSDOF 5
ENDMDL
MODEL 7
REMARK VINA RESULT:    -4.343      2.420      6.091
REMARK INTER + INTRA:          -5.353
REMARK INTER:                  -5.053
REMARK INTRA:                  -0.300
REMARK UNBOUND:                -0.249
REMARK SMILES O=c1c(O)c(-c2ccc(O)cc2)oc2cc(O)cc(O)c12
REMARK SMILES IDX 5 1 3 2 2 3 1 4 21 5 19 6 18 7 16 8 15 9 14 10 13 11 6 12
REMARK SMILES IDX 7 13 8 14 9 15 12 16 11 17 10 18 4 20 20 22 17 24
REMARK H PARENT 10 19 4 21 20 23 17 25
REMARK Flexibility Score: inf
ROOT
ATOM      1  C   UNL     1       7.710  11.360   7.764  1.00  0.00     0.180 A 
ATOM      2  C   UNL     1       8.897  11.409   7.014  1.00  0.00     0.208 A 
ATOM      3  C   UNL     1       9.281  10.281   6.271  1.00  0.00     0.238 A 
ATOM      4  O   UNL     1      10.372  10.312   5.646  1.00  0.00    -0.285 OA
ATOM      5  C   UNL     1       8.464   9.125   6.274  1.00  0.00     0.111 A 
ATOM      6  C   UNL     1       8.735   7.940   5.526  1.00  0.00     0.134 A 
ATOM      7  C   UNL     1       7.928   6.809   5.706  1.00  0.00     0.093 A 
ATOM      8  C   UNL     1       6.822   6.843   6.559  1.00  0.00     0.123 A 
ATOM      9  C   UNL     1       6.515   8.014   7.247  1.00  0.00     0.094 A 
ATOM     10  C   UNL     1       7.322   9.146   7.116  1.00  0.00     0.146 A 
ATOM     11  O   UNL     1       7.000  10.238   7.799  1.00  0.00    -0.452 OA
ENDROOT
BRANCH   1  12
ATOM     12  C   UNL     1       7.227  12.517   8.552  1.00  0.00     0.021 A 
ATOM     13  C   UNL     1       7.557  12.612   9.914  1.00  0.00     0.016 A 
ATOM     14  C   UNL     1       7.094  13.684  10.683  1.00  0.00     0.047 A 
ATOM     15  C   UNL     1       6.280  14.666  10.102  1.00  0.00     0.115 A 
ATOM     16  C   UNL     1       6.394  13.497   7.981  1.00  0.00     0.016 A 
ATOM     17  C   UNL     1       5.930  14.566   8.752  1.00  0.00     0.047 A 
BRANCH  15  18
ATOM     18  O   UNL     1       5.813  15.739  10.857  1.00  0.00    -0.508 OA
ATOM     19  H   UNL     1       4.919  15.703  11.334  1.00  0.00     0.293 HD
ENDBRANCH  15  18
ENDBRANCH   1  12
BRANCH   2  20
ATOM     20  O   UNL     1       9.699  12.553   7.043  1.00  0.00    -0.502 OA
ATOM     21  H   UNL     1      10.017  12.971   7.910  1.00  0.00     0.293 HD
ENDBRANCH   2  20
BRANCH   6  22
ATOM     22  O   UNL     1       9.759   7.831   4.580  1.00  0.00    -0.507 OA
ATOM     23  H   UNL     1      10.744   7.853   4.795  1.00  0.00     0.293 HD
ENDBRANCH   6  22
BRANCH   8  24
ATOM     24  O   UNL     1       6.015   5.719   6.720  1.00  0.00    -0.508 OA
ATOM     25  H   UNL     1       6.396   4.781   6.670  1.00  0.00     0.293 HD
ENDBRANCH   8  24
TORSDOF 5
ENDMDL
MODEL 8
REMARK VINA RESULT:    -4.340      2.118      7.219
REMARK INTER + INTRA:          -5.350
REMARK INTER:                  -5.117
REMARK INTRA:                  -0.234
REMARK UNBOUND:                -0.249
REMARK SMILES O=c1c(O)c(-c2ccc(O)cc2)oc2cc(O)cc(O)c12
REMARK SMILES IDX 5 1 3 2 2 3 1 4 21 5 19 6 18 7 16 8 15 9 14 10 13 11 6 12
REMARK SMILES IDX 7 13 8 14 9 15 12 16 11 17 10 18 4 20 20 22 17 24
REMARK H PARENT 10 19 4 21 20 23 17 25
REMARK Flexibility Score: inf
ROOT
ATOM      1  C   UNL     1       9.143   9.389   7.565  1.00  0.00     0.180 A 
ATOM      2  C   UNL     1       9.888   9.144   6.398  1.00  0.00     0.208 A 
ATOM      3  C   UNL     1      10.840   8.112   6.402  1.00  0.00     0.238 A 
ATOM      4  O   UNL     1      11.542   7.934   5.373  1.00  0.00    -0.285 OA
ATOM      5  C   UNL     1      11.024   7.328   7.567  1.00  0.00     0.111 A 
ATOM      6  C   UNL     1      11.932   6.231   7.670  1.00  0.00     0.134 A 
ATOM      7  C   UNL     1      12.126   5.609   8.909  1.00  0.00     0.093 A 
ATOM      8  C   UNL     1      11.396   6.002  10.034  1.00  0.00     0.123 A 
ATOM      9  C   UNL     1      10.464   7.032   9.929  1.00  0.00     0.094 A 
ATOM     10  C   UNL     1      10.276   7.696   8.715  1.00  0.00     0.146 A 
ATOM     11  O   UNL     1       9.385   8.679   8.661  1.00  0.00    -0.452 OA
ENDROOT
BRANCH   1  12
ATOM     12  C   UNL     1       8.104  10.442   7.630  1.00  0.00     0.021 A 
ATOM     13  C   UNL     1       8.490  11.786   7.772  1.00  0.00     0.016 A 
ATOM     14  C   UNL     1       7.525  12.794   7.858  1.00  0.00     0.047 A 
ATOM     15  C   UNL     1       6.162  12.470   7.819  1.00  0.00     0.115 A 
ATOM     16  C   UNL     1       6.734  10.123   7.611  1.00  0.00     0.016 A 
ATOM     17  C   UNL     1       5.772  11.133   7.699  1.00  0.00     0.047 A 
BRANCH  15  18
ATOM     18  O   UNL     1       5.192  13.466   7.902  1.00  0.00    -0.508 OA
ATOM     19  H   UNL     1       4.974  14.060   7.111  1.00  0.00     0.293 HD
ENDBRANCH  15  18
ENDBRANCH   1  12
BRANCH   2  20
ATOM     20  O   UNL     1       9.706   9.945   5.268  1.00  0.00    -0.502 OA
ATOM     21  H   UNL     1       8.827   9.986   4.766  1.00  0.00     0.293 HD
ENDBRANCH   2  20
BRANCH   6  22
ATOM     22  O   UNL     1      12.641   5.701   6.588  1.00  0.00    -0.507 OA
ATOM     23  H   UNL     1      12.264   5.573   5.661  1.00  0.00     0.293 HD
ENDBRANCH   6  22
BRANCH   8  24
ATOM     24  O   UNL     1      11.584   5.367  11.260  1.00  0.00    -0.508 OA
ATOM     25  H   UNL     1      12.508   5.111  11.588  1.00  0.00     0.293 HD
ENDBRANCH   8  24
TORSDOF 5
ENDMDL
MODEL 9
REMARK VINA RESULT:    -4.296      3.032      4.344
REMARK INTER + INTRA:          -5.298
REMARK INTER:                  -5.144
REMARK INTRA:                  -0.154
REMARK UNBOUND:                -0.249
REMARK SMILES O=c1c(O)c(-c2ccc(O)cc2)oc2cc(O)cc(O)c12
REMARK SMILES IDX 5 1 3 2 2 3 1 4 21 5 19 6 18 7 16 8 15 9 14 10 13 11 6 12
REMARK SMILES IDX 7 13 8 14 9 15 12 16 11 17 10 18 4 20 20 22 17 24
REMARK H PARENT 10 19 4 21 20 23 17 25
REMARK Flexibility Score: inf
ROOT
ATOM      1  C   UNL     1       8.260  11.417   8.926  1.00  0.00     0.180 A 
ATOM      2  C   UNL     1       6.981  11.929   8.648  1.00  0.00     0.208 A 
ATOM      3  C   UNL     1       6.402  12.841   9.545  1.00  0.00     0.238 A 
ATOM      4  O   UNL     1       5.235  13.252   9.319  1.00  0.00    -0.285 OA
ATOM      5  C   UNL     1       7.117  13.243  10.699  1.00  0.00     0.111 A 
ATOM      6  C   UNL     1       6.645  14.193  11.654  1.00  0.00     0.134 A 
ATOM      7  C   UNL     1       7.378  14.418  12.826  1.00  0.00     0.093 A 
ATOM      8  C   UNL     1       8.600  13.776  13.045  1.00  0.00     0.123 A 
ATOM      9  C   UNL     1       9.098  12.893  12.090  1.00  0.00     0.094 A 
ATOM     10  C   UNL     1       8.371  12.621  10.929  1.00  0.00     0.146 A 
ATOM     11  O   UNL     1       8.877  11.764  10.049  1.00  0.00    -0.452 OA
ENDROOT
BRANCH   1  12
ATOM     12  C   UNL     1       8.946  10.471   8.016  1.00  0.00     0.021 A 
ATOM     13  C   UNL     1       9.285   9.189   8.479  1.00  0.00     0.016 A 
ATOM     14  C   UNL     1       9.952   8.287   7.645  1.00  0.00     0.047 A 
ATOM     15  C   UNL     1      10.303   8.663   6.341  1.00  0.00     0.115 A 
ATOM     16  C   UNL     1       9.319  10.847   6.712  1.00  0.00     0.016 A 
ATOM     17  C   UNL     1       9.987   9.944   5.881  1.00  0.00     0.047 A 
BRANCH  15  18
ATOM     18  O   UNL     1      10.966   7.773   5.500  1.00  0.00    -0.508 OA
ATOM     19  H   UNL     1      11.520   7.008   5.868  1.00  0.00     0.293 HD
ENDBRANCH  15  18
ENDBRANCH   1  12
BRANCH   2  20
ATOM     20  O   UNL     1       6.284  11.500   7.515  1.00  0.00    -0.502 OA
ATOM     21  H   UNL     1       6.080  12.117   6.737  1.00  0.00     0.293 HD
ENDBRANCH   2  20
BRANCH   6  22
ATOM     22  O   UNL     1       5.485  14.955  11.489  1.00  0.00    -0.507 OA
ATOM     23  H   UNL     1       4.631  14.619  11.071  1.00  0.00     0.293 HD
ENDBRANCH   6  22
BRANCH   8  24
ATOM     24  O   UNL     1       9.332  14.018  14.206  1.00  0.00    -0.508 OA
ATOM     25  H   UNL     1      10.323  13.815  14.259  1.00  0.00     0.293 HD
ENDBRANCH   8  24
TORSDOF 5
ENDMDL
