MODEL 1
REMARK VINA RESULT:    -4.749      0.000      0.000
REMARK INTER + INTRA:          -5.214
REMARK INTER:                  -5.027
REMARK INTRA:                  -0.187
REMARK UNBOUND:                -0.187
REMARK SMILES C=C1CC=C(C(C)C)CC1
REMARK SMILES IDX 5 1 4 2 3 3 2 4 1 5 10 6 9 7 6 8 7 9 8 10
REMARK H PARENT
REMARK Flexibility Score: inf
ROOT
ATOM      1  C   UNL     1      -1.415   2.735  12.821  1.00  0.00    -0.071 C 
ATOM      2  C   UNL     1      -1.806   2.427  14.078  1.00  0.00    -0.023 C 
ATOM      3  C   UNL     1      -1.470   1.093  14.693  1.00  0.00     0.057 C 
ATOM      4  C   UNL     1      -1.505  -0.009  13.654  1.00  0.00    -0.073 C 
ATOM      5  C   UNL     1      -1.763  -1.272  14.021  1.00  0.00     0.008 C 
ATOM      6  C   UNL     1      -1.214   0.308  12.202  1.00  0.00     0.035 C 
ATOM      7  C   UNL     1      -0.616   1.713  12.040  1.00  0.00     0.035 C 
ENDROOT
BRANCH   1   8
ATOM      8  C   UNL     1      -1.785   4.063  12.180  1.00  0.00     0.008 C 
ATOM      9  C   UNL     1      -2.978   4.713  12.892  1.00  0.00     0.012 C 
ATOM     10  C   UNL     1      -2.058   3.899  10.681  1.00  0.00     0.012 C 
ENDBRANCH   1   8
TORSDOF 1
ENDMDL
MODEL 2
REMARK VINA RESULT:    -4.636      0.572      1.257
REMARK INTER + INTRA:          -5.095
REMARK INTER:                  -4.952
REMARK INTRA:                  -0.143
REMARK UNBOUND:                -0.187
REMARK SMILES C=C1CC=C(C(C)C)CC1
REMARK SMILES IDX 5 1 4 2 3 3 2 4 1 5 10 6 9 7 6 8 7 9 8 10
REMARK H PARENT
REMARK Flexibility Score: inf
ROOT
ATOM      1  C   UNL     1      -1.437   2.714  12.813  1.00  0.00    -0.071 C 
ATOM      2  C   UNL     1      -1.799   2.412  14.080  1.00  0.00    -0.023 C 
ATOM      3  C   UNL     1      -1.433   1.088  14.699  1.00  0.00     0.057 C 
ATOM      4  C   UNL     1      -1.474  -0.023  13.671  1.00  0.00    -0.073 C 
ATOM      5  C   UNL     1      -1.707  -1.286  14.053  1.00  0.00     0.008 C 
ATOM      6  C   UNL     1      -1.215   0.286  12.210  1.00  0.00     0.035 C 
ATOM      7  C   UNL     1      -0.640   1.697  12.025  1.00  0.00     0.035 C 
ENDROOT
BRANCH   1   8
ATOM      8  C   UNL     1      -1.837   4.033  12.169  1.00  0.00     0.008 C 
ATOM      9  C   UNL     1      -1.139   4.227  10.817  1.00  0.00     0.012 C 
ATOM     10  C   UNL     1      -1.562   5.214  13.107  1.00  0.00     0.012 C 
ENDBRANCH   1   8
TORSDOF 1
ENDMDL
MODEL 3
REMARK VINA RESULT:    -4.606      1.173      2.170
REMARK INTER + INTRA:          -5.063
REMARK INTER:                  -4.909
REMARK INTRA:                  -0.154
REMARK UNBOUND:                -0.187
REMARK SMILES C=C1CC=C(C(C)C)CC1
REMARK SMILES IDX 5 1 4 2 3 3 2 4 1 5 10 6 9 7 6 8 7 9 8 10
REMARK H PARENT
REMARK Flexibility Score: inf
ROOT
ATOM      1  C   UNL     1      -0.753   2.600  12.784  1.00  0.00    -0.071 C 
ATOM      2  C   UNL     1      -0.571   1.559  11.943  1.00  0.00    -0.023 C 
ATOM      3  C   UNL     1      -1.316   0.263  12.134  1.00  0.00     0.057 C 
ATOM      4  C   UNL     1      -1.502  -0.045  13.606  1.00  0.00    -0.073 C 
ATOM      5  C   UNL     1      -1.638  -1.313  14.016  1.00  0.00     0.008 C 
ATOM      6  C   UNL     1      -1.571   1.085  14.614  1.00  0.00     0.035 C 
ATOM      7  C   UNL     1      -1.737   2.447  13.924  1.00  0.00     0.035 C 
ENDROOT
BRANCH   1   8
ATOM      8  C   UNL     1       0.024   3.897  12.620  1.00  0.00     0.008 C 
ATOM      9  C   UNL     1       0.468   4.457  13.977  1.00  0.00     0.012 C 
ATOM     10  C   UNL     1      -0.786   4.933  11.832  1.00  0.00     0.012 C 
ENDBRANCH   1   8
TORSDOF 1
ENDMDL
MODEL 4
REMARK VINA RESULT:    -4.573      8.392      9.200
REMARK INTER + INTRA:          -5.028
REMARK INTER:                  -4.875
REMARK INTRA:                  -0.153
REMARK UNBOUND:                -0.187
REMARK SMILES C=C1CC=C(C(C)C)CC1
REMARK SMILES IDX 5 1 4 2 3 3 2 4 1 5 10 6 9 7 6 8 7 9 8 10
REMARK H PARENT
REMARK Flexibility Score: inf
ROOT
ATOM      1  C   UNL     1     -10.321   2.673   9.600  1.00  0.00    -0.071 C 
ATOM      2  C   UNL     1     -10.063   1.919   8.509  1.00  0.00    -0.023 C 
ATOM      3  C   UNL     1     -10.178   0.417   8.554  1.00  0.00     0.057 C 
ATOM      4  C   UNL     1      -9.741  -0.121   9.901  1.00  0.00    -0.073 C 
ATOM      5  C   UNL     1      -9.264  -1.368  10.004  1.00  0.00     0.008 C 
ATOM      6  C   UNL     1      -9.877   0.739  11.141  1.00  0.00     0.035 C 
ATOM      7  C   UNL     1     -10.744   1.978  10.877  1.00  0.00     0.035 C 
ENDROOT
BRANCH   1   8
ATOM      8  C   UNL     1     -10.169   4.186   9.572  1.00  0.00     0.008 C 
ATOM      9  C   UNL     1     -11.096   4.820   8.527  1.00  0.00     0.012 C 
ATOM     10  C   UNL     1      -8.710   4.593   9.336  1.00  0.00     0.012 C 
ENDBRANCH   1   8
TORSDOF 1
ENDMDL
MODEL 5
REMARK VINA RESULT:    -4.568      1.899      4.267
REMARK INTER + INTRA:          -5.022
REMARK INTER:                  -4.837
REMARK INTRA:                  -0.185
REMARK UNBOUND:                -0.187
REMARK SMILES C=C1CC=C(C(C)C)CC1
REMARK SMILES IDX 5 1 4 2 3 3 2 4 1 5 10 6 9 7 6 8 7 9 8 10
REMARK H PARENT
REMARK Flexibility Score: inf
ROOT
ATOM      1  C   UNL     1      -0.652   1.586  13.706  1.00  0.00    -0.071 C 
ATOM      2  C   UNL     1       0.060   2.541  13.067  1.00  0.00    -0.023 C 
ATOM      3  C   UNL     1       0.379   3.854  13.735  1.00  0.00     0.057 C 
ATOM      4  C   UNL     1      -0.763   4.303  14.623  1.00  0.00    -0.073 C 
ATOM      5  C   UNL     1      -0.944   5.605  14.879  1.00  0.00     0.008 C 
ATOM      6  C   UNL     1      -1.683   3.276  15.253  1.00  0.00     0.035 C 
ATOM      7  C   UNL     1      -1.116   1.855  15.121  1.00  0.00     0.035 C 
ENDROOT
BRANCH   1   8
ATOM      8  C   UNL     1      -1.010   0.275  13.023  1.00  0.00     0.008 C 
ATOM      9  C   UNL     1      -1.268   0.479  11.525  1.00  0.00     0.012 C 
ATOM     10  C   UNL     1      -2.208  -0.396  13.704  1.00  0.00     0.012 C 
ENDBRANCH   1   8
TORSDOF 1
ENDMDL
MODEL 6
REMARK VINA RESULT:    -4.504      1.750      4.164
REMARK INTER + INTRA:          -4.955
REMARK INTER:                  -4.811
REMARK INTRA:                  -0.144
REMARK UNBOUND:                -0.187
REMARK SMILES C=C1CC=C(C(C)C)CC1
REMARK SMILES IDX 5 1 4 2 3 3 2 4 1 5 10 6 9 7 6 8 7 9 8 10
REMARK H PARENT
REMARK Flexibility Score: inf
ROOT
ATOM      1  C   UNL     1      -1.143   1.803  13.781  1.00  0.00    -0.071 C 
ATOM      2  C   UNL     1      -1.035   2.134  15.087  1.00  0.00    -0.023 C 
ATOM      3  C   UNL     1      -1.062   3.574  15.530  1.00  0.00     0.057 C 
ATOM      4  C   UNL     1      -0.375   4.467  14.518  1.00  0.00    -0.073 C 
ATOM      5  C   UNL     1       0.177   5.624  14.907  1.00  0.00     0.008 C 
ATOM      6  C   UNL     1      -0.343   4.071  13.056  1.00  0.00     0.035 C 
ATOM      7  C   UNL     1      -1.306   2.912  12.764  1.00  0.00     0.035 C 
ENDROOT
BRANCH   1   8
ATOM      8  C   UNL     1      -1.077   0.354  13.323  1.00  0.00     0.008 C 
ATOM      9  C   UNL     1      -1.241   0.242  11.802  1.00  0.00     0.012 C 
ATOM     10  C   UNL     1      -2.113  -0.507  14.055  1.00  0.00     0.012 C 
ENDBRANCH   1   8
TORSDOF 1
ENDMDL
MODEL 7
REMARK VINA RESULT:    -4.393      1.069      4.552
REMARK INTER + INTRA:          -4.837
REMARK INTER:                  -4.651
REMARK INTRA:                  -0.186
REMARK UNBOUND:                -0.187
REMARK SMILES C=C1CC=C(C(C)C)CC1
REMARK SMILES IDX 5 1 4 2 3 3 2 4 1 5 10 6 9 7 6 8 7 9 8 10
REMARK H PARENT
REMARK Flexibility Score: inf
ROOT
ATOM      1  C   UNL     1      -1.208   2.370  12.708  1.00  0.00    -0.071 C 
ATOM      2  C   UNL     1      -0.869   2.518  11.408  1.00  0.00    -0.023 C 
ATOM      3  C   UNL     1      -0.967   3.858  10.725  1.00  0.00     0.057 C 
ATOM      4  C   UNL     1      -2.159   4.641  11.236  1.00  0.00    -0.073 C 
ATOM      5  C   UNL     1      -2.743   5.562  10.457  1.00  0.00     0.008 C 
ATOM      6  C   UNL     1      -2.672   4.411  12.643  1.00  0.00     0.035 C 
ATOM      7  C   UNL     1      -1.681   3.586  13.476  1.00  0.00     0.035 C 
ENDROOT
BRANCH   1   8
ATOM      8  C   UNL     1      -1.147   1.013  13.392  1.00  0.00     0.008 C 
ATOM      9  C   UNL     1      -1.342  -0.128  12.386  1.00  0.00     0.012 C 
ATOM     10  C   UNL     1      -2.165   0.922  14.535  1.00  0.00     0.012 C 
ENDBRANCH   1   8
TORSDOF 1
ENDMDL
MODEL 8
REMARK VINA RESULT:    -4.192     11.531     12.410
REMARK INTER + INTRA:          -4.624
REMARK INTER:                  -4.447
REMARK INTRA:                  -0.177
REMARK UNBOUND:                -0.187
REMARK SMILES C=C1CC=C(C(C)C)CC1
REMARK SMILES IDX 5 1 4 2 3 3 2 4 1 5 10 6 9 7 6 8 7 9 8 10
REMARK H PARENT
REMARK Flexibility Score: inf
ROOT
ATOM      1  C   UNL     1       1.729  -9.675  11.573  1.00  0.00    -0.071 C 
ATOM      2  C   UNL     1       2.417  -8.601  11.127  1.00  0.00    -0.023 C 
ATOM      3  C   UNL     1       3.886  -8.440  11.420  1.00  0.00     0.057 C 
ATOM      4  C   UNL     1       4.227  -8.971  12.797  1.00  0.00    -0.073 C 
ATOM      5  C   UNL     1       5.281  -8.483  13.465  1.00  0.00     0.008 C 
ATOM      6  C   UNL     1       3.397 -10.082  13.407  1.00  0.00     0.035 C 
ATOM      7  C   UNL     1       2.469 -10.729  12.369  1.00  0.00     0.035 C 
ENDROOT
BRANCH   1   8
ATOM      8  C   UNL     1       0.238  -9.825  11.314  1.00  0.00     0.008 C 
ATOM      9  C   UNL     1      -0.198  -9.014  10.087  1.00  0.00     0.012 C 
ATOM     10  C   UNL     1      -0.582  -9.440  12.551  1.00  0.00     0.012 C 
ENDBRANCH   1   8
TORSDOF 1
ENDMDL
MODEL 9
REMARK VINA RESULT:    -4.098      1.243      4.406
REMARK INTER + INTRA:          -4.525
REMARK INTER:                  -4.385
REMARK INTRA:                  -0.140
REMARK UNBOUND:                -0.187
REMARK SMILES C=C1CC=C(C(C)C)CC1
REMARK SMILES IDX 5 1 4 2 3 3 2 4 1 5 10 6 9 7 6 8 7 9 8 10
REMARK H PARENT
REMARK Flexibility Score: inf
ROOT
ATOM      1  C   UNL     1      -1.440   2.376  12.652  1.00  0.00    -0.071 C 
ATOM      2  C   UNL     1      -1.820   3.417  13.425  1.00  0.00    -0.023 C 
ATOM      3  C   UNL     1      -2.180   4.748  12.817  1.00  0.00     0.057 C 
ATOM      4  C   UNL     1      -1.313   5.046  11.611  1.00  0.00    -0.073 C 
ATOM      5  C   UNL     1      -1.076   6.314  11.249  1.00  0.00     0.008 C 
ATOM      6  C   UNL     1      -0.741   3.909  10.789  1.00  0.00     0.035 C 
ATOM      7  C   UNL     1      -1.393   2.567  11.151  1.00  0.00     0.035 C 
ENDROOT
BRANCH   1   8
ATOM      8  C   UNL     1      -1.039   1.041  13.261  1.00  0.00     0.008 C 
ATOM      9  C   UNL     1      -1.317  -0.118  12.297  1.00  0.00     0.012 C 
ATOM     10  C   UNL     1      -1.733   0.817  14.610  1.00  0.00     0.012 C 
ENDBRANCH   1   8
TORSDOF 1
ENDMDL
