MODEL 1
REMARK VINA RESULT:     2.919      0.000      0.000
REMARK INTER + INTRA:           9.403
REMARK INTER:                   6.674
REMARK INTRA:                   2.729
REMARK UNBOUND:                 2.729
REMARK SMILES CCCCCCCCCCCCCCCCCCCCCCCC(=O)[O-]
REMARK SMILES IDX 13 1 14 2 15 3 16 4 17 5 18 6 19 7 20 8 21 9 22 10 23 11
REMARK SMILES IDX 24 12 25 13 26 14 12 15 11 16 10 17 9 18 8 19 7 20 6 21 5 22
REMARK SMILES IDX 4 23 3 24 2 25 1 26
REMARK H PARENT
REMARK Flexibility Score: inf
ROOT
ATOM      1  C   UNL     1       4.129   9.416  -0.609  1.00  0.00     0.000 C 
ENDROOT
BRANCH   1   2
ATOM      2  C   UNL     1       5.250   9.989  -1.492  1.00  0.00     0.000 C 
BRANCH   2   3
ATOM      3  C   UNL     1       5.492   9.098  -2.721  1.00  0.00     0.000 C 
BRANCH   3   4
ATOM      4  C   UNL     1       4.576   9.456  -3.903  1.00  0.00     0.000 C 
BRANCH   4   5
ATOM      5  C   UNL     1       5.361   9.709  -5.203  1.00  0.00     0.000 C 
BRANCH   5   6
ATOM      6  C   UNL     1       5.870   8.410  -5.847  1.00  0.00     0.000 C 
BRANCH   6   7
ATOM      7  C   UNL     1       5.111   8.046  -7.132  1.00  0.00     0.000 C 
BRANCH   7   8
ATOM      8  C   UNL     1       4.972   9.270  -8.050  1.00  0.00     0.000 C 
BRANCH   8   9
ATOM      9  C   UNL     1       5.907   9.216  -9.273  1.00  0.00     0.000 C 
BRANCH   9  10
ATOM     10  C   UNL     1       6.955   8.089  -9.243  1.00  0.00     0.006 C 
BRANCH  10  11
ATOM     11  C   UNL     1       6.413   6.785  -8.643  1.00  0.00     0.053 C 
BRANCH  11  12
ATOM     12  C   UNL     1       7.336   6.265  -7.585  1.00  0.00     0.041 C 
ATOM     13  O   UNL     1       6.869   5.739  -6.540  1.00  0.00    -0.550 OA
ATOM     14  O   UNL     1       8.712   6.364  -7.751  1.00  0.00    -0.550 OA
ENDBRANCH  11  12
ENDBRANCH  10  11
ENDBRANCH   9  10
ENDBRANCH   8   9
ENDBRANCH   7   8
ENDBRANCH   6   7
ENDBRANCH   5   6
ENDBRANCH   4   5
ENDBRANCH   3   4
ENDBRANCH   2   3
ENDBRANCH   1   2
BRANCH   1  15
ATOM     15  C   UNL     1       2.726   9.860  -1.059  1.00  0.00     0.000 C 
BRANCH  15  16
ATOM     16  C   UNL     1       1.714  10.075   0.083  1.00  0.00     0.000 C 
BRANCH  16  17
ATOM     17  C   UNL     1       1.911   9.163   1.311  1.00  0.00     0.000 C 
BRANCH  17  18
ATOM     18  C   UNL     1       1.430   9.760   2.646  1.00  0.00    -0.000 C 
BRANCH  18  19
ATOM     19  C   UNL     1      -0.099   9.755   2.785  1.00  0.00    -0.000 C 
BRANCH  19  20
ATOM     20  C   UNL     1      -0.522  10.122   4.213  1.00  0.00    -0.000 C 
BRANCH  20  21
ATOM     21  C   UNL     1      -1.271   8.960   4.882  1.00  0.00    -0.000 C 
BRANCH  21  22
ATOM     22  C   UNL     1      -1.152   8.978   6.413  1.00  0.00    -0.000 C 
BRANCH  22  23
ATOM     23  C   UNL     1      -1.953  10.122   7.058  1.00  0.00    -0.000 C 
BRANCH  23  24
ATOM     24  C   UNL     1      -2.859   9.626   8.205  1.00  0.00    -0.000 C 
BRANCH  24  25
ATOM     25  C   UNL     1      -4.160   8.970   7.713  1.00  0.00    -0.003 C 
ATOM     26  C   UNL     1      -5.408   9.758   8.105  1.00  0.00     0.004 C 
ENDBRANCH  24  25
ENDBRANCH  23  24
ENDBRANCH  22  23
ENDBRANCH  21  22
ENDBRANCH  20  21
ENDBRANCH  19  20
ENDBRANCH  18  19
ENDBRANCH  17  18
ENDBRANCH  16  17
ENDBRANCH  15  16
ENDBRANCH   1  15
TORSDOF 22
ENDMDL
MODEL 2
REMARK VINA RESULT:     3.782     18.235     20.566
REMARK INTER + INTRA:          11.374
REMARK INTER:                   9.017
REMARK INTRA:                   2.358
REMARK UNBOUND:                 2.729
REMARK SMILES CCCCCCCCCCCCCCCCCCCCCCCC(=O)[O-]
REMARK SMILES IDX 13 1 14 2 15 3 16 4 17 5 18 6 19 7 20 8 21 9 22 10 23 11
REMARK SMILES IDX 24 12 25 13 26 14 12 15 11 16 10 17 9 18 8 19 7 20 6 21 5 22
REMARK SMILES IDX 4 23 3 24 2 25 1 26
REMARK H PARENT
REMARK Flexibility Score: inf
ROOT
ATOM      1  C   UNL     1       7.853  -9.024   6.456  1.00  0.00     0.000 C 
ENDROOT
BRANCH   1   2
ATOM      2  C   UNL     1       8.526 -10.125   7.291  1.00  0.00     0.000 C 
BRANCH   2   3
ATOM      3  C   UNL     1       9.874  -9.643   7.850  1.00  0.00     0.000 C 
BRANCH   3   4
ATOM      4  C   UNL     1      10.097  -8.136   7.647  1.00  0.00     0.000 C 
BRANCH   4   5
ATOM      5  C   UNL     1       9.889  -7.328   8.941  1.00  0.00     0.000 C 
BRANCH   5   6
ATOM      6  C   UNL     1       9.419  -8.203  10.114  1.00  0.00     0.000 C 
BRANCH   6   7
ATOM      7  C   UNL     1       7.915  -8.517  10.057  1.00  0.00     0.000 C 
BRANCH   7   8
ATOM      8  C   UNL     1       7.671  -9.914   9.466  1.00  0.00     0.000 C 
BRANCH   8   9
ATOM      9  C   UNL     1       6.227 -10.113   8.967  1.00  0.00     0.000 C 
BRANCH   9  10
ATOM     10  C   UNL     1       5.176  -9.210   9.636  1.00  0.00     0.006 C 
BRANCH  10  11
ATOM     11  C   UNL     1       3.941  -9.984  10.117  1.00  0.00     0.053 C 
BRANCH  11  12
ATOM     12  C   UNL     1       2.745  -9.644   9.284  1.00  0.00     0.041 C 
ATOM     13  O   UNL     1       2.894  -9.220   8.107  1.00  0.00    -0.550 OA
ATOM     14  O   UNL     1       1.466  -9.790   9.807  1.00  0.00    -0.550 OA
ENDBRANCH  11  12
ENDBRANCH  10  11
ENDBRANCH   9  10
ENDBRANCH   8   9
ENDBRANCH   7   8
ENDBRANCH   6   7
ENDBRANCH   5   6
ENDBRANCH   4   5
ENDBRANCH   3   4
ENDBRANCH   2   3
ENDBRANCH   1   2
BRANCH   1  15
ATOM     15  C   UNL     1       6.862  -9.581   5.418  1.00  0.00     0.000 C 
BRANCH  15  16
ATOM     16  C   UNL     1       5.958  -8.526   4.750  1.00  0.00     0.000 C 
BRANCH  16  17
ATOM     17  C   UNL     1       4.803  -8.005   5.628  1.00  0.00     0.000 C 
BRANCH  17  18
ATOM     18  C   UNL     1       5.074  -6.661   6.327  1.00  0.00    -0.000 C 
BRANCH  18  19
ATOM     19  C   UNL     1       5.623  -5.591   5.372  1.00  0.00    -0.000 C 
BRANCH  19  20
ATOM     20  C   UNL     1       5.193  -4.187   5.813  1.00  0.00    -0.000 C 
BRANCH  20  21
ATOM     21  C   UNL     1       4.846  -3.310   4.602  1.00  0.00    -0.000 C 
BRANCH  21  22
ATOM     22  C   UNL     1       4.288  -4.119   3.421  1.00  0.00    -0.000 C 
BRANCH  22  23
ATOM     23  C   UNL     1       2.833  -3.751   3.083  1.00  0.00    -0.000 C 
BRANCH  23  24
ATOM     24  C   UNL     1       2.734  -2.857   1.828  1.00  0.00    -0.000 C 
BRANCH  24  25
ATOM     25  C   UNL     1       1.376  -2.150   1.689  1.00  0.00    -0.003 C 
ATOM     26  C   UNL     1       1.233  -0.951   2.625  1.00  0.00     0.004 C 
ENDBRANCH  24  25
ENDBRANCH  23  24
ENDBRANCH  22  23
ENDBRANCH  21  22
ENDBRANCH  20  21
ENDBRANCH  19  20
ENDBRANCH  18  19
ENDBRANCH  17  18
ENDBRANCH  16  17
ENDBRANCH  15  16
ENDBRANCH   1  15
TORSDOF 22
ENDMDL
MODEL 3
REMARK VINA RESULT:     3.938      1.703      2.296
REMARK INTER + INTRA:          11.732
REMARK INTER:                  12.390
REMARK INTRA:                  -0.658
REMARK UNBOUND:                 2.729
REMARK SMILES CCCCCCCCCCCCCCCCCCCCCCCC(=O)[O-]
REMARK SMILES IDX 13 1 14 2 15 3 16 4 17 5 18 6 19 7 20 8 21 9 22 10 23 11
REMARK SMILES IDX 24 12 25 13 26 14 12 15 11 16 10 17 9 18 8 19 7 20 6 21 5 22
REMARK SMILES IDX 4 23 3 24 2 25 1 26
REMARK H PARENT
REMARK Flexibility Score: inf
ROOT
ATOM      1  C   UNL     1       3.940   9.648  -0.213  1.00  0.00     0.000 C 
ENDROOT
BRANCH   1   2
ATOM      2  C   UNL     1       4.823  10.046  -1.406  1.00  0.00     0.000 C 
BRANCH   2   3
ATOM      3  C   UNL     1       5.005   8.865  -2.373  1.00  0.00     0.000 C 
BRANCH   3   4
ATOM      4  C   UNL     1       5.835   9.235  -3.613  1.00  0.00     0.000 C 
BRANCH   4   5
ATOM      5  C   UNL     1       7.349   9.096  -3.374  1.00  0.00     0.000 C 
BRANCH   5   6
ATOM      6  C   UNL     1       7.935   7.830  -4.020  1.00  0.00     0.000 C 
BRANCH   6   7
ATOM      7  C   UNL     1       7.075   7.302  -5.179  1.00  0.00     0.000 C 
BRANCH   7   8
ATOM      8  C   UNL     1       7.931   6.504  -6.174  1.00  0.00     0.000 C 
BRANCH   8   9
ATOM      9  C   UNL     1       7.371   6.532  -7.609  1.00  0.00     0.000 C 
BRANCH   9  10
ATOM     10  C   UNL     1       5.844   6.692  -7.710  1.00  0.00     0.006 C 
BRANCH  10  11
ATOM     11  C   UNL     1       5.389   8.156  -7.631  1.00  0.00     0.053 C 
BRANCH  11  12
ATOM     12  C   UNL     1       5.279   8.750  -9.000  1.00  0.00     0.041 C 
ATOM     13  O   UNL     1       4.986   9.967  -9.140  1.00  0.00    -0.550 OA
ATOM     14  O   UNL     1       5.496   7.961 -10.123  1.00  0.00    -0.550 OA
ENDBRANCH  11  12
ENDBRANCH  10  11
ENDBRANCH   9  10
ENDBRANCH   8   9
ENDBRANCH   7   8
ENDBRANCH   6   7
ENDBRANCH   5   6
ENDBRANCH   4   5
ENDBRANCH   3   4
ENDBRANCH   2   3
ENDBRANCH   1   2
BRANCH   1  15
ATOM     15  C   UNL     1       2.436   9.720  -0.530  1.00  0.00     0.000 C 
BRANCH  15  16
ATOM     16  C   UNL     1       1.538  10.116   0.659  1.00  0.00     0.000 C 
BRANCH  16  17
ATOM     17  C   UNL     1       1.322   9.011   1.712  1.00  0.00     0.000 C 
BRANCH  17  18
ATOM     18  C   UNL     1       0.923   9.515   3.110  1.00  0.00    -0.000 C 
BRANCH  18  19
ATOM     19  C   UNL     1      -0.584   9.782   3.241  1.00  0.00    -0.000 C 
BRANCH  19  20
ATOM     20  C   UNL     1      -0.966  10.075   4.696  1.00  0.00    -0.000 C 
BRANCH  20  21
ATOM     21  C   UNL     1      -1.024   8.782   5.523  1.00  0.00    -0.000 C 
BRANCH  21  22
ATOM     22  C   UNL     1      -1.618   8.997   6.923  1.00  0.00    -0.000 C 
BRANCH  22  23
ATOM     23  C   UNL     1      -2.726  10.064   6.942  1.00  0.00    -0.000 C 
BRANCH  23  24
ATOM     24  C   UNL     1      -4.077   9.493   7.423  1.00  0.00    -0.000 C 
BRANCH  24  25
ATOM     25  C   UNL     1      -4.498  10.008   8.809  1.00  0.00    -0.003 C 
ATOM     26  C   UNL     1      -5.996   9.864   9.067  1.00  0.00     0.004 C 
ENDBRANCH  24  25
ENDBRANCH  23  24
ENDBRANCH  22  23
ENDBRANCH  21  22
ENDBRANCH  20  21
ENDBRANCH  19  20
ENDBRANCH  18  19
ENDBRANCH  17  18
ENDBRANCH  16  17
ENDBRANCH  15  16
ENDBRANCH   1  15
TORSDOF 22
ENDMDL
MODEL 4
REMARK VINA RESULT:     4.453     17.703     19.704
REMARK INTER + INTRA:          12.908
REMARK INTER:                  13.830
REMARK INTRA:                  -0.922
REMARK UNBOUND:                 2.729
REMARK SMILES CCCCCCCCCCCCCCCCCCCCCCCC(=O)[O-]
REMARK SMILES IDX 13 1 14 2 15 3 16 4 17 5 18 6 19 7 20 8 21 9 22 10 23 11
REMARK SMILES IDX 24 12 25 13 26 14 12 15 11 16 10 17 9 18 8 19 7 20 6 21 5 22
REMARK SMILES IDX 4 23 3 24 2 25 1 26
REMARK H PARENT
REMARK Flexibility Score: inf
ROOT
ATOM      1  C   UNL     1       7.621  -6.820   8.236  1.00  0.00     0.000 C 
ENDROOT
BRANCH   1   2
ATOM      2  C   UNL     1       7.730  -7.936   9.287  1.00  0.00     0.000 C 
BRANCH   2   3
ATOM      3  C   UNL     1       9.201  -8.282   9.571  1.00  0.00     0.000 C 
BRANCH   3   4
ATOM      4  C   UNL     1       9.763  -9.330   8.598  1.00  0.00     0.000 C 
BRANCH   4   5
ATOM      5  C   UNL     1       8.655 -10.111   7.867  1.00  0.00     0.000 C 
BRANCH   5   6
ATOM      6  C   UNL     1       8.790 -10.034   6.338  1.00  0.00     0.000 C 
BRANCH   6   7
ATOM      7  C   UNL     1       7.668  -9.215   5.682  1.00  0.00     0.000 C 
BRANCH   7   8
ATOM      8  C   UNL     1       6.721 -10.125   4.886  1.00  0.00     0.000 C 
BRANCH   8   9
ATOM      9  C   UNL     1       5.272 -10.093   5.409  1.00  0.00     0.000 C 
BRANCH   9  10
ATOM     10  C   UNL     1       5.132 -10.124   6.941  1.00  0.00     0.006 C 
BRANCH  10  11
ATOM     11  C   UNL     1       3.671 -10.073   7.409  1.00  0.00     0.053 C 
BRANCH  11  12
ATOM     12  C   UNL     1       3.571  -9.448   8.765  1.00  0.00     0.041 C 
ATOM     13  O   UNL     1       2.442  -9.180   9.256  1.00  0.00    -0.550 OA
ATOM     14  O   UNL     1       4.723  -9.156   9.485  1.00  0.00    -0.550 OA
ENDBRANCH  11  12
ENDBRANCH  10  11
ENDBRANCH   9  10
ENDBRANCH   8   9
ENDBRANCH   7   8
ENDBRANCH   6   7
ENDBRANCH   5   6
ENDBRANCH   4   5
ENDBRANCH   3   4
ENDBRANCH   2   3
ENDBRANCH   1   2
BRANCH   1  15
ATOM     15  C   UNL     1       6.559  -7.113   7.160  1.00  0.00     0.000 C 
BRANCH  15  16
ATOM     16  C   UNL     1       5.479  -6.025   7.000  1.00  0.00     0.000 C 
BRANCH  16  17
ATOM     17  C   UNL     1       5.355  -5.431   5.582  1.00  0.00     0.000 C 
BRANCH  17  18
ATOM     18  C   UNL     1       6.054  -4.075   5.384  1.00  0.00    -0.000 C 
BRANCH  18  19
ATOM     19  C   UNL     1       5.434  -3.244   4.251  1.00  0.00    -0.000 C 
BRANCH  19  20
ATOM     20  C   UNL     1       4.902  -4.148   3.133  1.00  0.00    -0.000 C 
BRANCH  20  21
ATOM     21  C   UNL     1       3.585  -4.821   3.548  1.00  0.00    -0.000 C 
BRANCH  21  22
ATOM     22  C   UNL     1       2.497  -3.808   3.938  1.00  0.00    -0.000 C 
BRANCH  22  23
ATOM     23  C   UNL     1       1.453  -3.600   2.828  1.00  0.00    -0.000 C 
BRANCH  23  24
ATOM     24  C   UNL     1       1.612  -2.235   2.125  1.00  0.00    -0.000 C 
BRANCH  24  25
ATOM     25  C   UNL     1       2.035  -2.354   0.652  1.00  0.00    -0.003 C 
ATOM     26  C   UNL     1       3.505  -2.003   0.426  1.00  0.00     0.004 C 
ENDBRANCH  24  25
ENDBRANCH  23  24
ENDBRANCH  22  23
ENDBRANCH  21  22
ENDBRANCH  20  21
ENDBRANCH  19  20
ENDBRANCH  18  19
ENDBRANCH  17  18
ENDBRANCH  16  17
ENDBRANCH  15  16
ENDBRANCH   1  15
TORSDOF 22
ENDMDL
MODEL 5
REMARK VINA RESULT:     4.765     17.461     19.098
REMARK INTER + INTRA:          13.621
REMARK INTER:                  12.831
REMARK INTRA:                   0.791
REMARK UNBOUND:                 2.729
REMARK SMILES CCCCCCCCCCCCCCCCCCCCCCCC(=O)[O-]
REMARK SMILES IDX 13 1 14 2 15 3 16 4 17 5 18 6 19 7 20 8 21 9 22 10 23 11
REMARK SMILES IDX 24 12 25 13 26 14 12 15 11 16 10 17 9 18 8 19 7 20 6 21 5 22
REMARK SMILES IDX 4 23 3 24 2 25 1 26
REMARK H PARENT
REMARK Flexibility Score: inf
ROOT
ATOM      1  C   UNL     1       7.585  -8.030   6.616  1.00  0.00     0.000 C 
ENDROOT
BRANCH   1   2
ATOM      2  C   UNL     1       6.838  -7.687   7.915  1.00  0.00     0.000 C 
BRANCH   2   3
ATOM      3  C   UNL     1       6.648  -6.168   8.054  1.00  0.00     0.000 C 
BRANCH   3   4
ATOM      4  C   UNL     1       6.362  -5.480   6.709  1.00  0.00     0.000 C 
BRANCH   4   5
ATOM      5  C   UNL     1       5.069  -5.991   6.047  1.00  0.00     0.000 C 
BRANCH   5   6
ATOM      6  C   UNL     1       5.009  -5.673   4.545  1.00  0.00     0.000 C 
BRANCH   6   7
ATOM      7  C   UNL     1       5.980  -4.554   4.135  1.00  0.00     0.000 C 
BRANCH   7   8
ATOM      8  C   UNL     1       5.238  -3.219   3.975  1.00  0.00     0.000 C 
BRANCH   8   9
ATOM      9  C   UNL     1       3.800  -3.387   3.449  1.00  0.00     0.000 C 
BRANCH   9  10
ATOM     10  C   UNL     1       3.655  -3.330   1.918  1.00  0.00     0.006 C 
BRANCH  10  11
ATOM     11  C   UNL     1       2.630  -2.288   1.453  1.00  0.00     0.053 C 
BRANCH  11  12
ATOM     12  C   UNL     1       1.261  -2.633   1.950  1.00  0.00     0.041 C 
ATOM     13  O   UNL     1       0.690  -3.684   1.555  1.00  0.00    -0.550 OA
ATOM     14  O   UNL     1       0.613  -1.793   2.847  1.00  0.00    -0.550 OA
ENDBRANCH  11  12
ENDBRANCH  10  11
ENDBRANCH   9  10
ENDBRANCH   8   9
ENDBRANCH   7   8
ENDBRANCH   6   7
ENDBRANCH   5   6
ENDBRANCH   4   5
ENDBRANCH   3   4
ENDBRANCH   2   3
ENDBRANCH   1   2
BRANCH   1  15
ATOM     15  C   UNL     1       9.040  -8.471   6.861  1.00  0.00     0.000 C 
BRANCH  15  16
ATOM     16  C   UNL     1       9.198  -9.776   7.666  1.00  0.00     0.000 C 
BRANCH  16  17
ATOM     17  C   UNL     1       9.263  -9.596   9.196  1.00  0.00     0.000 C 
BRANCH  17  18
ATOM     18  C   UNL     1       8.023  -8.937   9.826  1.00  0.00    -0.000 C 
BRANCH  18  19
ATOM     19  C   UNL     1       6.888  -9.937  10.094  1.00  0.00    -0.000 C 
BRANCH  19  20
ATOM     20  C   UNL     1       5.616  -9.540   9.336  1.00  0.00    -0.000 C 
BRANCH  20  21
ATOM     21  C   UNL     1       4.358  -9.936  10.124  1.00  0.00    -0.000 C 
BRANCH  21  22
ATOM     22  C   UNL     1       3.066  -9.396   9.493  1.00  0.00    -0.000 C 
BRANCH  22  23
ATOM     23  C   UNL     1       2.694 -10.121   8.188  1.00  0.00    -0.000 C 
BRANCH  23  24
ATOM     24  C   UNL     1       3.167  -9.350   6.937  1.00  0.00    -0.000 C 
BRANCH  24  25
ATOM     25  C   UNL     1       4.507  -9.856   6.379  1.00  0.00    -0.003 C 
ATOM     26  C   UNL     1       4.796  -9.342   4.970  1.00  0.00     0.004 C 
ENDBRANCH  24  25
ENDBRANCH  23  24
ENDBRANCH  22  23
ENDBRANCH  21  22
ENDBRANCH  20  21
ENDBRANCH  19  20
ENDBRANCH  18  19
ENDBRANCH  17  18
ENDBRANCH  16  17
ENDBRANCH  15  16
ENDBRANCH   1  15
TORSDOF 22
ENDMDL
MODEL 6
REMARK VINA RESULT:     4.866     17.522     19.670
REMARK INTER + INTRA:          13.852
REMARK INTER:                  14.921
REMARK INTRA:                  -1.069
REMARK UNBOUND:                 2.729
REMARK SMILES CCCCCCCCCCCCCCCCCCCCCCCC(=O)[O-]
REMARK SMILES IDX 13 1 14 2 15 3 16 4 17 5 18 6 19 7 20 8 21 9 22 10 23 11
REMARK SMILES IDX 24 12 25 13 26 14 12 15 11 16 10 17 9 18 8 19 7 20 6 21 5 22
REMARK SMILES IDX 4 23 3 24 2 25 1 26
REMARK H PARENT
REMARK Flexibility Score: inf
ROOT
ATOM      1  C   UNL     1       6.600  -8.889   5.647  1.00  0.00     0.000 C 
ENDROOT
BRANCH   1   2
ATOM      2  C   UNL     1       7.233  -9.854   6.662  1.00  0.00     0.000 C 
BRANCH   2   3
ATOM      3  C   UNL     1       8.721 -10.083   6.348  1.00  0.00     0.000 C 
BRANCH   3   4
ATOM      4  C   UNL     1       9.514  -8.770   6.243  1.00  0.00     0.000 C 
BRANCH   4   5
ATOM      5  C   UNL     1      10.125  -8.339   7.588  1.00  0.00     0.000 C 
BRANCH   5   6
ATOM      6  C   UNL     1       9.823  -9.336   8.719  1.00  0.00     0.000 C 
BRANCH   6   7
ATOM      7  C   UNL     1       8.707  -8.850   9.658  1.00  0.00     0.000 C 
BRANCH   7   8
ATOM      8  C   UNL     1       7.788 -10.012  10.061  1.00  0.00     0.000 C 
BRANCH   8   9
ATOM      9  C   UNL     1       6.302  -9.612  10.125  1.00  0.00     0.000 C 
BRANCH   9  10
ATOM     10  C   UNL     1       5.452 -10.067   8.925  1.00  0.00     0.006 C 
BRANCH  10  11
ATOM     11  C   UNL     1       4.347  -9.066   8.562  1.00  0.00     0.053 C 
BRANCH  11  12
ATOM     12  C   UNL     1       3.342  -9.695   7.648  1.00  0.00     0.041 C 
ATOM     13  O   UNL     1       3.651  -9.963   6.457  1.00  0.00    -0.550 OA
ATOM     14  O   UNL     1       2.064  -9.983   8.110  1.00  0.00    -0.550 OA
ENDBRANCH  11  12
ENDBRANCH  10  11
ENDBRANCH   9  10
ENDBRANCH   8   9
ENDBRANCH   7   8
ENDBRANCH   6   7
ENDBRANCH   5   6
ENDBRANCH   4   5
ENDBRANCH   3   4
ENDBRANCH   2   3
ENDBRANCH   1   2
BRANCH   1  15
ATOM     15  C   UNL     1       6.309  -7.499   6.242  1.00  0.00     0.000 C 
BRANCH  15  16
ATOM     16  C   UNL     1       5.231  -6.686   5.500  1.00  0.00     0.000 C 
BRANCH  16  17
ATOM     17  C   UNL     1       5.211  -5.178   5.824  1.00  0.00     0.000 C 
BRANCH  17  18
ATOM     18  C   UNL     1       6.063  -4.302   4.889  1.00  0.00    -0.000 C 
BRANCH  18  19
ATOM     19  C   UNL     1       5.239  -3.228   4.162  1.00  0.00    -0.000 C 
BRANCH  19  20
ATOM     20  C   UNL     1       4.398  -3.847   3.039  1.00  0.00    -0.000 C 
BRANCH  20  21
ATOM     21  C   UNL     1       2.897  -3.702   3.330  1.00  0.00    -0.000 C 
BRANCH  21  22
ATOM     22  C   UNL     1       2.132  -3.019   2.186  1.00  0.00    -0.000 C 
BRANCH  22  23
ATOM     23  C   UNL     1       0.933  -2.192   2.682  1.00  0.00    -0.000 C 
BRANCH  23  24
ATOM     24  C   UNL     1       1.367  -0.839   3.285  1.00  0.00    -0.000 C 
BRANCH  24  25
ATOM     25  C   UNL     1       0.219   0.178   3.388  1.00  0.00    -0.003 C 
ATOM     26  C   UNL     1      -1.155  -0.454   3.174  1.00  0.00     0.004 C 
ENDBRANCH  24  25
ENDBRANCH  23  24
ENDBRANCH  22  23
ENDBRANCH  21  22
ENDBRANCH  20  21
ENDBRANCH  19  20
ENDBRANCH  18  19
ENDBRANCH  17  18
ENDBRANCH  16  17
ENDBRANCH  15  16
ENDBRANCH   1  15
TORSDOF 22
ENDMDL
