MODEL 1
REMARK VINA RESULT:    -5.113      0.000      0.000
REMARK INTER + INTRA:          -7.724
REMARK INTER:                  -6.309
REMARK INTRA:                  -1.416
REMARK UNBOUND:                -1.416
REMARK SMILES CC(C)=CCC[C@H](C)[C@H]1C=CC(C)=CC1
REMARK SMILES IDX 6 1 7 2 8 3 9 4 13 5 12 6 14 7 11 8 15 9 10 10 5 11 4 12
REMARK SMILES IDX 2 13 1 14 3 15
REMARK H PARENT
REMARK Flexibility Score: inf
ROOT
ATOM      1  C   UNL     1     164.110 169.151 201.430  1.00  0.00     0.008 C 
ENDROOT
BRANCH   1   2
ATOM      2  C   UNL     1     163.654 167.665 201.462  1.00  0.00    -0.007 C 
ATOM      3  C   UNL     1     164.864 166.711 201.481  1.00  0.00     0.008 C 
BRANCH   2   4
ATOM      4  C   UNL     1     162.670 167.369 200.285  1.00  0.00     0.018 C 
ATOM      5  C   UNL     1     164.464 168.817 196.566  1.00  0.00     0.044 C 
ATOM      6  C   UNL     1     163.707 168.219 197.715  1.00  0.00    -0.055 C 
ATOM      7  C   UNL     1     164.006 166.986 198.149  1.00  0.00    -0.023 C 
ATOM      8  C   UNL     1     162.700 169.031 198.430  1.00  0.00    -0.001 C 
ATOM      9  C   UNL     1     163.227 166.342 199.264  1.00  0.00     0.035 C 
ATOM     10  C   UNL     1     162.191 168.630 199.598  1.00  0.00    -0.023 C 
ENDBRANCH   2   4
ENDBRANCH   1   2
BRANCH   1  11
ATOM     11  C   UNL     1     165.628 169.354 201.267  1.00  0.00     0.027 C 
BRANCH  11  12
ATOM     12  C   UNL     1     165.992 169.941 199.923  1.00  0.00    -0.028 C 
ATOM     13  C   UNL     1     167.150 169.703 199.269  1.00  0.00    -0.080 C 
ATOM     14  C   UNL     1     168.247 168.849 199.860  1.00  0.00     0.039 C 
ATOM     15  C   UNL     1     167.351 170.336 197.916  1.00  0.00     0.039 C 
ENDBRANCH  11  12
ENDBRANCH   1  11
TORSDOF 4
ENDMDL
MODEL 2
REMARK VINA RESULT:    -5.092      4.647      7.059
REMARK INTER + INTRA:          -7.698
REMARK INTER:                  -6.301
REMARK INTRA:                  -1.397
REMARK UNBOUND:                -1.416
REMARK SMILES CC(C)=CCC[C@H](C)[C@H]1C=CC(C)=CC1
REMARK SMILES IDX 6 1 7 2 8 3 9 4 13 5 12 6 14 7 11 8 15 9 10 10 5 11 4 12
REMARK SMILES IDX 2 13 1 14 3 15
REMARK H PARENT
REMARK Flexibility Score: inf
ROOT
ATOM      1  C   UNL     1     167.950 162.991 201.554  1.00  0.00     0.008 C 
ENDROOT
BRANCH   1   2
ATOM      2  C   UNL     1     168.368 164.484 201.436  1.00  0.00    -0.007 C 
ATOM      3  C   UNL     1     167.135 165.401 201.322  1.00  0.00     0.008 C 
BRANCH   2   4
ATOM      4  C   UNL     1     169.376 164.680 200.259  1.00  0.00     0.018 C 
ATOM      5  C   UNL     1     167.589 163.062 196.607  1.00  0.00     0.044 C 
ATOM      6  C   UNL     1     168.348 163.706 197.729  1.00  0.00    -0.055 C 
ATOM      7  C   UNL     1     168.081 164.971 198.083  1.00  0.00    -0.023 C 
ATOM      8  C   UNL     1     169.320 162.909 198.507  1.00  0.00    -0.001 C 
ATOM      9  C   UNL     1     168.864 165.658 199.169  1.00  0.00     0.035 C 
ATOM     10  C   UNL     1     169.826 163.365 199.656  1.00  0.00    -0.023 C 
ENDBRANCH   2   4
ENDBRANCH   1   2
BRANCH   1  11
ATOM     11  C   UNL     1     166.436 162.736 201.431  1.00  0.00     0.027 C 
BRANCH  11  12
ATOM     12  C   UNL     1     166.058 162.129 200.100  1.00  0.00    -0.028 C 
ATOM     13  C   UNL     1     164.891 162.353 199.457  1.00  0.00    -0.080 C 
ATOM     14  C   UNL     1     163.797 163.208 200.050  1.00  0.00     0.039 C 
ATOM     15  C   UNL     1     164.677 161.700 198.115  1.00  0.00     0.039 C 
ENDBRANCH  11  12
ENDBRANCH   1  11
TORSDOF 4
ENDMDL
MODEL 3
REMARK VINA RESULT:    -4.970      1.385      3.753
REMARK INTER + INTRA:          -7.548
REMARK INTER:                  -6.060
REMARK INTRA:                  -1.488
REMARK UNBOUND:                -1.416
REMARK SMILES CC(C)=CCC[C@H](C)[C@H]1C=CC(C)=CC1
REMARK SMILES IDX 6 1 7 2 8 3 9 4 13 5 12 6 14 7 11 8 15 9 10 10 5 11 4 12
REMARK SMILES IDX 2 13 1 14 3 15
REMARK H PARENT
REMARK Flexibility Score: inf
ROOT
ATOM      1  C   UNL     1     166.610 170.121 198.429  1.00  0.00     0.008 C 
ENDROOT
BRANCH   1   2
ATOM      2  C   UNL     1     165.431 169.111 198.332  1.00  0.00    -0.007 C 
ATOM      3  C   UNL     1     165.117 168.759 196.865  1.00  0.00     0.008 C 
BRANCH   2   4
ATOM      4  C   UNL     1     164.185 169.648 199.106  1.00  0.00     0.018 C 
ATOM      5  C   UNL     1     163.414 167.012 202.513  1.00  0.00     0.044 C 
ATOM      6  C   UNL     1     163.539 168.051 201.438  1.00  0.00    -0.055 C 
ATOM      7  C   UNL     1     164.412 169.060 201.575  1.00  0.00    -0.023 C 
ATOM      8  C   UNL     1     162.770 167.903 200.184  1.00  0.00    -0.001 C 
ATOM      9  C   UNL     1     164.519 170.144 200.537  1.00  0.00     0.035 C 
ATOM     10  C   UNL     1     163.038 168.659 199.115  1.00  0.00    -0.023 C 
ENDBRANCH   2   4
ENDBRANCH   1   2
BRANCH   1  11
ATOM     11  C   UNL     1     167.943 169.509 198.900  1.00  0.00     0.027 C 
BRANCH  11  12
ATOM     12  C   UNL     1     168.024 169.387 200.403  1.00  0.00    -0.028 C 
ATOM     13  C   UNL     1     167.816 168.244 201.094  1.00  0.00    -0.080 C 
ATOM     14  C   UNL     1     167.414 166.956 200.416  1.00  0.00     0.039 C 
ATOM     15  C   UNL     1     167.969 168.276 202.593  1.00  0.00     0.039 C 
ENDBRANCH  11  12
ENDBRANCH   1  11
TORSDOF 4
ENDMDL
MODEL 4
REMARK VINA RESULT:    -4.965      4.548      7.344
REMARK INTER + INTRA:          -7.542
REMARK INTER:                  -6.041
REMARK INTRA:                  -1.501
REMARK UNBOUND:                -1.416
REMARK SMILES CC(C)=CCC[C@H](C)[C@H]1C=CC(C)=CC1
REMARK SMILES IDX 6 1 7 2 8 3 9 4 13 5 12 6 14 7 11 8 15 9 10 10 5 11 4 12
REMARK SMILES IDX 2 13 1 14 3 15
REMARK H PARENT
REMARK Flexibility Score: inf
ROOT
ATOM      1  C   UNL     1     165.415 161.895 198.405  1.00  0.00     0.008 C 
ENDROOT
BRANCH   1   2
ATOM      2  C   UNL     1     166.610 162.885 198.306  1.00  0.00    -0.007 C 
ATOM      3  C   UNL     1     166.936 163.220 196.837  1.00  0.00     0.008 C 
BRANCH   2   4
ATOM      4  C   UNL     1     167.845 162.333 199.087  1.00  0.00     0.018 C 
ATOM      5  C   UNL     1     168.581 164.919 202.540  1.00  0.00     0.044 C 
ATOM      6  C   UNL     1     168.465 163.896 201.449  1.00  0.00    -0.055 C 
ATOM      7  C   UNL     1     167.588 162.888 201.562  1.00  0.00    -0.023 C 
ATOM      8  C   UNL     1     169.251 164.057 200.207  1.00  0.00    -0.001 C 
ATOM      9  C   UNL     1     167.491 161.818 200.507  1.00  0.00     0.035 C 
ATOM     10  C   UNL     1     168.995 163.317 199.125  1.00  0.00    -0.023 C 
ENDBRANCH   2   4
ENDBRANCH   1   2
BRANCH   1  11
ATOM     11  C   UNL     1     164.089 162.533 198.860  1.00  0.00     0.027 C 
BRANCH  11  12
ATOM     12  C   UNL     1     163.990 162.653 200.362  1.00  0.00    -0.028 C 
ATOM     13  C   UNL     1     164.201 163.793 201.057  1.00  0.00    -0.080 C 
ATOM     14  C   UNL     1     164.625 165.078 200.386  1.00  0.00     0.039 C 
ATOM     15  C   UNL     1     164.029 163.760 202.554  1.00  0.00     0.039 C 
ENDBRANCH  11  12
ENDBRANCH   1  11
TORSDOF 4
ENDMDL
MODEL 5
REMARK VINA RESULT:    -4.945      1.247      3.920
REMARK INTER + INTRA:          -7.517
REMARK INTER:                  -5.740
REMARK INTRA:                  -1.777
REMARK UNBOUND:                -1.416
REMARK SMILES CC(C)=CCC[C@H](C)[C@H]1C=CC(C)=CC1
REMARK SMILES IDX 6 1 7 2 8 3 9 4 13 5 12 6 14 7 11 8 15 9 10 10 5 11 4 12
REMARK SMILES IDX 2 13 1 14 3 15
REMARK H PARENT
REMARK Flexibility Score: inf
ROOT
ATOM      1  C   UNL     1     164.522 170.096 200.773  1.00  0.00     0.008 C 
ENDROOT
BRANCH   1   2
ATOM      2  C   UNL     1     165.249 169.273 199.672  1.00  0.00    -0.007 C 
ATOM      3  C   UNL     1     166.416 170.071 199.059  1.00  0.00     0.008 C 
BRANCH   2   4
ATOM      4  C   UNL     1     164.230 168.772 198.600  1.00  0.00     0.018 C 
ATOM      5  C   UNL     1     162.273 165.162 200.113  1.00  0.00     0.044 C 
ATOM      6  C   UNL     1     162.791 166.400 199.443  1.00  0.00    -0.055 C 
ATOM      7  C   UNL     1     162.290 167.601 199.768  1.00  0.00    -0.023 C 
ATOM      8  C   UNL     1     163.923 166.302 198.497  1.00  0.00    -0.001 C 
ATOM      9  C   UNL     1     162.754 168.853 199.073  1.00  0.00     0.035 C 
ATOM     10  C   UNL     1     164.569 167.393 198.076  1.00  0.00    -0.023 C 
ENDBRANCH   2   4
ENDBRANCH   1   2
BRANCH   1  11
ATOM     11  C   UNL     1     164.899 169.712 202.216  1.00  0.00     0.027 C 
BRANCH  11  12
ATOM     12  C   UNL     1     163.945 168.704 202.814  1.00  0.00    -0.028 C 
ATOM     13  C   UNL     1     164.157 167.370 202.846  1.00  0.00    -0.080 C 
ATOM     14  C   UNL     1     165.373 166.734 202.218  1.00  0.00     0.039 C 
ATOM     15  C   UNL     1     163.124 166.497 203.512  1.00  0.00     0.039 C 
ENDBRANCH  11  12
ENDBRANCH   1  11
TORSDOF 4
ENDMDL
MODEL 6
REMARK VINA RESULT:    -4.942      4.360      5.565
REMARK INTER + INTRA:          -7.513
REMARK INTER:                  -5.834
REMARK INTRA:                  -1.679
REMARK UNBOUND:                -1.416
REMARK SMILES CC(C)=CCC[C@H](C)[C@H]1C=CC(C)=CC1
REMARK SMILES IDX 6 1 7 2 8 3 9 4 13 5 12 6 14 7 11 8 15 9 10 10 5 11 4 12
REMARK SMILES IDX 2 13 1 14 3 15
REMARK H PARENT
REMARK Flexibility Score: inf
ROOT
ATOM      1  C   UNL     1     163.949 163.390 200.885  1.00  0.00     0.008 C 
ENDROOT
BRANCH   1   2
ATOM      2  C   UNL     1     163.463 164.264 199.695  1.00  0.00    -0.007 C 
ATOM      3  C   UNL     1     162.434 165.314 200.157  1.00  0.00     0.008 C 
BRANCH   2   4
ATOM      4  C   UNL     1     162.928 163.363 198.536  1.00  0.00     0.018 C 
ATOM      5  C   UNL     1     166.261 162.384 195.876  1.00  0.00     0.044 C 
ATOM      6  C   UNL     1     165.010 162.566 196.683  1.00  0.00    -0.055 C 
ATOM      7  C   UNL     1     164.786 161.801 197.761  1.00  0.00    -0.023 C 
ATOM      8  C   UNL     1     164.074 163.659 196.344  1.00  0.00    -0.001 C 
ATOM      9  C   UNL     1     163.514 161.927 198.556  1.00  0.00     0.035 C 
ATOM     10  C   UNL     1     163.089 164.010 197.176  1.00  0.00    -0.023 C 
ENDBRANCH   2   4
ENDBRANCH   1   2
BRANCH   1  11
ATOM     11  C   UNL     1     165.333 163.774 201.442  1.00  0.00     0.027 C 
BRANCH  11  12
ATOM     12  C   UNL     1     166.305 164.167 200.354  1.00  0.00    -0.028 C 
ATOM     13  C   UNL     1     167.255 163.354 199.842  1.00  0.00    -0.080 C 
ATOM     14  C   UNL     1     167.482 161.955 200.362  1.00  0.00     0.039 C 
ATOM     15  C   UNL     1     168.127 163.883 198.732  1.00  0.00     0.039 C 
ENDBRANCH  11  12
ENDBRANCH   1  11
TORSDOF 4
ENDMDL
MODEL 7
REMARK VINA RESULT:    -4.938      1.737      4.606
REMARK INTER + INTRA:          -7.509
REMARK INTER:                  -5.795
REMARK INTRA:                  -1.714
REMARK UNBOUND:                -1.416
REMARK SMILES CC(C)=CCC[C@H](C)[C@H]1C=CC(C)=CC1
REMARK SMILES IDX 6 1 7 2 8 3 9 4 13 5 12 6 14 7 11 8 15 9 10 10 5 11 4 12
REMARK SMILES IDX 2 13 1 14 3 15
REMARK H PARENT
REMARK Flexibility Score: inf
ROOT
ATOM      1  C   UNL     1     167.973 168.736 200.884  1.00  0.00     0.008 C 
ENDROOT
BRANCH   1   2
ATOM      2  C   UNL     1     168.483 167.741 199.802  1.00  0.00    -0.007 C 
ATOM      3  C   UNL     1     169.479 166.729 200.400  1.00  0.00     0.008 C 
BRANCH   2   4
ATOM      4  C   UNL     1     169.070 168.516 198.580  1.00  0.00     0.018 C 
ATOM      5  C   UNL     1     165.788 169.549 195.875  1.00  0.00     0.044 C 
ATOM      6  C   UNL     1     167.031 169.332 196.686  1.00  0.00    -0.055 C 
ATOM      7  C   UNL     1     167.323 170.153 197.705  1.00  0.00    -0.023 C 
ATOM      8  C   UNL     1     167.882 168.152 196.421  1.00  0.00    -0.001 C 
ATOM      9  C   UNL     1     168.590 169.990 198.500  1.00  0.00     0.035 C 
ATOM     10  C   UNL     1     168.847 167.789 197.270  1.00  0.00    -0.023 C 
ENDBRANCH   2   4
ENDBRANCH   1   2
BRANCH   1  11
ATOM     11  C   UNL     1     166.569 168.422 201.435  1.00  0.00     0.027 C 
BRANCH  11  12
ATOM     12  C   UNL     1     165.631 167.909 200.367  1.00  0.00    -0.028 C 
ATOM     13  C   UNL     1     164.721 168.665 199.716  1.00  0.00    -0.080 C 
ATOM     14  C   UNL     1     164.507 170.124 200.041  1.00  0.00     0.039 C 
ATOM     15  C   UNL     1     163.880 168.013 198.648  1.00  0.00     0.039 C 
ENDBRANCH  11  12
ENDBRANCH   1  11
TORSDOF 4
ENDMDL
MODEL 8
REMARK VINA RESULT:    -4.895      4.174      6.581
REMARK INTER + INTRA:          -7.456
REMARK INTER:                  -5.773
REMARK INTRA:                  -1.683
REMARK UNBOUND:                -1.416
REMARK SMILES CC(C)=CCC[C@H](C)[C@H]1C=CC(C)=CC1
REMARK SMILES IDX 6 1 7 2 8 3 9 4 13 5 12 6 14 7 11 8 15 9 10 10 5 11 4 12
REMARK SMILES IDX 2 13 1 14 3 15
REMARK H PARENT
REMARK Flexibility Score: inf
ROOT
ATOM      1  C   UNL     1     168.308 162.613 199.327  1.00  0.00     0.008 C 
ENDROOT
BRANCH   1   2
ATOM      2  C   UNL     1     169.079 163.654 200.187  1.00  0.00    -0.007 C 
ATOM      3  C   UNL     1     168.605 163.627 201.653  1.00  0.00     0.008 C 
BRANCH   2   4
ATOM      4  C   UNL     1     168.979 165.075 199.546  1.00  0.00     0.018 C 
ATOM      5  C   UNL     1     164.836 165.766 198.321  1.00  0.00     0.044 C 
ATOM      6  C   UNL     1     166.285 165.740 198.708  1.00  0.00    -0.055 C 
ATOM      7  C   UNL     1     166.652 166.024 199.966  1.00  0.00    -0.023 C 
ATOM      8  C   UNL     1     167.297 165.303 197.723  1.00  0.00    -0.001 C 
ATOM      9  C   UNL     1     168.102 166.057 200.367  1.00  0.00     0.035 C 
ATOM     10  C   UNL     1     168.551 165.028 198.095  1.00  0.00    -0.023 C 
ENDBRANCH   2   4
ENDBRANCH   1   2
BRANCH   1  11
ATOM     11  C   UNL     1     167.153 161.904 200.059  1.00  0.00     0.027 C 
BRANCH  11  12
ATOM     12  C   UNL     1     165.890 161.849 199.231  1.00  0.00    -0.028 C 
ATOM     13  C   UNL     1     164.701 162.367 199.608  1.00  0.00    -0.080 C 
ATOM     14  C   UNL     1     164.497 163.017 200.956  1.00  0.00     0.039 C 
ATOM     15  C   UNL     1     163.540 162.263 198.652  1.00  0.00     0.039 C 
ENDBRANCH  11  12
ENDBRANCH   1  11
TORSDOF 4
ENDMDL
MODEL 9
REMARK VINA RESULT:    -4.880      1.399      2.137
REMARK INTER + INTRA:          -7.437
REMARK INTER:                  -5.761
REMARK INTRA:                  -1.676
REMARK UNBOUND:                -1.416
REMARK SMILES CC(C)=CCC[C@H](C)[C@H]1C=CC(C)=CC1
REMARK SMILES IDX 6 1 7 2 8 3 9 4 13 5 12 6 14 7 11 8 15 9 10 10 5 11 4 12
REMARK SMILES IDX 2 13 1 14 3 15
REMARK H PARENT
REMARK Flexibility Score: inf
ROOT
ATOM      1  C   UNL     1     163.639 169.384 199.355  1.00  0.00     0.008 C 
ENDROOT
BRANCH   1   2
ATOM      2  C   UNL     1     162.877 168.308 200.178  1.00  0.00    -0.007 C 
ATOM      3  C   UNL     1     163.356 168.284 201.643  1.00  0.00     0.008 C 
BRANCH   2   4
ATOM      4  C   UNL     1     162.983 166.912 199.486  1.00  0.00     0.018 C 
ATOM      5  C   UNL     1     167.137 166.269 198.267  1.00  0.00     0.044 C 
ATOM      6  C   UNL     1     165.684 166.281 198.644  1.00  0.00    -0.055 C 
ATOM      7  C   UNL     1     165.308 165.950 199.887  1.00  0.00    -0.023 C 
ATOM      8  C   UNL     1     164.679 166.753 197.668  1.00  0.00    -0.001 C 
ATOM      9  C   UNL     1     163.855 165.901 200.275  1.00  0.00     0.035 C 
ATOM     10  C   UNL     1     163.423 167.013 198.040  1.00  0.00    -0.023 C 
ENDBRANCH   2   4
ENDBRANCH   1   2
BRANCH   1  11
ATOM     11  C   UNL     1     164.811 170.053 200.099  1.00  0.00     0.027 C 
BRANCH  11  12
ATOM     12  C   UNL     1     166.059 170.140 199.252  1.00  0.00    -0.028 C 
ATOM     13  C   UNL     1     167.263 169.637 199.604  1.00  0.00    -0.080 C 
ATOM     14  C   UNL     1     167.499 168.973 200.940  1.00  0.00     0.039 C 
ATOM     15  C   UNL     1     168.407 169.773 198.632  1.00  0.00     0.039 C 
ENDBRANCH  11  12
ENDBRANCH   1  11
TORSDOF 4
ENDMDL
