MODEL 1
REMARK VINA RESULT:    -3.025      0.000      0.000
REMARK INTER + INTRA:          -3.675
REMARK INTER:                  -3.555
REMARK INTRA:                  -0.120
REMARK UNBOUND:                -0.120
REMARK SMILES CCCCC(=O)[O-]
REMARK SMILES IDX 4 1 5 2 6 3 7 4 3 5 2 6 1 7
REMARK H PARENT
REMARK Flexibility Score: inf
ROOT
ATOM      1  C   UNL     1      44.963  28.191   2.353  1.00  0.00     0.053 C 
ENDROOT
BRANCH   1   2
ATOM      2  C   UNL     1      45.776  27.612   1.237  1.00  0.00     0.041 C 
ATOM      3  O   UNL     1      47.023  27.489   1.360  1.00  0.00    -0.550 OA
ATOM      4  O   UNL     1      45.163  27.256   0.043  1.00  0.00    -0.550 OA
ENDBRANCH   1   2
BRANCH   1   5
ATOM      5  C   UNL     1      44.081  27.108   2.989  1.00  0.00     0.006 C 
BRANCH   5   6
ATOM      6  C   UNL     1      44.888  26.114   3.838  1.00  0.00    -0.003 C 
ATOM      7  C   UNL     1      45.755  26.804   4.891  1.00  0.00     0.004 C 
ENDBRANCH   5   6
ENDBRANCH   1   5
TORSDOF 3
ENDMDL
MODEL 2
REMARK VINA RESULT:    -3.012     23.427     24.249
REMARK INTER + INTRA:          -3.660
REMARK INTER:                  -3.636
REMARK INTRA:                  -0.024
REMARK UNBOUND:                -0.120
REMARK SMILES CCCCC(=O)[O-]
REMARK SMILES IDX 4 1 5 2 6 3 7 4 3 5 2 6 1 7
REMARK H PARENT
REMARK Flexibility Score: inf
ROOT
ATOM      1  C   UNL     1      29.062   9.936  -4.540  1.00  0.00     0.053 C 
ENDROOT
BRANCH   1   2
ATOM      2  C   UNL     1      28.111  10.828  -3.805  1.00  0.00     0.041 C 
ATOM      3  O   UNL     1      27.058  10.354  -3.303  1.00  0.00    -0.550 OA
ATOM      4  O   UNL     1      28.363  12.191  -3.716  1.00  0.00    -0.550 OA
ENDBRANCH   1   2
BRANCH   1   5
ATOM      5  C   UNL     1      30.025  10.770  -5.395  1.00  0.00     0.006 C 
BRANCH   5   6
ATOM      6  C   UNL     1      31.357  10.050  -5.656  1.00  0.00    -0.003 C 
ATOM      7  C   UNL     1      32.356  10.916  -6.422  1.00  0.00     0.004 C 
ENDBRANCH   5   6
ENDBRANCH   1   5
TORSDOF 3
ENDMDL
MODEL 3
REMARK VINA RESULT:    -2.894      2.457      3.300
REMARK INTER + INTRA:          -3.522
REMARK INTER:                  -3.497
REMARK INTRA:                  -0.025
REMARK UNBOUND:                -0.120
REMARK SMILES CCCCC(=O)[O-]
REMARK SMILES IDX 4 1 5 2 6 3 7 4 3 5 2 6 1 7
REMARK H PARENT
REMARK Flexibility Score: inf
ROOT
ATOM      1  C   UNL     1      45.633  27.411   4.567  1.00  0.00     0.053 C 
ENDROOT
BRANCH   1   2
ATOM      2  C   UNL     1      45.009  26.346   3.720  1.00  0.00     0.041 C 
ATOM      3  O   UNL     1      45.367  25.145   3.847  1.00  0.00    -0.550 OA
ATOM      4  O   UNL     1      44.068  26.686   2.756  1.00  0.00    -0.550 OA
ENDBRANCH   1   2
BRANCH   1   5
ATOM      5  C   UNL     1      46.240  26.797   5.836  1.00  0.00     0.006 C 
BRANCH   5   6
ATOM      6  C   UNL     1      45.970  27.645   7.088  1.00  0.00    -0.003 C 
ATOM      7  C   UNL     1      45.590  26.799   8.303  1.00  0.00     0.004 C 
ENDBRANCH   5   6
ENDBRANCH   1   5
TORSDOF 3
ENDMDL
MODEL 4
REMARK VINA RESULT:    -2.868      6.509      7.597
REMARK INTER + INTRA:          -3.492
REMARK INTER:                  -3.450
REMARK INTRA:                  -0.041
REMARK UNBOUND:                -0.120
REMARK SMILES CCCCC(=O)[O-]
REMARK SMILES IDX 4 1 5 2 6 3 7 4 3 5 2 6 1 7
REMARK H PARENT
REMARK Flexibility Score: inf
ROOT
ATOM      1  C   UNL     1      45.081  27.488   9.731  1.00  0.00     0.053 C 
ENDROOT
BRANCH   1   2
ATOM      2  C   UNL     1      46.073  26.389   9.506  1.00  0.00     0.041 C 
ATOM      3  O   UNL     1      46.372  25.604  10.444  1.00  0.00    -0.550 OA
ATOM      4  O   UNL     1      46.703  26.263   8.275  1.00  0.00    -0.550 OA
ENDBRANCH   1   2
BRANCH   1   5
ATOM      5  C   UNL     1      45.184  28.538   8.617  1.00  0.00     0.006 C 
BRANCH   5   6
ATOM      6  C   UNL     1      44.800  29.946   9.097  1.00  0.00    -0.003 C 
ATOM      7  C   UNL     1      44.368  29.973  10.563  1.00  0.00     0.004 C 
ENDBRANCH   5   6
ENDBRANCH   1   5
TORSDOF 3
ENDMDL
MODEL 5
REMARK VINA RESULT:    -2.786      5.211      6.481
REMARK INTER + INTRA:          -3.395
REMARK INTER:                  -3.373
REMARK INTRA:                  -0.023
REMARK UNBOUND:                -0.120
REMARK SMILES CCCCC(=O)[O-]
REMARK SMILES IDX 4 1 5 2 6 3 7 4 3 5 2 6 1 7
REMARK H PARENT
REMARK Flexibility Score: inf
ROOT
ATOM      1  C   UNL     1      45.616  28.031   7.854  1.00  0.00     0.053 C 
ENDROOT
BRANCH   1   2
ATOM      2  C   UNL     1      45.147  27.566   9.198  1.00  0.00     0.041 C 
ATOM      3  O   UNL     1      45.137  26.337   9.474  1.00  0.00    -0.550 OA
ATOM      4  O   UNL     1      44.675  28.484  10.126  1.00  0.00    -0.550 OA
ENDBRANCH   1   2
BRANCH   1   5
ATOM      5  C   UNL     1      45.970  26.830   6.967  1.00  0.00     0.006 C 
BRANCH   5   6
ATOM      6  C   UNL     1      46.066  27.205   5.479  1.00  0.00    -0.003 C 
ATOM      7  C   UNL     1      45.479  26.132   4.562  1.00  0.00     0.004 C 
ENDBRANCH   5   6
ENDBRANCH   1   5
TORSDOF 3
ENDMDL
MODEL 6
REMARK VINA RESULT:    -2.754      6.878      8.043
REMARK INTER + INTRA:          -3.358
REMARK INTER:                  -3.274
REMARK INTRA:                  -0.084
REMARK UNBOUND:                -0.120
REMARK SMILES CCCCC(=O)[O-]
REMARK SMILES IDX 4 1 5 2 6 3 7 4 3 5 2 6 1 7
REMARK H PARENT
REMARK Flexibility Score: inf
ROOT
ATOM      1  C   UNL     1      45.139  27.247   9.584  1.00  0.00     0.053 C 
ENDROOT
BRANCH   1   2
ATOM      2  C   UNL     1      46.217  26.795  10.520  1.00  0.00     0.041 C 
ATOM      3  O   UNL     1      46.785  27.625  11.279  1.00  0.00    -0.550 OA
ATOM      4  O   UNL     1      46.629  25.469  10.518  1.00  0.00    -0.550 OA
ENDBRANCH   1   2
BRANCH   1   5
ATOM      5  C   UNL     1      44.709  28.681   9.918  1.00  0.00     0.006 C 
BRANCH   5   6
ATOM      6  C   UNL     1      44.932  29.651   8.747  1.00  0.00    -0.003 C 
ATOM      7  C   UNL     1      45.498  28.959   7.507  1.00  0.00     0.004 C 
ENDBRANCH   5   6
ENDBRANCH   1   5
TORSDOF 3
ENDMDL
MODEL 7
REMARK VINA RESULT:    -2.680      1.719      2.965
REMARK INTER + INTRA:          -3.270
REMARK INTER:                  -3.129
REMARK INTRA:                  -0.141
REMARK UNBOUND:                -0.120
REMARK SMILES CCCCC(=O)[O-]
REMARK SMILES IDX 4 1 5 2 6 3 7 4 3 5 2 6 1 7
REMARK H PARENT
REMARK Flexibility Score: inf
ROOT
ATOM      1  C   UNL     1      44.811  26.202   3.862  1.00  0.00     0.053 C 
ENDROOT
BRANCH   1   2
ATOM      2  C   UNL     1      46.305  26.274   3.794  1.00  0.00     0.041 C 
ATOM      3  O   UNL     1      46.973  26.547   4.826  1.00  0.00    -0.550 OA
ATOM      4  O   UNL     1      46.956  26.087   2.581  1.00  0.00    -0.550 OA
ENDBRANCH   1   2
BRANCH   1   5
ATOM      5  C   UNL     1      44.183  27.113   2.798  1.00  0.00     0.006 C 
BRANCH   5   6
ATOM      6  C   UNL     1      44.490  28.599   3.039  1.00  0.00    -0.003 C 
ATOM      7  C   UNL     1      45.158  29.267   1.837  1.00  0.00     0.004 C 
ENDBRANCH   5   6
ENDBRANCH   1   5
TORSDOF 3
ENDMDL
MODEL 8
REMARK VINA RESULT:    -2.594      6.953      7.785
REMARK INTER + INTRA:          -3.170
REMARK INTER:                  -3.066
REMARK INTRA:                  -0.104
REMARK UNBOUND:                -0.120
REMARK SMILES CCCCC(=O)[O-]
REMARK SMILES IDX 4 1 5 2 6 3 7 4 3 5 2 6 1 7
REMARK H PARENT
REMARK Flexibility Score: inf
ROOT
ATOM      1  C   UNL     1      42.446  28.250  -4.094  1.00  0.00     0.053 C 
ENDROOT
BRANCH   1   2
ATOM      2  C   UNL     1      42.315  28.702  -5.515  1.00  0.00     0.041 C 
ATOM      3  O   UNL     1      43.194  28.392  -6.361  1.00  0.00    -0.550 OA
ATOM      4  O   UNL     1      41.248  29.507  -5.893  1.00  0.00    -0.550 OA
ENDBRANCH   1   2
BRANCH   1   5
ATOM      5  C   UNL     1      43.396  27.049  -4.001  1.00  0.00     0.006 C 
BRANCH   5   6
ATOM      6  C   UNL     1      44.730  27.403  -3.326  1.00  0.00    -0.003 C 
ATOM      7  C   UNL     1      45.916  27.336  -4.289  1.00  0.00     0.004 C 
ENDBRANCH   5   6
ENDBRANCH   1   5
TORSDOF 3
ENDMDL
MODEL 9
REMARK VINA RESULT:    -2.568      4.816      6.459
REMARK INTER + INTRA:          -3.139
REMARK INTER:                  -3.121
REMARK INTRA:                  -0.017
REMARK UNBOUND:                -0.120
REMARK SMILES CCCCC(=O)[O-]
REMARK SMILES IDX 4 1 5 2 6 3 7 4 3 5 2 6 1 7
REMARK H PARENT
REMARK Flexibility Score: inf
ROOT
ATOM      1  C   UNL     1      44.655  28.454  -2.783  1.00  0.00     0.053 C 
ENDROOT
BRANCH   1   2
ATOM      2  C   UNL     1      45.586  27.663  -1.918  1.00  0.00     0.041 C 
ATOM      3  O   UNL     1      46.665  27.217  -2.391  1.00  0.00    -0.550 OA
ATOM      4  O   UNL     1      45.239  27.376  -0.604  1.00  0.00    -0.550 OA
ENDBRANCH   1   2
BRANCH   1   5
ATOM      5  C   UNL     1      44.051  27.560  -3.875  1.00  0.00     0.006 C 
BRANCH   5   6
ATOM      6  C   UNL     1      42.564  27.856  -4.123  1.00  0.00    -0.003 C 
ATOM      7  C   UNL     1      42.321  28.605  -5.433  1.00  0.00     0.004 C 
ENDBRANCH   5   6
ENDBRANCH   1   5
TORSDOF 3
ENDMDL
