MODEL 1
REMARK VINA RESULT:    -5.152      0.000      0.000
REMARK INTER + INTRA:          -5.604
REMARK INTER:                  -5.604
REMARK INTRA:                   0.000
REMARK UNBOUND:                 0.000
REMARK SMILES Oc1cccc(O)c1O
REMARK SMILES IDX 4 1 5 2 6 3 8 4 2 5 3 6 7 7 1 9 9 11
REMARK H PARENT 7 8 1 10 9 12
REMARK Flexibility Score: inf
ROOT
ATOM      1  C   UNL     1     -32.833  11.923 -37.528  1.00  0.00     0.008 A 
ATOM      2  C   UNL     1     -33.607  12.435 -36.484  1.00  0.00     0.050 A 
ATOM      3  C   UNL     1     -33.620  11.796 -35.236  1.00  0.00     0.161 A 
ATOM      4  C   UNL     1     -32.851  10.634 -35.037  1.00  0.00     0.200 A 
ATOM      5  C   UNL     1     -32.075  10.124 -36.089  1.00  0.00     0.161 A 
ATOM      6  C   UNL     1     -32.068  10.770 -37.332  1.00  0.00     0.050 A 
ENDROOT
BRANCH   3   7
ATOM      7  O   UNL     1     -34.394  12.308 -34.195  1.00  0.00    -0.504 OA
ATOM      8  H   UNL     1     -35.398  12.413 -34.282  1.00  0.00     0.293 HD
ENDBRANCH   3   7
BRANCH   5   9
ATOM      9  O   UNL     1     -31.314   8.973 -35.888  1.00  0.00    -0.504 OA
ATOM     10  H   UNL     1     -31.714   8.138 -35.477  1.00  0.00     0.293 HD
ENDBRANCH   5   9
BRANCH   4  11
ATOM     11  O   UNL     1     -32.847   9.979 -33.806  1.00  0.00    -0.502 OA
ATOM     12  H   UNL     1     -32.004   9.578 -33.412  1.00  0.00     0.293 HD
ENDBRANCH   4  11
TORSDOF 3
ENDMDL
MODEL 2
REMARK VINA RESULT:    -5.128      0.110      2.801
REMARK INTER + INTRA:          -5.578
REMARK INTER:                  -5.578
REMARK INTRA:                   0.000
REMARK UNBOUND:                 0.000
REMARK SMILES Oc1cccc(O)c1O
REMARK SMILES IDX 4 1 5 2 6 3 8 4 2 5 3 6 7 7 1 9 9 11
REMARK H PARENT 7 8 1 10 9 12
REMARK Flexibility Score: inf
ROOT
ATOM      1  C   UNL     1     -32.841  11.892 -37.562  1.00  0.00     0.008 A 
ATOM      2  C   UNL     1     -32.090  10.728 -37.387  1.00  0.00     0.050 A 
ATOM      3  C   UNL     1     -32.117  10.047 -36.161  1.00  0.00     0.161 A 
ATOM      4  C   UNL     1     -32.903  10.543 -35.104  1.00  0.00     0.200 A 
ATOM      5  C   UNL     1     -33.656  11.713 -35.284  1.00  0.00     0.161 A 
ATOM      6  C   UNL     1     -33.622  12.385 -36.514  1.00  0.00     0.050 A 
ENDROOT
BRANCH   3   7
ATOM      7  O   UNL     1     -31.366   8.885 -35.988  1.00  0.00    -0.504 OA
ATOM      8  H   UNL     1     -31.764   8.054 -35.568  1.00  0.00     0.293 HD
ENDBRANCH   3   7
BRANCH   5   9
ATOM      9  O   UNL     1     -34.434  12.200 -34.235  1.00  0.00    -0.504 OA
ATOM     10  H   UNL     1     -35.441  12.088 -34.227  1.00  0.00     0.293 HD
ENDBRANCH   5   9
BRANCH   4  11
ATOM     11  O   UNL     1     -32.947   9.886 -33.875  1.00  0.00    -0.502 OA
ATOM     12  H   UNL     1     -32.274  10.071 -33.140  1.00  0.00     0.293 HD
ENDBRANCH   4  11
TORSDOF 3
ENDMDL
MODEL 3
REMARK VINA RESULT:    -4.799      1.711      3.024
REMARK INTER + INTRA:          -5.219
REMARK INTER:                  -5.219
REMARK INTRA:                   0.000
REMARK UNBOUND:                 0.000
REMARK SMILES Oc1cccc(O)c1O
REMARK SMILES IDX 4 1 5 2 6 3 8 4 2 5 3 6 7 7 1 9 9 11
REMARK H PARENT 7 8 1 10 9 12
REMARK Flexibility Score: inf
ROOT
ATOM      1  C   UNL     1     -33.387  12.150 -35.726  1.00  0.00     0.008 A 
ATOM      2  C   UNL     1     -32.879  11.051 -35.029  1.00  0.00     0.050 A 
ATOM      3  C   UNL     1     -32.243  10.009 -35.719  1.00  0.00     0.161 A 
ATOM      4  C   UNL     1     -32.118  10.072 -37.119  1.00  0.00     0.200 A 
ATOM      5  C   UNL     1     -32.630  11.178 -37.816  1.00  0.00     0.161 A 
ATOM      6  C   UNL     1     -33.263  12.214 -37.116  1.00  0.00     0.050 A 
ENDROOT
BRANCH   3   7
ATOM      7  O   UNL     1     -31.737   8.913 -35.021  1.00  0.00    -0.504 OA
ATOM      8  H   UNL     1     -32.103   8.647 -34.114  1.00  0.00     0.293 HD
ENDBRANCH   3   7
BRANCH   5   9
ATOM      9  O   UNL     1     -32.504  11.237 -39.203  1.00  0.00    -0.504 OA
ATOM     10  H   UNL     1     -33.316  11.279 -39.807  1.00  0.00     0.293 HD
ENDBRANCH   5   9
BRANCH   4  11
ATOM     11  O   UNL     1     -31.491   9.049 -37.829  1.00  0.00    -0.502 OA
ATOM     12  H   UNL     1     -30.632   8.619 -37.508  1.00  0.00     0.293 HD
ENDBRANCH   4  11
TORSDOF 3
ENDMDL
MODEL 4
REMARK VINA RESULT:    -4.545      2.468      3.229
REMARK INTER + INTRA:          -4.943
REMARK INTER:                  -4.943
REMARK INTRA:                   0.000
REMARK UNBOUND:                 0.000
REMARK SMILES Oc1cccc(O)c1O
REMARK SMILES IDX 4 1 5 2 6 3 8 4 2 5 3 6 7 7 1 9 9 11
REMARK H PARENT 7 8 1 10 9 12
REMARK Flexibility Score: inf
ROOT
ATOM      1  C   UNL     1     -32.843  11.400 -35.803  1.00  0.00     0.008 A 
ATOM      2  C   UNL     1     -33.621  12.186 -36.657  1.00  0.00     0.050 A 
ATOM      3  C   UNL     1     -33.581  11.975 -38.042  1.00  0.00     0.161 A 
ATOM      4  C   UNL     1     -32.754  10.967 -38.572  1.00  0.00     0.200 A 
ATOM      5  C   UNL     1     -31.975  10.180 -37.711  1.00  0.00     0.161 A 
ATOM      6  C   UNL     1     -32.022  10.399 -36.327  1.00  0.00     0.050 A 
ENDROOT
BRANCH   3   7
ATOM      7  O   UNL     1     -34.357  12.761 -38.893  1.00  0.00    -0.504 OA
ATOM      8  H   UNL     1     -34.925  13.522 -38.541  1.00  0.00     0.293 HD
ENDBRANCH   3   7
BRANCH   5   9
ATOM      9  O   UNL     1     -31.157   9.182 -38.239  1.00  0.00    -0.504 OA
ATOM     10  H   UNL     1     -31.456   8.214 -38.270  1.00  0.00     0.293 HD
ENDBRANCH   5   9
BRANCH   4  11
ATOM     11  O   UNL     1     -32.696  10.737 -39.946  1.00  0.00    -0.502 OA
ATOM     12  H   UNL     1     -33.526  10.733 -40.527  1.00  0.00     0.293 HD
ENDBRANCH   4  11
TORSDOF 3
ENDMDL
MODEL 5
REMARK VINA RESULT:    -4.526      2.476      4.169
REMARK INTER + INTRA:          -4.923
REMARK INTER:                  -4.923
REMARK INTRA:                   0.000
REMARK UNBOUND:                 0.000
REMARK SMILES Oc1cccc(O)c1O
REMARK SMILES IDX 4 1 5 2 6 3 8 4 2 5 3 6 7 7 1 9 9 11
REMARK H PARENT 7 8 1 10 9 12
REMARK Flexibility Score: inf
ROOT
ATOM      1  C   UNL     1     -32.852  11.416 -35.822  1.00  0.00     0.008 A 
ATOM      2  C   UNL     1     -32.033  10.412 -36.342  1.00  0.00     0.050 A 
ATOM      3  C   UNL     1     -31.991  10.179 -37.724  1.00  0.00     0.161 A 
ATOM      4  C   UNL     1     -32.780  10.961 -38.589  1.00  0.00     0.200 A 
ATOM      5  C   UNL     1     -33.601  11.969 -38.062  1.00  0.00     0.161 A 
ATOM      6  C   UNL     1     -33.635  12.194 -36.679  1.00  0.00     0.050 A 
ENDROOT
BRANCH   3   7
ATOM      7  O   UNL     1     -31.173   9.175 -38.241  1.00  0.00    -0.504 OA
ATOM      8  H   UNL     1     -31.119   8.995 -39.237  1.00  0.00     0.293 HD
ENDBRANCH   3   7
BRANCH   5   9
ATOM      9  O   UNL     1     -34.380  12.742 -38.921  1.00  0.00    -0.504 OA
ATOM     10  H   UNL     1     -35.114  12.331 -39.485  1.00  0.00     0.293 HD
ENDBRANCH   5   9
BRANCH   4  11
ATOM     11  O   UNL     1     -32.757  10.750 -39.967  1.00  0.00    -0.502 OA
ATOM     12  H   UNL     1     -33.594  10.810 -40.535  1.00  0.00     0.293 HD
ENDBRANCH   4  11
TORSDOF 3
ENDMDL
MODEL 6
REMARK VINA RESULT:    -4.497      1.366      2.730
REMARK INTER + INTRA:          -4.891
REMARK INTER:                  -4.891
REMARK INTRA:                   0.000
REMARK UNBOUND:                 0.000
REMARK SMILES Oc1cccc(O)c1O
REMARK SMILES IDX 4 1 5 2 6 3 8 4 2 5 3 6 7 7 1 9 9 11
REMARK H PARENT 7 8 1 10 9 12
REMARK Flexibility Score: inf
ROOT
ATOM      1  C   UNL     1     -31.681   9.692 -37.239  1.00  0.00     0.008 A 
ATOM      2  C   UNL     1     -31.779   9.508 -35.858  1.00  0.00     0.050 A 
ATOM      3  C   UNL     1     -32.540  10.392 -35.080  1.00  0.00     0.161 A 
ATOM      4  C   UNL     1     -33.206  11.468 -35.695  1.00  0.00     0.200 A 
ATOM      5  C   UNL     1     -33.106  11.649 -37.082  1.00  0.00     0.161 A 
ATOM      6  C   UNL     1     -32.343  10.759 -37.851  1.00  0.00     0.050 A 
ENDROOT
BRANCH   3   7
ATOM      7  O   UNL     1     -32.635  10.208 -33.701  1.00  0.00    -0.504 OA
ATOM      8  H   UNL     1     -32.407  10.949 -33.049  1.00  0.00     0.293 HD
ENDBRANCH   3   7
BRANCH   5   9
ATOM      9  O   UNL     1     -33.769  12.715 -37.689  1.00  0.00    -0.504 OA
ATOM     10  H   UNL     1     -34.453  13.267 -37.187  1.00  0.00     0.293 HD
ENDBRANCH   5   9
BRANCH   4  11
ATOM     11  O   UNL     1     -33.970  12.362 -34.944  1.00  0.00    -0.502 OA
ATOM     12  H   UNL     1     -33.719  13.339 -34.851  1.00  0.00     0.293 HD
ENDBRANCH   4  11
TORSDOF 3
ENDMDL
MODEL 7
REMARK VINA RESULT:    -4.492      1.362      2.407
REMARK INTER + INTRA:          -4.886
REMARK INTER:                  -4.886
REMARK INTRA:                   0.000
REMARK UNBOUND:                 0.000
REMARK SMILES Oc1cccc(O)c1O
REMARK SMILES IDX 4 1 5 2 6 3 8 4 2 5 3 6 7 7 1 9 9 11
REMARK H PARENT 7 8 1 10 9 12
REMARK Flexibility Score: inf
ROOT
ATOM      1  C   UNL     1     -31.715   9.708 -37.212  1.00  0.00     0.008 A 
ATOM      2  C   UNL     1     -32.371  10.772 -37.836  1.00  0.00     0.050 A 
ATOM      3  C   UNL     1     -33.127  11.678 -37.078  1.00  0.00     0.161 A 
ATOM      4  C   UNL     1     -33.224  11.512 -35.683  1.00  0.00     0.200 A 
ATOM      5  C   UNL     1     -32.563  10.442 -35.061  1.00  0.00     0.161 A 
ATOM      6  C   UNL     1     -31.809   9.542 -35.828  1.00  0.00     0.050 A 
ENDROOT
BRANCH   3   7
ATOM      7  O   UNL     1     -33.782  12.739 -37.702  1.00  0.00    -0.504 OA
ATOM      8  H   UNL     1     -34.125  12.664 -38.652  1.00  0.00     0.293 HD
ENDBRANCH   3   7
BRANCH   5   9
ATOM      9  O   UNL     1     -32.660  10.281 -33.680  1.00  0.00    -0.504 OA
ATOM     10  H   UNL     1     -33.378  10.750 -33.141  1.00  0.00     0.293 HD
ENDBRANCH   5   9
BRANCH   4  11
ATOM     11  O   UNL     1     -33.969  12.398 -34.906  1.00  0.00    -0.502 OA
ATOM     12  H   UNL     1     -34.357  13.253 -35.287  1.00  0.00     0.293 HD
ENDBRANCH   4  11
TORSDOF 3
ENDMDL
MODEL 8
REMARK VINA RESULT:    -4.261      2.083      3.162
REMARK INTER + INTRA:          -4.635
REMARK INTER:                  -4.635
REMARK INTRA:                   0.000
REMARK UNBOUND:                 0.000
REMARK SMILES Oc1cccc(O)c1O
REMARK SMILES IDX 4 1 5 2 6 3 8 4 2 5 3 6 7 7 1 9 9 11
REMARK H PARENT 7 8 1 10 9 12
REMARK Flexibility Score: inf
ROOT
ATOM      1  C   UNL     1     -33.650   9.156 -38.196  1.00  0.00     0.008 A 
ATOM      2  C   UNL     1     -32.333   9.590 -38.365  1.00  0.00     0.050 A 
ATOM      3  C   UNL     1     -31.548   9.915 -37.250  1.00  0.00     0.161 A 
ATOM      4  C   UNL     1     -32.091   9.803 -35.956  1.00  0.00     0.200 A 
ATOM      5  C   UNL     1     -33.414   9.367 -35.791  1.00  0.00     0.161 A 
ATOM      6  C   UNL     1     -34.190   9.044 -36.912  1.00  0.00     0.050 A 
ENDROOT
BRANCH   3   7
ATOM      7  O   UNL     1     -30.234  10.349 -37.421  1.00  0.00    -0.504 OA
ATOM      8  H   UNL     1     -29.722  10.168 -38.277  1.00  0.00     0.293 HD
ENDBRANCH   3   7
BRANCH   5   9
ATOM      9  O   UNL     1     -33.948   9.256 -34.508  1.00  0.00    -0.504 OA
ATOM     10  H   UNL     1     -33.354   9.212 -33.689  1.00  0.00     0.293 HD
ENDBRANCH   5   9
BRANCH   4  11
ATOM     11  O   UNL     1     -31.331  10.120 -34.830  1.00  0.00    -0.502 OA
ATOM     12  H   UNL     1     -31.728  10.597 -34.029  1.00  0.00     0.293 HD
ENDBRANCH   4  11
TORSDOF 3
ENDMDL
