MODEL 1
REMARK VINA RESULT:    -2.519      0.000      0.000
REMARK INTER + INTRA:          -5.469
REMARK INTER:                  -4.433
REMARK INTRA:                  -1.036
REMARK UNBOUND:                -1.036
REMARK SMILES CCCCCCCCCCCCCCC(=O)[O-]
REMARK SMILES IDX 9 1 10 2 11 3 12 4 13 5 14 6 15 7 16 8 17 9 8 10 7 11 6 12
REMARK SMILES IDX 5 13 4 14 3 15 2 16 1 17
REMARK H PARENT
REMARK Flexibility Score: inf
ROOT
ATOM      1  C   UNL     1      -0.496   0.853  -0.664  1.00  0.00     0.000 C 
ENDROOT
BRANCH   1   2
ATOM      2  C   UNL     1      -1.574   0.615  -1.732  1.00  0.00     0.000 C 
BRANCH   2   3
ATOM      3  C   UNL     1      -1.935  -0.871  -1.887  1.00  0.00     0.000 C 
BRANCH   3   4
ATOM      4  C   UNL     1      -3.036  -1.319  -0.915  1.00  0.00     0.000 C 
BRANCH   4   5
ATOM      5  C   UNL     1      -3.463  -2.765  -1.196  1.00  0.00     0.006 C 
BRANCH   5   6
ATOM      6  C   UNL     1      -2.449  -3.759  -0.624  1.00  0.00     0.053 C 
BRANCH   6   7
ATOM      7  C   UNL     1      -3.031  -5.136  -0.584  1.00  0.00     0.041 C 
ATOM      8  O   UNL     1      -2.391  -6.109  -1.061  1.00  0.00    -0.550 OA
ATOM      9  O   UNL     1      -4.304  -5.339  -0.064  1.00  0.00    -0.550 OA
ENDBRANCH   6   7
ENDBRANCH   5   6
ENDBRANCH   4   5
ENDBRANCH   3   4
ENDBRANCH   2   3
ENDBRANCH   1   2
BRANCH   1  10
ATOM     10  C   UNL     1       0.429  -0.366  -0.536  1.00  0.00     0.000 C 
BRANCH  10  11
ATOM     11  C   UNL     1       1.556  -0.373  -1.583  1.00  0.00    -0.000 C 
BRANCH  11  12
ATOM     12  C   UNL     1       2.053   1.021  -2.015  1.00  0.00    -0.000 C 
BRANCH  12  13
ATOM     13  C   UNL     1       3.138   1.639  -1.111  1.00  0.00    -0.000 C 
BRANCH  13  14
ATOM     14  C   UNL     1       2.638   2.723  -0.139  1.00  0.00    -0.000 C 
BRANCH  14  15
ATOM     15  C   UNL     1       3.019   4.145  -0.585  1.00  0.00    -0.000 C 
BRANCH  15  16
ATOM     16  C   UNL     1       1.819   5.105  -0.574  1.00  0.00    -0.003 C 
ATOM     17  C   UNL     1       0.505   4.408  -0.224  1.00  0.00     0.004 C 
ENDBRANCH  15  16
ENDBRANCH  14  15
ENDBRANCH  13  14
ENDBRANCH  12  13
ENDBRANCH  11  12
ENDBRANCH  10  11
ENDBRANCH   1  10
TORSDOF 13
ENDMDL
MODEL 2
REMARK VINA RESULT:    -2.460      4.302      8.130
REMARK INTER + INTRA:          -5.366
REMARK INTER:                  -4.514
REMARK INTRA:                  -0.851
REMARK UNBOUND:                -1.036
REMARK SMILES CCCCCCCCCCCCCCC(=O)[O-]
REMARK SMILES IDX 9 1 10 2 11 3 12 4 13 5 14 6 15 7 16 8 17 9 8 10 7 11 6 12
REMARK SMILES IDX 5 13 4 14 3 15 2 16 1 17
REMARK H PARENT
REMARK Flexibility Score: inf
ROOT
ATOM      1  C   UNL     1       0.036   1.036  -0.597  1.00  0.00     0.000 C 
ENDROOT
BRANCH   1   2
ATOM      2  C   UNL     1       0.898   0.862  -1.857  1.00  0.00     0.000 C 
BRANCH   2   3
ATOM      3  C   UNL     1       2.280   0.262  -1.551  1.00  0.00     0.000 C 
BRANCH   3   4
ATOM      4  C   UNL     1       3.175   1.214  -0.744  1.00  0.00     0.000 C 
BRANCH   4   5
ATOM      5  C   UNL     1       3.038   2.656  -1.247  1.00  0.00     0.006 C 
BRANCH   5   6
ATOM      6  C   UNL     1       2.933   3.640  -0.079  1.00  0.00     0.053 C 
BRANCH   6   7
ATOM      7  C   UNL     1       2.151   4.850  -0.481  1.00  0.00     0.041 C 
ATOM      8  O   UNL     1       2.746   5.882  -0.887  1.00  0.00    -0.550 OA
ATOM      9  O   UNL     1       0.767   4.855  -0.360  1.00  0.00    -0.550 OA
ENDBRANCH   6   7
ENDBRANCH   5   6
ENDBRANCH   4   5
ENDBRANCH   3   4
ENDBRANCH   2   3
ENDBRANCH   1   2
BRANCH   1  10
ATOM     10  C   UNL     1      -0.341  -0.327   0.002  1.00  0.00     0.000 C 
BRANCH  10  11
ATOM     11  C   UNL     1      -0.717  -1.366  -1.069  1.00  0.00    -0.000 C 
BRANCH  11  12
ATOM     12  C   UNL     1      -2.064  -1.117  -1.775  1.00  0.00    -0.000 C 
BRANCH  12  13
ATOM     13  C   UNL     1      -3.254  -1.928  -1.224  1.00  0.00    -0.000 C 
BRANCH  13  14
ATOM     14  C   UNL     1      -2.882  -3.034  -0.220  1.00  0.00    -0.000 C 
BRANCH  14  15
ATOM     15  C   UNL     1      -3.295  -4.436  -0.698  1.00  0.00    -0.000 C 
BRANCH  15  16
ATOM     16  C   UNL     1      -2.105  -5.406  -0.770  1.00  0.00    -0.003 C 
ATOM     17  C   UNL     1      -0.774  -4.739  -0.425  1.00  0.00     0.004 C 
ENDBRANCH  15  16
ENDBRANCH  14  15
ENDBRANCH  13  14
ENDBRANCH  12  13
ENDBRANCH  11  12
ENDBRANCH  10  11
ENDBRANCH   1  10
TORSDOF 13
ENDMDL
MODEL 3
REMARK VINA RESULT:    -2.403      4.489      8.298
REMARK INTER + INTRA:          -5.266
REMARK INTER:                  -4.238
REMARK INTRA:                  -1.028
REMARK UNBOUND:                -1.036
REMARK SMILES CCCCCCCCCCCCCCC(=O)[O-]
REMARK SMILES IDX 9 1 10 2 11 3 12 4 13 5 14 6 15 7 16 8 17 9 8 10 7 11 6 12
REMARK SMILES IDX 5 13 4 14 3 15 2 16 1 17
REMARK H PARENT
REMARK Flexibility Score: inf
ROOT
ATOM      1  C   UNL     1       0.315  -0.787  -0.536  1.00  0.00     0.000 C 
ENDROOT
BRANCH   1   2
ATOM      2  C   UNL     1       1.227  -0.705  -1.770  1.00  0.00     0.000 C 
BRANCH   2   3
ATOM      3  C   UNL     1       1.865   0.682  -1.943  1.00  0.00     0.000 C 
BRANCH   3   4
ATOM      4  C   UNL     1       2.877   1.013  -0.836  1.00  0.00     0.000 C 
BRANCH   4   5
ATOM      5  C   UNL     1       3.359   2.465  -0.949  1.00  0.00     0.006 C 
BRANCH   5   6
ATOM      6  C   UNL     1       2.385   3.425  -0.261  1.00  0.00     0.053 C 
BRANCH   6   7
ATOM      7  C   UNL     1       2.860   4.837  -0.392  1.00  0.00     0.041 C 
ATOM      8  O   UNL     1       2.147   5.693  -0.977  1.00  0.00    -0.550 OA
ATOM      9  O   UNL     1       4.114   5.196   0.087  1.00  0.00    -0.550 OA
ENDBRANCH   6   7
ENDBRANCH   5   6
ENDBRANCH   4   5
ENDBRANCH   3   4
ENDBRANCH   2   3
ENDBRANCH   1   2
BRANCH   1  10
ATOM     10  C   UNL     1      -0.752   0.317  -0.570  1.00  0.00     0.000 C 
BRANCH  10  11
ATOM     11  C   UNL     1      -1.841   0.064  -1.627  1.00  0.00    -0.000 C 
BRANCH  11  12
ATOM     12  C   UNL     1      -2.097  -1.420  -1.957  1.00  0.00    -0.000 C 
BRANCH  12  13
ATOM     13  C   UNL     1      -3.292  -2.058  -1.222  1.00  0.00    -0.000 C 
BRANCH  13  14
ATOM     14  C   UNL     1      -2.921  -3.107  -0.158  1.00  0.00    -0.000 C 
BRANCH  14  15
ATOM     15  C   UNL     1      -3.170  -4.550  -0.632  1.00  0.00    -0.000 C 
BRANCH  15  16
ATOM     16  C   UNL     1      -1.869  -5.355  -0.772  1.00  0.00    -0.003 C 
ATOM     17  C   UNL     1      -0.630  -4.555  -0.372  1.00  0.00     0.004 C 
ENDBRANCH  15  16
ENDBRANCH  14  15
ENDBRANCH  13  14
ENDBRANCH  12  13
ENDBRANCH  11  12
ENDBRANCH  10  11
ENDBRANCH   1  10
TORSDOF 13
ENDMDL
MODEL 4
REMARK VINA RESULT:    -2.351      4.180      8.163
REMARK INTER + INTRA:          -5.173
REMARK INTER:                  -4.280
REMARK INTRA:                  -0.893
REMARK UNBOUND:                -1.036
REMARK SMILES CCCCCCCCCCCCCCC(=O)[O-]
REMARK SMILES IDX 9 1 10 2 11 3 12 4 13 5 14 6 15 7 16 8 17 9 8 10 7 11 6 12
REMARK SMILES IDX 5 13 4 14 3 15 2 16 1 17
REMARK H PARENT
REMARK Flexibility Score: inf
ROOT
ATOM      1  C   UNL     1       0.148  -0.638  -0.400  1.00  0.00     0.000 C 
ENDROOT
BRANCH   1   2
ATOM      2  C   UNL     1       1.218  -0.812  -1.489  1.00  0.00     0.000 C 
BRANCH   2   3
ATOM      3  C   UNL     1       1.814   0.527  -1.952  1.00  0.00     0.000 C 
BRANCH   3   4
ATOM      4  C   UNL     1       2.682   1.194  -0.876  1.00  0.00     0.000 C 
BRANCH   4   5
ATOM      5  C   UNL     1       3.090   2.611  -1.300  1.00  0.00     0.006 C 
BRANCH   5   6
ATOM      6  C   UNL     1       2.996   3.586  -0.123  1.00  0.00     0.053 C 
BRANCH   6   7
ATOM      7  C   UNL     1       2.076   4.718  -0.453  1.00  0.00     0.041 C 
ATOM      8  O   UNL     1       2.540   5.807  -0.880  1.00  0.00    -0.550 OA
ATOM      9  O   UNL     1       0.709   4.587  -0.243  1.00  0.00    -0.550 OA
ENDBRANCH   6   7
ENDBRANCH   5   6
ENDBRANCH   4   5
ENDBRANCH   3   4
ENDBRANCH   2   3
ENDBRANCH   1   2
BRANCH   1  10
ATOM     10  C   UNL     1      -0.796   0.524  -0.739  1.00  0.00     0.000 C 
BRANCH  10  11
ATOM     11  C   UNL     1      -1.796   0.174  -1.856  1.00  0.00    -0.000 C 
BRANCH  11  12
ATOM     12  C   UNL     1      -2.218  -1.308  -1.912  1.00  0.00    -0.000 C 
BRANCH  12  13
ATOM     13  C   UNL     1      -3.310  -1.719  -0.905  1.00  0.00    -0.000 C 
BRANCH  13  14
ATOM     14  C   UNL     1      -3.333  -3.214  -0.540  1.00  0.00    -0.000 C 
BRANCH  14  15
ATOM     15  C   UNL     1      -1.933  -3.851  -0.546  1.00  0.00    -0.000 C 
BRANCH  15  16
ATOM     16  C   UNL     1      -1.971  -5.351  -0.875  1.00  0.00    -0.003 C 
ATOM     17  C   UNL     1      -3.380  -5.939  -0.801  1.00  0.00     0.004 C 
ENDBRANCH  15  16
ENDBRANCH  14  15
ENDBRANCH  13  14
ENDBRANCH  12  13
ENDBRANCH  11  12
ENDBRANCH  10  11
ENDBRANCH   1  10
TORSDOF 13
ENDMDL
MODEL 5
REMARK VINA RESULT:    -1.073      1.044      2.375
REMARK INTER + INTRA:          -2.925
REMARK INTER:                  -2.089
REMARK INTRA:                  -0.836
REMARK UNBOUND:                -1.036
REMARK SMILES CCCCCCCCCCCCCCC(=O)[O-]
REMARK SMILES IDX 9 1 10 2 11 3 12 4 13 5 14 6 15 7 16 8 17 9 8 10 7 11 6 12
REMARK SMILES IDX 5 13 4 14 3 15 2 16 1 17
REMARK H PARENT
REMARK Flexibility Score: inf
ROOT
ATOM      1  C   UNL     1       0.306  -0.244  -1.174  1.00  0.00     0.000 C 
ENDROOT
BRANCH   1   2
ATOM      2  C   UNL     1      -0.642  -1.443  -1.324  1.00  0.00     0.000 C 
BRANCH   2   3
ATOM      3  C   UNL     1      -2.019  -1.043  -1.877  1.00  0.00     0.000 C 
BRANCH   3   4
ATOM      4  C   UNL     1      -3.170  -1.419  -0.933  1.00  0.00     0.000 C 
BRANCH   4   5
ATOM      5  C   UNL     1      -2.825  -2.670  -0.116  1.00  0.00     0.006 C 
BRANCH   5   6
ATOM      6  C   UNL     1      -3.460  -3.921  -0.729  1.00  0.00     0.053 C 
BRANCH   6   7
ATOM      7  C   UNL     1      -2.480  -5.050  -0.749  1.00  0.00     0.041 C 
ATOM      8  O   UNL     1      -2.856  -6.210  -1.059  1.00  0.00    -0.550 OA
ATOM      9  O   UNL     1      -1.159  -4.832  -0.377  1.00  0.00    -0.550 OA
ENDBRANCH   6   7
ENDBRANCH   5   6
ENDBRANCH   4   5
ENDBRANCH   3   4
ENDBRANCH   2   3
ENDBRANCH   1   2
BRANCH   1  10
ATOM     10  C   UNL     1      -0.213   0.737  -0.113  1.00  0.00     0.000 C 
BRANCH  10  11
ATOM     11  C   UNL     1      -0.303   2.184  -0.630  1.00  0.00    -0.000 C 
BRANCH  11  12
ATOM     12  C   UNL     1       0.316   3.247   0.299  1.00  0.00    -0.000 C 
BRANCH  12  13
ATOM     13  C   UNL     1       0.637   4.597  -0.372  1.00  0.00    -0.000 C 
BRANCH  13  14
ATOM     14  C   UNL     1       2.125   4.833  -0.686  1.00  0.00    -0.000 C 
BRANCH  14  15
ATOM     15  C   UNL     1       3.020   3.659  -0.250  1.00  0.00    -0.000 C 
BRANCH  15  16
ATOM     16  C   UNL     1       3.028   2.515  -1.276  1.00  0.00    -0.003 C 
ATOM     17  C   UNL     1       3.458   1.179  -0.672  1.00  0.00     0.004 C 
ENDBRANCH  15  16
ENDBRANCH  14  15
ENDBRANCH  13  14
ENDBRANCH  12  13
ENDBRANCH  11  12
ENDBRANCH  10  11
ENDBRANCH   1  10
TORSDOF 13
ENDMDL
MODEL 6
REMARK VINA RESULT:    -0.820      1.719      2.374
REMARK INTER + INTRA:          -2.479
REMARK INTER:                  -1.379
REMARK INTRA:                  -1.100
REMARK UNBOUND:                -1.036
REMARK SMILES CCCCCCCCCCCCCCC(=O)[O-]
REMARK SMILES IDX 9 1 10 2 11 3 12 4 13 5 14 6 15 7 16 8 17 9 8 10 7 11 6 12
REMARK SMILES IDX 5 13 4 14 3 15 2 16 1 17
REMARK H PARENT
REMARK Flexibility Score: inf
ROOT
ATOM      1  C   UNL     1      -0.218  -1.327  -0.327  1.00  0.00     0.000 C 
ENDROOT
BRANCH   1   2
ATOM      2  C   UNL     1       0.210  -2.382  -1.360  1.00  0.00     0.000 C 
BRANCH   2   3
ATOM      3  C   UNL     1       0.269  -3.799  -0.768  1.00  0.00     0.000 C 
BRANCH   3   4
ATOM      4  C   UNL     1      -0.963  -4.140   0.081  1.00  0.00     0.000 C 
BRANCH   4   5
ATOM      5  C   UNL     1      -2.037  -4.838  -0.762  1.00  0.00     0.006 C 
BRANCH   5   6
ATOM      6  C   UNL     1      -3.410  -4.193  -0.550  1.00  0.00     0.053 C 
BRANCH   6   7
ATOM      7  C   UNL     1      -3.404  -2.778  -1.033  1.00  0.00     0.041 C 
ATOM      8  O   UNL     1      -3.038  -2.510  -2.206  1.00  0.00    -0.550 OA
ATOM      9  O   UNL     1      -3.757  -1.747  -0.170  1.00  0.00    -0.550 OA
ENDBRANCH   6   7
ENDBRANCH   5   6
ENDBRANCH   4   5
ENDBRANCH   3   4
ENDBRANCH   2   3
ENDBRANCH   1   2
BRANCH   1  10
ATOM     10  C   UNL     1      -0.823  -0.097  -1.018  1.00  0.00     0.000 C 
BRANCH  10  11
ATOM     11  C   UNL     1       0.118   1.121  -1.002  1.00  0.00    -0.000 C 
BRANCH  11  12
ATOM     12  C   UNL     1       1.538   0.855  -1.540  1.00  0.00    -0.000 C 
BRANCH  12  13
ATOM     13  C   UNL     1       2.683   1.428  -0.682  1.00  0.00    -0.000 C 
BRANCH  13  14
ATOM     14  C   UNL     1       3.260   2.767  -1.174  1.00  0.00    -0.000 C 
BRANCH  14  15
ATOM     15  C   UNL     1       2.986   3.928  -0.202  1.00  0.00    -0.000 C 
BRANCH  15  16
ATOM     16  C   UNL     1       1.857   4.848  -0.690  1.00  0.00    -0.003 C 
ATOM     17  C   UNL     1       0.495   4.480  -0.104  1.00  0.00     0.004 C 
ENDBRANCH  15  16
ENDBRANCH  14  15
ENDBRANCH  13  14
ENDBRANCH  12  13
ENDBRANCH  11  12
ENDBRANCH  10  11
ENDBRANCH   1  10
TORSDOF 13
ENDMDL
MODEL 7
REMARK VINA RESULT:    -0.758      1.103      2.151
REMARK INTER + INTRA:          -2.370
REMARK INTER:                  -1.729
REMARK INTRA:                  -0.641
REMARK UNBOUND:                -1.036
REMARK SMILES CCCCCCCCCCCCCCC(=O)[O-]
REMARK SMILES IDX 9 1 10 2 11 3 12 4 13 5 14 6 15 7 16 8 17 9 8 10 7 11 6 12
REMARK SMILES IDX 5 13 4 14 3 15 2 16 1 17
REMARK H PARENT
REMARK Flexibility Score: inf
ROOT
ATOM      1  C   UNL     1      -1.524  -0.710  -2.176  1.00  0.00     0.000 C 
ENDROOT
BRANCH   1   2
ATOM      2  C   UNL     1      -2.112  -1.776  -1.240  1.00  0.00     0.000 C 
BRANCH   2   3
ATOM      3  C   UNL     1      -1.076  -2.331  -0.249  1.00  0.00     0.000 C 
BRANCH   3   4
ATOM      4  C   UNL     1      -0.371  -3.591  -0.771  1.00  0.00     0.000 C 
BRANCH   4   5
ATOM      5  C   UNL     1      -0.996  -4.858  -0.174  1.00  0.00     0.006 C 
BRANCH   5   6
ATOM      6  C   UNL     1      -2.067  -5.434  -1.103  1.00  0.00     0.053 C 
BRANCH   6   7
ATOM      7  C   UNL     1      -3.407  -5.404  -0.440  1.00  0.00     0.041 C 
ATOM      8  O   UNL     1      -4.180  -6.394  -0.527  1.00  0.00    -0.550 OA
ATOM      9  O   UNL     1      -3.825  -4.263   0.233  1.00  0.00    -0.550 OA
ENDBRANCH   6   7
ENDBRANCH   5   6
ENDBRANCH   4   5
ENDBRANCH   3   4
ENDBRANCH   2   3
ENDBRANCH   1   2
BRANCH   1  10
ATOM     10  C   UNL     1      -1.612   0.686  -1.543  1.00  0.00     0.000 C 
BRANCH  10  11
ATOM     11  C   UNL     1      -0.335   1.075  -0.777  1.00  0.00    -0.000 C 
BRANCH  11  12
ATOM     12  C   UNL     1       0.829   0.071  -0.896  1.00  0.00    -0.000 C 
BRANCH  12  13
ATOM     13  C   UNL     1       1.975   0.502  -1.833  1.00  0.00    -0.000 C 
BRANCH  13  14
ATOM     14  C   UNL     1       2.256   2.015  -1.868  1.00  0.00    -0.000 C 
BRANCH  14  15
ATOM     15  C   UNL     1       2.983   2.515  -0.608  1.00  0.00    -0.000 C 
BRANCH  15  16
ATOM     16  C   UNL     1       2.855   4.035  -0.422  1.00  0.00    -0.003 C 
ATOM     17  C   UNL     1       1.405   4.516  -0.438  1.00  0.00     0.004 C 
ENDBRANCH  15  16
ENDBRANCH  14  15
ENDBRANCH  13  14
ENDBRANCH  12  13
ENDBRANCH  11  12
ENDBRANCH  10  11
ENDBRANCH   1  10
TORSDOF 13
ENDMDL
MODEL 8
REMARK VINA RESULT:    -0.466      3.555      7.863
REMARK INTER + INTRA:          -1.856
REMARK INTER:                  -1.346
REMARK INTRA:                  -0.509
REMARK UNBOUND:                -1.036
REMARK SMILES CCCCCCCCCCCCCCC(=O)[O-]
REMARK SMILES IDX 9 1 10 2 11 3 12 4 13 5 14 6 15 7 16 8 17 9 8 10 7 11 6 12
REMARK SMILES IDX 5 13 4 14 3 15 2 16 1 17
REMARK H PARENT
REMARK Flexibility Score: inf
ROOT
ATOM      1  C   UNL     1       0.433   0.278  -0.891  1.00  0.00     0.000 C 
ENDROOT
BRANCH   1   2
ATOM      2  C   UNL     1      -0.351   1.594  -1.002  1.00  0.00     0.000 C 
BRANCH   2   3
ATOM      3  C   UNL     1      -0.034   2.571   0.141  1.00  0.00     0.000 C 
BRANCH   3   4
ATOM      4  C   UNL     1       0.555   3.898  -0.358  1.00  0.00     0.000 C 
BRANCH   4   5
ATOM      5  C   UNL     1       1.963   4.122   0.207  1.00  0.00     0.006 C 
BRANCH   5   6
ATOM      6  C   UNL     1       3.033   3.839  -0.851  1.00  0.00     0.053 C 
BRANCH   6   7
ATOM      7  C   UNL     1       3.135   2.370  -1.112  1.00  0.00     0.041 C 
ATOM      8  O   UNL     1       2.825   1.905  -2.240  1.00  0.00    -0.550 OA
ATOM      9  O   UNL     1       3.526   1.508  -0.096  1.00  0.00    -0.550 OA
ENDBRANCH   6   7
ENDBRANCH   5   6
ENDBRANCH   4   5
ENDBRANCH   3   4
ENDBRANCH   2   3
ENDBRANCH   1   2
BRANCH   1  10
ATOM     10  C   UNL     1      -0.519  -0.925  -0.833  1.00  0.00     0.000 C 
BRANCH  10  11
ATOM     11  C   UNL     1      -1.780  -0.730  -1.693  1.00  0.00    -0.000 C 
BRANCH  11  12
ATOM     12  C   UNL     1      -3.072  -1.326  -1.099  1.00  0.00    -0.000 C 
BRANCH  12  13
ATOM     13  C   UNL     1      -3.325  -2.809  -1.433  1.00  0.00    -0.000 C 
BRANCH  13  14
ATOM     14  C   UNL     1      -3.296  -3.765  -0.226  1.00  0.00    -0.000 C 
BRANCH  14  15
ATOM     15  C   UNL     1      -3.197  -5.243  -0.640  1.00  0.00    -0.000 C 
BRANCH  15  16
ATOM     16  C   UNL     1      -1.744  -5.697  -0.850  1.00  0.00    -0.003 C 
ATOM     17  C   UNL     1      -0.724  -4.675  -0.350  1.00  0.00     0.004 C 
ENDBRANCH  15  16
ENDBRANCH  14  15
ENDBRANCH  13  14
ENDBRANCH  12  13
ENDBRANCH  11  12
ENDBRANCH  10  11
ENDBRANCH   1  10
TORSDOF 13
ENDMDL
MODEL 9
REMARK VINA RESULT:     0.125      2.848      7.148
REMARK INTER + INTRA:          -0.817
REMARK INTER:                  -0.541
REMARK INTRA:                  -0.276
REMARK UNBOUND:                -1.036
REMARK SMILES CCCCCCCCCCCCCCC(=O)[O-]
REMARK SMILES IDX 9 1 10 2 11 3 12 4 13 5 14 6 15 7 16 8 17 9 8 10 7 11 6 12
REMARK SMILES IDX 5 13 4 14 3 15 2 16 1 17
REMARK H PARENT
REMARK Flexibility Score: inf
ROOT
ATOM      1  C   UNL     1       0.005   2.466   0.133  1.00  0.00     0.000 C 
ENDROOT
BRANCH   1   2
ATOM      2  C   UNL     1       0.238   3.696  -0.757  1.00  0.00     0.000 C 
BRANCH   2   3
ATOM      3  C   UNL     1       1.360   4.605  -0.230  1.00  0.00     0.000 C 
BRANCH   3   4
ATOM      4  C   UNL     1       2.679   3.852  -0.007  1.00  0.00     0.000 C 
BRANCH   4   5
ATOM      5  C   UNL     1       2.995   2.934  -1.194  1.00  0.00     0.006 C 
BRANCH   5   6
ATOM      6  C   UNL     1       3.100   1.473  -0.748  1.00  0.00     0.053 C 
BRANCH   6   7
ATOM      7  C   UNL     1       2.378   0.579  -1.705  1.00  0.00     0.041 C 
ATOM      8  O   UNL     1       1.840   1.060  -2.736  1.00  0.00    -0.550 OA
ATOM      9  O   UNL     1       2.256  -0.778  -1.434  1.00  0.00    -0.550 OA
ENDBRANCH   6   7
ENDBRANCH   5   6
ENDBRANCH   4   5
ENDBRANCH   3   4
ENDBRANCH   2   3
ENDBRANCH   1   2
BRANCH   1  10
ATOM     10  C   UNL     1      -0.761   1.375  -0.628  1.00  0.00     0.000 C 
BRANCH  10  11
ATOM     11  C   UNL     1      -0.476  -0.040  -0.092  1.00  0.00    -0.000 C 
BRANCH  11  12
ATOM     12  C   UNL     1      -0.849  -1.188  -1.050  1.00  0.00    -0.000 C 
BRANCH  12  13
ATOM     13  C   UNL     1      -2.207  -1.032  -1.763  1.00  0.00    -0.000 C 
BRANCH  13  14
ATOM     14  C   UNL     1      -3.107  -2.280  -1.734  1.00  0.00    -0.000 C 
BRANCH  14  15
ATOM     15  C   UNL     1      -2.991  -3.068  -0.418  1.00  0.00    -0.000 C 
BRANCH  15  16
ATOM     16  C   UNL     1      -2.718  -4.563  -0.650  1.00  0.00    -0.003 C 
ATOM     17  C   UNL     1      -1.240  -4.925  -0.512  1.00  0.00     0.004 C 
ENDBRANCH  15  16
ENDBRANCH  14  15
ENDBRANCH  13  14
ENDBRANCH  12  13
ENDBRANCH  11  12
ENDBRANCH  10  11
ENDBRANCH   1  10
TORSDOF 13
ENDMDL
