MODEL 1
REMARK VINA RESULT:    -2.676      0.000      0.000
REMARK INTER + INTRA:          -2.676
REMARK INTER:                  -2.676
REMARK INTRA:                   0.000
REMARK UNBOUND:                 0.000
REMARK SMILES O=C1CCCCC1
REMARK SMILES IDX 5 1 4 2 3 3 2 4 1 5 7 6 6 7
REMARK H PARENT
REMARK Flexibility Score: inf
ROOT
ATOM      1  C   UNL     1     162.183 171.683 170.640  1.00  0.00     0.001 C 
ATOM      2  C   UNL     1     161.119 170.714 171.179  1.00  0.00     0.008 C 
ATOM      3  C   UNL     1     159.700 171.218 170.884  1.00  0.00     0.075 C 
ATOM      4  C   UNL     1     159.565 171.577 169.429  1.00  0.00     0.132 C 
ATOM      5  O   UNL     1     158.568 171.250 168.805  1.00  0.00    -0.300 OA
ATOM      6  C   UNL     1     160.626 172.421 168.779  1.00  0.00     0.075 C 
ATOM      7  C   UNL     1     162.022 171.887 169.127  1.00  0.00     0.008 C 
ENDROOT
TORSDOF 0
ENDMDL
MODEL 2
REMARK VINA RESULT:    -2.671     14.882     15.627
REMARK INTER + INTRA:          -2.671
REMARK INTER:                  -2.671
REMARK INTRA:                   0.000
REMARK UNBOUND:                 0.000
REMARK SMILES O=C1CCCCC1
REMARK SMILES IDX 5 1 4 2 3 3 2 4 1 5 7 6 6 7
REMARK H PARENT
REMARK Flexibility Score: inf
ROOT
ATOM      1  C   UNL     1     168.631 159.584 170.477  1.00  0.00     0.001 C 
ATOM      2  C   UNL     1     169.561 160.595 171.165  1.00  0.00     0.008 C 
ATOM      3  C   UNL     1     171.014 160.104 171.175  1.00  0.00     0.075 C 
ATOM      4  C   UNL     1     171.433 159.682 169.794  1.00  0.00     0.132 C 
ATOM      5  O   UNL     1     172.530 159.997 169.360  1.00  0.00    -0.300 OA
ATOM      6  C   UNL     1     170.527 158.790 168.991  1.00  0.00     0.075 C 
ATOM      7  C   UNL     1     169.085 159.315 169.036  1.00  0.00     0.008 C 
ENDROOT
TORSDOF 0
ENDMDL
MODEL 3
REMARK VINA RESULT:    -2.634     15.759     16.475
REMARK INTER + INTRA:          -2.634
REMARK INTER:                  -2.634
REMARK INTRA:                   0.000
REMARK UNBOUND:                 0.000
REMARK SMILES O=C1CCCCC1
REMARK SMILES IDX 5 1 4 2 3 3 2 4 1 5 7 6 6 7
REMARK H PARENT
REMARK Flexibility Score: inf
ROOT
ATOM      1  C   UNL     1     169.258 158.211 169.821  1.00  0.00     0.001 C 
ATOM      2  C   UNL     1     169.537 159.704 170.051  1.00  0.00     0.008 C 
ATOM      3  C   UNL     1     171.040 159.979 170.191  1.00  0.00     0.075 C 
ATOM      4  C   UNL     1     171.794 159.352 169.051  1.00  0.00     0.132 C 
ATOM      5  O   UNL     1     172.688 159.968 168.491  1.00  0.00    -0.300 OA
ATOM      6  C   UNL     1     171.500 157.928 168.669  1.00  0.00     0.075 C 
ATOM      7  C   UNL     1     169.985 157.704 168.568  1.00  0.00     0.008 C 
ENDROOT
TORSDOF 0
ENDMDL
MODEL 4
REMARK VINA RESULT:    -2.618      3.213      4.150
REMARK INTER + INTRA:          -2.618
REMARK INTER:                  -2.618
REMARK INTRA:                   0.000
REMARK UNBOUND:                 0.000
REMARK SMILES O=C1CCCCC1
REMARK SMILES IDX 5 1 4 2 3 3 2 4 1 5 7 6 6 7
REMARK H PARENT
REMARK Flexibility Score: inf
ROOT
ATOM      1  C   UNL     1     161.856 172.588 169.366  1.00  0.00     0.001 C 
ATOM      2  C   UNL     1     163.165 171.930 168.904  1.00  0.00     0.008 C 
ATOM      3  C   UNL     1     163.406 172.152 167.405  1.00  0.00     0.075 C 
ATOM      4  C   UNL     1     163.264 173.610 167.063  1.00  0.00     0.132 C 
ATOM      5  O   UNL     1     164.064 174.148 166.315  1.00  0.00    -0.300 OA
ATOM      6  C   UNL     1     162.074 174.373 167.577  1.00  0.00     0.075 C 
ATOM      7  C   UNL     1     161.866 174.095 169.072  1.00  0.00     0.008 C 
ENDROOT
TORSDOF 0
ENDMDL
MODEL 5
REMARK VINA RESULT:    -2.615      7.835      8.652
REMARK INTER + INTRA:          -2.615
REMARK INTER:                  -2.615
REMARK INTRA:                   0.000
REMARK UNBOUND:                 0.000
REMARK SMILES O=C1CCCCC1
REMARK SMILES IDX 5 1 4 2 3 3 2 4 1 5 7 6 6 7
REMARK H PARENT
REMARK Flexibility Score: inf
ROOT
ATOM      1  C   UNL     1     164.636 166.008 168.277  1.00  0.00     0.001 C 
ATOM      2  C   UNL     1     166.064 165.481 168.067  1.00  0.00     0.008 C 
ATOM      3  C   UNL     1     166.868 165.505 169.373  1.00  0.00     0.075 C 
ATOM      4  C   UNL     1     166.093 164.839 170.477  1.00  0.00     0.132 C 
ATOM      5  O   UNL     1     166.651 164.071 171.245  1.00  0.00    -0.300 OA
ATOM      6  C   UNL     1     164.647 165.200 170.681  1.00  0.00     0.075 C 
ATOM      7  C   UNL     1     163.898 165.184 169.341  1.00  0.00     0.008 C 
ENDROOT
TORSDOF 0
ENDMDL
MODEL 6
REMARK VINA RESULT:    -2.608     15.283     15.905
REMARK INTER + INTRA:          -2.608
REMARK INTER:                  -2.608
REMARK INTRA:                   0.000
REMARK UNBOUND:                 0.000
REMARK SMILES O=C1CCCCC1
REMARK SMILES IDX 5 1 4 2 3 3 2 4 1 5 7 6 6 7
REMARK H PARENT
REMARK Flexibility Score: inf
ROOT
ATOM      1  C   UNL     1     169.240 158.590 169.454  1.00  0.00     0.001 C 
ATOM      2  C   UNL     1     167.937 159.239 168.963  1.00  0.00     0.008 C 
ATOM      3  C   UNL     1     167.739 159.029 167.456  1.00  0.00     0.075 C 
ATOM      4  C   UNL     1     167.907 157.577 167.104  1.00  0.00     0.132 C 
ATOM      5  O   UNL     1     167.133 157.039 166.328  1.00  0.00    -0.300 OA
ATOM      6  C   UNL     1     169.091 156.822 167.642  1.00  0.00     0.075 C 
ATOM      7  C   UNL     1     169.254 157.087 169.145  1.00  0.00     0.008 C 
ENDROOT
TORSDOF 0
ENDMDL
MODEL 7
REMARK VINA RESULT:    -2.606      1.030      1.349
REMARK INTER + INTRA:          -2.606
REMARK INTER:                  -2.606
REMARK INTRA:                   0.000
REMARK UNBOUND:                 0.000
REMARK SMILES O=C1CCCCC1
REMARK SMILES IDX 5 1 4 2 3 3 2 4 1 5 7 6 6 7
REMARK H PARENT
REMARK Flexibility Score: inf
ROOT
ATOM      1  C   UNL     1     161.914 173.116 169.784  1.00  0.00     0.001 C 
ATOM      2  C   UNL     1     161.719 171.602 169.955  1.00  0.00     0.008 C 
ATOM      3  C   UNL     1     160.240 171.245 170.150  1.00  0.00     0.075 C 
ATOM      4  C   UNL     1     159.402 171.884 169.078  1.00  0.00     0.132 C 
ATOM      5  O   UNL     1     158.513 171.249 168.531  1.00  0.00    -0.300 OA
ATOM      6  C   UNL     1     159.608 173.337 168.751  1.00  0.00     0.075 C 
ATOM      7  C   UNL     1     161.104 173.641 168.590  1.00  0.00     0.008 C 
ENDROOT
TORSDOF 0
ENDMDL
MODEL 8
REMARK VINA RESULT:    -2.601      7.159      7.857
REMARK INTER + INTRA:          -2.601
REMARK INTER:                  -2.601
REMARK INTRA:                   0.000
REMARK UNBOUND:                 0.000
REMARK SMILES O=C1CCCCC1
REMARK SMILES IDX 5 1 4 2 3 3 2 4 1 5 7 6 6 7
REMARK H PARENT
REMARK Flexibility Score: inf
ROOT
ATOM      1  C   UNL     1     166.395 165.266 168.246  1.00  0.00     0.001 C 
ATOM      2  C   UNL     1     164.977 165.858 168.235  1.00  0.00     0.008 C 
ATOM      3  C   UNL     1     164.346 165.828 169.633  1.00  0.00     0.075 C 
ATOM      4  C   UNL     1     165.285 166.428 170.643  1.00  0.00     0.132 C 
ATOM      5  O   UNL     1     164.864 167.195 171.496  1.00  0.00    -0.300 OA
ATOM      6  C   UNL     1     166.727 166.002 170.650  1.00  0.00     0.075 C 
ATOM      7  C   UNL     1     167.299 166.027 169.226  1.00  0.00     0.008 C 
ENDROOT
TORSDOF 0
ENDMDL
MODEL 9
REMARK VINA RESULT:    -2.592      2.754      3.544
REMARK INTER + INTRA:          -2.592
REMARK INTER:                  -2.592
REMARK INTRA:                   0.000
REMARK UNBOUND:                 0.000
REMARK SMILES O=C1CCCCC1
REMARK SMILES IDX 5 1 4 2 3 3 2 4 1 5 7 6 6 7
REMARK H PARENT
REMARK Flexibility Score: inf
ROOT
ATOM      1  C   UNL     1     162.951 171.870 168.908  1.00  0.00     0.001 C 
ATOM      2  C   UNL     1     161.522 172.412 169.073  1.00  0.00     0.008 C 
ATOM      3  C   UNL     1     161.456 173.916 168.780  1.00  0.00     0.075 C 
ATOM      4  C   UNL     1     162.111 174.223 167.462  1.00  0.00     0.132 C 
ATOM      5  O   UNL     1     161.588 175.001 166.680  1.00  0.00    -0.300 OA
ATOM      6  C   UNL     1     163.461 173.633 167.157  1.00  0.00     0.075 C 
ATOM      7  C   UNL     1     163.477 172.135 167.490  1.00  0.00     0.008 C 
ENDROOT
TORSDOF 0
ENDMDL
