MODEL 1
REMARK VINA RESULT:    -4.324      0.000      0.000
REMARK INTER + INTRA:          -4.599
REMARK INTER:                  -4.577
REMARK INTRA:                  -0.022
REMARK UNBOUND:                -0.022
REMARK SMILES O=C([O-])c1cccnc1
REMARK SMILES IDX 4 1 5 2 9 3 6 4 8 5 7 6 2 7 1 8 3 9
REMARK H PARENT
REMARK Flexibility Score: inf
ROOT
ATOM      1  C   UNL     1      35.122 106.311 266.117  1.00  0.00     0.016 A 
ATOM      2  C   UNL     1      35.231 107.511 266.837  1.00  0.00     0.013 A 
ATOM      3  C   UNL     1      34.941 105.115 266.833  1.00  0.00     0.120 A 
ATOM      4  C   UNL     1      35.160 107.501 268.232  1.00  0.00     0.021 A 
ATOM      5  N   UNL     1      34.875 105.133 268.192  1.00  0.00    -0.264 NA
ATOM      6  C   UNL     1      34.979 106.289 268.899  1.00  0.00     0.111 A 
ENDROOT
BRANCH   1   7
ATOM      7  C   UNL     1      35.196 106.310 264.640  1.00  0.00     0.073 C 
ATOM      8  O   UNL     1      34.875 107.335 263.982  1.00  0.00    -0.545 OA
ATOM      9  O   UNL     1      35.624 105.178 263.957  1.00  0.00    -0.545 OA
ENDBRANCH   1   7
TORSDOF 1
ENDMDL
MODEL 2
REMARK VINA RESULT:    -4.300      1.445      2.003
REMARK INTER + INTRA:          -4.574
REMARK INTER:                  -4.550
REMARK INTRA:                  -0.023
REMARK UNBOUND:                -0.022
REMARK SMILES O=C([O-])c1cccnc1
REMARK SMILES IDX 4 1 5 2 9 3 6 4 8 5 7 6 2 7 1 8 3 9
REMARK H PARENT
REMARK Flexibility Score: inf
ROOT
ATOM      1  C   UNL     1      35.304 106.299 265.050  1.00  0.00     0.016 A 
ATOM      2  C   UNL     1      35.091 105.266 265.977  1.00  0.00     0.013 A 
ATOM      3  C   UNL     1      35.296 107.626 265.513  1.00  0.00     0.120 A 
ATOM      4  C   UNL     1      34.878 105.566 267.324  1.00  0.00     0.021 A 
ATOM      5  N   UNL     1      35.086 107.890 266.830  1.00  0.00    -0.264 NA
ATOM      6  C   UNL     1      34.879 106.899 267.737  1.00  0.00     0.111 A 
ENDROOT
BRANCH   1   7
ATOM      7  C   UNL     1      35.530 105.992 263.620  1.00  0.00     0.073 C 
ATOM      8  O   UNL     1      35.992 106.870 262.843  1.00  0.00    -0.545 OA
ATOM      9  O   UNL     1      35.238 104.731 263.116  1.00  0.00    -0.545 OA
ENDBRANCH   1   7
TORSDOF 1
ENDMDL
MODEL 3
REMARK VINA RESULT:    -4.214      4.120      5.956
REMARK INTER + INTRA:          -4.483
REMARK INTER:                  -4.467
REMARK INTRA:                  -0.017
REMARK UNBOUND:                -0.022
REMARK SMILES O=C([O-])c1cccnc1
REMARK SMILES IDX 4 1 5 2 9 3 6 4 8 5 7 6 2 7 1 8 3 9
REMARK H PARENT
REMARK Flexibility Score: inf
ROOT
ATOM      1  C   UNL     1      36.615 106.199 262.376  1.00  0.00     0.016 A 
ATOM      2  C   UNL     1      36.300 105.519 261.188  1.00  0.00     0.013 A 
ATOM      3  C   UNL     1      37.864 106.838 262.470  1.00  0.00     0.120 A 
ATOM      4  C   UNL     1      37.216 105.487 260.135  1.00  0.00     0.021 A 
ATOM      5  N   UNL     1      38.737 106.792 261.428  1.00  0.00    -0.264 NA
ATOM      6  C   UNL     1      38.443 106.137 260.274  1.00  0.00     0.111 A 
ENDROOT
BRANCH   1   7
ATOM      7  C   UNL     1      35.653 106.239 263.498  1.00  0.00     0.073 C 
ATOM      8  O   UNL     1      35.479 105.227 264.229  1.00  0.00    -0.545 OA
ATOM      9  O   UNL     1      34.928 107.394 263.764  1.00  0.00    -0.545 OA
ENDBRANCH   1   7
TORSDOF 1
ENDMDL
MODEL 4
REMARK VINA RESULT:    -4.084      4.091      5.266
REMARK INTER + INTRA:          -4.345
REMARK INTER:                  -4.329
REMARK INTRA:                  -0.016
REMARK UNBOUND:                -0.022
REMARK SMILES O=C([O-])c1cccnc1
REMARK SMILES IDX 4 1 5 2 9 3 6 4 8 5 7 6 2 7 1 8 3 9
REMARK H PARENT
REMARK Flexibility Score: inf
ROOT
ATOM      1  C   UNL     1      36.732 106.053 261.541  1.00  0.00     0.016 A 
ATOM      2  C   UNL     1      35.909 104.918 261.602  1.00  0.00     0.013 A 
ATOM      3  C   UNL     1      36.924 106.804 262.714  1.00  0.00     0.120 A 
ATOM      4  C   UNL     1      35.303 104.555 262.807  1.00  0.00     0.021 A 
ATOM      5  N   UNL     1      36.322 106.429 263.874  1.00  0.00    -0.264 NA
ATOM      6  C   UNL     1      35.524 105.331 263.945  1.00  0.00     0.111 A 
ENDROOT
BRANCH   1   7
ATOM      7  C   UNL     1      37.379 106.447 260.270  1.00  0.00     0.073 C 
ATOM      8  O   UNL     1      38.563 106.096 260.019  1.00  0.00    -0.545 OA
ATOM      9  O   UNL     1      36.688 107.207 259.334  1.00  0.00    -0.545 OA
ENDBRANCH   1   7
TORSDOF 1
ENDMDL
MODEL 5
REMARK VINA RESULT:    -3.874      5.801      7.320
REMARK INTER + INTRA:          -4.123
REMARK INTER:                  -4.105
REMARK INTRA:                  -0.019
REMARK UNBOUND:                -0.022
REMARK SMILES O=C([O-])c1cccnc1
REMARK SMILES IDX 4 1 5 2 9 3 6 4 8 5 7 6 2 7 1 8 3 9
REMARK H PARENT
REMARK Flexibility Score: inf
ROOT
ATOM      1  C   UNL     1      37.761 106.579 260.921  1.00  0.00     0.016 A 
ATOM      2  C   UNL     1      36.705 107.223 260.257  1.00  0.00     0.013 A 
ATOM      3  C   UNL     1      38.555 105.673 260.195  1.00  0.00     0.120 A 
ATOM      4  C   UNL     1      36.462 106.961 258.908  1.00  0.00     0.021 A 
ATOM      5  N   UNL     1      38.296 105.436 258.881  1.00  0.00    -0.264 NA
ATOM      6  C   UNL     1      37.276 106.055 258.228  1.00  0.00     0.111 A 
ENDROOT
BRANCH   1   7
ATOM      7  C   UNL     1      38.028 106.848 262.351  1.00  0.00     0.073 C 
ATOM      8  O   UNL     1      37.112 106.727 263.207  1.00  0.00    -0.545 OA
ATOM      9  O   UNL     1      39.295 107.237 262.769  1.00  0.00    -0.545 OA
ENDBRANCH   1   7
TORSDOF 1
ENDMDL
MODEL 6
REMARK VINA RESULT:    -3.744      3.073      4.643
REMARK INTER + INTRA:          -3.986
REMARK INTER:                  -3.964
REMARK INTRA:                  -0.022
REMARK UNBOUND:                -0.022
REMARK SMILES O=C([O-])c1cccnc1
REMARK SMILES IDX 4 1 5 2 9 3 6 4 8 5 7 6 2 7 1 8 3 9
REMARK H PARENT
REMARK Flexibility Score: inf
ROOT
ATOM      1  C   UNL     1      35.738 105.953 263.791  1.00  0.00     0.016 A 
ATOM      2  C   UNL     1      36.594 106.797 263.067  1.00  0.00     0.013 A 
ATOM      3  C   UNL     1      35.245 104.799 263.157  1.00  0.00     0.120 A 
ATOM      4  C   UNL     1      36.939 106.485 261.750  1.00  0.00     0.021 A 
ATOM      5  N   UNL     1      35.596 104.518 261.874  1.00  0.00    -0.264 NA
ATOM      6  C   UNL     1      36.425 105.328 261.164  1.00  0.00     0.111 A 
ENDROOT
BRANCH   1   7
ATOM      7  C   UNL     1      35.366 106.274 265.186  1.00  0.00     0.073 C 
ATOM      8  O   UNL     1      35.315 107.471 265.575  1.00  0.00    -0.545 OA
ATOM      9  O   UNL     1      35.065 105.259 266.086  1.00  0.00    -0.545 OA
ENDBRANCH   1   7
TORSDOF 1
ENDMDL
MODEL 7
REMARK VINA RESULT:    -3.682      2.724      3.697
REMARK INTER + INTRA:          -3.920
REMARK INTER:                  -3.901
REMARK INTRA:                  -0.019
REMARK UNBOUND:                -0.022
REMARK SMILES O=C([O-])c1cccnc1
REMARK SMILES IDX 4 1 5 2 9 3 6 4 8 5 7 6 2 7 1 8 3 9
REMARK H PARENT
REMARK Flexibility Score: inf
ROOT
ATOM      1  C   UNL     1      36.500 106.572 263.334  1.00  0.00     0.016 A 
ATOM      2  C   UNL     1      35.731 105.400 263.414  1.00  0.00     0.013 A 
ATOM      3  C   UNL     1      36.428 107.492 264.395  1.00  0.00     0.120 A 
ATOM      4  C   UNL     1      34.921 105.168 264.527  1.00  0.00     0.021 A 
ATOM      5  N   UNL     1      35.631 107.242 265.467  1.00  0.00    -0.264 NA
ATOM      6  C   UNL     1      34.883 106.110 265.555  1.00  0.00     0.111 A 
ENDROOT
BRANCH   1   7
ATOM      7  C   UNL     1      37.362 106.829 262.160  1.00  0.00     0.073 C 
ATOM      8  O   UNL     1      36.880 106.811 260.996  1.00  0.00    -0.545 OA
ATOM      9  O   UNL     1      38.716 107.095 262.325  1.00  0.00    -0.545 OA
ENDBRANCH   1   7
TORSDOF 1
ENDMDL
MODEL 8
REMARK VINA RESULT:    -3.607      4.907      5.962
REMARK INTER + INTRA:          -3.841
REMARK INTER:                  -3.822
REMARK INTRA:                  -0.019
REMARK UNBOUND:                -0.022
REMARK SMILES O=C([O-])c1cccnc1
REMARK SMILES IDX 4 1 5 2 9 3 6 4 8 5 7 6 2 7 1 8 3 9
REMARK H PARENT
REMARK Flexibility Score: inf
ROOT
ATOM      1  C   UNL     1      37.444 106.572 260.837  1.00  0.00     0.016 A 
ATOM      2  C   UNL     1      38.682 106.959 261.376  1.00  0.00     0.013 A 
ATOM      3  C   UNL     1      36.371 106.350 261.718  1.00  0.00     0.120 A 
ATOM      4  C   UNL     1      38.827 107.116 262.755  1.00  0.00     0.021 A 
ATOM      5  N   UNL     1      36.540 106.511 263.058  1.00  0.00    -0.264 NA
ATOM      6  C   UNL     1      37.734 106.885 263.590  1.00  0.00     0.111 A 
ENDROOT
BRANCH   1   7
ATOM      7  C   UNL     1      37.278 106.402 259.377  1.00  0.00     0.073 C 
ATOM      8  O   UNL     1      38.090 105.699 258.718  1.00  0.00    -0.545 OA
ATOM      9  O   UNL     1      36.223 107.015 258.712  1.00  0.00    -0.545 OA
ENDBRANCH   1   7
TORSDOF 1
ENDMDL
