MODEL 1
REMARK VINA RESULT:    -3.214      0.000      0.000
REMARK INTER + INTRA:          -6.957
REMARK INTER:                  -5.468
REMARK INTRA:                  -1.489
REMARK UNBOUND:                -1.489
REMARK SMILES CCCCCCCCCCCCCC(=O)[O-]
REMARK SMILES IDX 8 1 9 2 10 3 11 4 12 5 13 6 14 7 15 8 16 9 7 10 6 11 5 12
REMARK SMILES IDX 4 13 3 14 2 15 1 16
REMARK H PARENT
REMARK Flexibility Score: inf
ROOT
ATOM      1  C   UNL     1      27.257  60.866  86.353  1.00  0.00     0.000 C 
ENDROOT
BRANCH   1   2
ATOM      2  C   UNL     1      28.386  60.166  87.126  1.00  0.00     0.000 C 
BRANCH   2   3
ATOM      3  C   UNL     1      28.008  58.746  87.571  1.00  0.00     0.000 C 
BRANCH   3   4
ATOM      4  C   UNL     1      29.006  57.716  87.028  1.00  0.00     0.000 C 
BRANCH   4   5
ATOM      5  C   UNL     1      29.958  58.353  86.009  1.00  0.00     0.006 C 
BRANCH   5   6
ATOM      6  C   UNL     1      31.309  57.633  85.994  1.00  0.00     0.053 C 
BRANCH   6   7
ATOM      7  C   UNL     1      31.790  57.452  84.589  1.00  0.00     0.041 C 
ATOM      8  O   UNL     1      31.024  57.697  83.620  1.00  0.00    -0.550 OA
ATOM      9  O   UNL     1      33.069  56.965  84.349  1.00  0.00    -0.550 OA
ENDBRANCH   6   7
ENDBRANCH   5   6
ENDBRANCH   4   5
ENDBRANCH   3   4
ENDBRANCH   2   3
ENDBRANCH   1   2
BRANCH   1  10
ATOM     10  C   UNL     1      26.191  59.883  85.838  1.00  0.00     0.000 C 
BRANCH  10  11
ATOM     11  C   UNL     1      26.098  59.879  84.298  1.00  0.00    -0.000 C 
BRANCH  11  12
ATOM     12  C   UNL     1      27.312  59.232  83.603  1.00  0.00    -0.000 C 
BRANCH  12  13
ATOM     13  C   UNL     1      28.179  60.200  82.778  1.00  0.00    -0.000 C 
BRANCH  13  14
ATOM     14  C   UNL     1      27.601  61.625  82.735  1.00  0.00    -0.000 C 
BRANCH  14  15
ATOM     15  C   UNL     1      27.279  62.084  81.304  1.00  0.00    -0.003 C 
ATOM     16  C   UNL     1      27.278  60.934  80.297  1.00  0.00     0.004 C 
ENDBRANCH  14  15
ENDBRANCH  13  14
ENDBRANCH  12  13
ENDBRANCH  11  12
ENDBRANCH  10  11
ENDBRANCH   1  10
TORSDOF 12
ENDMDL
MODEL 2
REMARK VINA RESULT:    -3.193      1.855      3.055
REMARK INTER + INTRA:          -6.921
REMARK INTER:                  -4.970
REMARK INTRA:                  -1.950
REMARK UNBOUND:                -1.489
REMARK SMILES CCCCCCCCCCCCCC(=O)[O-]
REMARK SMILES IDX 8 1 9 2 10 3 11 4 12 5 13 6 14 7 15 8 16 9 7 10 6 11 5 12
REMARK SMILES IDX 4 13 3 14 2 15 1 16
REMARK H PARENT
REMARK Flexibility Score: inf
ROOT
ATOM      1  C   UNL     1      27.635  59.952  87.551  1.00  0.00     0.000 C 
ENDROOT
BRANCH   1   2
ATOM      2  C   UNL     1      28.877  59.543  86.742  1.00  0.00     0.000 C 
BRANCH   2   3
ATOM      3  C   UNL     1      29.039  58.020  86.633  1.00  0.00     0.000 C 
BRANCH   3   4
ATOM      4  C   UNL     1      29.219  57.590  85.172  1.00  0.00     0.000 C 
BRANCH   4   5
ATOM      5  C   UNL     1      30.371  58.354  84.509  1.00  0.00     0.006 C 
BRANCH   5   6
ATOM      6  C   UNL     1      29.949  58.909  83.146  1.00  0.00     0.053 C 
BRANCH   6   7
ATOM      7  C   UNL     1      30.875  58.424  82.075  1.00  0.00     0.041 C 
ATOM      8  O   UNL     1      32.018  57.989  82.374  1.00  0.00    -0.550 OA
ATOM      9  O   UNL     1      30.495  58.500  80.741  1.00  0.00    -0.550 OA
ENDBRANCH   6   7
ENDBRANCH   5   6
ENDBRANCH   4   5
ENDBRANCH   3   4
ENDBRANCH   2   3
ENDBRANCH   1   2
BRANCH   1  10
ATOM     10  C   UNL     1      27.042  58.783  88.358  1.00  0.00     0.000 C 
BRANCH  10  11
ATOM     11  C   UNL     1      25.623  58.408  87.882  1.00  0.00    -0.000 C 
BRANCH  11  12
ATOM     12  C   UNL     1      25.219  59.070  86.550  1.00  0.00    -0.000 C 
BRANCH  12  13
ATOM     13  C   UNL     1      25.475  58.215  85.296  1.00  0.00    -0.000 C 
BRANCH  13  14
ATOM     14  C   UNL     1      25.930  59.054  84.090  1.00  0.00    -0.000 C 
BRANCH  14  15
ATOM     15  C   UNL     1      25.765  60.563  84.328  1.00  0.00    -0.003 C 
ATOM     16  C   UNL     1      27.042  61.352  84.045  1.00  0.00     0.004 C 
ENDBRANCH  14  15
ENDBRANCH  13  14
ENDBRANCH  12  13
ENDBRANCH  11  12
ENDBRANCH  10  11
ENDBRANCH   1  10
TORSDOF 12
ENDMDL
MODEL 3
REMARK VINA RESULT:    -3.120      1.875      4.354
REMARK INTER + INTRA:          -6.797
REMARK INTER:                  -4.759
REMARK INTRA:                  -2.039
REMARK UNBOUND:                -1.489
REMARK SMILES CCCCCCCCCCCCCC(=O)[O-]
REMARK SMILES IDX 8 1 9 2 10 3 11 4 12 5 13 6 14 7 15 8 16 9 7 10 6 11 5 12
REMARK SMILES IDX 4 13 3 14 2 15 1 16
REMARK H PARENT
REMARK Flexibility Score: inf
ROOT
ATOM      1  C   UNL     1      25.059  60.266  84.569  1.00  0.00     0.000 C 
ENDROOT
BRANCH   1   2
ATOM      2  C   UNL     1      25.715  61.321  83.664  1.00  0.00     0.000 C 
BRANCH   2   3
ATOM      3  C   UNL     1      27.247  61.232  83.663  1.00  0.00     0.000 C 
BRANCH   3   4
ATOM      4  C   UNL     1      27.769  60.753  82.303  1.00  0.00     0.000 C 
BRANCH   4   5
ATOM      5  C   UNL     1      28.263  59.304  82.380  1.00  0.00     0.006 C 
BRANCH   5   6
ATOM      6  C   UNL     1      29.751  59.249  82.740  1.00  0.00     0.053 C 
BRANCH   6   7
ATOM      7  C   UNL     1      30.504  58.442  81.730  1.00  0.00     0.041 C 
ATOM      8  O   UNL     1      31.077  57.374  82.072  1.00  0.00    -0.550 OA
ATOM      9  O   UNL     1      30.616  58.895  80.422  1.00  0.00    -0.550 OA
ENDBRANCH   6   7
ENDBRANCH   5   6
ENDBRANCH   4   5
ENDBRANCH   3   4
ENDBRANCH   2   3
ENDBRANCH   1   2
BRANCH   1  10
ATOM     10  C   UNL     1      24.863  58.914  83.860  1.00  0.00     0.000 C 
BRANCH  10  11
ATOM     11  C   UNL     1      25.709  57.793  84.500  1.00  0.00    -0.000 C 
BRANCH  11  12
ATOM     12  C   UNL     1      26.378  58.200  85.828  1.00  0.00    -0.000 C 
BRANCH  12  13
ATOM     13  C   UNL     1      27.893  57.942  85.897  1.00  0.00    -0.000 C 
BRANCH  13  14
ATOM     14  C   UNL     1      28.681  59.162  86.404  1.00  0.00    -0.000 C 
BRANCH  14  15
ATOM     15  C   UNL     1      27.950  59.904  87.534  1.00  0.00    -0.003 C 
ATOM     16  C   UNL     1      27.977  61.422  87.362  1.00  0.00     0.004 C 
ENDBRANCH  14  15
ENDBRANCH  13  14
ENDBRANCH  12  13
ENDBRANCH  11  12
ENDBRANCH  10  11
ENDBRANCH   1  10
TORSDOF 12
ENDMDL
MODEL 4
REMARK VINA RESULT:    -3.114      1.122      2.071
REMARK INTER + INTRA:          -6.788
REMARK INTER:                  -5.167
REMARK INTRA:                  -1.620
REMARK UNBOUND:                -1.489
REMARK SMILES CCCCCCCCCCCCCC(=O)[O-]
REMARK SMILES IDX 8 1 9 2 10 3 11 4 12 5 13 6 14 7 15 8 16 9 7 10 6 11 5 12
REMARK SMILES IDX 4 13 3 14 2 15 1 16
REMARK H PARENT
REMARK Flexibility Score: inf
ROOT
ATOM      1  C   UNL     1      28.070  60.784  87.340  1.00  0.00     0.000 C 
ENDROOT
BRANCH   1   2
ATOM      2  C   UNL     1      27.313  59.519  87.775  1.00  0.00     0.000 C 
BRANCH   2   3
ATOM      3  C   UNL     1      28.121  58.235  87.543  1.00  0.00     0.000 C 
BRANCH   3   4
ATOM      4  C   UNL     1      29.281  58.483  86.570  1.00  0.00     0.000 C 
BRANCH   4   5
ATOM      5  C   UNL     1      29.957  57.167  86.169  1.00  0.00     0.006 C 
BRANCH   5   6
ATOM      6  C   UNL     1      31.481  57.310  86.169  1.00  0.00     0.053 C 
BRANCH   6   7
ATOM      7  C   UNL     1      32.007  57.306  84.768  1.00  0.00     0.041 C 
ATOM      8  O   UNL     1      31.222  57.467  83.796  1.00  0.00    -0.550 OA
ATOM      9  O   UNL     1      33.356  57.075  84.532  1.00  0.00    -0.550 OA
ENDBRANCH   6   7
ENDBRANCH   5   6
ENDBRANCH   4   5
ENDBRANCH   3   4
ENDBRANCH   2   3
ENDBRANCH   1   2
BRANCH   1  10
ATOM     10  C   UNL     1      27.274  61.635  86.334  1.00  0.00     0.000 C 
BRANCH  10  11
ATOM     11  C   UNL     1      26.691  60.786  85.185  1.00  0.00    -0.000 C 
BRANCH  11  12
ATOM     12  C   UNL     1      26.786  61.461  83.803  1.00  0.00    -0.000 C 
BRANCH  12  13
ATOM     13  C   UNL     1      27.385  60.583  82.691  1.00  0.00    -0.000 C 
BRANCH  13  14
ATOM     14  C   UNL     1      28.299  59.473  83.238  1.00  0.00    -0.000 C 
BRANCH  14  15
ATOM     15  C   UNL     1      27.862  58.073  82.779  1.00  0.00    -0.003 C 
ATOM     16  C   UNL     1      27.021  57.341  83.823  1.00  0.00     0.004 C 
ENDBRANCH  14  15
ENDBRANCH  13  14
ENDBRANCH  12  13
ENDBRANCH  11  12
ENDBRANCH  10  11
ENDBRANCH   1  10
TORSDOF 12
ENDMDL
MODEL 5
REMARK VINA RESULT:    -3.103      5.687      8.878
REMARK INTER + INTRA:          -6.768
REMARK INTER:                  -5.471
REMARK INTRA:                  -1.297
REMARK UNBOUND:                -1.489
REMARK SMILES CCCCCCCCCCCCCC(=O)[O-]
REMARK SMILES IDX 8 1 9 2 10 3 11 4 12 5 13 6 14 7 15 8 16 9 7 10 6 11 5 12
REMARK SMILES IDX 4 13 3 14 2 15 1 16
REMARK H PARENT
REMARK Flexibility Score: inf
ROOT
ATOM      1  C   UNL     1      24.112  62.710  77.229  1.00  0.00     0.000 C 
ENDROOT
BRANCH   1   2
ATOM      2  C   UNL     1      24.137  63.832  78.280  1.00  0.00     0.000 C 
BRANCH   2   3
ATOM      3  C   UNL     1      23.932  63.311  79.709  1.00  0.00     0.000 C 
BRANCH   3   4
ATOM      4  C   UNL     1      25.268  62.904  80.343  1.00  0.00     0.000 C 
BRANCH   4   5
ATOM      5  C   UNL     1      25.261  61.424  80.743  1.00  0.00     0.006 C 
BRANCH   5   6
ATOM      6  C   UNL     1      25.984  60.570  79.698  1.00  0.00     0.053 C 
BRANCH   6   7
ATOM      7  C   UNL     1      27.453  60.534  79.977  1.00  0.00     0.041 C 
ATOM      8  O   UNL     1      27.875  60.195  81.114  1.00  0.00    -0.550 OA
ATOM      9  O   UNL     1      28.357  60.924  78.996  1.00  0.00    -0.550 OA
ENDBRANCH   6   7
ENDBRANCH   5   6
ENDBRANCH   4   5
ENDBRANCH   3   4
ENDBRANCH   2   3
ENDBRANCH   1   2
BRANCH   1  10
ATOM     10  C   UNL     1      25.478  62.498  76.554  1.00  0.00     0.000 C 
BRANCH  10  11
ATOM     11  C   UNL     1      26.084  63.820  76.038  1.00  0.00    -0.000 C 
BRANCH  11  12
ATOM     12  C   UNL     1      25.348  64.407  74.818  1.00  0.00    -0.000 C 
BRANCH  12  13
ATOM     13  C   UNL     1      25.837  65.795  74.369  1.00  0.00    -0.000 C 
BRANCH  13  14
ATOM     14  C   UNL     1      26.504  66.585  75.508  1.00  0.00    -0.000 C 
BRANCH  14  15
ATOM     15  C   UNL     1      25.663  67.791  75.956  1.00  0.00    -0.003 C 
ATOM     16  C   UNL     1      24.514  67.402  76.885  1.00  0.00     0.004 C 
ENDBRANCH  14  15
ENDBRANCH  13  14
ENDBRANCH  12  13
ENDBRANCH  11  12
ENDBRANCH  10  11
ENDBRANCH   1  10
TORSDOF 12
ENDMDL
MODEL 6
REMARK VINA RESULT:    -3.102      6.157      8.670
REMARK INTER + INTRA:          -6.766
REMARK INTER:                  -5.737
REMARK INTRA:                  -1.029
REMARK UNBOUND:                -1.489
REMARK SMILES CCCCCCCCCCCCCC(=O)[O-]
REMARK SMILES IDX 8 1 9 2 10 3 11 4 12 5 13 6 14 7 15 8 16 9 7 10 6 11 5 12
REMARK SMILES IDX 4 13 3 14 2 15 1 16
REMARK H PARENT
REMARK Flexibility Score: inf
ROOT
ATOM      1  C   UNL     1      24.111  62.819  78.242  1.00  0.00     0.000 C 
ENDROOT
BRANCH   1   2
ATOM      2  C   UNL     1      24.630  63.317  79.600  1.00  0.00     0.000 C 
BRANCH   2   3
ATOM      3  C   UNL     1      25.595  62.326  80.266  1.00  0.00     0.000 C 
BRANCH   3   4
ATOM      4  C   UNL     1      26.016  61.225  79.286  1.00  0.00     0.000 C 
BRANCH   4   5
ATOM      5  C   UNL     1      27.505  60.892  79.435  1.00  0.00     0.006 C 
BRANCH   5   6
ATOM      6  C   UNL     1      28.262  61.163  78.131  1.00  0.00     0.053 C 
BRANCH   6   7
ATOM      7  C   UNL     1      29.137  60.001  77.783  1.00  0.00     0.041 C 
ATOM      8  O   UNL     1      29.478  59.799  76.588  1.00  0.00    -0.550 OA
ATOM      9  O   UNL     1      29.536  59.110  78.772  1.00  0.00    -0.550 OA
ENDBRANCH   6   7
ENDBRANCH   5   6
ENDBRANCH   4   5
ENDBRANCH   3   4
ENDBRANCH   2   3
ENDBRANCH   1   2
BRANCH   1  10
ATOM     10  C   UNL     1      24.417  63.798  77.094  1.00  0.00     0.000 C 
BRANCH  10  11
ATOM     11  C   UNL     1      25.730  63.447  76.363  1.00  0.00    -0.000 C 
BRANCH  11  12
ATOM     12  C   UNL     1      25.690  63.723  74.847  1.00  0.00    -0.000 C 
BRANCH  12  13
ATOM     13  C   UNL     1      26.463  64.973  74.394  1.00  0.00    -0.000 C 
BRANCH  13  14
ATOM     14  C   UNL     1      25.674  66.274  74.621  1.00  0.00    -0.000 C 
BRANCH  14  15
ATOM     15  C   UNL     1      26.181  67.064  75.837  1.00  0.00    -0.003 C 
ATOM     16  C   UNL     1      25.211  68.158  76.282  1.00  0.00     0.004 C 
ENDBRANCH  14  15
ENDBRANCH  13  14
ENDBRANCH  12  13
ENDBRANCH  11  12
ENDBRANCH  10  11
ENDBRANCH   1  10
TORSDOF 12
ENDMDL
MODEL 7
REMARK VINA RESULT:    -3.101      2.837      4.920
REMARK INTER + INTRA:          -6.765
REMARK INTER:                  -5.515
REMARK INTRA:                  -1.250
REMARK UNBOUND:                -1.489
REMARK SMILES CCCCCCCCCCCCCC(=O)[O-]
REMARK SMILES IDX 8 1 9 2 10 3 11 4 12 5 13 6 14 7 15 8 16 9 7 10 6 11 5 12
REMARK SMILES IDX 4 13 3 14 2 15 1 16
REMARK H PARENT
REMARK Flexibility Score: inf
ROOT
ATOM      1  C   UNL     1      30.704  58.002  85.405  1.00  0.00     0.000 C 
ENDROOT
BRANCH   1   2
ATOM      2  C   UNL     1      29.398  57.399  85.946  1.00  0.00     0.000 C 
BRANCH   2   3
ATOM      3  C   UNL     1      29.240  57.588  87.461  1.00  0.00     0.000 C 
BRANCH   3   4
ATOM      4  C   UNL     1      27.765  57.511  87.874  1.00  0.00     0.000 C 
BRANCH   4   5
ATOM      5  C   UNL     1      27.228  58.894  88.263  1.00  0.00     0.006 C 
BRANCH   5   6
ATOM      6  C   UNL     1      26.588  59.592  87.059  1.00  0.00     0.053 C 
BRANCH   6   7
ATOM      7  C   UNL     1      27.416  60.764  86.634  1.00  0.00     0.041 C 
ATOM      8  O   UNL     1      28.339  61.191  87.377  1.00  0.00    -0.550 OA
ATOM      9  O   UNL     1      27.135  61.416  85.440  1.00  0.00    -0.550 OA
ENDBRANCH   6   7
ENDBRANCH   5   6
ENDBRANCH   4   5
ENDBRANCH   3   4
ENDBRANCH   2   3
ENDBRANCH   1   2
BRANCH   1  10
ATOM     10  C   UNL     1      31.850  56.977  85.342  1.00  0.00     0.000 C 
BRANCH  10  11
ATOM     11  C   UNL     1      32.657  57.084  84.032  1.00  0.00    -0.000 C 
BRANCH  11  12
ATOM     12  C   UNL     1      31.791  56.992  82.760  1.00  0.00    -0.000 C 
BRANCH  12  13
ATOM     13  C   UNL     1      31.847  58.229  81.846  1.00  0.00    -0.000 C 
BRANCH  13  14
ATOM     14  C   UNL     1      30.559  58.419  81.026  1.00  0.00    -0.000 C 
BRANCH  14  15
ATOM     15  C   UNL     1      29.291  58.193  81.864  1.00  0.00    -0.003 C 
ATOM     16  C   UNL     1      28.837  59.449  82.605  1.00  0.00     0.004 C 
ENDBRANCH  14  15
ENDBRANCH  13  14
ENDBRANCH  12  13
ENDBRANCH  11  12
ENDBRANCH  10  11
ENDBRANCH   1  10
TORSDOF 12
ENDMDL
MODEL 8
REMARK VINA RESULT:    -3.062      2.858      5.309
REMARK INTER + INTRA:          -6.698
REMARK INTER:                  -5.151
REMARK INTRA:                  -1.548
REMARK UNBOUND:                -1.489
REMARK SMILES CCCCCCCCCCCCCC(=O)[O-]
REMARK SMILES IDX 8 1 9 2 10 3 11 4 12 5 13 6 14 7 15 8 16 9 7 10 6 11 5 12
REMARK SMILES IDX 4 13 3 14 2 15 1 16
REMARK H PARENT
REMARK Flexibility Score: inf
ROOT
ATOM      1  C   UNL     1      28.096  60.506  87.015  1.00  0.00     0.000 C 
ENDROOT
BRANCH   1   2
ATOM      2  C   UNL     1      27.225  61.370  86.090  1.00  0.00     0.000 C 
BRANCH   2   3
ATOM      3  C   UNL     1      26.230  60.541  85.267  1.00  0.00     0.000 C 
BRANCH   3   4
ATOM      4  C   UNL     1      26.027  61.149  83.873  1.00  0.00     0.000 C 
BRANCH   4   5
ATOM      5  C   UNL     1      27.372  61.436  83.196  1.00  0.00     0.006 C 
BRANCH   5   6
ATOM      6  C   UNL     1      27.455  60.754  81.827  1.00  0.00     0.053 C 
BRANCH   6   7
ATOM      7  C   UNL     1      27.157  61.733  80.736  1.00  0.00     0.041 C 
ATOM      8  O   UNL     1      26.191  62.533  80.848  1.00  0.00    -0.550 OA
ATOM      9  O   UNL     1      27.915  61.730  79.572  1.00  0.00    -0.550 OA
ENDBRANCH   6   7
ENDBRANCH   5   6
ENDBRANCH   4   5
ENDBRANCH   3   4
ENDBRANCH   2   3
ENDBRANCH   1   2
BRANCH   1  10
ATOM     10  C   UNL     1      27.262  59.646  87.982  1.00  0.00     0.000 C 
BRANCH  10  11
ATOM     11  C   UNL     1      27.398  58.138  87.684  1.00  0.00    -0.000 C 
BRANCH  11  12
ATOM     12  C   UNL     1      28.836  57.603  87.826  1.00  0.00    -0.000 C 
BRANCH  12  13
ATOM     13  C   UNL     1      29.454  57.049  86.530  1.00  0.00    -0.000 C 
BRANCH  13  14
ATOM     14  C   UNL     1      30.403  58.050  85.849  1.00  0.00    -0.000 C 
BRANCH  14  15
ATOM     15  C   UNL     1      29.930  58.442  84.440  1.00  0.00    -0.003 C 
ATOM     16  C   UNL     1      28.554  57.874  84.096  1.00  0.00     0.004 C 
ENDBRANCH  14  15
ENDBRANCH  13  14
ENDBRANCH  12  13
ENDBRANCH  11  12
ENDBRANCH  10  11
ENDBRANCH   1  10
TORSDOF 12
ENDMDL
MODEL 9
REMARK VINA RESULT:    -3.004      2.866      5.675
REMARK INTER + INTRA:          -6.601
REMARK INTER:                  -4.696
REMARK INTRA:                  -1.904
REMARK UNBOUND:                -1.489
REMARK SMILES CCCCCCCCCCCCCC(=O)[O-]
REMARK SMILES IDX 8 1 9 2 10 3 11 4 12 5 13 6 14 7 15 8 16 9 7 10 6 11 5 12
REMARK SMILES IDX 4 13 3 14 2 15 1 16
REMARK H PARENT
REMARK Flexibility Score: inf
ROOT
ATOM      1  C   UNL     1      30.057  58.382  84.259  1.00  0.00     0.000 C 
ENDROOT
BRANCH   1   2
ATOM      2  C   UNL     1      28.751  57.697  83.825  1.00  0.00     0.000 C 
BRANCH   2   3
ATOM      3  C   UNL     1      27.887  58.586  82.920  1.00  0.00     0.000 C 
BRANCH   3   4
ATOM      4  C   UNL     1      28.588  59.918  82.626  1.00  0.00     0.000 C 
BRANCH   4   5
ATOM      5  C   UNL     1      27.642  61.102  82.856  1.00  0.00     0.006 C 
BRANCH   5   6
ATOM      6  C   UNL     1      26.409  61.003  81.952  1.00  0.00     0.053 C 
BRANCH   6   7
ATOM      7  C   UNL     1      26.517  61.966  80.812  1.00  0.00     0.041 C 
ATOM      8  O   UNL     1      25.644  62.859  80.652  1.00  0.00    -0.550 OA
ATOM      9  O   UNL     1      27.554  61.845  79.896  1.00  0.00    -0.550 OA
ENDBRANCH   6   7
ENDBRANCH   5   6
ENDBRANCH   4   5
ENDBRANCH   3   4
ENDBRANCH   2   3
ENDBRANCH   1   2
BRANCH   1  10
ATOM     10  C   UNL     1      30.277  58.330  85.781  1.00  0.00     0.000 C 
BRANCH  10  11
ATOM     11  C   UNL     1      29.111  57.634  86.515  1.00  0.00    -0.000 C 
BRANCH  11  12
ATOM     12  C   UNL     1      28.385  58.541  87.528  1.00  0.00    -0.000 C 
BRANCH  12  13
ATOM     13  C   UNL     1      28.343  60.032  87.152  1.00  0.00    -0.000 C 
BRANCH  13  14
ATOM     14  C   UNL     1      27.111  60.397  86.307  1.00  0.00    -0.000 C 
BRANCH  14  15
ATOM     15  C   UNL     1      25.918  59.465  86.576  1.00  0.00    -0.003 C 
ATOM     16  C   UNL     1      25.221  59.008  85.296  1.00  0.00     0.004 C 
ENDBRANCH  14  15
ENDBRANCH  13  14
ENDBRANCH  12  13
ENDBRANCH  11  12
ENDBRANCH  10  11
ENDBRANCH   1  10
TORSDOF 12
ENDMDL
