MODEL 1
REMARK VINA RESULT:    -1.161      0.000      0.000
REMARK INTER + INTRA:          -2.783
REMARK INTER:                  -1.772
REMARK INTRA:                  -1.011
REMARK UNBOUND:                -1.011
REMARK SMILES O=C([O-])CCCCCCCCC(=O)[O-]
REMARK SMILES IDX 7 1 6 2 5 3 4 4 2 5 1 6 3 7 8 8 9 9 10 10 11 11 12 12 13 13
REMARK SMILES IDX 14 14
REMARK H PARENT
REMARK Flexibility Score: inf
ROOT
ATOM      1  C   UNL     1     -15.228 -23.365  81.726  1.00  0.00     0.000 C 
ENDROOT
BRANCH   1   2
ATOM      2  C   UNL     1     -13.804 -22.882  82.026  1.00  0.00     0.000 C 
BRANCH   2   3
ATOM      3  C   UNL     1     -13.824 -21.612  82.889  1.00  0.00     0.006 C 
BRANCH   3   4
ATOM      4  C   UNL     1     -12.993 -21.767  84.170  1.00  0.00     0.053 C 
BRANCH   4   5
ATOM      5  C   UNL     1     -13.707 -22.587  85.202  1.00  0.00     0.041 C 
ATOM      6  O   UNL     1     -13.131 -23.568  85.740  1.00  0.00    -0.550 OA
ATOM      7  O   UNL     1     -14.996 -22.246  85.592  1.00  0.00    -0.550 OA
ENDBRANCH   4   5
ENDBRANCH   3   4
ENDBRANCH   2   3
ENDBRANCH   1   2
BRANCH   1   8
ATOM      8  C   UNL     1     -16.271 -22.414  82.333  1.00  0.00     0.000 C 
BRANCH   8   9
ATOM      9  C   UNL     1     -17.393 -22.054  81.347  1.00  0.00     0.000 C 
BRANCH   9  10
ATOM     10  C   UNL     1     -16.896 -21.192  80.173  1.00  0.00     0.006 C 
BRANCH  10  11
ATOM     11  C   UNL     1     -16.273 -19.872  80.649  1.00  0.00     0.053 C 
BRANCH  11  12
ATOM     12  C   UNL     1     -14.988 -19.576  79.936  1.00  0.00     0.041 C 
ATOM     13  O   UNL     1     -14.252 -20.517  79.539  1.00  0.00    -0.550 OA
ATOM     14  O   UNL     1     -14.592 -18.260  79.734  1.00  0.00    -0.550 OA
ENDBRANCH  11  12
ENDBRANCH  10  11
ENDBRANCH   9  10
ENDBRANCH   8   9
ENDBRANCH   1   8
TORSDOF 9
ENDMDL
MODEL 2
REMARK VINA RESULT:    -1.149      2.647      4.187
REMARK INTER + INTRA:          -2.765
REMARK INTER:                  -1.801
REMARK INTRA:                  -0.964
REMARK UNBOUND:                -1.011
REMARK SMILES O=C([O-])CCCCCCCCC(=O)[O-]
REMARK SMILES IDX 7 1 6 2 5 3 4 4 2 5 1 6 3 7 8 8 9 9 10 10 11 11 12 12 13 13
REMARK SMILES IDX 14 14
REMARK H PARENT
REMARK Flexibility Score: inf
ROOT
ATOM      1  C   UNL     1     -15.805 -23.175  84.667  1.00  0.00     0.000 C 
ENDROOT
BRANCH   1   2
ATOM      2  C   UNL     1     -15.491 -24.675  84.700  1.00  0.00     0.000 C 
BRANCH   2   3
ATOM      3  C   UNL     1     -15.493 -25.270  83.285  1.00  0.00     0.006 C 
BRANCH   3   4
ATOM      4  C   UNL     1     -15.539 -24.186  82.199  1.00  0.00     0.053 C 
BRANCH   4   5
ATOM      5  C   UNL     1     -14.606 -24.493  81.067  1.00  0.00     0.041 C 
ATOM      6  O   UNL     1     -14.624 -23.788  80.024  1.00  0.00    -0.550 OA
ATOM      7  O   UNL     1     -13.694 -25.534  81.179  1.00  0.00    -0.550 OA
ENDBRANCH   4   5
ENDBRANCH   3   4
ENDBRANCH   2   3
ENDBRANCH   1   2
BRANCH   1   8
ATOM      8  C   UNL     1     -14.763 -22.376  85.464  1.00  0.00     0.000 C 
BRANCH   8   9
ATOM      9  C   UNL     1     -13.364 -22.426  84.831  1.00  0.00     0.000 C 
BRANCH   9  10
ATOM     10  C   UNL     1     -13.054 -21.181  83.980  1.00  0.00     0.006 C 
BRANCH  10  11
ATOM     11  C   UNL     1     -12.941 -21.515  82.486  1.00  0.00     0.053 C 
BRANCH  11  12
ATOM     12  C   UNL     1     -13.719 -20.553  81.642  1.00  0.00     0.041 C 
ATOM     13  O   UNL     1     -14.951 -20.730  81.449  1.00  0.00    -0.550 OA
ATOM     14  O   UNL     1     -13.078 -19.474  81.046  1.00  0.00    -0.550 OA
ENDBRANCH  11  12
ENDBRANCH  10  11
ENDBRANCH   9  10
ENDBRANCH   8   9
ENDBRANCH   1   8
TORSDOF 9
ENDMDL
MODEL 3
REMARK VINA RESULT:    -1.119      2.245      4.768
REMARK INTER + INTRA:          -2.719
REMARK INTER:                  -1.748
REMARK INTRA:                  -0.971
REMARK UNBOUND:                -1.011
REMARK SMILES O=C([O-])CCCCCCCCC(=O)[O-]
REMARK SMILES IDX 7 1 6 2 5 3 4 4 2 5 1 6 3 7 8 8 9 9 10 10 11 11 12 12 13 13
REMARK SMILES IDX 14 14
REMARK H PARENT
REMARK Flexibility Score: inf
ROOT
ATOM      1  C   UNL     1     -13.549 -23.315  84.065  1.00  0.00     0.000 C 
ENDROOT
BRANCH   1   2
ATOM      2  C   UNL     1     -13.267 -22.744  82.670  1.00  0.00     0.000 C 
BRANCH   2   3
ATOM      3  C   UNL     1     -13.542 -21.234  82.627  1.00  0.00     0.006 C 
BRANCH   3   4
ATOM      4  C   UNL     1     -14.437 -20.840  81.445  1.00  0.00     0.053 C 
BRANCH   4   5
ATOM      5  C   UNL     1     -13.665 -20.128  80.375  1.00  0.00     0.041 C 
ATOM      6  O   UNL     1     -13.086 -20.785  79.470  1.00  0.00    -0.550 OA
ATOM      7  O   UNL     1     -13.613 -18.740  80.360  1.00  0.00    -0.550 OA
ENDBRANCH   4   5
ENDBRANCH   3   4
ENDBRANCH   2   3
ENDBRANCH   1   2
BRANCH   1   8
ATOM      8  C   UNL     1     -13.986 -22.207  85.035  1.00  0.00     0.000 C 
BRANCH   8   9
ATOM      9  C   UNL     1     -15.189 -22.614  85.899  1.00  0.00     0.000 C 
BRANCH   9  10
ATOM     10  C   UNL     1     -16.189 -23.505  85.139  1.00  0.00     0.006 C 
BRANCH  10  11
ATOM     11  C   UNL     1     -17.340 -22.693  84.530  1.00  0.00     0.053 C 
BRANCH  11  12
ATOM     12  C   UNL     1     -17.274 -22.673  83.033  1.00  0.00     0.041 C 
ATOM     13  O   UNL     1     -17.792 -21.724  82.388  1.00  0.00    -0.550 OA
ATOM     14  O   UNL     1     -16.663 -23.717  82.350  1.00  0.00    -0.550 OA
ENDBRANCH  11  12
ENDBRANCH  10  11
ENDBRANCH   9  10
ENDBRANCH   8   9
ENDBRANCH   1   8
TORSDOF 9
ENDMDL
MODEL 4
REMARK VINA RESULT:    -1.117      2.601      4.106
REMARK INTER + INTRA:          -2.717
REMARK INTER:                  -1.842
REMARK INTRA:                  -0.875
REMARK UNBOUND:                -1.011
REMARK SMILES O=C([O-])CCCCCCCCC(=O)[O-]
REMARK SMILES IDX 7 1 6 2 5 3 4 4 2 5 1 6 3 7 8 8 9 9 10 10 11 11 12 12 13 13
REMARK SMILES IDX 14 14
REMARK H PARENT
REMARK Flexibility Score: inf
ROOT
ATOM      1  C   UNL     1     -14.198 -24.535  85.966  1.00  0.00     0.000 C 
ENDROOT
BRANCH   1   2
ATOM      2  C   UNL     1     -13.194 -23.453  85.552  1.00  0.00     0.000 C 
BRANCH   2   3
ATOM      3  C   UNL     1     -13.911 -22.238  84.946  1.00  0.00     0.006 C 
BRANCH   3   4
ATOM      4  C   UNL     1     -12.995 -21.423  84.023  1.00  0.00     0.053 C 
BRANCH   4   5
ATOM      5  C   UNL     1     -13.287 -21.685  82.576  1.00  0.00     0.041 C 
ATOM      6  O   UNL     1     -12.881 -22.745  82.032  1.00  0.00    -0.550 OA
ATOM      7  O   UNL     1     -14.035 -20.776  81.841  1.00  0.00    -0.550 OA
ENDBRANCH   4   5
ENDBRANCH   3   4
ENDBRANCH   2   3
ENDBRANCH   1   2
BRANCH   1   8
ATOM      8  C   UNL     1     -15.635 -23.991  85.940  1.00  0.00     0.000 C 
BRANCH   8   9
ATOM      9  C   UNL     1     -16.635 -24.982  85.326  1.00  0.00     0.000 C 
BRANCH   9  10
ATOM     10  C   UNL     1     -17.727 -24.283  84.495  1.00  0.00     0.006 C 
BRANCH  10  11
ATOM     11  C   UNL     1     -17.351 -22.835  84.148  1.00  0.00     0.053 C 
BRANCH  11  12
ATOM     12  C   UNL     1     -17.039 -22.678  82.691  1.00  0.00     0.041 C 
ATOM     13  O   UNL     1     -16.257 -23.483  82.119  1.00  0.00    -0.550 OA
ATOM     14  O   UNL     1     -17.590 -21.625  81.971  1.00  0.00    -0.550 OA
ENDBRANCH  11  12
ENDBRANCH  10  11
ENDBRANCH   9  10
ENDBRANCH   8   9
ENDBRANCH   1   8
TORSDOF 9
ENDMDL
MODEL 5
REMARK VINA RESULT:    -1.096      2.450      4.840
REMARK INTER + INTRA:          -2.684
REMARK INTER:                  -1.695
REMARK INTRA:                  -0.989
REMARK UNBOUND:                -1.011
REMARK SMILES O=C([O-])CCCCCCCCC(=O)[O-]
REMARK SMILES IDX 7 1 6 2 5 3 4 4 2 5 1 6 3 7 8 8 9 9 10 10 11 11 12 12 13 13
REMARK SMILES IDX 14 14
REMARK H PARENT
REMARK Flexibility Score: inf
ROOT
ATOM      1  C   UNL     1     -16.237 -24.252  84.647  1.00  0.00     0.000 C 
ENDROOT
BRANCH   1   2
ATOM      2  C   UNL     1     -16.832 -22.839  84.606  1.00  0.00     0.000 C 
BRANCH   2   3
ATOM      3  C   UNL     1     -17.869 -22.711  83.482  1.00  0.00     0.006 C 
BRANCH   3   4
ATOM      4  C   UNL     1     -17.287 -22.045  82.227  1.00  0.00     0.053 C 
BRANCH   4   5
ATOM      5  C   UNL     1     -17.281 -22.979  81.054  1.00  0.00     0.041 C 
ATOM      6  O   UNL     1     -16.939 -24.181  81.205  1.00  0.00    -0.550 OA
ATOM      7  O   UNL     1     -17.685 -22.529  79.804  1.00  0.00    -0.550 OA
ENDBRANCH   4   5
ENDBRANCH   3   4
ENDBRANCH   2   3
ENDBRANCH   1   2
BRANCH   1   8
ATOM      8  C   UNL     1     -14.957 -24.286  85.496  1.00  0.00     0.000 C 
BRANCH   8   9
ATOM      9  C   UNL     1     -14.365 -22.889  85.736  1.00  0.00     0.000 C 
BRANCH   9  10
ATOM     10  C   UNL     1     -13.091 -22.636  84.911  1.00  0.00     0.006 C 
BRANCH  10  11
ATOM     11  C   UNL     1     -13.199 -21.367  84.055  1.00  0.00     0.053 C 
BRANCH  11  12
ATOM     12  C   UNL     1     -13.674 -21.672  82.667  1.00  0.00     0.041 C 
ATOM     13  O   UNL     1     -13.938 -20.736  81.867  1.00  0.00    -0.550 OA
ATOM     14  O   UNL     1     -13.852 -22.990  82.267  1.00  0.00    -0.550 OA
ENDBRANCH  11  12
ENDBRANCH  10  11
ENDBRANCH   9  10
ENDBRANCH   8   9
ENDBRANCH   1   8
TORSDOF 9
ENDMDL
MODEL 6
REMARK VINA RESULT:    -1.091      2.803      4.342
REMARK INTER + INTRA:          -2.677
REMARK INTER:                  -1.625
REMARK INTRA:                  -1.052
REMARK UNBOUND:                -1.011
REMARK SMILES O=C([O-])CCCCCCCCC(=O)[O-]
REMARK SMILES IDX 7 1 6 2 5 3 4 4 2 5 1 6 3 7 8 8 9 9 10 10 11 11 12 12 13 13
REMARK SMILES IDX 14 14
REMARK H PARENT
REMARK Flexibility Score: inf
ROOT
ATOM      1  C   UNL     1     -15.404 -22.205  81.330  1.00  0.00     0.000 C 
ENDROOT
BRANCH   1   2
ATOM      2  C   UNL     1     -14.262 -21.350  81.891  1.00  0.00     0.000 C 
BRANCH   2   3
ATOM      3  C   UNL     1     -13.324 -22.192  82.769  1.00  0.00     0.006 C 
BRANCH   3   4
ATOM      4  C   UNL     1     -13.162 -21.603  84.177  1.00  0.00     0.053 C 
BRANCH   4   5
ATOM      5  C   UNL     1     -13.795 -22.472  85.221  1.00  0.00     0.041 C 
ATOM      6  O   UNL     1     -14.957 -22.219  85.634  1.00  0.00    -0.550 OA
ATOM      7  O   UNL     1     -13.116 -23.580  85.710  1.00  0.00    -0.550 OA
ENDBRANCH   4   5
ENDBRANCH   3   4
ENDBRANCH   2   3
ENDBRANCH   1   2
BRANCH   1   8
ATOM      8  C   UNL     1     -16.437 -22.528  82.420  1.00  0.00     0.000 C 
BRANCH   8   9
ATOM      9  C   UNL     1     -16.850 -24.007  82.428  1.00  0.00     0.000 C 
BRANCH   9  10
ATOM     10  C   UNL     1     -16.186 -24.801  83.568  1.00  0.00     0.006 C 
BRANCH  10  11
ATOM     11  C   UNL     1     -14.897 -25.498  83.112  1.00  0.00     0.053 C 
BRANCH  11  12
ATOM     12  C   UNL     1     -15.146 -26.431  81.966  1.00  0.00     0.041 C 
ATOM     13  O   UNL     1     -14.561 -26.255  80.865  1.00  0.00    -0.550 OA
ATOM     14  O   UNL     1     -16.046 -27.480  82.107  1.00  0.00    -0.550 OA
ENDBRANCH  11  12
ENDBRANCH  10  11
ENDBRANCH   9  10
ENDBRANCH   8   9
ENDBRANCH   1   8
TORSDOF 9
ENDMDL
MODEL 7
REMARK VINA RESULT:    -1.058      2.280      3.151
REMARK INTER + INTRA:          -2.626
REMARK INTER:                  -1.620
REMARK INTRA:                  -1.006
REMARK UNBOUND:                -1.011
REMARK SMILES O=C([O-])CCCCCCCCC(=O)[O-]
REMARK SMILES IDX 7 1 6 2 5 3 4 4 2 5 1 6 3 7 8 8 9 9 10 10 11 11 12 12 13 13
REMARK SMILES IDX 14 14
REMARK H PARENT
REMARK Flexibility Score: inf
ROOT
ATOM      1  C   UNL     1     -15.160 -21.296  81.486  1.00  0.00     0.000 C 
ENDROOT
BRANCH   1   2
ATOM      2  C   UNL     1     -13.720 -20.775  81.552  1.00  0.00     0.000 C 
BRANCH   2   3
ATOM      3  C   UNL     1     -12.875 -21.613  82.523  1.00  0.00     0.006 C 
BRANCH   3   4
ATOM      4  C   UNL     1     -13.197 -21.303  83.991  1.00  0.00     0.053 C 
BRANCH   4   5
ATOM      5  C   UNL     1     -13.693 -22.515  84.720  1.00  0.00     0.041 C 
ATOM      6  O   UNL     1     -14.475 -22.388  85.699  1.00  0.00    -0.550 OA
ATOM      7  O   UNL     1     -13.320 -23.784  84.296  1.00  0.00    -0.550 OA
ENDBRANCH   4   5
ENDBRANCH   3   4
ENDBRANCH   2   3
ENDBRANCH   1   2
BRANCH   1   8
ATOM      8  C   UNL     1     -15.187 -22.802  81.185  1.00  0.00     0.000 C 
BRANCH   8   9
ATOM      9  C   UNL     1     -16.166 -23.571  82.085  1.00  0.00     0.000 C 
BRANCH   9  10
ATOM     10  C   UNL     1     -16.943 -22.647  83.041  1.00  0.00     0.006 C 
BRANCH  10  11
ATOM     11  C   UNL     1     -18.443 -22.613  82.719  1.00  0.00     0.053 C 
BRANCH  11  12
ATOM     12  C   UNL     1     -18.838 -21.331  82.050  1.00  0.00     0.041 C 
ATOM     13  O   UNL     1     -19.346 -20.395  82.722  1.00  0.00    -0.550 OA
ATOM     14  O   UNL     1     -18.670 -21.182  80.679  1.00  0.00    -0.550 OA
ENDBRANCH  11  12
ENDBRANCH  10  11
ENDBRANCH   9  10
ENDBRANCH   8   9
ENDBRANCH   1   8
TORSDOF 9
ENDMDL
MODEL 8
REMARK VINA RESULT:    -1.033      2.193      3.495
REMARK INTER + INTRA:          -2.587
REMARK INTER:                  -1.689
REMARK INTRA:                  -0.898
REMARK UNBOUND:                -1.011
REMARK SMILES O=C([O-])CCCCCCCCC(=O)[O-]
REMARK SMILES IDX 7 1 6 2 5 3 4 4 2 5 1 6 3 7 8 8 9 9 10 10 11 11 12 12 13 13
REMARK SMILES IDX 14 14
REMARK H PARENT
REMARK Flexibility Score: inf
ROOT
ATOM      1  C   UNL     1     -13.131 -22.279  84.626  1.00  0.00     0.000 C 
ENDROOT
BRANCH   1   2
ATOM      2  C   UNL     1     -14.500 -22.387  85.307  1.00  0.00     0.000 C 
BRANCH   2   3
ATOM      3  C   UNL     1     -15.380 -23.435  84.611  1.00  0.00     0.006 C 
BRANCH   3   4
ATOM      4  C   UNL     1     -16.706 -22.842  84.113  1.00  0.00     0.053 C 
BRANCH   4   5
ATOM      5  C   UNL     1     -17.191 -23.529  82.873  1.00  0.00     0.041 C 
ATOM      6  O   UNL     1     -17.781 -22.872  81.975  1.00  0.00    -0.550 OA
ATOM      7  O   UNL     1     -16.963 -24.887  82.694  1.00  0.00    -0.550 OA
ENDBRANCH   4   5
ENDBRANCH   3   4
ENDBRANCH   2   3
ENDBRANCH   1   2
BRANCH   1   8
ATOM      8  C   UNL     1     -13.110 -21.126  83.612  1.00  0.00     0.000 C 
BRANCH   8   9
ATOM      9  C   UNL     1     -12.875 -21.606  82.171  1.00  0.00     0.000 C 
BRANCH   9  10
ATOM     10  C   UNL     1     -14.186 -21.944  81.439  1.00  0.00     0.006 C 
BRANCH  10  11
ATOM     11  C   UNL     1     -14.988 -20.686  81.077  1.00  0.00     0.053 C 
BRANCH  11  12
ATOM     12  C   UNL     1     -14.382 -19.957  79.917  1.00  0.00     0.041 C 
ATOM     13  O   UNL     1     -13.986 -20.593  78.905  1.00  0.00    -0.550 OA
ATOM     14  O   UNL     1     -14.232 -18.577  79.964  1.00  0.00    -0.550 OA
ENDBRANCH  11  12
ENDBRANCH  10  11
ENDBRANCH   9  10
ENDBRANCH   8   9
ENDBRANCH   1   8
TORSDOF 9
ENDMDL
MODEL 9
REMARK VINA RESULT:    -1.030      2.890      4.867
REMARK INTER + INTRA:          -2.583
REMARK INTER:                  -1.503
REMARK INTRA:                  -1.080
REMARK UNBOUND:                -1.011
REMARK SMILES O=C([O-])CCCCCCCCC(=O)[O-]
REMARK SMILES IDX 7 1 6 2 5 3 4 4 2 5 1 6 3 7 8 8 9 9 10 10 11 11 12 12 13 13
REMARK SMILES IDX 14 14
REMARK H PARENT
REMARK Flexibility Score: inf
ROOT
ATOM      1  C   UNL     1     -16.197 -25.031  82.558  1.00  0.00     0.000 C 
ENDROOT
BRANCH   1   2
ATOM      2  C   UNL     1     -16.109 -23.596  82.026  1.00  0.00     0.000 C 
BRANCH   2   3
ATOM      3  C   UNL     1     -16.996 -22.649  82.846  1.00  0.00     0.006 C 
BRANCH   3   4
ATOM      4  C   UNL     1     -18.048 -23.405  83.670  1.00  0.00     0.053 C 
BRANCH   4   5
ATOM      5  C   UNL     1     -18.032 -22.988  85.109  1.00  0.00     0.041 C 
ATOM      6  O   UNL     1     -17.705 -23.812  86.003  1.00  0.00    -0.550 OA
ATOM      7  O   UNL     1     -18.346 -21.681  85.459  1.00  0.00    -0.550 OA
ENDBRANCH   4   5
ENDBRANCH   3   4
ENDBRANCH   2   3
ENDBRANCH   1   2
BRANCH   1   8
ATOM      8  C   UNL     1     -14.861 -25.472  83.176  1.00  0.00     0.000 C 
BRANCH   8   9
ATOM      9  C   UNL     1     -14.921 -25.580  84.707  1.00  0.00     0.000 C 
BRANCH   9  10
ATOM     10  C   UNL     1     -13.846 -24.726  85.403  1.00  0.00     0.006 C 
BRANCH  10  11
ATOM     11  C   UNL     1     -13.248 -23.670  84.463  1.00  0.00     0.053 C 
BRANCH  11  12
ATOM     12  C   UNL     1     -13.774 -22.300  84.762  1.00  0.00     0.041 C 
ATOM     13  O   UNL     1     -14.728 -22.149  85.571  1.00  0.00    -0.550 OA
ATOM     14  O   UNL     1     -13.229 -21.191  84.127  1.00  0.00    -0.550 OA
ENDBRANCH  11  12
ENDBRANCH  10  11
ENDBRANCH   9  10
ENDBRANCH   8   9
ENDBRANCH   1   8
TORSDOF 9
ENDMDL
