MODEL 1
REMARK VINA RESULT:     3.856      0.000      0.000
REMARK INTER + INTRA:           5.910
REMARK INTER:                   6.560
REMARK INTRA:                  -0.650
REMARK UNBOUND:                -0.650
REMARK SMILES CCCCCCCCCCCCCC(=O)[O-]
REMARK SMILES IDX 8 1 9 2 10 3 11 4 12 5 13 6 14 7 15 8 16 9 7 10 6 11 5 12
REMARK SMILES IDX 4 13 3 14 2 15 1 16
REMARK H PARENT
REMARK Flexibility Score: inf
ROOT
ATOM      1  C   UNL     1      11.996  -1.345 -16.441  1.00  0.00     0.000 C 
ENDROOT
BRANCH   1   2
ATOM      2  C   UNL     1      10.828  -2.307 -16.716  1.00  0.00     0.000 C 
BRANCH   2   3
ATOM      3  C   UNL     1      11.190  -3.776 -16.441  1.00  0.00     0.000 C 
BRANCH   3   4
ATOM      4  C   UNL     1      11.247  -4.616 -17.737  1.00  0.00     0.000 C 
BRANCH   4   5
ATOM      5  C   UNL     1      12.223  -5.804 -17.655  1.00  0.00     0.006 C 
BRANCH   5   6
ATOM      6  C   UNL     1      12.972  -6.087 -18.966  1.00  0.00     0.053 C 
BRANCH   6   7
ATOM      7  C   UNL     1      14.382  -6.531 -18.718  1.00  0.00     0.041 C 
ATOM      8  O   UNL     1      15.318  -6.092 -19.437  1.00  0.00    -0.550 OA
ATOM      9  O   UNL     1      14.661  -7.443 -17.708  1.00  0.00    -0.550 OA
ENDBRANCH   6   7
ENDBRANCH   5   6
ENDBRANCH   4   5
ENDBRANCH   3   4
ENDBRANCH   2   3
ENDBRANCH   1   2
BRANCH   1  10
ATOM     10  C   UNL     1      11.986  -0.121 -17.368  1.00  0.00     0.000 C 
BRANCH  10  11
ATOM     11  C   UNL     1      13.261   0.713 -17.188  1.00  0.00    -0.000 C 
BRANCH  11  12
ATOM     12  C   UNL     1      12.941   2.087 -16.586  1.00  0.00    -0.000 C 
BRANCH  12  13
ATOM     13  C   UNL     1      11.433   2.245 -16.349  1.00  0.00    -0.000 C 
BRANCH  13  14
ATOM     14  C   UNL     1      11.067   2.342 -14.857  1.00  0.00    -0.000 C 
BRANCH  14  15
ATOM     15  C   UNL     1      10.764   0.996 -14.176  1.00  0.00    -0.003 C 
ATOM     16  C   UNL     1       9.510   1.035 -13.304  1.00  0.00     0.004 C 
ENDBRANCH  14  15
ENDBRANCH  13  14
ENDBRANCH  12  13
ENDBRANCH  11  12
ENDBRANCH  10  11
ENDBRANCH   1  10
TORSDOF 12
ENDMDL
MODEL 2
REMARK VINA RESULT:     4.228      1.456      3.288
REMARK INTER + INTRA:           6.544
REMARK INTER:                   7.202
REMARK INTRA:                  -0.658
REMARK UNBOUND:                -0.650
REMARK SMILES CCCCCCCCCCCCCC(=O)[O-]
REMARK SMILES IDX 8 1 9 2 10 3 11 4 12 5 13 6 14 7 15 8 16 9 7 10 6 11 5 12
REMARK SMILES IDX 4 13 3 14 2 15 1 16
REMARK H PARENT
REMARK Flexibility Score: inf
ROOT
ATOM      1  C   UNL     1      11.890  -1.834 -16.750  1.00  0.00     0.000 C 
ENDROOT
BRANCH   1   2
ATOM      2  C   UNL     1      10.721  -2.693 -16.244  1.00  0.00     0.000 C 
BRANCH   2   3
ATOM      3  C   UNL     1      10.989  -4.201 -16.377  1.00  0.00     0.000 C 
BRANCH   3   4
ATOM      4  C   UNL     1      11.414  -4.594 -17.810  1.00  0.00     0.000 C 
BRANCH   4   5
ATOM      5  C   UNL     1      12.124  -5.959 -17.887  1.00  0.00     0.006 C 
BRANCH   5   6
ATOM      6  C   UNL     1      13.062  -6.107 -19.094  1.00  0.00     0.053 C 
BRANCH   6   7
ATOM      7  C   UNL     1      14.433  -6.553 -18.684  1.00  0.00     0.041 C 
ATOM      8  O   UNL     1      14.579  -7.320 -17.695  1.00  0.00    -0.550 OA
ATOM      9  O   UNL     1      15.550  -6.107 -19.378  1.00  0.00    -0.550 OA
ENDBRANCH   6   7
ENDBRANCH   5   6
ENDBRANCH   4   5
ENDBRANCH   3   4
ENDBRANCH   2   3
ENDBRANCH   1   2
BRANCH   1  10
ATOM     10  C   UNL     1      11.949  -0.456 -16.074  1.00  0.00     0.000 C 
BRANCH  10  11
ATOM     11  C   UNL     1      11.971   0.667 -17.119  1.00  0.00    -0.000 C 
BRANCH  11  12
ATOM     12  C   UNL     1      12.660   1.921 -16.567  1.00  0.00    -0.000 C 
BRANCH  12  13
ATOM     13  C   UNL     1      13.991   2.178 -17.285  1.00  0.00    -0.000 C 
BRANCH  13  14
ATOM     14  C   UNL     1      14.125   1.390 -18.600  1.00  0.00    -0.000 C 
BRANCH  14  15
ATOM     15  C   UNL     1      15.216   0.305 -18.596  1.00  0.00    -0.003 C 
ATOM     16  C   UNL     1      16.352   0.594 -19.576  1.00  0.00     0.004 C 
ENDBRANCH  14  15
ENDBRANCH  13  14
ENDBRANCH  12  13
ENDBRANCH  11  12
ENDBRANCH  10  11
ENDBRANCH   1  10
TORSDOF 12
ENDMDL
MODEL 3
REMARK VINA RESULT:     4.696      2.972      7.201
REMARK INTER + INTRA:           7.340
REMARK INTER:                   7.889
REMARK INTRA:                  -0.549
REMARK UNBOUND:                -0.650
REMARK SMILES CCCCCCCCCCCCCC(=O)[O-]
REMARK SMILES IDX 8 1 9 2 10 3 11 4 12 5 13 6 14 7 15 8 16 9 7 10 6 11 5 12
REMARK SMILES IDX 4 13 3 14 2 15 1 16
REMARK H PARENT
REMARK Flexibility Score: inf
ROOT
ATOM      1  C   UNL     1      11.119  -2.351 -17.012  1.00  0.00     0.000 C 
ENDROOT
BRANCH   1   2
ATOM      2  C   UNL     1      11.960  -1.231 -16.378  1.00  0.00     0.000 C 
BRANCH   2   3
ATOM      3  C   UNL     1      11.872   0.092 -17.156  1.00  0.00     0.000 C 
BRANCH   3   4
ATOM      4  C   UNL     1      12.583   1.251 -16.421  1.00  0.00     0.000 C 
BRANCH   4   5
ATOM      5  C   UNL     1      13.467   2.111 -17.342  1.00  0.00     0.006 C 
BRANCH   5   6
ATOM      6  C   UNL     1      13.879   1.409 -18.645  1.00  0.00     0.053 C 
BRANCH   6   7
ATOM      7  C   UNL     1      15.133   0.606 -18.473  1.00  0.00     0.041 C 
ATOM      8  O   UNL     1      15.464   0.187 -17.332  1.00  0.00    -0.550 OA
ATOM      9  O   UNL     1      15.947   0.337 -19.566  1.00  0.00    -0.550 OA
ENDBRANCH   6   7
ENDBRANCH   5   6
ENDBRANCH   4   5
ENDBRANCH   3   4
ENDBRANCH   2   3
ENDBRANCH   1   2
BRANCH   1  10
ATOM     10  C   UNL     1      10.752  -3.456 -16.010  1.00  0.00     0.000 C 
BRANCH  10  11
ATOM     11  C   UNL     1      11.020  -4.845 -16.603  1.00  0.00    -0.000 C 
BRANCH  11  12
ATOM     12  C   UNL     1      11.873  -4.747 -17.874  1.00  0.00    -0.000 C 
BRANCH  12  13
ATOM     13  C   UNL     1      12.401  -6.127 -18.289  1.00  0.00    -0.000 C 
BRANCH  13  14
ATOM     14  C   UNL     1      13.488  -6.051 -19.376  1.00  0.00    -0.000 C 
BRANCH  14  15
ATOM     15  C   UNL     1      14.901  -6.436 -18.905  1.00  0.00    -0.003 C 
ATOM     16  C   UNL     1      14.898  -7.503 -17.811  1.00  0.00     0.004 C 
ENDBRANCH  14  15
ENDBRANCH  13  14
ENDBRANCH  12  13
ENDBRANCH  11  12
ENDBRANCH  10  11
ENDBRANCH   1  10
TORSDOF 12
ENDMDL
MODEL 4
REMARK VINA RESULT:     4.721      4.051      7.958
REMARK INTER + INTRA:           7.382
REMARK INTER:                   7.703
REMARK INTRA:                  -0.321
REMARK UNBOUND:                -0.650
REMARK SMILES CCCCCCCCCCCCCC(=O)[O-]
REMARK SMILES IDX 8 1 9 2 10 3 11 4 12 5 13 6 14 7 15 8 16 9 7 10 6 11 5 12
REMARK SMILES IDX 4 13 3 14 2 15 1 16
REMARK H PARENT
REMARK Flexibility Score: inf
ROOT
ATOM      1  C   UNL     1      11.827  -0.944 -17.383  1.00  0.00     0.000 C 
ENDROOT
BRANCH   1   2
ATOM      2  C   UNL     1      13.170  -0.195 -17.400  1.00  0.00     0.000 C 
BRANCH   2   3
ATOM      3  C   UNL     1      13.012   1.303 -17.707  1.00  0.00     0.000 C 
BRANCH   3   4
ATOM      4  C   UNL     1      12.964   2.161 -16.422  1.00  0.00     0.000 C 
BRANCH   4   5
ATOM      5  C   UNL     1      11.549   2.303 -15.832  1.00  0.00     0.006 C 
BRANCH   5   6
ATOM      6  C   UNL     1      11.122   1.126 -14.943  1.00  0.00     0.053 C 
BRANCH   6   7
ATOM      7  C   UNL     1      10.295   1.578 -13.777  1.00  0.00     0.041 C 
ATOM      8  O   UNL     1      10.421   2.749 -13.330  1.00  0.00    -0.550 OA
ATOM      9  O   UNL     1       9.402   0.704 -13.172  1.00  0.00    -0.550 OA
ENDBRANCH   6   7
ENDBRANCH   5   6
ENDBRANCH   4   5
ENDBRANCH   3   4
ENDBRANCH   2   3
ENDBRANCH   1   2
BRANCH   1  10
ATOM     10  C   UNL     1      11.809  -2.105 -16.379  1.00  0.00     0.000 C 
BRANCH  10  11
ATOM     11  C   UNL     1      10.694  -3.104 -16.716  1.00  0.00    -0.000 C 
BRANCH  11  12
ATOM     12  C   UNL     1      11.234  -4.539 -16.760  1.00  0.00    -0.000 C 
BRANCH  12  13
ATOM     13  C   UNL     1      11.819  -4.863 -18.141  1.00  0.00    -0.000 C 
BRANCH  13  14
ATOM     14  C   UNL     1      12.483  -6.251 -18.200  1.00  0.00    -0.000 C 
BRANCH  14  15
ATOM     15  C   UNL     1      13.906  -6.262 -18.784  1.00  0.00    -0.003 C 
ATOM     16  C   UNL     1      14.825  -7.278 -18.105  1.00  0.00     0.004 C 
ENDBRANCH  14  15
ENDBRANCH  13  14
ENDBRANCH  12  13
ENDBRANCH  11  12
ENDBRANCH  10  11
ENDBRANCH   1  10
TORSDOF 12
ENDMDL
