MODEL 1
REMARK VINA RESULT:    -6.112      0.000      0.000
REMARK INTER + INTRA:         -19.816
REMARK INTER:                 -15.937
REMARK INTRA:                  -3.880
REMARK UNBOUND:                -3.880
REMARK SMILES CCCCCCCCCCCCCCCCCCCCCCCCCCCCCO
REMARK SMILES IDX 16 1 15 2 14 3 13 4 12 5 11 6 10 7 9 8 8 9 7 10 6 11 5 12
REMARK SMILES IDX 4 13 3 14 2 15 1 16 17 17 18 18 19 19 20 20 21 21 22 22
REMARK SMILES IDX 23 23 24 24 25 25 26 26 27 27 28 28 29 29 30 30
REMARK H PARENT 30 31
REMARK Flexibility Score: inf
ROOT
ATOM      1  C   UNL     1      13.904  14.418  28.490  1.00  0.00     0.000 C 
ENDROOT
BRANCH   1   2
ATOM      2  C   UNL     1      13.612  13.400  29.616  1.00  0.00     0.000 C 
BRANCH   2   3
ATOM      3  C   UNL     1      13.463  14.046  31.005  1.00  0.00     0.000 C 
BRANCH   3   4
ATOM      4  C   UNL     1      13.579  15.577  30.956  1.00  0.00     0.000 C 
BRANCH   4   5
ATOM      5  C   UNL     1      12.480  16.232  31.804  1.00  0.00     0.000 C 
BRANCH   5   6
ATOM      6  C   UNL     1      11.189  15.399  31.853  1.00  0.00     0.000 C 
BRANCH   6   7
ATOM      7  C   UNL     1      10.209  15.757  30.726  1.00  0.00     0.000 C 
BRANCH   7   8
ATOM      8  C   UNL     1      10.013  14.571  29.770  1.00  0.00    -0.000 C 
BRANCH   8   9
ATOM      9  C   UNL     1       8.730  14.689  28.930  1.00  0.00    -0.000 C 
BRANCH   9  10
ATOM     10  C   UNL     1       7.519  14.018  29.593  1.00  0.00    -0.000 C 
BRANCH  10  11
ATOM     11  C   UNL     1       7.097  12.763  28.821  1.00  0.00    -0.000 C 
BRANCH  11  12
ATOM     12  C   UNL     1       5.942  13.069  27.859  1.00  0.00    -0.000 C 
BRANCH  12  13
ATOM     13  C   UNL     1       6.361  12.836  26.402  1.00  0.00    -0.000 C 
BRANCH  13  14
ATOM     14  C   UNL     1       6.741  14.157  25.720  1.00  0.00    -0.000 C 
BRANCH  14  15
ATOM     15  C   UNL     1       8.015  14.040  24.870  1.00  0.00    -0.003 C 
ATOM     16  C   UNL     1       9.098  15.036  25.285  1.00  0.00     0.004 C 
ENDBRANCH  14  15
ENDBRANCH  13  14
ENDBRANCH  12  13
ENDBRANCH  11  12
ENDBRANCH  10  11
ENDBRANCH   9  10
ENDBRANCH   8   9
ENDBRANCH   7   8
ENDBRANCH   6   7
ENDBRANCH   5   6
ENDBRANCH   4   5
ENDBRANCH   3   4
ENDBRANCH   2   3
ENDBRANCH   1   2
BRANCH   1  17
ATOM     17  C   UNL     1      12.890  14.366  27.331  1.00  0.00     0.000 C 
BRANCH  17  18
ATOM     18  C   UNL     1      12.074  15.655  27.130  1.00  0.00     0.000 C 
BRANCH  18  19
ATOM     19  C   UNL     1      12.955  16.856  26.737  1.00  0.00     0.000 C 
BRANCH  19  20
ATOM     20  C   UNL     1      12.251  17.805  25.746  1.00  0.00     0.000 C 
BRANCH  20  21
ATOM     21  C   UNL     1      13.132  18.244  24.561  1.00  0.00     0.000 C 
BRANCH  21  22
ATOM     22  C   UNL     1      12.535  17.985  23.167  1.00  0.00     0.000 C 
BRANCH  22  23
ATOM     23  C   UNL     1      11.384  16.963  23.194  1.00  0.00     0.000 C 
BRANCH  23  24
ATOM     24  C   UNL     1      11.850  15.538  22.853  1.00  0.00     0.000 C 
BRANCH  24  25
ATOM     25  C   UNL     1      11.207  15.004  21.562  1.00  0.00     0.000 C 
BRANCH  25  26
ATOM     26  C   UNL     1       9.671  15.027  21.613  1.00  0.00     0.000 C 
BRANCH  26  27
ATOM     27  C   UNL     1       9.040  13.694  21.182  1.00  0.00     0.002 C 
BRANCH  27  28
ATOM     28  C   UNL     1      10.054  12.545  21.296  1.00  0.00     0.028 C 
BRANCH  28  29
ATOM     29  C   UNL     1       9.367  11.178  21.365  1.00  0.00     0.156 C 
BRANCH  29  30
ATOM     30  O   UNL     1       9.983  10.360  22.324  1.00  0.00    -0.396 OA
ATOM     31  H   UNL     1      10.041  10.890  23.161  1.00  0.00     0.210 HD
ENDBRANCH  29  30
ENDBRANCH  28  29
ENDBRANCH  27  28
ENDBRANCH  26  27
ENDBRANCH  25  26
ENDBRANCH  24  25
ENDBRANCH  23  24
ENDBRANCH  22  23
ENDBRANCH  21  22
ENDBRANCH  20  21
ENDBRANCH  19  20
ENDBRANCH  18  19
ENDBRANCH  17  18
ENDBRANCH   1  17
TORSDOF 28
ENDMDL
MODEL 2
REMARK VINA RESULT:    -5.927      2.337      6.552
REMARK INTER + INTRA:         -19.335
REMARK INTER:                 -15.079
REMARK INTRA:                  -4.256
REMARK UNBOUND:                -3.880
REMARK SMILES CCCCCCCCCCCCCCCCCCCCCCCCCCCCCO
REMARK SMILES IDX 16 1 15 2 14 3 13 4 12 5 11 6 10 7 9 8 8 9 7 10 6 11 5 12
REMARK SMILES IDX 4 13 3 14 2 15 1 16 17 17 18 18 19 19 20 20 21 21 22 22
REMARK SMILES IDX 23 23 24 24 25 25 26 26 27 27 28 28 29 29 30 30
REMARK H PARENT 30 31
REMARK Flexibility Score: inf
ROOT
ATOM      1  C   UNL     1       8.771  14.744  23.424  1.00  0.00     0.000 C 
ENDROOT
BRANCH   1   2
ATOM      2  C   UNL     1       8.057  13.417  23.082  1.00  0.00     0.000 C 
BRANCH   2   3
ATOM      3  C   UNL     1       6.669  13.280  23.734  1.00  0.00     0.000 C 
BRANCH   3   4
ATOM      4  C   UNL     1       6.654  12.247  24.871  1.00  0.00     0.000 C 
BRANCH   4   5
ATOM      5  C   UNL     1       6.376  12.927  26.219  1.00  0.00     0.000 C 
BRANCH   5   6
ATOM      6  C   UNL     1       6.095  14.432  26.080  1.00  0.00     0.000 C 
BRANCH   6   7
ATOM      7  C   UNL     1       6.396  15.213  27.367  1.00  0.00     0.000 C 
BRANCH   7   8
ATOM      8  C   UNL     1       7.125  14.327  28.390  1.00  0.00    -0.000 C 
BRANCH   8   9
ATOM      9  C   UNL     1       8.603  14.713  28.564  1.00  0.00    -0.000 C 
BRANCH   9  10
ATOM     10  C   UNL     1       8.940  15.147  29.998  1.00  0.00    -0.000 C 
BRANCH  10  11
ATOM     11  C   UNL     1      10.385  14.779  30.357  1.00  0.00    -0.000 C 
BRANCH  11  12
ATOM     12  C   UNL     1      11.263  16.031  30.464  1.00  0.00    -0.000 C 
BRANCH  12  13
ATOM     13  C   UNL     1      12.720  15.715  30.105  1.00  0.00    -0.000 C 
BRANCH  13  14
ATOM     14  C   UNL     1      13.227  14.492  30.881  1.00  0.00    -0.000 C 
BRANCH  14  15
ATOM     15  C   UNL     1      13.565  13.307  29.965  1.00  0.00    -0.003 C 
ATOM     16  C   UNL     1      13.916  13.739  28.542  1.00  0.00     0.004 C 
ENDBRANCH  14  15
ENDBRANCH  13  14
ENDBRANCH  12  13
ENDBRANCH  11  12
ENDBRANCH  10  11
ENDBRANCH   9  10
ENDBRANCH   8   9
ENDBRANCH   7   8
ENDBRANCH   6   7
ENDBRANCH   5   6
ENDBRANCH   4   5
ENDBRANCH   3   4
ENDBRANCH   2   3
ENDBRANCH   1   2
BRANCH   1  17
ATOM     17  C   UNL     1       9.444  15.414  22.210  1.00  0.00     0.000 C 
BRANCH  17  18
ATOM     18  C   UNL     1      10.355  14.488  21.385  1.00  0.00     0.000 C 
BRANCH  18  19
ATOM     19  C   UNL     1      11.848  14.696  21.697  1.00  0.00     0.000 C 
BRANCH  19  20
ATOM     20  C   UNL     1      12.354  13.766  22.818  1.00  0.00     0.000 C 
BRANCH  20  21
ATOM     21  C   UNL     1      12.796  14.502  24.096  1.00  0.00     0.000 C 
BRANCH  21  22
ATOM     22  C   UNL     1      11.960  14.199  25.352  1.00  0.00     0.000 C 
BRANCH  22  23
ATOM     23  C   UNL     1      11.341  15.463  25.975  1.00  0.00     0.000 C 
BRANCH  23  24
ATOM     24  C   UNL     1      12.402  16.491  26.402  1.00  0.00     0.000 C 
BRANCH  24  25
ATOM     25  C   UNL     1      12.248  17.833  25.667  1.00  0.00     0.000 C 
BRANCH  25  26
ATOM     26  C   UNL     1      11.027  17.859  24.734  1.00  0.00     0.000 C 
BRANCH  26  27
ATOM     27  C   UNL     1      11.412  17.963  23.250  1.00  0.00     0.002 C 
BRANCH  27  28
ATOM     28  C   UNL     1      12.935  18.076  23.086  1.00  0.00     0.028 C 
BRANCH  28  29
ATOM     29  C   UNL     1      13.340  19.349  22.336  1.00  0.00     0.156 C 
BRANCH  29  30
ATOM     30  O   UNL     1      14.452  19.951  22.944  1.00  0.00    -0.396 OA
ATOM     31  H   UNL     1      15.258  19.495  22.588  1.00  0.00     0.210 HD
ENDBRANCH  29  30
ENDBRANCH  28  29
ENDBRANCH  27  28
ENDBRANCH  26  27
ENDBRANCH  25  26
ENDBRANCH  24  25
ENDBRANCH  23  24
ENDBRANCH  22  23
ENDBRANCH  21  22
ENDBRANCH  20  21
ENDBRANCH  19  20
ENDBRANCH  18  19
ENDBRANCH  17  18
ENDBRANCH   1  17
TORSDOF 28
ENDMDL
MODEL 3
REMARK VINA RESULT:    -5.922      2.135      6.535
REMARK INTER + INTRA:         -19.323
REMARK INTER:                 -15.576
REMARK INTRA:                  -3.746
REMARK UNBOUND:                -3.880
REMARK SMILES CCCCCCCCCCCCCCCCCCCCCCCCCCCCCO
REMARK SMILES IDX 16 1 15 2 14 3 13 4 12 5 11 6 10 7 9 8 8 9 7 10 6 11 5 12
REMARK SMILES IDX 4 13 3 14 2 15 1 16 17 17 18 18 19 19 20 20 21 21 22 22
REMARK SMILES IDX 23 23 24 24 25 25 26 26 27 27 28 28 29 29 30 30
REMARK H PARENT 30 31
REMARK Flexibility Score: inf
ROOT
ATOM      1  C   UNL     1       9.961  14.677  29.646  1.00  0.00     0.000 C 
ENDROOT
BRANCH   1   2
ATOM      2  C   UNL     1       8.502  14.885  29.180  1.00  0.00     0.000 C 
BRANCH   2   3
ATOM      3  C   UNL     1       7.502  13.922  29.844  1.00  0.00     0.000 C 
BRANCH   3   4
ATOM      4  C   UNL     1       6.962  12.869  28.864  1.00  0.00     0.000 C 
BRANCH   4   5
ATOM      5  C   UNL     1       6.364  13.542  27.619  1.00  0.00     0.000 C 
BRANCH   5   6
ATOM      6  C   UNL     1       5.837  12.529  26.590  1.00  0.00     0.000 C 
BRANCH   6   7
ATOM      7  C   UNL     1       6.255  12.873  25.152  1.00  0.00     0.000 C 
BRANCH   7   8
ATOM      8  C   UNL     1       7.122  14.141  25.120  1.00  0.00    -0.000 C 
BRANCH   8   9
ATOM      9  C   UNL     1       8.256  14.060  24.085  1.00  0.00    -0.000 C 
BRANCH   9  10
ATOM     10  C   UNL     1       7.883  13.216  22.858  1.00  0.00    -0.000 C 
BRANCH  10  11
ATOM     11  C   UNL     1       9.094  13.022  21.938  1.00  0.00    -0.000 C 
BRANCH  11  12
ATOM     12  C   UNL     1      10.399  13.384  22.658  1.00  0.00    -0.000 C 
BRANCH  12  13
ATOM     13  C   UNL     1      11.326  12.167  22.764  1.00  0.00    -0.000 C 
BRANCH  13  14
ATOM     14  C   UNL     1      12.642  12.535  23.463  1.00  0.00    -0.000 C 
BRANCH  14  15
ATOM     15  C   UNL     1      13.425  13.625  22.716  1.00  0.00    -0.003 C 
ATOM     16  C   UNL     1      14.898  13.267  22.519  1.00  0.00     0.004 C 
ENDBRANCH  14  15
ENDBRANCH  13  14
ENDBRANCH  12  13
ENDBRANCH  11  12
ENDBRANCH  10  11
ENDBRANCH   9  10
ENDBRANCH   8   9
ENDBRANCH   7   8
ENDBRANCH   6   7
ENDBRANCH   5   6
ENDBRANCH   4   5
ENDBRANCH   3   4
ENDBRANCH   2   3
ENDBRANCH   1   2
BRANCH   1  17
ATOM     17  C   UNL     1      10.369  15.586  30.822  1.00  0.00     0.000 C 
BRANCH  17  18
ATOM     18  C   UNL     1      11.409  16.666  30.471  1.00  0.00     0.000 C 
BRANCH  18  19
ATOM     19  C   UNL     1      12.723  16.498  31.255  1.00  0.00     0.000 C 
BRANCH  19  20
ATOM     20  C   UNL     1      12.771  15.179  32.053  1.00  0.00     0.000 C 
BRANCH  20  21
ATOM     21  C   UNL     1      13.743  14.131  31.479  1.00  0.00     0.000 C 
BRANCH  21  22
ATOM     22  C   UNL     1      13.154  13.215  30.392  1.00  0.00     0.000 C 
BRANCH  22  23
ATOM     23  C   UNL     1      13.922  13.302  29.061  1.00  0.00     0.000 C 
BRANCH  23  24
ATOM     24  C   UNL     1      13.650  14.614  28.306  1.00  0.00     0.000 C 
BRANCH  24  25
ATOM     25  C   UNL     1      12.839  14.392  27.018  1.00  0.00     0.000 C 
BRANCH  25  26
ATOM     26  C   UNL     1      11.856  15.540  26.734  1.00  0.00     0.000 C 
BRANCH  26  27
ATOM     27  C   UNL     1      11.473  15.644  25.250  1.00  0.00     0.002 C 
BRANCH  27  28
ATOM     28  C   UNL     1      11.205  17.103  24.852  1.00  0.00     0.028 C 
BRANCH  28  29
ATOM     29  C   UNL     1      12.259  18.057  25.422  1.00  0.00     0.156 C 
BRANCH  29  30
ATOM     30  O   UNL     1      13.332  18.201  24.530  1.00  0.00    -0.396 OA
ATOM     31  H   UNL     1      14.159  18.247  25.077  1.00  0.00     0.210 HD
ENDBRANCH  29  30
ENDBRANCH  28  29
ENDBRANCH  27  28
ENDBRANCH  26  27
ENDBRANCH  25  26
ENDBRANCH  24  25
ENDBRANCH  23  24
ENDBRANCH  22  23
ENDBRANCH  21  22
ENDBRANCH  20  21
ENDBRANCH  19  20
ENDBRANCH  18  19
ENDBRANCH  17  18
ENDBRANCH   1  17
TORSDOF 28
ENDMDL
MODEL 4
REMARK VINA RESULT:    -5.812      2.639      7.584
REMARK INTER + INTRA:         -19.034
REMARK INTER:                 -15.334
REMARK INTRA:                  -3.700
REMARK UNBOUND:                -3.880
REMARK SMILES CCCCCCCCCCCCCCCCCCCCCCCCCCCCCO
REMARK SMILES IDX 16 1 15 2 14 3 13 4 12 5 11 6 10 7 9 8 8 9 7 10 6 11 5 12
REMARK SMILES IDX 4 13 3 14 2 15 1 16 17 17 18 18 19 19 20 20 21 21 22 22
REMARK SMILES IDX 23 23 24 24 25 25 26 26 27 27 28 28 29 29 30 30
REMARK H PARENT 30 31
REMARK Flexibility Score: inf
ROOT
ATOM      1  C   UNL     1      12.928  14.360  27.297  1.00  0.00     0.000 C 
ENDROOT
BRANCH   1   2
ATOM      2  C   UNL     1      12.083  15.649  27.180  1.00  0.00     0.000 C 
BRANCH   2   3
ATOM      3  C   UNL     1      12.127  16.288  25.780  1.00  0.00     0.000 C 
BRANCH   3   4
ATOM      4  C   UNL     1      12.586  17.754  25.819  1.00  0.00     0.000 C 
BRANCH   4   5
ATOM      5  C   UNL     1      12.747  18.310  24.396  1.00  0.00     0.000 C 
BRANCH   5   6
ATOM      6  C   UNL     1      12.501  17.249  23.311  1.00  0.00     0.000 C 
BRANCH   6   7
ATOM      7  C   UNL     1      11.225  17.515  22.500  1.00  0.00     0.000 C 
BRANCH   7   8
ATOM      8  C   UNL     1      10.071  16.624  22.982  1.00  0.00    -0.000 C 
BRANCH   8   9
ATOM      9  C   UNL     1       9.723  15.508  21.983  1.00  0.00    -0.000 C 
BRANCH   9  10
ATOM     10  C   UNL     1      10.700  14.325  22.048  1.00  0.00    -0.000 C 
BRANCH  10  11
ATOM     11  C   UNL     1      10.862  13.826  23.488  1.00  0.00    -0.000 C 
BRANCH  11  12
ATOM     12  C   UNL     1      12.113  12.950  23.632  1.00  0.00    -0.000 C 
BRANCH  12  13
ATOM     13  C   UNL     1      13.374  13.717  23.217  1.00  0.00    -0.000 C 
BRANCH  13  14
ATOM     14  C   UNL     1      14.389  12.786  22.541  1.00  0.00    -0.000 C 
BRANCH  14  15
ATOM     15  C   UNL     1      15.667  13.518  22.106  1.00  0.00    -0.003 C 
ATOM     16  C   UNL     1      16.941  12.807  22.561  1.00  0.00     0.004 C 
ENDBRANCH  14  15
ENDBRANCH  13  14
ENDBRANCH  12  13
ENDBRANCH  11  12
ENDBRANCH  10  11
ENDBRANCH   9  10
ENDBRANCH   8   9
ENDBRANCH   7   8
ENDBRANCH   6   7
ENDBRANCH   5   6
ENDBRANCH   4   5
ENDBRANCH   3   4
ENDBRANCH   2   3
ENDBRANCH   1   2
BRANCH   1  17
ATOM     17  C   UNL     1      13.831  14.324  28.546  1.00  0.00     0.000 C 
BRANCH  17  18
ATOM     18  C   UNL     1      13.916  12.953  29.240  1.00  0.00     0.000 C 
BRANCH  18  19
ATOM     19  C   UNL     1      13.264  12.956  30.635  1.00  0.00     0.000 C 
BRANCH  19  20
ATOM     20  C   UNL     1      13.780  14.103  31.527  1.00  0.00     0.000 C 
BRANCH  20  21
ATOM     21  C   UNL     1      12.879  14.416  32.736  1.00  0.00     0.000 C 
BRANCH  21  22
ATOM     22  C   UNL     1      12.256  15.823  32.744  1.00  0.00     0.000 C 
BRANCH  22  23
ATOM     23  C   UNL     1      12.575  16.622  31.468  1.00  0.00     0.000 C 
BRANCH  23  24
ATOM     24  C   UNL     1      11.408  16.628  30.467  1.00  0.00     0.000 C 
BRANCH  24  25
ATOM     25  C   UNL     1      10.255  15.707  30.904  1.00  0.00     0.000 C 
BRANCH  25  26
ATOM     26  C   UNL     1      10.005  14.562  29.909  1.00  0.00     0.000 C 
BRANCH  26  27
ATOM     27  C   UNL     1       8.674  14.708  29.155  1.00  0.00     0.002 C 
BRANCH  27  28
ATOM     28  C   UNL     1       7.731  13.539  29.476  1.00  0.00     0.028 C 
BRANCH  28  29
ATOM     29  C   UNL     1       6.321  14.019  29.831  1.00  0.00     0.156 C 
BRANCH  29  30
ATOM     30  O   UNL     1       6.090  13.905  31.210  1.00  0.00    -0.396 OA
ATOM     31  H   UNL     1       6.762  14.477  31.664  1.00  0.00     0.210 HD
ENDBRANCH  29  30
ENDBRANCH  28  29
ENDBRANCH  27  28
ENDBRANCH  26  27
ENDBRANCH  25  26
ENDBRANCH  24  25
ENDBRANCH  23  24
ENDBRANCH  22  23
ENDBRANCH  21  22
ENDBRANCH  20  21
ENDBRANCH  19  20
ENDBRANCH  18  19
ENDBRANCH  17  18
ENDBRANCH   1  17
TORSDOF 28
ENDMDL
MODEL 5
REMARK VINA RESULT:    -5.792      2.054      4.398
REMARK INTER + INTRA:         -18.984
REMARK INTER:                 -15.139
REMARK INTRA:                  -3.846
REMARK UNBOUND:                -3.880
REMARK SMILES CCCCCCCCCCCCCCCCCCCCCCCCCCCCCO
REMARK SMILES IDX 16 1 15 2 14 3 13 4 12 5 11 6 10 7 9 8 8 9 7 10 6 11 5 12
REMARK SMILES IDX 4 13 3 14 2 15 1 16 17 17 18 18 19 19 20 20 21 21 22 22
REMARK SMILES IDX 23 23 24 24 25 25 26 26 27 27 28 28 29 29 30 30
REMARK H PARENT 30 31
REMARK Flexibility Score: inf
ROOT
ATOM      1  C   UNL     1      13.312  13.669  30.830  1.00  0.00     0.000 C 
ENDROOT
BRANCH   1   2
ATOM      2  C   UNL     1      13.579  15.170  31.085  1.00  0.00     0.000 C 
BRANCH   2   3
ATOM      3  C   UNL     1      12.467  15.865  31.891  1.00  0.00     0.000 C 
BRANCH   3   4
ATOM      4  C   UNL     1      11.105  15.170  31.732  1.00  0.00     0.000 C 
BRANCH   4   5
ATOM      5  C   UNL     1      10.341  15.744  30.531  1.00  0.00     0.000 C 
BRANCH   5   6
ATOM      6  C   UNL     1       9.860  14.657  29.556  1.00  0.00     0.000 C 
BRANCH   6   7
ATOM      7  C   UNL     1       8.405  14.862  29.109  1.00  0.00     0.000 C 
BRANCH   7   8
ATOM      8  C   UNL     1       7.517  13.698  29.574  1.00  0.00    -0.000 C 
BRANCH   8   9
ATOM      9  C   UNL     1       6.801  13.990  30.903  1.00  0.00    -0.000 C 
BRANCH   9  10
ATOM     10  C   UNL     1       6.674  15.493  31.193  1.00  0.00    -0.000 C 
BRANCH  10  11
ATOM     11  C   UNL     1       7.155  15.819  32.612  1.00  0.00    -0.000 C 
BRANCH  11  12
ATOM     12  C   UNL     1       6.518  14.877  33.641  1.00  0.00    -0.000 C 
BRANCH  12  13
ATOM     13  C   UNL     1       7.571  13.961  34.276  1.00  0.00    -0.000 C 
BRANCH  13  14
ATOM     14  C   UNL     1       8.908  14.694  34.450  1.00  0.00    -0.000 C 
BRANCH  14  15
ATOM     15  C   UNL     1       9.751  14.125  35.601  1.00  0.00    -0.003 C 
ATOM     16  C   UNL     1      11.240  14.435  35.454  1.00  0.00     0.004 C 
ENDBRANCH  14  15
ENDBRANCH  13  14
ENDBRANCH  12  13
ENDBRANCH  11  12
ENDBRANCH  10  11
ENDBRANCH   9  10
ENDBRANCH   8   9
ENDBRANCH   7   8
ENDBRANCH   6   7
ENDBRANCH   5   6
ENDBRANCH   4   5
ENDBRANCH   3   4
ENDBRANCH   2   3
ENDBRANCH   1   2
BRANCH   1  17
ATOM     17  C   UNL     1      13.638  13.219  29.393  1.00  0.00     0.000 C 
BRANCH  17  18
ATOM     18  C   UNL     1      14.034  14.357  28.436  1.00  0.00     0.000 C 
BRANCH  18  19
ATOM     19  C   UNL     1      12.893  14.748  27.478  1.00  0.00     0.000 C 
BRANCH  19  20
ATOM     20  C   UNL     1      12.717  16.276  27.361  1.00  0.00     0.000 C 
BRANCH  20  21
ATOM     21  C   UNL     1      11.794  16.717  26.210  1.00  0.00     0.000 C 
BRANCH  21  22
ATOM     22  C   UNL     1      12.424  17.690  25.198  1.00  0.00     0.000 C 
BRANCH  22  23
ATOM     23  C   UNL     1      11.633  17.773  23.880  1.00  0.00     0.000 C 
BRANCH  23  24
ATOM     24  C   UNL     1      11.321  16.388  23.290  1.00  0.00     0.000 C 
BRANCH  24  25
ATOM     25  C   UNL     1      12.573  15.696  22.724  1.00  0.00     0.000 C 
BRANCH  25  26
ATOM     26  C   UNL     1      13.028  14.504  23.583  1.00  0.00     0.000 C 
BRANCH  26  27
ATOM     27  C   UNL     1      11.869  13.571  23.969  1.00  0.00     0.002 C 
BRANCH  27  28
ATOM     28  C   UNL     1      11.878  12.300  23.107  1.00  0.00     0.028 C 
BRANCH  28  29
ATOM     29  C   UNL     1      10.492  11.981  22.538  1.00  0.00     0.156 C 
BRANCH  29  30
ATOM     30  O   UNL     1      10.391  10.622  22.208  1.00  0.00    -0.396 OA
ATOM     31  H   UNL     1      11.025  10.134  22.796  1.00  0.00     0.210 HD
ENDBRANCH  29  30
ENDBRANCH  28  29
ENDBRANCH  27  28
ENDBRANCH  26  27
ENDBRANCH  25  26
ENDBRANCH  24  25
ENDBRANCH  23  24
ENDBRANCH  22  23
ENDBRANCH  21  22
ENDBRANCH  20  21
ENDBRANCH  19  20
ENDBRANCH  18  19
ENDBRANCH  17  18
ENDBRANCH   1  17
TORSDOF 28
ENDMDL
MODEL 6
REMARK VINA RESULT:    -5.759      2.114      3.057
REMARK INTER + INTRA:         -18.896
REMARK INTER:                 -14.835
REMARK INTRA:                  -4.061
REMARK UNBOUND:                -3.880
REMARK SMILES CCCCCCCCCCCCCCCCCCCCCCCCCCCCCO
REMARK SMILES IDX 16 1 15 2 14 3 13 4 12 5 11 6 10 7 9 8 8 9 7 10 6 11 5 12
REMARK SMILES IDX 4 13 3 14 2 15 1 16 17 17 18 18 19 19 20 20 21 21 22 22
REMARK SMILES IDX 23 23 24 24 25 25 26 26 27 27 28 28 29 29 30 30
REMARK H PARENT 30 31
REMARK Flexibility Score: inf
ROOT
ATOM      1  C   UNL     1      13.184  13.486  30.654  1.00  0.00     0.000 C 
ENDROOT
BRANCH   1   2
ATOM      2  C   UNL     1      14.066  14.005  31.813  1.00  0.00     0.000 C 
BRANCH   2   3
ATOM      3  C   UNL     1      13.966  15.526  32.028  1.00  0.00     0.000 C 
BRANCH   3   4
ATOM      4  C   UNL     1      12.517  15.998  32.219  1.00  0.00     0.000 C 
BRANCH   4   5
ATOM      5  C   UNL     1      12.138  17.036  31.154  1.00  0.00     0.000 C 
BRANCH   5   6
ATOM      6  C   UNL     1      10.902  16.629  30.337  1.00  0.00     0.000 C 
BRANCH   6   7
ATOM      7  C   UNL     1      10.203  15.383  30.902  1.00  0.00     0.000 C 
BRANCH   7   8
ATOM      8  C   UNL     1       9.656  14.499  29.771  1.00  0.00    -0.000 C 
BRANCH   8   9
ATOM      9  C   UNL     1       8.141  14.263  29.880  1.00  0.00    -0.000 C 
BRANCH   9  10
ATOM     10  C   UNL     1       7.333  15.105  28.881  1.00  0.00    -0.000 C 
BRANCH  10  11
ATOM     11  C   UNL     1       7.810  14.857  27.445  1.00  0.00    -0.000 C 
BRANCH  11  12
ATOM     12  C   UNL     1       6.890  13.865  26.721  1.00  0.00    -0.000 C 
BRANCH  12  13
ATOM     13  C   UNL     1       6.340  14.469  25.423  1.00  0.00    -0.000 C 
BRANCH  13  14
ATOM     14  C   UNL     1       6.918  13.754  24.194  1.00  0.00    -0.000 C 
BRANCH  14  15
ATOM     15  C   UNL     1       8.328  14.245  23.833  1.00  0.00    -0.003 C 
ATOM     16  C   UNL     1       8.708  13.943  22.384  1.00  0.00     0.004 C 
ENDBRANCH  14  15
ENDBRANCH  13  14
ENDBRANCH  12  13
ENDBRANCH  11  12
ENDBRANCH  10  11
ENDBRANCH   9  10
ENDBRANCH   8   9
ENDBRANCH   7   8
ENDBRANCH   6   7
ENDBRANCH   5   6
ENDBRANCH   4   5
ENDBRANCH   3   4
ENDBRANCH   2   3
ENDBRANCH   1   2
BRANCH   1  17
ATOM     17  C   UNL     1      13.981  13.129  29.384  1.00  0.00     0.000 C 
BRANCH  17  18
ATOM     18  C   UNL     1      13.542  13.882  28.116  1.00  0.00     0.000 C 
BRANCH  18  19
ATOM     19  C   UNL     1      13.785  15.400  28.216  1.00  0.00     0.000 C 
BRANCH  19  20
ATOM     20  C   UNL     1      12.799  16.214  27.355  1.00  0.00     0.000 C 
BRANCH  20  21
ATOM     21  C   UNL     1      11.562  15.421  26.893  1.00  0.00     0.000 C 
BRANCH  21  22
ATOM     22  C   UNL     1      10.992  15.831  25.524  1.00  0.00     0.000 C 
BRANCH  22  23
ATOM     23  C   UNL     1      11.841  16.909  24.825  1.00  0.00     0.000 C 
BRANCH  23  24
ATOM     24  C   UNL     1      12.533  16.386  23.556  1.00  0.00     0.000 C 
BRANCH  24  25
ATOM     25  C   UNL     1      12.147  14.932  23.233  1.00  0.00     0.000 C 
BRANCH  25  26
ATOM     26  C   UNL     1      13.301  13.946  23.476  1.00  0.00     0.000 C 
BRANCH  26  27
ATOM     27  C   UNL     1      13.834  13.321  22.177  1.00  0.00     0.002 C 
BRANCH  27  28
ATOM     28  C   UNL     1      15.335  13.599  22.010  1.00  0.00     0.028 C 
BRANCH  28  29
ATOM     29  C   UNL     1      16.193  12.415  22.464  1.00  0.00     0.156 C 
BRANCH  29  30
ATOM     30  O   UNL     1      16.585  11.635  21.366  1.00  0.00    -0.396 OA
ATOM     31  H   UNL     1      16.400  10.689  21.603  1.00  0.00     0.210 HD
ENDBRANCH  29  30
ENDBRANCH  28  29
ENDBRANCH  27  28
ENDBRANCH  26  27
ENDBRANCH  25  26
ENDBRANCH  24  25
ENDBRANCH  23  24
ENDBRANCH  22  23
ENDBRANCH  21  22
ENDBRANCH  20  21
ENDBRANCH  19  20
ENDBRANCH  18  19
ENDBRANCH  17  18
ENDBRANCH   1  17
TORSDOF 28
ENDMDL
MODEL 7
REMARK VINA RESULT:    -5.742      1.121      5.214
REMARK INTER + INTRA:         -18.852
REMARK INTER:                 -15.208
REMARK INTRA:                  -3.644
REMARK UNBOUND:                -3.880
REMARK SMILES CCCCCCCCCCCCCCCCCCCCCCCCCCCCCO
REMARK SMILES IDX 16 1 15 2 14 3 13 4 12 5 11 6 10 7 9 8 8 9 7 10 6 11 5 12
REMARK SMILES IDX 4 13 3 14 2 15 1 16 17 17 18 18 19 19 20 20 21 21 22 22
REMARK SMILES IDX 23 23 24 24 25 25 26 26 27 27 28 28 29 29 30 30
REMARK H PARENT 30 31
REMARK Flexibility Score: inf
ROOT
ATOM      1  C   UNL     1      11.220  16.467  30.532  1.00  0.00     0.000 C 
ENDROOT
BRANCH   1   2
ATOM      2  C   UNL     1      12.414  16.196  31.476  1.00  0.00     0.000 C 
BRANCH   2   3
ATOM      3  C   UNL     1      12.453  14.756  32.020  1.00  0.00     0.000 C 
BRANCH   3   4
ATOM      4  C   UNL     1      13.637  13.951  31.461  1.00  0.00     0.000 C 
BRANCH   4   5
ATOM      5  C   UNL     1      13.241  13.236  30.161  1.00  0.00     0.000 C 
BRANCH   5   6
ATOM      6  C   UNL     1      14.167  13.586  28.985  1.00  0.00     0.000 C 
BRANCH   6   7
ATOM      7  C   UNL     1      13.667  14.792  28.175  1.00  0.00     0.000 C 
BRANCH   7   8
ATOM      8  C   UNL     1      12.314  14.487  27.513  1.00  0.00    -0.000 C 
BRANCH   8   9
ATOM      9  C   UNL     1      11.882  15.573  26.514  1.00  0.00    -0.000 C 
BRANCH   9  10
ATOM     10  C   UNL     1      12.532  16.935  26.797  1.00  0.00    -0.000 C 
BRANCH  10  11
ATOM     11  C   UNL     1      12.822  17.686  25.493  1.00  0.00    -0.000 C 
BRANCH  11  12
ATOM     12  C   UNL     1      11.521  18.094  24.789  1.00  0.00    -0.000 C 
BRANCH  12  13
ATOM     13  C   UNL     1      11.538  17.678  23.313  1.00  0.00    -0.000 C 
BRANCH  13  14
ATOM     14  C   UNL     1      10.443  16.644  23.019  1.00  0.00    -0.000 C 
BRANCH  14  15
ATOM     15  C   UNL     1      10.985  15.209  22.951  1.00  0.00    -0.003 C 
ATOM     16  C   UNL     1      12.503  15.157  22.782  1.00  0.00     0.004 C 
ENDBRANCH  14  15
ENDBRANCH  13  14
ENDBRANCH  12  13
ENDBRANCH  11  12
ENDBRANCH  10  11
ENDBRANCH   9  10
ENDBRANCH   8   9
ENDBRANCH   7   8
ENDBRANCH   6   7
ENDBRANCH   5   6
ENDBRANCH   4   5
ENDBRANCH   3   4
ENDBRANCH   2   3
ENDBRANCH   1   2
BRANCH   1  17
ATOM     17  C   UNL     1      10.241  15.282  30.420  1.00  0.00     0.000 C 
BRANCH  17  18
ATOM     18  C   UNL     1       8.893  15.491  31.132  1.00  0.00     0.000 C 
BRANCH  18  19
ATOM     19  C   UNL     1       7.802  14.528  30.628  1.00  0.00     0.000 C 
BRANCH  19  20
ATOM     20  C   UNL     1       8.056  14.052  29.183  1.00  0.00     0.000 C 
BRANCH  20  21
ATOM     21  C   UNL     1       7.027  13.029  28.667  1.00  0.00     0.000 C 
BRANCH  21  22
ATOM     22  C   UNL     1       6.518  13.274  27.236  1.00  0.00     0.000 C 
BRANCH  22  23
ATOM     23  C   UNL     1       7.210  14.468  26.554  1.00  0.00     0.000 C 
BRANCH  23  24
ATOM     24  C   UNL     1       7.727  14.127  25.147  1.00  0.00     0.000 C 
BRANCH  24  25
ATOM     25  C   UNL     1       7.062  12.868  24.566  1.00  0.00     0.000 C 
BRANCH  25  26
ATOM     26  C   UNL     1       6.415  13.121  23.194  1.00  0.00     0.000 C 
BRANCH  26  27
ATOM     27  C   UNL     1       7.144  12.400  22.050  1.00  0.00     0.002 C 
BRANCH  27  28
ATOM     28  C   UNL     1       8.662  12.399  22.281  1.00  0.00     0.028 C 
BRANCH  28  29
ATOM     29  C   UNL     1       9.250  10.986  22.237  1.00  0.00     0.156 C 
BRANCH  29  30
ATOM     30  O   UNL     1       9.915  10.762  21.022  1.00  0.00    -0.396 OA
ATOM     31  H   UNL     1      10.867  11.001  21.166  1.00  0.00     0.210 HD
ENDBRANCH  29  30
ENDBRANCH  28  29
ENDBRANCH  27  28
ENDBRANCH  26  27
ENDBRANCH  25  26
ENDBRANCH  24  25
ENDBRANCH  23  24
ENDBRANCH  22  23
ENDBRANCH  21  22
ENDBRANCH  20  21
ENDBRANCH  19  20
ENDBRANCH  18  19
ENDBRANCH  17  18
ENDBRANCH   1  17
TORSDOF 28
ENDMDL
MODEL 8
REMARK VINA RESULT:    -5.724      2.936      7.422
REMARK INTER + INTRA:         -18.807
REMARK INTER:                 -14.121
REMARK INTRA:                  -4.686
REMARK UNBOUND:                -3.880
REMARK SMILES CCCCCCCCCCCCCCCCCCCCCCCCCCCCCO
REMARK SMILES IDX 16 1 15 2 14 3 13 4 12 5 11 6 10 7 9 8 8 9 7 10 6 11 5 12
REMARK SMILES IDX 4 13 3 14 2 15 1 16 17 17 18 18 19 19 20 20 21 21 22 22
REMARK SMILES IDX 23 23 24 24 25 25 26 26 27 27 28 28 29 29 30 30
REMARK H PARENT 30 31
REMARK Flexibility Score: inf
ROOT
ATOM      1  C   UNL     1       8.396  14.551  29.111  1.00  0.00     0.000 C 
ENDROOT
BRANCH   1   2
ATOM      2  C   UNL     1       7.381  13.439  29.463  1.00  0.00     0.000 C 
BRANCH   2   3
ATOM      3  C   UNL     1       6.154  13.951  30.239  1.00  0.00     0.000 C 
BRANCH   3   4
ATOM      4  C   UNL     1       6.440  14.128  31.739  1.00  0.00     0.000 C 
BRANCH   4   5
ATOM      5  C   UNL     1       6.478  15.617  32.112  1.00  0.00     0.000 C 
BRANCH   5   6
ATOM      6  C   UNL     1       7.664  15.972  33.022  1.00  0.00     0.000 C 
BRANCH   6   7
ATOM      7  C   UNL     1       8.307  14.735  33.669  1.00  0.00     0.000 C 
BRANCH   7   8
ATOM      8  C   UNL     1       7.876  14.596  35.137  1.00  0.00    -0.000 C 
BRANCH   8   9
ATOM      9  C   UNL     1       8.920  13.864  35.996  1.00  0.00    -0.000 C 
BRANCH   9  10
ATOM     10  C   UNL     1      10.303  14.530  35.949  1.00  0.00    -0.000 C 
BRANCH  10  11
ATOM     11  C   UNL     1      11.401  13.494  35.681  1.00  0.00    -0.000 C 
BRANCH  11  12
ATOM     12  C   UNL     1      12.377  13.990  34.608  1.00  0.00    -0.000 C 
BRANCH  12  13
ATOM     13  C   UNL     1      12.822  15.430  34.890  1.00  0.00    -0.000 C 
BRANCH  13  14
ATOM     14  C   UNL     1      14.338  15.586  34.702  1.00  0.00    -0.000 C 
BRANCH  14  15
ATOM     15  C   UNL     1      15.043  16.087  35.971  1.00  0.00    -0.003 C 
ATOM     16  C   UNL     1      14.187  15.927  37.228  1.00  0.00     0.004 C 
ENDBRANCH  14  15
ENDBRANCH  13  14
ENDBRANCH  12  13
ENDBRANCH  11  12
ENDBRANCH  10  11
ENDBRANCH   9  10
ENDBRANCH   8   9
ENDBRANCH   7   8
ENDBRANCH   6   7
ENDBRANCH   5   6
ENDBRANCH   4   5
ENDBRANCH   3   4
ENDBRANCH   2   3
ENDBRANCH   1   2
BRANCH   1  17
ATOM     17  C   UNL     1       9.692  14.489  29.941  1.00  0.00     0.000 C 
BRANCH  17  18
ATOM     18  C   UNL     1      10.247  15.858  30.372  1.00  0.00     0.000 C 
BRANCH  18  19
ATOM     19  C   UNL     1      11.201  15.756  31.577  1.00  0.00     0.000 C 
BRANCH  19  20
ATOM     20  C   UNL     1      12.571  16.408  31.304  1.00  0.00     0.000 C 
BRANCH  20  21
ATOM     21  C   UNL     1      13.718  15.401  31.094  1.00  0.00     0.000 C 
BRANCH  21  22
ATOM     22  C   UNL     1      13.295  13.922  31.063  1.00  0.00     0.000 C 
BRANCH  22  23
ATOM     23  C   UNL     1      13.609  13.241  29.718  1.00  0.00     0.000 C 
BRANCH  23  24
ATOM     24  C   UNL     1      13.923  14.252  28.603  1.00  0.00     0.000 C 
BRANCH  24  25
ATOM     25  C   UNL     1      12.747  14.438  27.630  1.00  0.00     0.000 C 
BRANCH  25  26
ATOM     26  C   UNL     1      12.432  15.918  27.360  1.00  0.00     0.000 C 
BRANCH  26  27
ATOM     27  C   UNL     1      12.042  16.187  25.898  1.00  0.00     0.002 C 
BRANCH  27  28
ATOM     28  C   UNL     1      12.226  14.926  25.040  1.00  0.00     0.028 C 
BRANCH  28  29
ATOM     29  C   UNL     1      10.912  14.471  24.398  1.00  0.00     0.156 C 
BRANCH  29  30
ATOM     30  O   UNL     1      10.143  15.576  24.003  1.00  0.00    -0.396 OA
ATOM     31  H   UNL     1       9.476  15.245  23.348  1.00  0.00     0.210 HD
ENDBRANCH  29  30
ENDBRANCH  28  29
ENDBRANCH  27  28
ENDBRANCH  26  27
ENDBRANCH  25  26
ENDBRANCH  24  25
ENDBRANCH  23  24
ENDBRANCH  22  23
ENDBRANCH  21  22
ENDBRANCH  20  21
ENDBRANCH  19  20
ENDBRANCH  18  19
ENDBRANCH  17  18
ENDBRANCH   1  17
TORSDOF 28
ENDMDL
MODEL 9
REMARK VINA RESULT:    -5.710      4.172      9.550
REMARK INTER + INTRA:         -18.769
REMARK INTER:                 -15.918
REMARK INTRA:                  -2.851
REMARK UNBOUND:                -3.880
REMARK SMILES CCCCCCCCCCCCCCCCCCCCCCCCCCCCCO
REMARK SMILES IDX 16 1 15 2 14 3 13 4 12 5 11 6 10 7 9 8 8 9 7 10 6 11 5 12
REMARK SMILES IDX 4 13 3 14 2 15 1 16 17 17 18 18 19 19 20 20 21 21 22 22
REMARK SMILES IDX 23 23 24 24 25 25 26 26 27 27 28 28 29 29 30 30
REMARK H PARENT 30 31
REMARK Flexibility Score: inf
ROOT
ATOM      1  C   UNL     1      12.416  16.070  26.226  1.00  0.00     0.000 C 
ENDROOT
BRANCH   1   2
ATOM      2  C   UNL     1      12.120  15.533  24.807  1.00  0.00     0.000 C 
BRANCH   2   3
ATOM      3  C   UNL     1      12.481  14.047  24.624  1.00  0.00     0.000 C 
BRANCH   3   4
ATOM      4  C   UNL     1      13.114  13.761  23.254  1.00  0.00     0.000 C 
BRANCH   4   5
ATOM      5  C   UNL     1      12.884  14.936  22.293  1.00  0.00     0.000 C 
BRANCH   5   6
ATOM      6  C   UNL     1      12.683  14.485  20.838  1.00  0.00     0.000 C 
BRANCH   6   7
ATOM      7  C   UNL     1      13.998  14.437  20.045  1.00  0.00     0.000 C 
BRANCH   7   8
ATOM      8  C   UNL     1      14.515  12.995  19.925  1.00  0.00    -0.000 C 
BRANCH   8   9
ATOM      9  C   UNL     1      16.019  12.876  20.221  1.00  0.00    -0.000 C 
BRANCH   9  10
ATOM     10  C   UNL     1      16.412  13.498  21.569  1.00  0.00    -0.000 C 
BRANCH  10  11
ATOM     11  C   UNL     1      17.113  12.469  22.464  1.00  0.00    -0.000 C 
BRANCH  11  12
ATOM     12  C   UNL     1      18.620  12.425  22.180  1.00  0.00    -0.000 C 
BRANCH  12  13
ATOM     13  C   UNL     1      19.423  12.313  23.482  1.00  0.00    -0.000 C 
BRANCH  13  14
ATOM     14  C   UNL     1      19.169  13.521  24.393  1.00  0.00    -0.000 C 
BRANCH  14  15
ATOM     15  C   UNL     1      20.262  13.701  25.457  1.00  0.00    -0.003 C 
ATOM     16  C   UNL     1      20.757  12.373  26.029  1.00  0.00     0.004 C 
ENDBRANCH  14  15
ENDBRANCH  13  14
ENDBRANCH  12  13
ENDBRANCH  11  12
ENDBRANCH  10  11
ENDBRANCH   9  10
ENDBRANCH   8   9
ENDBRANCH   7   8
ENDBRANCH   6   7
ENDBRANCH   5   6
ENDBRANCH   4   5
ENDBRANCH   3   4
ENDBRANCH   2   3
ENDBRANCH   1   2
BRANCH   1  17
ATOM     17  C   UNL     1      12.304  14.999  27.328  1.00  0.00     0.000 C 
BRANCH  17  18
ATOM     18  C   UNL     1      13.555  14.849  28.211  1.00  0.00     0.000 C 
BRANCH  18  19
ATOM     19  C   UNL     1      13.679  13.443  28.828  1.00  0.00     0.000 C 
BRANCH  19  20
ATOM     20  C   UNL     1      13.387  13.435  30.342  1.00  0.00     0.000 C 
BRANCH  20  21
ATOM     21  C   UNL     1      13.954  14.650  31.100  1.00  0.00     0.000 C 
BRANCH  21  22
ATOM     22  C   UNL     1      12.917  15.486  31.870  1.00  0.00     0.000 C 
BRANCH  22  23
ATOM     23  C   UNL     1      12.448  16.723  31.083  1.00  0.00     0.000 C 
BRANCH  23  24
ATOM     24  C   UNL     1      11.029  16.558  30.514  1.00  0.00     0.000 C 
BRANCH  24  25
ATOM     25  C   UNL     1      10.375  15.234  30.943  1.00  0.00     0.000 C 
BRANCH  25  26
ATOM     26  C   UNL     1       9.659  14.525  29.781  1.00  0.00     0.000 C 
BRANCH  26  27
ATOM     27  C   UNL     1       8.145  14.786  29.766  1.00  0.00     0.002 C 
BRANCH  27  28
ATOM     28  C   UNL     1       7.622  15.062  31.183  1.00  0.00     0.028 C 
BRANCH  28  29
ATOM     29  C   UNL     1       6.100  14.911  31.274  1.00  0.00     0.156 C 
BRANCH  29  30
ATOM     30  O   UNL     1       5.612  14.148  30.203  1.00  0.00    -0.396 OA
ATOM     31  H   UNL     1       4.849  14.649  29.815  1.00  0.00     0.210 HD
ENDBRANCH  29  30
ENDBRANCH  28  29
ENDBRANCH  27  28
ENDBRANCH  26  27
ENDBRANCH  25  26
ENDBRANCH  24  25
ENDBRANCH  23  24
ENDBRANCH  22  23
ENDBRANCH  21  22
ENDBRANCH  20  21
ENDBRANCH  19  20
ENDBRANCH  18  19
ENDBRANCH  17  18
ENDBRANCH   1  17
TORSDOF 28
ENDMDL
