MODEL 1
REMARK VINA RESULT:    -2.117      0.000      0.000
REMARK INTER + INTRA:          -2.927
REMARK INTER:                  -3.232
REMARK INTRA:                   0.305
REMARK UNBOUND:                 0.305
REMARK SMILES CC1=CCC[C@H](C)C(=O)C[C@@H](C(C)C)C(=O)C1
REMARK SMILES IDX 8 1 9 2 6 3 7 4 5 5 4 6 3 7 2 8 1 9 10 11 11 12 15 13 16 14
REMARK SMILES IDX 17 15 12 17 13 18 14 19
REMARK H PARENT
REMARK Flexibility Score: 70.00
ROOT
ATOM      1  C   UNL     1      13.681  15.072  10.961  1.00  0.00     0.136 C 
ATOM      2  O   UNL     1      14.595  14.310  10.682  1.00  0.00    -0.299 OA
ENDROOT
BRANCH   1   3
ATOM      3  C   UNL     1      12.633  15.361   9.900  1.00  0.00     0.053 C 
ATOM      4  C   UNL     1      11.491  14.339   9.960  1.00  0.00     0.016 C 
BRANCH   3   5
ATOM      5  C   UNL     1      12.092  16.800   9.991  1.00  0.00     0.015 C 
BRANCH   5   6
ATOM      6  C   UNL     1      10.548  16.862   9.938  1.00  0.00     0.028 C 
BRANCH   6   7
ATOM      7  C   UNL     1       9.995  17.560  11.156  1.00  0.00    -0.028 C 
ATOM      8  C   UNL     1       9.849  17.000  12.381  1.00  0.00    -0.070 CG0
ATOM      9  C   UNL     1       9.225  17.840  13.467  1.00  0.00     0.039 C 
ATOM     10  G   UNL     1      10.338  15.598  12.723  1.00  0.00     0.000 G0
ENDBRANCH   6   7
ENDBRANCH   5   6
ENDBRANCH   3   5
ENDBRANCH   1   3
BRANCH   1  11
ATOM     11  C   UNL     1      13.645  15.678  12.350  1.00  0.00     0.087 C 
BRANCH  11  12
ATOM     12  C   UNL     1      12.826  14.850  13.378  1.00  0.00     0.066 C 
BRANCH  12  13
ATOM     13  C   UNL     1      11.480  15.491  13.703  1.00  0.00     0.140 C 
ATOM     14  O   UNL     1      11.307  15.949  14.823  1.00  0.00    -0.299 OA
BRANCH  13  15
ATOM     15  C   UNL     1      10.328  15.603  12.719  1.00  0.00     0.106 CG0
ATOM     16  G   UNL     1       9.860  17.014  12.389  1.00  0.00     0.000 G0
ENDBRANCH  13  15
ENDBRANCH  12  13
BRANCH  12  17
ATOM     17  C   UNL     1      13.664  14.531  14.656  1.00  0.00    -0.006 C 
ATOM     18  C   UNL     1      15.146  14.876  14.449  1.00  0.00     0.008 C 
ATOM     19  C   UNL     1      13.538  13.079  15.155  1.00  0.00     0.008 C 
ENDBRANCH  12  17
ENDBRANCH  11  12
ENDBRANCH   1  11
TORSDOF 1
ENDMDL
MODEL 2
REMARK VINA RESULT:    -2.006      1.818      4.753
REMARK INTER + INTRA:          -2.756
REMARK INTER:                  -3.331
REMARK INTRA:                   0.575
REMARK UNBOUND:                 0.305
REMARK SMILES CC1=CCC[C@H](C)C(=O)C[C@@H](C(C)C)C(=O)C1
REMARK SMILES IDX 8 1 9 2 6 3 7 4 5 5 4 6 3 7 2 8 1 9 10 11 11 12 15 13 16 14
REMARK SMILES IDX 17 15 12 17 13 18 14 19
REMARK H PARENT
REMARK Flexibility Score: 70.00
ROOT
ATOM      1  C   UNL     1      11.711  15.130  15.107  1.00  0.00     0.136 C 
ATOM      2  O   UNL     1      10.781  14.641  15.732  1.00  0.00    -0.299 OA
ENDROOT
BRANCH   1   3
ATOM      3  C   UNL     1      13.124  14.697  15.459  1.00  0.00     0.053 C 
ATOM      4  C   UNL     1      13.239  13.168  15.493  1.00  0.00     0.016 C 
BRANCH   3   5
ATOM      5  C   UNL     1      14.175  15.310  14.513  1.00  0.00     0.015 C 
BRANCH   5   6
ATOM      6  C   UNL     1      14.328  14.515  13.196  1.00  0.00     0.028 C 
BRANCH   6   7
ATOM      7  C   UNL     1      14.040  15.391  12.002  1.00  0.00    -0.028 C 
ATOM      8  C   UNL     1      12.921  15.336  11.241  1.00  0.00    -0.070 CG0
ATOM      9  C   UNL     1      12.835  16.258  10.051  1.00  0.00     0.039 C 
ATOM     10  G   UNL     1      11.733  14.440  11.566  1.00  0.00     0.000 G0
ENDBRANCH   6   7
ENDBRANCH   5   6
ENDBRANCH   3   5
ENDBRANCH   1   3
BRANCH   1  11
ATOM     11  C   UNL     1      11.398  16.134  14.016  1.00  0.00     0.087 C 
BRANCH  11  12
ATOM     12  C   UNL     1      10.111  15.807  13.209  1.00  0.00     0.066 C 
BRANCH  12  13
ATOM     13  C   UNL     1      10.415  15.108  11.887  1.00  0.00     0.140 C 
ATOM     14  O   UNL     1       9.550  15.089  11.024  1.00  0.00    -0.299 OA
BRANCH  13  15
ATOM     15  C   UNL     1      11.734  14.428  11.564  1.00  0.00     0.106 CG0
ATOM     16  G   UNL     1      12.904  15.348  11.237  1.00  0.00     0.000 G0
ENDBRANCH  13  15
ENDBRANCH  12  13
BRANCH  12  17
ATOM     17  C   UNL     1       9.210  17.070  13.028  1.00  0.00    -0.006 C 
ATOM     18  C   UNL     1       9.629  17.878  11.791  1.00  0.00     0.008 C 
ATOM     19  C   UNL     1       9.159  17.998  14.256  1.00  0.00     0.008 C 
ENDBRANCH  12  17
ENDBRANCH  11  12
ENDBRANCH   1  11
TORSDOF 1
ENDMDL
MODEL 3
REMARK VINA RESULT:    -1.883      1.835      4.346
REMARK INTER + INTRA:          -2.570
REMARK INTER:                  -2.776
REMARK INTRA:                   0.207
REMARK UNBOUND:                 0.305
REMARK SMILES CC1=CCC[C@H](C)C(=O)C[C@@H](C(C)C)C(=O)C1
REMARK SMILES IDX 8 1 9 2 6 3 7 4 5 5 4 6 3 7 2 8 1 9 10 11 11 12 15 13 16 14
REMARK SMILES IDX 17 15 12 17 13 18 14 19
REMARK H PARENT
REMARK Flexibility Score: 70.00
ROOT
ATOM      1  C   UNL     1      11.394  16.531  10.531  1.00  0.00     0.136 C 
ATOM      2  O   UNL     1      11.118  17.581   9.967  1.00  0.00    -0.299 OA
ENDROOT
BRANCH   1   3
ATOM      3  C   UNL     1      12.689  15.830  10.155  1.00  0.00     0.053 C 
ATOM      4  C   UNL     1      13.817  16.842   9.920  1.00  0.00     0.016 C 
BRANCH   3   5
ATOM      5  C   UNL     1      13.103  14.772  11.195  1.00  0.00     0.015 C 
BRANCH   5   6
ATOM      6  C   UNL     1      13.807  15.389  12.426  1.00  0.00     0.028 C 
BRANCH   6   7
ATOM      7  C   UNL     1      13.639  14.508  13.639  1.00  0.00    -0.028 C 
ATOM      8  C   UNL     1      12.902  14.814  14.734  1.00  0.00    -0.070 CG0
ATOM      9  C   UNL     1      12.897  13.828  15.875  1.00  0.00     0.039 C 
ATOM     10  G   UNL     1      12.037  16.064  14.836  1.00  0.00     0.000 G0
ENDBRANCH   6   7
ENDBRANCH   5   6
ENDBRANCH   3   5
ENDBRANCH   1   3
BRANCH   1  11
ATOM     11  C   UNL     1      10.433  15.996  11.573  1.00  0.00     0.087 C 
BRANCH  11  12
ATOM     12  C   UNL     1      10.373  16.849  12.870  1.00  0.00     0.066 C 
BRANCH  12  13
ATOM     13  C   UNL     1      10.695  16.034  14.119  1.00  0.00     0.140 C 
ATOM     14  O   UNL     1       9.828  15.305  14.581  1.00  0.00    -0.299 OA
BRANCH  13  15
ATOM     15  C   UNL     1      12.033  16.062  14.836  1.00  0.00     0.106 CG0
ATOM     16  G   UNL     1      12.881  14.801  14.730  1.00  0.00     0.000 G0
ENDBRANCH  13  15
ENDBRANCH  12  13
BRANCH  12  17
ATOM     17  C   UNL     1       9.019  17.620  12.988  1.00  0.00    -0.006 C 
ATOM     18  C   UNL     1       8.745  18.456  11.730  1.00  0.00     0.008 C 
ATOM     19  C   UNL     1       8.901  18.513  14.236  1.00  0.00     0.008 C 
ENDBRANCH  12  17
ENDBRANCH  11  12
ENDBRANCH   1  11
TORSDOF 1
ENDMDL
MODEL 4
REMARK VINA RESULT:    -1.589      1.715      3.965
REMARK INTER + INTRA:          -2.120
REMARK INTER:                  -2.164
REMARK INTRA:                   0.044
REMARK UNBOUND:                 0.305
REMARK SMILES CC1=CCC[C@H](C)C(=O)C[C@@H](C(C)C)C(=O)C1
REMARK SMILES IDX 8 1 9 2 6 3 7 4 5 5 4 6 3 7 2 8 1 9 10 11 11 12 15 13 16 14
REMARK SMILES IDX 17 15 12 17 13 18 14 19
REMARK H PARENT
REMARK Flexibility Score: 70.00
ROOT
ATOM      1  C   UNL     1      14.109  15.252  13.552  1.00  0.00     0.136 C 
ATOM      2  O   UNL     1      14.970  16.112  13.437  1.00  0.00    -0.299 OA
ENDROOT
BRANCH   1   3
ATOM      3  C   UNL     1      13.873  14.646  14.925  1.00  0.00     0.053 C 
ATOM      4  C   UNL     1      15.071  14.895  15.850  1.00  0.00     0.016 C 
BRANCH   3   5
ATOM      5  C   UNL     1      12.565  15.145  15.567  1.00  0.00     0.015 C 
BRANCH   5   6
ATOM      6  C   UNL     1      11.316  14.801  14.724  1.00  0.00     0.028 C 
BRANCH   6   7
ATOM      7  C   UNL     1      10.515  16.042  14.416  1.00  0.00    -0.028 C 
ATOM      8  C   UNL     1      10.177  16.469  13.176  1.00  0.00    -0.070 CG0
ATOM      9  C   UNL     1       9.416  17.767  13.063  1.00  0.00     0.039 C 
ATOM     10  G   UNL     1      10.470  15.675  11.910  1.00  0.00     0.000 G0
ENDBRANCH   6   7
ENDBRANCH   5   6
ENDBRANCH   3   5
ENDBRANCH   1   3
BRANCH   1  11
ATOM     11  C   UNL     1      13.325  14.846  12.320  1.00  0.00     0.087 C 
BRANCH  11  12
ATOM     12  C   UNL     1      13.070  16.011  11.324  1.00  0.00     0.066 C 
BRANCH  12  13
ATOM     13  C   UNL     1      11.587  16.201  11.017  1.00  0.00     0.140 C 
ATOM     14  O   UNL     1      11.274  16.803  10.000  1.00  0.00    -0.299 OA
BRANCH  13  15
ATOM     15  C   UNL     1      10.460  15.686  11.895  1.00  0.00     0.106 CG0
ATOM     16  G   UNL     1      10.180  16.478  13.165  1.00  0.00     0.000 G0
ENDBRANCH  13  15
ENDBRANCH  12  13
BRANCH  12  17
ATOM     17  C   UNL     1      13.937  15.863  10.033  1.00  0.00    -0.006 C 
ATOM     18  C   UNL     1      14.527  14.449   9.920  1.00  0.00     0.008 C 
ATOM     19  C   UNL     1      15.063  16.903   9.899  1.00  0.00     0.008 C 
ENDBRANCH  12  17
ENDBRANCH  11  12
ENDBRANCH   1  11
TORSDOF 1
ENDMDL
MODEL 5
REMARK VINA RESULT:    -1.572      0.977      1.559
REMARK INTER + INTRA:          -2.095
REMARK INTER:                  -2.414
REMARK INTRA:                   0.320
REMARK UNBOUND:                 0.305
REMARK SMILES CC1=CCC[C@H](C)C(=O)C[C@@H](C(C)C)C(=O)C1
REMARK SMILES IDX 8 1 9 2 6 3 7 4 5 5 4 6 3 7 2 8 1 9 10 11 11 12 15 13 16 14
REMARK SMILES IDX 17 15 12 17 13 18 14 19
REMARK H PARENT
REMARK Flexibility Score: 70.00
ROOT
ATOM      1  C   UNL     1      13.688  15.186  11.444  1.00  0.00     0.136 C 
ATOM      2  O   UNL     1      14.452  14.639  10.663  1.00  0.00    -0.299 OA
ENDROOT
BRANCH   1   3
ATOM      3  C   UNL     1      12.440  15.850  10.887  1.00  0.00     0.053 C 
ATOM      4  C   UNL     1      12.804  16.989   9.927  1.00  0.00     0.016 C 
BRANCH   3   5
ATOM      5  C   UNL     1      11.492  14.840  10.213  1.00  0.00     0.015 C 
BRANCH   5   6
ATOM      6  C   UNL     1      10.098  14.793  10.878  1.00  0.00     0.028 C 
BRANCH   6   7
ATOM      7  C   UNL     1       9.793  16.092  11.582  1.00  0.00    -0.028 C 
ATOM      8  C   UNL     1       9.884  16.300  12.918  1.00  0.00    -0.070 CG0
ATOM      9  C   UNL     1       9.485  17.655  13.446  1.00  0.00     0.039 C 
ATOM     10  G   UNL     1      10.426  15.261  13.890  1.00  0.00     0.000 G0
ENDBRANCH   6   7
ENDBRANCH   5   6
ENDBRANCH   3   5
ENDBRANCH   1   3
BRANCH   1  11
ATOM     11  C   UNL     1      14.027  15.164  12.921  1.00  0.00     0.087 C 
BRANCH  11  12
ATOM     12  C   UNL     1      12.975  14.431  13.798  1.00  0.00     0.066 C 
BRANCH  12  13
ATOM     13  C   UNL     1      11.877  15.367  14.295  1.00  0.00     0.140 C 
ATOM     14  O   UNL     1      12.181  16.269  15.063  1.00  0.00    -0.299 OA
BRANCH  13  15
ATOM     15  C   UNL     1      10.416  15.257  13.897  1.00  0.00     0.106 CG0
ATOM     16  G   UNL     1       9.902  16.310  12.923  1.00  0.00     0.000 G0
ENDBRANCH  13  15
ENDBRANCH  12  13
BRANCH  12  17
ATOM     17  C   UNL     1      13.650  13.629  14.956  1.00  0.00    -0.006 C 
ATOM     18  C   UNL     1      12.602  12.920  15.826  1.00  0.00     0.008 C 
ATOM     19  C   UNL     1      14.583  14.465  15.851  1.00  0.00     0.008 C 
ENDBRANCH  12  17
ENDBRANCH  11  12
ENDBRANCH   1  11
TORSDOF 1
ENDMDL
MODEL 6
REMARK VINA RESULT:    -0.617      2.000      4.329
REMARK INTER + INTRA:          -0.638
REMARK INTER:                  -1.695
REMARK INTRA:                   1.057
REMARK UNBOUND:                 0.305
REMARK SMILES CC1=CCC[C@H](C)C(=O)C[C@@H](C(C)C)C(=O)C1
REMARK SMILES IDX 8 1 9 2 6 3 7 4 5 5 4 6 3 7 2 8 1 9 10 11 11 12 15 13 16 14
REMARK SMILES IDX 17 15 12 17 13 18 14 19
REMARK H PARENT
REMARK Flexibility Score: 70.00
ROOT
ATOM      1  C   UNL     1      10.597  16.320  11.787  1.00  0.00     0.136 C 
ATOM      2  O   UNL     1       9.981  15.275  11.635  1.00  0.00    -0.299 OA
ENDROOT
BRANCH   1   3
ATOM      3  C   UNL     1      10.032  17.357  12.743  1.00  0.00     0.053 C 
ATOM      4  C   UNL     1       8.825  18.076  12.128  1.00  0.00     0.016 C 
BRANCH   3   5
ATOM      5  C   UNL     1       9.674  16.753  14.115  1.00  0.00     0.015 C 
BRANCH   5   6
ATOM      6  C   UNL     1      10.260  15.336  14.314  1.00  0.00     0.028 C 
BRANCH   6   7
ATOM      7  C   UNL     1      11.470  15.376  15.215  1.00  0.00    -0.028 C 
ATOM      8  C   UNL     1      12.680  14.839  14.927  1.00  0.00    -0.070 CG0
ATOM      9  C   UNL     1      13.758  14.932  15.978  1.00  0.00     0.039 C 
ATOM     10  G   UNL     1      13.017  14.212  13.580  1.00  0.00     0.000 G0
ENDBRANCH   6   7
ENDBRANCH   5   6
ENDBRANCH   3   5
ENDBRANCH   1   3
BRANCH   1  11
ATOM     11  C   UNL     1      11.886  16.517  11.017  1.00  0.00     0.087 C 
BRANCH  11  12
ATOM     12  C   UNL     1      12.863  15.312  11.106  1.00  0.00     0.066 C 
BRANCH  12  13
ATOM     13  C   UNL     1      13.499  15.178  12.486  1.00  0.00     0.140 C 
ATOM     14  O   UNL     1      14.464  15.879  12.756  1.00  0.00    -0.299 OA
BRANCH  13  15
ATOM     15  C   UNL     1      13.010  14.225  13.563  1.00  0.00     0.106 CG0
ATOM     16  G   UNL     1      12.677  14.847  14.913  1.00  0.00     0.000 G0
ENDBRANCH  13  15
ENDBRANCH  12  13
BRANCH  12  17
ATOM     17  C   UNL     1      13.922  15.345   9.957  1.00  0.00    -0.006 C 
ATOM     18  C   UNL     1      14.880  14.149  10.051  1.00  0.00     0.008 C 
ATOM     19  C   UNL     1      14.733  16.651   9.876  1.00  0.00     0.008 C 
ENDBRANCH  12  17
ENDBRANCH  11  12
ENDBRANCH   1  11
TORSDOF 1
ENDMDL
MODEL 7
REMARK VINA RESULT:    -0.451      2.582      5.699
REMARK INTER + INTRA:          -0.383
REMARK INTER:                  -0.310
REMARK INTRA:                  -0.073
REMARK UNBOUND:                 0.305
REMARK SMILES CC1=CCC[C@H](C)C(=O)C[C@@H](C(C)C)C(=O)C1
REMARK SMILES IDX 8 1 9 2 6 3 7 4 5 5 4 6 3 7 2 8 1 9 10 11 11 12 15 13 16 14
REMARK SMILES IDX 17 15 12 17 13 18 14 19
REMARK H PARENT
REMARK Flexibility Score: 70.00
ROOT
ATOM      1  C   UNL     1      15.036  15.365  14.238  1.00  0.00     0.136 C 
ATOM      2  O   UNL     1      15.180  16.492  13.786  1.00  0.00    -0.299 OA
ENDROOT
BRANCH   1   3
ATOM      3  C   UNL     1      16.130  14.798  15.126  1.00  0.00     0.053 C 
ATOM      4  C   UNL     1      16.092  15.434  16.522  1.00  0.00     0.016 C 
BRANCH   3   5
ATOM      5  C   UNL     1      16.071  13.262  15.217  1.00  0.00     0.015 C 
BRANCH   5   6
ATOM      6  C   UNL     1      15.625  12.763  16.610  1.00  0.00     0.028 C 
BRANCH   6   7
ATOM      7  C   UNL     1      14.323  12.004  16.519  1.00  0.00    -0.028 C 
ATOM      8  C   UNL     1      13.088  12.551  16.631  1.00  0.00    -0.070 CG0
ATOM      9  C   UNL     1      11.902  11.622  16.566  1.00  0.00     0.039 C 
ATOM     10  G   UNL     1      12.845  14.049  16.754  1.00  0.00     0.000 G0
ENDBRANCH   6   7
ENDBRANCH   5   6
ENDBRANCH   3   5
ENDBRANCH   1   3
BRANCH   1  11
ATOM     11  C   UNL     1      13.773  14.604  13.889  1.00  0.00     0.087 C 
BRANCH  11  12
ATOM     12  C   UNL     1      12.467  15.294  14.373  1.00  0.00     0.066 C 
BRANCH  12  13
ATOM     13  C   UNL     1      11.953  14.711  15.687  1.00  0.00     0.140 C 
ATOM     14  O   UNL     1      10.753  14.758  15.916  1.00  0.00    -0.299 OA
BRANCH  13  15
ATOM     15  C   UNL     1      12.838  14.068  16.740  1.00  0.00     0.106 CG0
ATOM     16  G   UNL     1      13.090  12.574  16.587  1.00  0.00     0.000 G0
ENDBRANCH  13  15
ENDBRANCH  12  13
BRANCH  12  17
ATOM     17  C   UNL     1      11.377  15.309  13.255  1.00  0.00    -0.006 C 
ATOM     18  C   UNL     1      12.006  15.142  11.864  1.00  0.00     0.008 C 
ATOM     19  C   UNL     1      10.472  16.554  13.265  1.00  0.00     0.008 C 
ENDBRANCH  12  17
ENDBRANCH  11  12
ENDBRANCH   1  11
TORSDOF 1
ENDMDL
MODEL 8
REMARK VINA RESULT:    -0.121      1.618      3.554
REMARK INTER + INTRA:           0.121
REMARK INTER:                  -1.464
REMARK INTRA:                   1.585
REMARK UNBOUND:                 0.305
REMARK SMILES CC1=CCC[C@H](C)C(=O)C[C@@H](C(C)C)C(=O)C1
REMARK SMILES IDX 8 1 9 2 6 3 7 4 5 5 4 6 3 7 2 8 1 9 10 11 11 12 15 13 16 14
REMARK SMILES IDX 17 15 12 17 13 18 14 19
REMARK H PARENT
REMARK Flexibility Score: 70.00
ROOT
ATOM      1  C   UNL     1      13.388  15.159  12.192  1.00  0.00     0.136 C 
ATOM      2  O   UNL     1      14.485  14.624  12.257  1.00  0.00    -0.299 OA
ENDROOT
BRANCH   1   3
ATOM      3  C   UNL     1      12.368  14.846  13.274  1.00  0.00     0.053 C 
ATOM      4  C   UNL     1      13.004  14.045  14.416  1.00  0.00     0.016 C 
BRANCH   3   5
ATOM      5  C   UNL     1      11.676  16.115  13.808  1.00  0.00     0.015 C 
BRANCH   5   6
ATOM      6  C   UNL     1      10.152  15.930  13.995  1.00  0.00     0.028 C 
BRANCH   6   7
ATOM      7  C   UNL     1       9.405  17.180  13.598  1.00  0.00    -0.028 C 
ATOM      8  C   UNL     1       9.108  17.546  12.328  1.00  0.00    -0.070 CG0
ATOM      9  C   UNL     1       8.400  18.861  12.123  1.00  0.00     0.039 C 
ATOM     10  G   UNL     1       9.397  16.668  11.117  1.00  0.00     0.000 G0
ENDBRANCH   6   7
ENDBRANCH   5   6
ENDBRANCH   3   5
ENDBRANCH   1   3
BRANCH   1  11
ATOM     11  C   UNL     1      13.113  16.105  11.041  1.00  0.00     0.087 C 
BRANCH  11  12
ATOM     12  C   UNL     1      11.805  15.789  10.264  1.00  0.00     0.066 C 
BRANCH  12  13
ATOM     13  C   UNL     1      10.749  16.877  10.435  1.00  0.00     0.140 C 
ATOM     14  O   UNL     1      10.984  17.994   9.995  1.00  0.00    -0.299 OA
BRANCH  13  15
ATOM     15  C   UNL     1       9.409  16.667  11.119  1.00  0.00     0.106 CG0
ATOM     16  G   UNL     1       9.125  17.549  12.328  1.00  0.00     0.000 G0
ENDBRANCH  13  15
ENDBRANCH  12  13
BRANCH  12  17
ATOM     17  C   UNL     1      11.263  14.366  10.609  1.00  0.00    -0.006 C 
ATOM     18  C   UNL     1      12.071  13.275   9.892  1.00  0.00     0.008 C 
ATOM     19  C   UNL     1       9.763  14.168  10.321  1.00  0.00     0.008 C 
ENDBRANCH  12  17
ENDBRANCH  11  12
ENDBRANCH   1  11
TORSDOF 1
ENDMDL
MODEL 9
REMARK VINA RESULT:     0.007      1.885      3.634
REMARK INTER + INTRA:           0.316
REMARK INTER:                  -1.228
REMARK INTRA:                   1.543
REMARK UNBOUND:                 0.305
REMARK SMILES CC1=CCC[C@H](C)C(=O)C[C@@H](C(C)C)C(=O)C1
REMARK SMILES IDX 8 1 9 2 6 3 7 4 5 5 4 6 3 7 2 8 1 9 10 11 11 12 15 13 16 14
REMARK SMILES IDX 17 15 12 17 13 18 14 19
REMARK H PARENT
REMARK Flexibility Score: 70.00
ROOT
ATOM      1  C   UNL     1      11.347  14.949  13.109  1.00  0.00     0.136 C 
ATOM      2  O   UNL     1      11.801  13.921  12.628  1.00  0.00    -0.299 OA
ENDROOT
BRANCH   1   3
ATOM      3  C   UNL     1      10.198  15.635  12.389  1.00  0.00     0.053 C 
ATOM      4  C   UNL     1       9.980  17.055  12.926  1.00  0.00     0.016 C 
BRANCH   3   5
ATOM      5  C   UNL     1      10.389  15.645  10.861  1.00  0.00     0.015 C 
BRANCH   5   6
ATOM      6  C   UNL     1      11.514  16.603  10.406  1.00  0.00     0.028 C 
BRANCH   6   7
ATOM      7  C   UNL     1      12.711  15.830   9.909  1.00  0.00    -0.028 C 
ATOM      8  C   UNL     1      13.876  15.669  10.582  1.00  0.00    -0.070 CG0
ATOM      9  C   UNL     1      14.982  14.906   9.898  1.00  0.00     0.039 C 
ATOM     10  G   UNL     1      14.093  16.164  12.006  1.00  0.00     0.000 G0
ENDBRANCH   6   7
ENDBRANCH   5   6
ENDBRANCH   3   5
ENDBRANCH   1   3
BRANCH   1  11
ATOM     11  C   UNL     1      11.954  15.475  14.394  1.00  0.00     0.087 C 
BRANCH  11  12
ATOM     12  C   UNL     1      13.498  15.320  14.471  1.00  0.00     0.066 C 
BRANCH  12  13
ATOM     13  C   UNL     1      14.133  15.127  13.097  1.00  0.00     0.140 C 
ATOM     14  O   UNL     1      14.698  14.069  12.858  1.00  0.00    -0.299 OA
BRANCH  13  15
ATOM     15  C   UNL     1      14.112  16.169  11.992  1.00  0.00     0.106 CG0
ATOM     16  G   UNL     1      13.869  15.649  10.581  1.00  0.00     0.000 G0
ENDBRANCH  13  15
ENDBRANCH  12  13
BRANCH  12  17
ATOM     17  C   UNL     1      13.913  14.209  15.487  1.00  0.00    -0.006 C 
ATOM     18  C   UNL     1      12.683  13.478  16.045  1.00  0.00     0.008 C 
ATOM     19  C   UNL     1      14.789  14.705  16.652  1.00  0.00     0.008 C 
ENDBRANCH  12  17
ENDBRANCH  11  12
ENDBRANCH   1  11
TORSDOF 1
ENDMDL
