MODEL 1
REMARK VINA RESULT:    -3.516      0.000      0.000
REMARK INTER + INTRA:          -6.049
REMARK INTER:                  -5.366
REMARK INTRA:                  -0.683
REMARK UNBOUND:                -0.683
REMARK SMILES O=C([O-])CCCCCCCCC(=O)[O-]
REMARK SMILES IDX 7 1 6 2 5 3 4 4 2 5 1 6 3 7 8 8 9 9 10 10 11 11 12 12 13 13
REMARK SMILES IDX 14 14
REMARK H PARENT
REMARK Flexibility Score: inf
ROOT
ATOM      1  C   UNL     1     -45.543 -36.970  13.250  1.00  0.00     0.000 C 
ENDROOT
BRANCH   1   2
ATOM      2  C   UNL     1     -45.193 -35.812  12.301  1.00  0.00     0.000 C 
BRANCH   2   3
ATOM      3  C   UNL     1     -45.690 -34.452  12.818  1.00  0.00     0.006 C 
BRANCH   3   4
ATOM      4  C   UNL     1     -45.716 -34.389  14.352  1.00  0.00     0.053 C 
BRANCH   4   5
ATOM      5  C   UNL     1     -45.284 -33.049  14.863  1.00  0.00     0.041 C 
ATOM      6  O   UNL     1     -45.462 -32.016  14.164  1.00  0.00    -0.550 OA
ATOM      7  O   UNL     1     -44.656 -32.943  16.098  1.00  0.00    -0.550 OA
ENDBRANCH   4   5
ENDBRANCH   3   4
ENDBRANCH   2   3
ENDBRANCH   1   2
BRANCH   1   8
ATOM      8  C   UNL     1     -44.384 -37.961  13.429  1.00  0.00     0.000 C 
BRANCH   8   9
ATOM      9  C   UNL     1     -44.004 -38.099  14.908  1.00  0.00     0.000 C 
BRANCH   9  10
ATOM     10  C   UNL     1     -45.222 -37.869  15.815  1.00  0.00     0.006 C 
BRANCH  10  11
ATOM     11  C   UNL     1     -44.935 -38.229  17.278  1.00  0.00     0.053 C 
BRANCH  11  12
ATOM     12  C   UNL     1     -44.613 -37.016  18.096  1.00  0.00     0.041 C 
ATOM     13  O   UNL     1     -44.940 -35.871  17.687  1.00  0.00    -0.550 OA
ATOM     14  O   UNL     1     -43.981 -37.153  19.325  1.00  0.00    -0.550 OA
ENDBRANCH  11  12
ENDBRANCH  10  11
ENDBRANCH   9  10
ENDBRANCH   8   9
ENDBRANCH   1   8
TORSDOF 9
ENDMDL
MODEL 2
REMARK VINA RESULT:    -3.502      1.110      4.621
REMARK INTER + INTRA:          -6.027
REMARK INTER:                  -5.280
REMARK INTRA:                  -0.747
REMARK UNBOUND:                -0.683
REMARK SMILES O=C([O-])CCCCCCCCC(=O)[O-]
REMARK SMILES IDX 7 1 6 2 5 3 4 4 2 5 1 6 3 7 8 8 9 9 10 10 11 11 12 12 13 13
REMARK SMILES IDX 14 14
REMARK H PARENT
REMARK Flexibility Score: inf
ROOT
ATOM      1  C   UNL     1     -44.621 -38.262  13.997  1.00  0.00     0.000 C 
ENDROOT
BRANCH   1   2
ATOM      2  C   UNL     1     -43.862 -37.972  15.302  1.00  0.00     0.000 C 
BRANCH   2   3
ATOM      3  C   UNL     1     -44.781 -37.980  16.536  1.00  0.00     0.006 C 
BRANCH   3   4
ATOM      4  C   UNL     1     -45.526 -36.650  16.712  1.00  0.00     0.053 C 
BRANCH   4   5
ATOM      5  C   UNL     1     -44.766 -35.696  17.581  1.00  0.00     0.041 C 
ATOM      6  O   UNL     1     -44.463 -36.016  18.761  1.00  0.00    -0.550 OA
ATOM      7  O   UNL     1     -44.418 -34.440  17.098  1.00  0.00    -0.550 OA
ENDBRANCH   4   5
ENDBRANCH   3   4
ENDBRANCH   2   3
ENDBRANCH   1   2
BRANCH   1   8
ATOM      8  C   UNL     1     -44.512 -37.116  12.980  1.00  0.00     0.000 C 
BRANCH   8   9
ATOM      9  C   UNL     1     -45.890 -36.511  12.687  1.00  0.00     0.000 C 
BRANCH   9  10
ATOM     10  C   UNL     1     -45.793 -34.991  12.485  1.00  0.00     0.006 C 
BRANCH  10  11
ATOM     11  C   UNL     1     -45.729 -34.231  13.815  1.00  0.00     0.053 C 
BRANCH  11  12
ATOM     12  C   UNL     1     -45.318 -32.803  13.620  1.00  0.00     0.041 C 
ATOM     13  O   UNL     1     -45.641 -32.189  12.569  1.00  0.00    -0.550 OA
ATOM     14  O   UNL     1     -44.607 -32.142  14.613  1.00  0.00    -0.550 OA
ENDBRANCH  11  12
ENDBRANCH  10  11
ENDBRANCH   9  10
ENDBRANCH   8   9
ENDBRANCH   1   8
TORSDOF 9
ENDMDL
MODEL 3
REMARK VINA RESULT:    -3.443      1.566      2.541
REMARK INTER + INTRA:          -5.937
REMARK INTER:                  -5.509
REMARK INTRA:                  -0.427
REMARK UNBOUND:                -0.683
REMARK SMILES O=C([O-])CCCCCCCCC(=O)[O-]
REMARK SMILES IDX 7 1 6 2 5 3 4 4 2 5 1 6 3 7 8 8 9 9 10 10 11 11 12 12 13 13
REMARK SMILES IDX 14 14
REMARK H PARENT
REMARK Flexibility Score: inf
ROOT
ATOM      1  C   UNL     1     -44.009 -37.988  14.803  1.00  0.00     0.000 C 
ENDROOT
BRANCH   1   2
ATOM      2  C   UNL     1     -44.407 -37.862  13.323  1.00  0.00     0.000 C 
BRANCH   2   3
ATOM      3  C   UNL     1     -45.683 -37.028  13.122  1.00  0.00     0.006 C 
BRANCH   3   4
ATOM      4  C   UNL     1     -45.415 -35.741  12.329  1.00  0.00     0.053 C 
BRANCH   4   5
ATOM      5  C   UNL     1     -45.505 -34.522  13.197  1.00  0.00     0.041 C 
ATOM      6  O   UNL     1     -45.479 -33.374  12.681  1.00  0.00    -0.550 OA
ATOM      7  O   UNL     1     -45.586 -34.655  14.577  1.00  0.00    -0.550 OA
ENDBRANCH   4   5
ENDBRANCH   3   4
ENDBRANCH   2   3
ENDBRANCH   1   2
BRANCH   1   8
ATOM      8  C   UNL     1     -45.206 -37.832  15.754  1.00  0.00     0.000 C 
BRANCH   8   9
ATOM      9  C   UNL     1     -44.885 -38.409  17.137  1.00  0.00     0.000 C 
BRANCH   9  10
ATOM     10  C   UNL     1     -45.314 -37.443  18.251  1.00  0.00     0.006 C 
BRANCH  10  11
ATOM     11  C   UNL     1     -44.133 -37.002  19.125  1.00  0.00     0.053 C 
BRANCH  11  12
ATOM     12  C   UNL     1     -44.547 -36.777  20.547  1.00  0.00     0.041 C 
ATOM     13  O   UNL     1     -45.234 -37.642  21.151  1.00  0.00    -0.550 OA
ATOM     14  O   UNL     1     -44.146 -35.627  21.215  1.00  0.00    -0.550 OA
ENDBRANCH  11  12
ENDBRANCH  10  11
ENDBRANCH   9  10
ENDBRANCH   8   9
ENDBRANCH   1   8
TORSDOF 9
ENDMDL
MODEL 4
REMARK VINA RESULT:    -3.430      2.081      3.880
REMARK INTER + INTRA:          -5.918
REMARK INTER:                  -5.166
REMARK INTRA:                  -0.752
REMARK UNBOUND:                -0.683
REMARK SMILES O=C([O-])CCCCCCCCC(=O)[O-]
REMARK SMILES IDX 7 1 6 2 5 3 4 4 2 5 1 6 3 7 8 8 9 9 10 10 11 11 12 12 13 13
REMARK SMILES IDX 14 14
REMARK H PARENT
REMARK Flexibility Score: inf
ROOT
ATOM      1  C   UNL     1     -45.789 -34.748  14.479  1.00  0.00     0.000 C 
ENDROOT
BRANCH   1   2
ATOM      2  C   UNL     1     -45.550 -33.424  15.223  1.00  0.00     0.000 C 
BRANCH   2   3
ATOM      3  C   UNL     1     -45.112 -33.636  16.682  1.00  0.00     0.006 C 
BRANCH   3   4
ATOM      4  C   UNL     1     -44.431 -34.995  16.891  1.00  0.00     0.053 C 
BRANCH   4   5
ATOM      5  C   UNL     1     -44.803 -35.609  18.206  1.00  0.00     0.041 C 
ATOM      6  O   UNL     1     -45.379 -34.919  19.087  1.00  0.00    -0.550 OA
ATOM      7  O   UNL     1     -44.486 -36.936  18.469  1.00  0.00    -0.550 OA
ENDBRANCH   4   5
ENDBRANCH   3   4
ENDBRANCH   2   3
ENDBRANCH   1   2
BRANCH   1   8
ATOM      8  C   UNL     1     -45.731 -34.589  12.952  1.00  0.00     0.000 C 
BRANCH   8   9
ATOM      9  C   UNL     1     -45.072 -35.809  12.298  1.00  0.00     0.000 C 
BRANCH   9  10
ATOM     10  C   UNL     1     -45.633 -37.116  12.877  1.00  0.00     0.006 C 
BRANCH  10  11
ATOM     11  C   UNL     1     -44.525 -38.101  13.270  1.00  0.00     0.053 C 
BRANCH  11  12
ATOM     12  C   UNL     1     -44.362 -38.190  14.756  1.00  0.00     0.041 C 
ATOM     13  O   UNL     1     -45.372 -38.162  15.508  1.00  0.00    -0.550 OA
ATOM     14  O   UNL     1     -43.097 -38.337  15.310  1.00  0.00    -0.550 OA
ENDBRANCH  11  12
ENDBRANCH  10  11
ENDBRANCH   9  10
ENDBRANCH   8   9
ENDBRANCH   1   8
TORSDOF 9
ENDMDL
MODEL 5
REMARK VINA RESULT:    -3.414      1.358      5.152
REMARK INTER + INTRA:          -5.893
REMARK INTER:                  -5.309
REMARK INTRA:                  -0.583
REMARK UNBOUND:                -0.683
REMARK SMILES O=C([O-])CCCCCCCCC(=O)[O-]
REMARK SMILES IDX 7 1 6 2 5 3 4 4 2 5 1 6 3 7 8 8 9 9 10 10 11 11 12 12 13 13
REMARK SMILES IDX 14 14
REMARK H PARENT
REMARK Flexibility Score: inf
ROOT
ATOM      1  C   UNL     1     -44.535 -37.431  15.966  1.00  0.00     0.000 C 
ENDROOT
BRANCH   1   2
ATOM      2  C   UNL     1     -45.156 -38.344  17.035  1.00  0.00     0.000 C 
BRANCH   2   3
ATOM      3  C   UNL     1     -46.060 -37.578  18.016  1.00  0.00     0.006 C 
BRANCH   3   4
ATOM      4  C   UNL     1     -45.319 -36.425  18.707  1.00  0.00     0.053 C 
BRANCH   4   5
ATOM      5  C   UNL     1     -44.455 -36.911  19.830  1.00  0.00     0.041 C 
ATOM      6  O   UNL     1     -43.201 -36.841  19.741  1.00  0.00    -0.550 OA
ATOM      7  O   UNL     1     -45.034 -37.470  20.963  1.00  0.00    -0.550 OA
ENDBRANCH   4   5
ENDBRANCH   3   4
ENDBRANCH   2   3
ENDBRANCH   1   2
BRANCH   1   8
ATOM      8  C   UNL     1     -43.875 -38.218  14.824  1.00  0.00     0.000 C 
BRANCH   8   9
ATOM      9  C   UNL     1     -44.348 -37.705  13.459  1.00  0.00     0.000 C 
BRANCH   9  10
ATOM     10  C   UNL     1     -45.655 -36.909  13.591  1.00  0.00     0.006 C 
BRANCH  10  11
ATOM     11  C   UNL     1     -45.679 -35.676  12.679  1.00  0.00     0.053 C 
BRANCH  11  12
ATOM     12  C   UNL     1     -45.663 -34.402  13.467  1.00  0.00     0.041 C 
ATOM     13  O   UNL     1     -45.345 -33.317  12.911  1.00  0.00    -0.550 OA
ATOM     14  O   UNL     1     -46.029 -34.407  14.807  1.00  0.00    -0.550 OA
ENDBRANCH  11  12
ENDBRANCH  10  11
ENDBRANCH   9  10
ENDBRANCH   8   9
ENDBRANCH   1   8
TORSDOF 9
ENDMDL
MODEL 6
REMARK VINA RESULT:    -3.263      2.434      3.854
REMARK INTER + INTRA:          -5.662
REMARK INTER:                  -5.183
REMARK INTRA:                  -0.479
REMARK UNBOUND:                -0.683
REMARK SMILES O=C([O-])CCCCCCCCC(=O)[O-]
REMARK SMILES IDX 7 1 6 2 5 3 4 4 2 5 1 6 3 7 8 8 9 9 10 10 11 11 12 12 13 13
REMARK SMILES IDX 14 14
REMARK H PARENT
REMARK Flexibility Score: inf
ROOT
ATOM      1  C   UNL     1     -45.913 -34.567  14.416  1.00  0.00     0.000 C 
ENDROOT
BRANCH   1   2
ATOM      2  C   UNL     1     -45.985 -34.489  12.882  1.00  0.00     0.000 C 
BRANCH   2   3
ATOM      3  C   UNL     1     -45.822 -35.863  12.211  1.00  0.00     0.006 C 
BRANCH   3   4
ATOM      4  C   UNL     1     -44.503 -36.544  12.599  1.00  0.00     0.053 C 
BRANCH   4   5
ATOM      5  C   UNL     1     -44.733 -37.848  13.301  1.00  0.00     0.041 C 
ATOM      6  O   UNL     1     -44.087 -38.128  14.344  1.00  0.00    -0.550 OA
ATOM      7  O   UNL     1     -45.639 -38.765  12.785  1.00  0.00    -0.550 OA
ENDBRANCH   4   5
ENDBRANCH   3   4
ENDBRANCH   2   3
ENDBRANCH   1   2
BRANCH   1   8
ATOM      8  C   UNL     1     -45.334 -33.292  15.048  1.00  0.00     0.000 C 
BRANCH   8   9
ATOM      9  C   UNL     1     -45.206 -33.444  16.569  1.00  0.00     0.000 C 
BRANCH   9  10
ATOM     10  C   UNL     1     -44.599 -34.806  16.938  1.00  0.00     0.006 C 
BRANCH  10  11
ATOM     11  C   UNL     1     -45.081 -35.306  18.306  1.00  0.00     0.053 C 
BRANCH  11  12
ATOM     12  C   UNL     1     -44.597 -36.694  18.593  1.00  0.00     0.041 C 
ATOM     13  O   UNL     1     -44.565 -37.556  17.676  1.00  0.00    -0.550 OA
ATOM     14  O   UNL     1     -44.150 -37.026  19.866  1.00  0.00    -0.550 OA
ENDBRANCH  11  12
ENDBRANCH  10  11
ENDBRANCH   9  10
ENDBRANCH   8   9
ENDBRANCH   1   8
TORSDOF 9
ENDMDL
MODEL 7
REMARK VINA RESULT:    -3.213      2.225      5.716
REMARK INTER + INTRA:          -5.587
REMARK INTER:                  -5.141
REMARK INTRA:                  -0.445
REMARK UNBOUND:                -0.683
REMARK SMILES O=C([O-])CCCCCCCCC(=O)[O-]
REMARK SMILES IDX 7 1 6 2 5 3 4 4 2 5 1 6 3 7 8 8 9 9 10 10 11 11 12 12 13 13
REMARK SMILES IDX 14 14
REMARK H PARENT
REMARK Flexibility Score: inf
ROOT
ATOM      1  C   UNL     1     -45.575 -38.651  17.286  1.00  0.00     0.000 C 
ENDROOT
BRANCH   1   2
ATOM      2  C   UNL     1     -45.928 -37.828  18.535  1.00  0.00     0.000 C 
BRANCH   2   3
ATOM      3  C   UNL     1     -44.961 -36.654  18.763  1.00  0.00     0.006 C 
BRANCH   3   4
ATOM      4  C   UNL     1     -44.130 -36.828  20.042  1.00  0.00     0.053 C 
BRANCH   4   5
ATOM      5  C   UNL     1     -44.811 -36.230  21.235  1.00  0.00     0.041 C 
ATOM      6  O   UNL     1     -44.552 -35.049  21.587  1.00  0.00    -0.550 OA
ATOM      7  O   UNL     1     -45.709 -36.988  21.976  1.00  0.00    -0.550 OA
ENDBRANCH   4   5
ENDBRANCH   3   4
ENDBRANCH   2   3
ENDBRANCH   1   2
BRANCH   1   8
ATOM      8  C   UNL     1     -45.599 -37.815  15.998  1.00  0.00     0.000 C 
BRANCH   8   9
ATOM      9  C   UNL     1     -44.248 -37.880  15.276  1.00  0.00     0.000 C 
BRANCH   9  10
ATOM     10  C   UNL     1     -44.435 -37.864  13.751  1.00  0.00     0.006 C 
BRANCH  10  11
ATOM     11  C   UNL     1     -45.816 -37.337  13.341  1.00  0.00     0.053 C 
BRANCH  11  12
ATOM     12  C   UNL     1     -45.747 -35.925  12.846  1.00  0.00     0.041 C 
ATOM     13  O   UNL     1     -45.426 -34.993  13.630  1.00  0.00    -0.550 OA
ATOM     14  O   UNL     1     -46.006 -35.642  11.511  1.00  0.00    -0.550 OA
ENDBRANCH  11  12
ENDBRANCH  10  11
ENDBRANCH   9  10
ENDBRANCH   8   9
ENDBRANCH   1   8
TORSDOF 9
ENDMDL
MODEL 8
REMARK VINA RESULT:    -3.187      2.429      4.797
REMARK INTER + INTRA:          -5.546
REMARK INTER:                  -4.679
REMARK INTRA:                  -0.867
REMARK UNBOUND:                -0.683
REMARK SMILES O=C([O-])CCCCCCCCC(=O)[O-]
REMARK SMILES IDX 7 1 6 2 5 3 4 4 2 5 1 6 3 7 8 8 9 9 10 10 11 11 12 12 13 13
REMARK SMILES IDX 14 14
REMARK H PARENT
REMARK Flexibility Score: inf
ROOT
ATOM      1  C   UNL     1     -44.669 -37.754  18.010  1.00  0.00     0.000 C 
ENDROOT
BRANCH   1   2
ATOM      2  C   UNL     1     -45.198 -38.070  16.602  1.00  0.00     0.000 C 
BRANCH   2   3
ATOM      3  C   UNL     1     -44.379 -37.387  15.494  1.00  0.00     0.006 C 
BRANCH   3   4
ATOM      4  C   UNL     1     -45.273 -36.733  14.432  1.00  0.00     0.053 C 
BRANCH   4   5
ATOM      5  C   UNL     1     -44.738 -36.941  13.048  1.00  0.00     0.041 C 
ATOM      6  O   UNL     1     -44.766 -36.001  12.210  1.00  0.00    -0.550 OA
ATOM      7  O   UNL     1     -44.238 -38.182  12.674  1.00  0.00    -0.550 OA
ENDBRANCH   4   5
ENDBRANCH   3   4
ENDBRANCH   2   3
ENDBRANCH   1   2
BRANCH   1   8
ATOM      8  C   UNL     1     -45.572 -36.777  18.778  1.00  0.00     0.000 C 
BRANCH   8   9
ATOM      9  C   UNL     1     -44.979 -35.363  18.772  1.00  0.00     0.000 C 
BRANCH   9  10
ATOM     10  C   UNL     1     -45.665 -34.482  17.717  1.00  0.00     0.006 C 
BRANCH  10  11
ATOM     11  C   UNL     1     -44.663 -33.875  16.726  1.00  0.00     0.053 C 
BRANCH  11  12
ATOM     12  C   UNL     1     -45.321 -32.899  15.799  1.00  0.00     0.041 C 
ATOM     13  O   UNL     1     -45.895 -31.877  16.258  1.00  0.00    -0.550 OA
ATOM     14  O   UNL     1     -45.271 -33.102  14.426  1.00  0.00    -0.550 OA
ENDBRANCH  11  12
ENDBRANCH  10  11
ENDBRANCH   9  10
ENDBRANCH   8   9
ENDBRANCH   1   8
TORSDOF 9
ENDMDL
MODEL 9
REMARK VINA RESULT:    -3.160     11.469     13.263
REMARK INTER + INTRA:          -5.505
REMARK INTER:                  -4.757
REMARK INTRA:                  -0.749
REMARK UNBOUND:                -0.683
REMARK SMILES O=C([O-])CCCCCCCCC(=O)[O-]
REMARK SMILES IDX 7 1 6 2 5 3 4 4 2 5 1 6 3 7 8 8 9 9 10 10 11 11 12 12 13 13
REMARK SMILES IDX 14 14
REMARK H PARENT
REMARK Flexibility Score: inf
ROOT
ATOM      1  C   UNL     1     -38.243 -33.659  27.937  1.00  0.00     0.000 C 
ENDROOT
BRANCH   1   2
ATOM      2  C   UNL     1     -37.249 -32.539  27.590  1.00  0.00     0.000 C 
BRANCH   2   3
ATOM      3  C   UNL     1     -37.175 -32.259  26.080  1.00  0.00     0.006 C 
BRANCH   3   4
ATOM      4  C   UNL     1     -37.869 -33.351  25.254  1.00  0.00     0.053 C 
BRANCH   4   5
ATOM      5  C   UNL     1     -38.348 -32.832  23.933  1.00  0.00     0.041 C 
ATOM      6  O   UNL     1     -39.469 -32.265  23.844  1.00  0.00    -0.550 OA
ATOM      7  O   UNL     1     -37.570 -33.002  22.794  1.00  0.00    -0.550 OA
ENDBRANCH   4   5
ENDBRANCH   3   4
ENDBRANCH   2   3
ENDBRANCH   1   2
BRANCH   1   8
ATOM      8  C   UNL     1     -39.383 -33.179  28.847  1.00  0.00     0.000 C 
BRANCH   8   9
ATOM      9  C   UNL     1     -40.049 -31.922  28.275  1.00  0.00     0.000 C 
BRANCH   9  10
ATOM     10  C   UNL     1     -41.009 -32.278  27.130  1.00  0.00     0.006 C 
BRANCH  10  11
ATOM     11  C   UNL     1     -41.859 -33.515  27.448  1.00  0.00     0.053 C 
BRANCH  11  12
ATOM     12  C   UNL     1     -43.269 -33.359  26.967  1.00  0.00     0.041 C 
ATOM     13  O   UNL     1     -43.506 -33.204  25.740  1.00  0.00    -0.550 OA
ATOM     14  O   UNL     1     -44.323 -33.418  27.869  1.00  0.00    -0.550 OA
ENDBRANCH  11  12
ENDBRANCH  10  11
ENDBRANCH   9  10
ENDBRANCH   8   9
ENDBRANCH   1   8
TORSDOF 9
ENDMDL
