MODEL 1
REMARK VINA RESULT:    -4.325      0.000      0.000
REMARK INTER + INTRA:         -11.165
REMARK INTER:                  -8.370
REMARK INTRA:                  -2.795
REMARK UNBOUND:                -2.795
REMARK SMILES CCCCCCCCCCCCCCCCCC(=O)[O-]
REMARK SMILES IDX 10 1 11 2 12 3 13 4 14 5 15 6 16 7 17 8 18 9 19 10 20 11
REMARK SMILES IDX 9 12 8 13 7 14 6 15 5 16 4 17 3 18 2 19 1 20
REMARK H PARENT
REMARK Flexibility Score: inf
ROOT
ATOM      1  C   UNL     1     -52.865  16.252 -27.506  1.00  0.00     0.000 C 
ENDROOT
BRANCH   1   2
ATOM      2  C   UNL     1     -54.124  15.670 -28.176  1.00  0.00     0.000 C 
BRANCH   2   3
ATOM      3  C   UNL     1     -53.996  14.206 -28.638  1.00  0.00     0.000 C 
BRANCH   3   4
ATOM      4  C   UNL     1     -54.033  14.035 -30.172  1.00  0.00     0.000 C 
BRANCH   4   5
ATOM      5  C   UNL     1     -53.839  12.571 -30.601  1.00  0.00     0.000 C 
BRANCH   5   6
ATOM      6  C   UNL     1     -52.616  12.376 -31.512  1.00  0.00     0.000 C 
BRANCH   6   7
ATOM      7  C   UNL     1     -52.234  10.899 -31.691  1.00  0.00     0.006 C 
BRANCH   7   8
ATOM      8  C   UNL     1     -51.516  10.367 -30.447  1.00  0.00     0.053 C 
BRANCH   8   9
ATOM      9  C   UNL     1     -50.313   9.566 -30.836  1.00  0.00     0.041 C 
ATOM     10  O   UNL     1     -49.225   9.717 -30.221  1.00  0.00    -0.550 OA
ATOM     11  O   UNL     1     -50.404   8.627 -31.854  1.00  0.00    -0.550 OA
ENDBRANCH   8   9
ENDBRANCH   7   8
ENDBRANCH   6   7
ENDBRANCH   5   6
ENDBRANCH   4   5
ENDBRANCH   3   4
ENDBRANCH   2   3
ENDBRANCH   1   2
BRANCH   1  12
ATOM     12  C   UNL     1     -52.701  17.777 -27.650  1.00  0.00     0.000 C 
BRANCH  12  13
ATOM     13  C   UNL     1     -53.197  18.306 -29.004  1.00  0.00    -0.000 C 
BRANCH  13  14
ATOM     14  C   UNL     1     -52.106  18.183 -30.075  1.00  0.00    -0.000 C 
BRANCH  14  15
ATOM     15  C   UNL     1     -52.603  17.369 -31.276  1.00  0.00    -0.000 C 
BRANCH  15  16
ATOM     16  C   UNL     1     -51.592  16.277 -31.656  1.00  0.00    -0.000 C 
BRANCH  16  17
ATOM     17  C   UNL     1     -50.838  15.710 -30.440  1.00  0.00    -0.000 C 
BRANCH  17  18
ATOM     18  C   UNL     1     -49.638  14.800 -30.780  1.00  0.00    -0.000 C 
BRANCH  18  19
ATOM     19  C   UNL     1     -49.592  13.470 -30.008  1.00  0.00    -0.003 C 
ATOM     20  C   UNL     1     -50.377  13.514 -28.698  1.00  0.00     0.004 C 
ENDBRANCH  18  19
ENDBRANCH  17  18
ENDBRANCH  16  17
ENDBRANCH  15  16
ENDBRANCH  14  15
ENDBRANCH  13  14
ENDBRANCH  12  13
ENDBRANCH   1  12
TORSDOF 16
ENDMDL
MODEL 2
REMARK VINA RESULT:    -4.228      1.835      4.512
REMARK INTER + INTRA:         -10.978
REMARK INTER:                  -9.110
REMARK INTRA:                  -1.869
REMARK UNBOUND:                -2.795
REMARK SMILES CCCCCCCCCCCCCCCCCC(=O)[O-]
REMARK SMILES IDX 10 1 11 2 12 3 13 4 14 5 15 6 16 7 17 8 18 9 19 10 20 11
REMARK SMILES IDX 9 12 8 13 7 14 6 15 5 16 4 17 3 18 2 19 1 20
REMARK H PARENT
REMARK Flexibility Score: inf
ROOT
ATOM      1  C   UNL     1     -50.497  14.509 -30.269  1.00  0.00     0.000 C 
ENDROOT
BRANCH   1   2
ATOM      2  C   UNL     1     -49.357  13.508 -30.003  1.00  0.00     0.000 C 
BRANCH   2   3
ATOM      3  C   UNL     1     -49.636  12.490 -28.882  1.00  0.00     0.000 C 
BRANCH   3   4
ATOM      4  C   UNL     1     -49.601  11.020 -29.356  1.00  0.00     0.000 C 
BRANCH   4   5
ATOM      5  C   UNL     1     -50.146  10.856 -30.785  1.00  0.00     0.000 C 
BRANCH   5   6
ATOM      6  C   UNL     1     -49.544   9.643 -31.514  1.00  0.00     0.000 C 
BRANCH   6   7
ATOM      7  C   UNL     1     -49.275   8.457 -30.576  1.00  0.00     0.006 C 
BRANCH   7   8
ATOM      8  C   UNL     1     -47.873   7.884 -30.810  1.00  0.00     0.053 C 
BRANCH   8   9
ATOM      9  C   UNL     1     -46.955   8.268 -29.692  1.00  0.00     0.041 C 
ATOM     10  O   UNL     1     -46.554   9.456 -29.580  1.00  0.00    -0.550 OA
ATOM     11  O   UNL     1     -46.571   7.320 -28.753  1.00  0.00    -0.550 OA
ENDBRANCH   8   9
ENDBRANCH   7   8
ENDBRANCH   6   7
ENDBRANCH   5   6
ENDBRANCH   4   5
ENDBRANCH   3   4
ENDBRANCH   2   3
ENDBRANCH   1   2
BRANCH   1  12
ATOM     12  C   UNL     1     -51.368  14.839 -29.043  1.00  0.00     0.000 C 
BRANCH  12  13
ATOM     13  C   UNL     1     -52.828  14.394 -29.209  1.00  0.00    -0.000 C 
BRANCH  13  14
ATOM     14  C   UNL     1     -53.734  15.085 -28.181  1.00  0.00    -0.000 C 
BRANCH  14  15
ATOM     15  C   UNL     1     -52.941  16.086 -27.333  1.00  0.00    -0.000 C 
BRANCH  15  16
ATOM     16  C   UNL     1     -53.469  17.514 -27.531  1.00  0.00    -0.000 C 
BRANCH  16  17
ATOM     17  C   UNL     1     -52.724  18.280 -28.639  1.00  0.00    -0.000 C 
BRANCH  17  18
ATOM     18  C   UNL     1     -53.599  18.719 -29.832  1.00  0.00    -0.000 C 
BRANCH  18  19
ATOM     19  C   UNL     1     -53.812  17.644 -30.912  1.00  0.00    -0.003 C 
ATOM     20  C   UNL     1     -52.523  17.272 -31.645  1.00  0.00     0.004 C 
ENDBRANCH  18  19
ENDBRANCH  17  18
ENDBRANCH  16  17
ENDBRANCH  15  16
ENDBRANCH  14  15
ENDBRANCH  13  14
ENDBRANCH  12  13
ENDBRANCH   1  12
TORSDOF 16
ENDMDL
MODEL 3
REMARK VINA RESULT:    -4.180      2.041      4.386
REMARK INTER + INTRA:         -10.885
REMARK INTER:                  -8.831
REMARK INTRA:                  -2.054
REMARK UNBOUND:                -2.795
REMARK SMILES CCCCCCCCCCCCCCCCCC(=O)[O-]
REMARK SMILES IDX 10 1 11 2 12 3 13 4 14 5 15 6 16 7 17 8 18 9 19 10 20 11
REMARK SMILES IDX 9 12 8 13 7 14 6 15 5 16 4 17 3 18 2 19 1 20
REMARK H PARENT
REMARK Flexibility Score: inf
ROOT
ATOM      1  C   UNL     1     -49.956  14.286 -30.328  1.00  0.00     0.000 C 
ENDROOT
BRANCH   1   2
ATOM      2  C   UNL     1     -50.161  13.777 -28.889  1.00  0.00     0.000 C 
BRANCH   2   3
ATOM      3  C   UNL     1     -50.632  12.315 -28.778  1.00  0.00     0.000 C 
BRANCH   3   4
ATOM      4  C   UNL     1     -50.492  11.518 -30.093  1.00  0.00     0.000 C 
BRANCH   4   5
ATOM      5  C   UNL     1     -49.530  10.326 -29.954  1.00  0.00     0.000 C 
BRANCH   5   6
ATOM      6  C   UNL     1     -48.264  10.675 -29.156  1.00  0.00     0.000 C 
BRANCH   6   7
ATOM      7  C   UNL     1     -47.214   9.554 -29.182  1.00  0.00     0.006 C 
BRANCH   7   8
ATOM      8  C   UNL     1     -47.440   8.623 -30.377  1.00  0.00     0.053 C 
BRANCH   8   9
ATOM      9  C   UNL     1     -47.747   7.234 -29.912  1.00  0.00     0.041 C 
ATOM     10  O   UNL     1     -46.933   6.617 -29.175  1.00  0.00    -0.550 OA
ATOM     11  O   UNL     1     -48.949   6.634 -30.264  1.00  0.00    -0.550 OA
ENDBRANCH   8   9
ENDBRANCH   7   8
ENDBRANCH   6   7
ENDBRANCH   5   6
ENDBRANCH   4   5
ENDBRANCH   3   4
ENDBRANCH   2   3
ENDBRANCH   1   2
BRANCH   1  12
ATOM     12  C   UNL     1     -50.496  15.703 -30.597  1.00  0.00     0.000 C 
BRANCH  12  13
ATOM     13  C   UNL     1     -51.667  15.717 -31.592  1.00  0.00    -0.000 C 
BRANCH  13  14
ATOM     14  C   UNL     1     -52.556  14.481 -31.411  1.00  0.00    -0.000 C 
BRANCH  14  15
ATOM     15  C   UNL     1     -53.846  14.834 -30.661  1.00  0.00    -0.000 C 
BRANCH  15  16
ATOM     16  C   UNL     1     -53.815  14.284 -29.227  1.00  0.00    -0.000 C 
BRANCH  16  17
ATOM     17  C   UNL     1     -53.845  15.393 -28.160  1.00  0.00    -0.000 C 
BRANCH  17  18
ATOM     18  C   UNL     1     -53.798  16.833 -28.711  1.00  0.00    -0.000 C 
BRANCH  18  19
ATOM     19  C   UNL     1     -52.905  17.803 -27.917  1.00  0.00    -0.003 C 
ATOM     20  C   UNL     1     -52.417  17.216 -26.593  1.00  0.00     0.004 C 
ENDBRANCH  18  19
ENDBRANCH  17  18
ENDBRANCH  16  17
ENDBRANCH  15  16
ENDBRANCH  14  15
ENDBRANCH  13  14
ENDBRANCH  12  13
ENDBRANCH   1  12
TORSDOF 16
ENDMDL
MODEL 4
REMARK VINA RESULT:    -4.176     15.358     17.837
REMARK INTER + INTRA:         -10.878
REMARK INTER:                  -8.299
REMARK INTRA:                  -2.578
REMARK UNBOUND:                -2.795
REMARK SMILES CCCCCCCCCCCCCCCCCC(=O)[O-]
REMARK SMILES IDX 10 1 11 2 12 3 13 4 14 5 15 6 16 7 17 8 18 9 19 10 20 11
REMARK SMILES IDX 9 12 8 13 7 14 6 15 5 16 4 17 3 18 2 19 1 20
REMARK H PARENT
REMARK Flexibility Score: inf
ROOT
ATOM      1  C   UNL     1     -37.051  18.246 -27.940  1.00  0.00     0.000 C 
ENDROOT
BRANCH   1   2
ATOM      2  C   UNL     1     -35.806  19.117 -28.198  1.00  0.00     0.000 C 
BRANCH   2   3
ATOM      3  C   UNL     1     -34.611  18.372 -28.823  1.00  0.00     0.000 C 
BRANCH   3   4
ATOM      4  C   UNL     1     -34.156  18.958 -30.177  1.00  0.00     0.000 C 
BRANCH   4   5
ATOM      5  C   UNL     1     -34.956  20.211 -30.570  1.00  0.00     0.000 C 
BRANCH   5   6
ATOM      6  C   UNL     1     -34.062  21.344 -31.100  1.00  0.00     0.000 C 
BRANCH   6   7
ATOM      7  C   UNL     1     -34.099  21.468 -32.630  1.00  0.00     0.006 C 
BRANCH   7   8
ATOM      8  C   UNL     1     -35.490  21.895 -33.109  1.00  0.00     0.053 C 
BRANCH   8   9
ATOM      9  C   UNL     1     -35.467  22.219 -34.570  1.00  0.00     0.041 C 
ATOM     10  O   UNL     1     -36.480  22.000 -35.285  1.00  0.00    -0.550 OA
ATOM     11  O   UNL     1     -34.338  22.798 -35.135  1.00  0.00    -0.550 OA
ENDBRANCH   8   9
ENDBRANCH   7   8
ENDBRANCH   6   7
ENDBRANCH   5   6
ENDBRANCH   4   5
ENDBRANCH   3   4
ENDBRANCH   2   3
ENDBRANCH   1   2
BRANCH   1  12
ATOM     12  C   UNL     1     -37.684  17.632 -29.201  1.00  0.00     0.000 C 
BRANCH  12  13
ATOM     13  C   UNL     1     -38.832  18.481 -29.768  1.00  0.00    -0.000 C 
BRANCH  13  14
ATOM     14  C   UNL     1     -38.371  19.281 -30.993  1.00  0.00    -0.000 C 
BRANCH  14  15
ATOM     15  C   UNL     1     -38.224  20.770 -30.655  1.00  0.00    -0.000 C 
BRANCH  15  16
ATOM     16  C   UNL     1     -38.987  21.119 -29.368  1.00  0.00    -0.000 C 
BRANCH  16  17
ATOM     17  C   UNL     1     -38.384  22.323 -28.623  1.00  0.00    -0.000 C 
BRANCH  17  18
ATOM     18  C   UNL     1     -36.930  22.668 -29.008  1.00  0.00    -0.000 C 
BRANCH  18  19
ATOM     19  C   UNL     1     -36.098  23.318 -27.887  1.00  0.00    -0.003 C 
ATOM     20  C   UNL     1     -34.846  22.517 -27.534  1.00  0.00     0.004 C 
ENDBRANCH  18  19
ENDBRANCH  17  18
ENDBRANCH  16  17
ENDBRANCH  15  16
ENDBRANCH  14  15
ENDBRANCH  13  14
ENDBRANCH  12  13
ENDBRANCH   1  12
TORSDOF 16
ENDMDL
MODEL 5
REMARK VINA RESULT:    -4.176      1.457      3.787
REMARK INTER + INTRA:         -10.877
REMARK INTER:                  -9.044
REMARK INTRA:                  -1.833
REMARK UNBOUND:                -2.795
REMARK SMILES CCCCCCCCCCCCCCCCCC(=O)[O-]
REMARK SMILES IDX 10 1 11 2 12 3 13 4 14 5 15 6 16 7 17 8 18 9 19 10 20 11
REMARK SMILES IDX 9 12 8 13 7 14 6 15 5 16 4 17 3 18 2 19 1 20
REMARK H PARENT
REMARK Flexibility Score: inf
ROOT
ATOM      1  C   UNL     1     -49.659  14.335 -30.392  1.00  0.00     0.000 C 
ENDROOT
BRANCH   1   2
ATOM      2  C   UNL     1     -50.330  13.594 -29.220  1.00  0.00     0.000 C 
BRANCH   2   3
ATOM      3  C   UNL     1     -50.314  12.058 -29.328  1.00  0.00     0.000 C 
BRANCH   3   4
ATOM      4  C   UNL     1     -51.030  11.517 -30.585  1.00  0.00     0.000 C 
BRANCH   4   5
ATOM      5  C   UNL     1     -51.424  10.037 -30.441  1.00  0.00     0.000 C 
BRANCH   5   6
ATOM      6  C   UNL     1     -50.966   9.183 -31.635  1.00  0.00     0.000 C 
BRANCH   6   7
ATOM      7  C   UNL     1     -49.830   9.836 -32.436  1.00  0.00     0.006 C 
BRANCH   7   8
ATOM      8  C   UNL     1     -48.821   8.785 -32.907  1.00  0.00     0.053 C 
BRANCH   8   9
ATOM      9  C   UNL     1     -48.175   8.113 -31.736  1.00  0.00     0.041 C 
ATOM     10  O   UNL     1     -48.418   6.903 -31.485  1.00  0.00    -0.550 OA
ATOM     11  O   UNL     1     -47.275   8.813 -30.944  1.00  0.00    -0.550 OA
ENDBRANCH   8   9
ENDBRANCH   7   8
ENDBRANCH   6   7
ENDBRANCH   5   6
ENDBRANCH   4   5
ENDBRANCH   3   4
ENDBRANCH   2   3
ENDBRANCH   1   2
BRANCH   1  12
ATOM     12  C   UNL     1     -50.349  15.646 -30.810  1.00  0.00     0.000 C 
BRANCH  12  13
ATOM     13  C   UNL     1     -51.818  15.448 -31.210  1.00  0.00    -0.000 C 
BRANCH  13  14
ATOM     14  C   UNL     1     -52.467  16.782 -31.599  1.00  0.00    -0.000 C 
BRANCH  14  15
ATOM     15  C   UNL     1     -51.981  17.917 -30.689  1.00  0.00    -0.000 C 
BRANCH  15  16
ATOM     16  C   UNL     1     -53.167  18.675 -30.075  1.00  0.00    -0.000 C 
BRANCH  16  17
ATOM     17  C   UNL     1     -53.894  17.869 -28.984  1.00  0.00    -0.000 C 
BRANCH  17  18
ATOM     18  C   UNL     1     -53.092  17.657 -27.683  1.00  0.00    -0.000 C 
BRANCH  18  19
ATOM     19  C   UNL     1     -52.626  16.211 -27.436  1.00  0.00    -0.003 C 
ATOM     20  C   UNL     1     -53.573  15.170 -28.031  1.00  0.00     0.004 C 
ENDBRANCH  18  19
ENDBRANCH  17  18
ENDBRANCH  16  17
ENDBRANCH  15  16
ENDBRANCH  14  15
ENDBRANCH  13  14
ENDBRANCH  12  13
ENDBRANCH   1  12
TORSDOF 16
ENDMDL
MODEL 6
REMARK VINA RESULT:    -4.176     14.558     16.869
REMARK INTER + INTRA:         -10.877
REMARK INTER:                  -8.091
REMARK INTRA:                  -2.785
REMARK UNBOUND:                -2.795
REMARK SMILES CCCCCCCCCCCCCCCCCC(=O)[O-]
REMARK SMILES IDX 10 1 11 2 12 3 13 4 14 5 15 6 16 7 17 8 18 9 19 10 20 11
REMARK SMILES IDX 9 12 8 13 7 14 6 15 5 16 4 17 3 18 2 19 1 20
REMARK H PARENT
REMARK Flexibility Score: inf
ROOT
ATOM      1  C   UNL     1     -34.810  20.252 -27.034  1.00  0.00     0.000 C 
ENDROOT
BRANCH   1   2
ATOM      2  C   UNL     1     -35.406  19.011 -27.726  1.00  0.00     0.000 C 
BRANCH   2   3
ATOM      3  C   UNL     1     -34.688  18.581 -29.020  1.00  0.00     0.000 C 
BRANCH   3   4
ATOM      4  C   UNL     1     -35.596  17.816 -30.007  1.00  0.00     0.000 C 
BRANCH   4   5
ATOM      5  C   UNL     1     -36.876  17.290 -29.337  1.00  0.00     0.000 C 
BRANCH   5   6
ATOM      6  C   UNL     1     -38.039  17.120 -30.328  1.00  0.00     0.000 C 
BRANCH   6   7
ATOM      7  C   UNL     1     -39.120  18.201 -30.171  1.00  0.00     0.006 C 
BRANCH   7   8
ATOM      8  C   UNL     1     -39.065  18.827 -28.774  1.00  0.00     0.053 C 
BRANCH   8   9
ATOM      9  C   UNL     1     -40.334  19.563 -28.477  1.00  0.00     0.041 C 
ATOM     10  O   UNL     1     -41.267  18.993 -27.853  1.00  0.00    -0.550 OA
ATOM     11  O   UNL     1     -40.472  20.891 -28.859  1.00  0.00    -0.550 OA
ENDBRANCH   8   9
ENDBRANCH   7   8
ENDBRANCH   6   7
ENDBRANCH   5   6
ENDBRANCH   4   5
ENDBRANCH   3   4
ENDBRANCH   2   3
ENDBRANCH   1   2
BRANCH   1  12
ATOM     12  C   UNL     1     -34.104  21.243 -27.978  1.00  0.00     0.000 C 
BRANCH  12  13
ATOM     13  C   UNL     1     -34.711  22.653 -27.927  1.00  0.00    -0.000 C 
BRANCH  13  14
ATOM     14  C   UNL     1     -36.228  22.606 -28.146  1.00  0.00    -0.000 C 
BRANCH  14  15
ATOM     15  C   UNL     1     -36.574  22.733 -29.634  1.00  0.00    -0.000 C 
BRANCH  15  16
ATOM     16  C   UNL     1     -37.204  21.435 -30.164  1.00  0.00    -0.000 C 
BRANCH  16  17
ATOM     17  C   UNL     1     -36.626  21.001 -31.523  1.00  0.00    -0.000 C 
BRANCH  17  18
ATOM     18  C   UNL     1     -35.100  21.174 -31.670  1.00  0.00    -0.000 C 
BRANCH  18  19
ATOM     19  C   UNL     1     -34.635  21.707 -33.037  1.00  0.00    -0.003 C 
ATOM     20  C   UNL     1     -35.797  22.095 -33.951  1.00  0.00     0.004 C 
ENDBRANCH  18  19
ENDBRANCH  17  18
ENDBRANCH  16  17
ENDBRANCH  15  16
ENDBRANCH  14  15
ENDBRANCH  13  14
ENDBRANCH  12  13
ENDBRANCH   1  12
TORSDOF 16
ENDMDL
MODEL 7
REMARK VINA RESULT:    -4.161      1.447      3.586
REMARK INTER + INTRA:         -10.848
REMARK INTER:                  -8.919
REMARK INTRA:                  -1.929
REMARK UNBOUND:                -2.795
REMARK SMILES CCCCCCCCCCCCCCCCCC(=O)[O-]
REMARK SMILES IDX 10 1 11 2 12 3 13 4 14 5 15 6 16 7 17 8 18 9 19 10 20 11
REMARK SMILES IDX 9 12 8 13 7 14 6 15 5 16 4 17 3 18 2 19 1 20
REMARK H PARENT
REMARK Flexibility Score: inf
ROOT
ATOM      1  C   UNL     1     -50.898  14.078 -28.874  1.00  0.00     0.000 C 
ENDROOT
BRANCH   1   2
ATOM      2  C   UNL     1     -51.890  12.900 -28.913  1.00  0.00     0.000 C 
BRANCH   2   3
ATOM      3  C   UNL     1     -52.472  12.588 -30.305  1.00  0.00     0.000 C 
BRANCH   3   4
ATOM      4  C   UNL     1     -52.459  11.085 -30.660  1.00  0.00     0.000 C 
BRANCH   4   5
ATOM      5  C   UNL     1     -51.875  10.821 -32.058  1.00  0.00     0.000 C 
BRANCH   5   6
ATOM      6  C   UNL     1     -50.447  10.255 -32.008  1.00  0.00     0.000 C 
BRANCH   6   7
ATOM      7  C   UNL     1     -49.814  10.354 -30.612  1.00  0.00     0.006 C 
BRANCH   7   8
ATOM      8  C   UNL     1     -49.404   8.969 -30.100  1.00  0.00     0.053 C 
BRANCH   8   9
ATOM      9  C   UNL     1     -47.923   8.901 -29.897  1.00  0.00     0.041 C 
ATOM     10  O   UNL     1     -47.330   9.796 -29.239  1.00  0.00    -0.550 OA
ATOM     11  O   UNL     1     -47.201   7.828 -30.404  1.00  0.00    -0.550 OA
ENDBRANCH   8   9
ENDBRANCH   7   8
ENDBRANCH   6   7
ENDBRANCH   5   6
ENDBRANCH   4   5
ENDBRANCH   3   4
ENDBRANCH   2   3
ENDBRANCH   1   2
BRANCH   1  12
ATOM     12  C   UNL     1     -49.829  14.062 -29.983  1.00  0.00     0.000 C 
BRANCH  12  13
ATOM     13  C   UNL     1     -50.012  15.192 -31.007  1.00  0.00    -0.000 C 
BRANCH  13  14
ATOM     14  C   UNL     1     -51.026  16.229 -30.506  1.00  0.00    -0.000 C 
BRANCH  14  15
ATOM     15  C   UNL     1     -52.141  16.451 -31.534  1.00  0.00    -0.000 C 
BRANCH  15  16
ATOM     16  C   UNL     1     -53.157  17.486 -31.029  1.00  0.00    -0.000 C 
BRANCH  16  17
ATOM     17  C   UNL     1     -52.626  18.319 -29.849  1.00  0.00    -0.000 C 
BRANCH  17  18
ATOM     18  C   UNL     1     -53.548  18.363 -28.612  1.00  0.00    -0.000 C 
BRANCH  18  19
ATOM     19  C   UNL     1     -53.696  17.026 -27.865  1.00  0.00    -0.003 C 
ATOM     20  C   UNL     1     -52.539  16.748 -26.906  1.00  0.00     0.004 C 
ENDBRANCH  18  19
ENDBRANCH  17  18
ENDBRANCH  16  17
ENDBRANCH  15  16
ENDBRANCH  14  15
ENDBRANCH  13  14
ENDBRANCH  12  13
ENDBRANCH   1  12
TORSDOF 16
ENDMDL
MODEL 8
REMARK VINA RESULT:    -4.117      2.115      4.164
REMARK INTER + INTRA:         -10.763
REMARK INTER:                  -8.445
REMARK INTRA:                  -2.319
REMARK UNBOUND:                -2.795
REMARK SMILES CCCCCCCCCCCCCCCCCC(=O)[O-]
REMARK SMILES IDX 10 1 11 2 12 3 13 4 14 5 15 6 16 7 17 8 18 9 19 10 20 11
REMARK SMILES IDX 9 12 8 13 7 14 6 15 5 16 4 17 3 18 2 19 1 20
REMARK H PARENT
REMARK Flexibility Score: inf
ROOT
ATOM      1  C   UNL     1     -52.949  11.278 -29.809  1.00  0.00     0.000 C 
ENDROOT
BRANCH   1   2
ATOM      2  C   UNL     1     -52.551  11.568 -31.269  1.00  0.00     0.000 C 
BRANCH   2   3
ATOM      3  C   UNL     1     -51.325  10.786 -31.775  1.00  0.00     0.000 C 
BRANCH   3   4
ATOM      4  C   UNL     1     -51.681   9.619 -32.722  1.00  0.00     0.000 C 
BRANCH   4   5
ATOM      5  C   UNL     1     -50.660   8.471 -32.644  1.00  0.00     0.000 C 
BRANCH   5   6
ATOM      6  C   UNL     1     -49.207   8.970 -32.606  1.00  0.00     0.000 C 
BRANCH   6   7
ATOM      7  C   UNL     1     -48.302   8.105 -31.715  1.00  0.00     0.006 C 
BRANCH   7   8
ATOM      8  C   UNL     1     -48.457   8.493 -30.242  1.00  0.00     0.053 C 
BRANCH   8   9
ATOM      9  C   UNL     1     -47.122   8.529 -29.564  1.00  0.00     0.041 C 
ATOM     10  O   UNL     1     -46.440   9.587 -29.562  1.00  0.00    -0.550 OA
ATOM     11  O   UNL     1     -46.649   7.403 -28.903  1.00  0.00    -0.550 OA
ENDBRANCH   8   9
ENDBRANCH   7   8
ENDBRANCH   6   7
ENDBRANCH   5   6
ENDBRANCH   4   5
ENDBRANCH   3   4
ENDBRANCH   2   3
ENDBRANCH   1   2
BRANCH   1  12
ATOM     12  C   UNL     1     -54.055  12.190 -29.246  1.00  0.00     0.000 C 
BRANCH  12  13
ATOM     13  C   UNL     1     -53.516  13.526 -28.715  1.00  0.00    -0.000 C 
BRANCH  13  14
ATOM     14  C   UNL     1     -54.013  14.698 -29.571  1.00  0.00    -0.000 C 
BRANCH  14  15
ATOM     15  C   UNL     1     -52.919  15.182 -30.531  1.00  0.00    -0.000 C 
BRANCH  15  16
ATOM     16  C   UNL     1     -51.647  15.572 -29.763  1.00  0.00    -0.000 C 
BRANCH  16  17
ATOM     17  C   UNL     1     -50.360  15.301 -30.562  1.00  0.00    -0.000 C 
BRANCH  17  18
ATOM     18  C   UNL     1     -49.770  13.885 -30.392  1.00  0.00    -0.000 C 
BRANCH  18  19
ATOM     19  C   UNL     1     -49.873  13.305 -28.971  1.00  0.00    -0.003 C 
ATOM     20  C   UNL     1     -49.326  11.881 -28.868  1.00  0.00     0.004 C 
ENDBRANCH  18  19
ENDBRANCH  17  18
ENDBRANCH  16  17
ENDBRANCH  15  16
ENDBRANCH  14  15
ENDBRANCH  13  14
ENDBRANCH  12  13
ENDBRANCH   1  12
TORSDOF 16
ENDMDL
MODEL 9
REMARK VINA RESULT:    -4.035      2.534      5.946
REMARK INTER + INTRA:         -10.604
REMARK INTER:                  -8.332
REMARK INTRA:                  -2.272
REMARK UNBOUND:                -2.795
REMARK SMILES CCCCCCCCCCCCCCCCCC(=O)[O-]
REMARK SMILES IDX 10 1 11 2 12 3 13 4 14 5 15 6 16 7 17 8 18 9 19 10 20 11
REMARK SMILES IDX 9 12 8 13 7 14 6 15 5 16 4 17 3 18 2 19 1 20
REMARK H PARENT
REMARK Flexibility Score: inf
ROOT
ATOM      1  C   UNL     1     -51.595   8.877 -30.383  1.00  0.00     0.000 C 
ENDROOT
BRANCH   1   2
ATOM      2  C   UNL     1     -52.440   7.977 -31.305  1.00  0.00     0.000 C 
BRANCH   2   3
ATOM      3  C   UNL     1     -52.122   8.105 -32.806  1.00  0.00     0.000 C 
BRANCH   3   4
ATOM      4  C   UNL     1     -51.979   6.747 -33.527  1.00  0.00     0.000 C 
BRANCH   4   5
ATOM      5  C   UNL     1     -50.523   6.252 -33.556  1.00  0.00     0.000 C 
BRANCH   5   6
ATOM      6  C   UNL     1     -49.506   7.387 -33.353  1.00  0.00     0.000 C 
BRANCH   6   7
ATOM      7  C   UNL     1     -48.493   7.088 -32.238  1.00  0.00     0.006 C 
BRANCH   7   8
ATOM      8  C   UNL     1     -48.027   8.382 -31.563  1.00  0.00     0.053 C 
BRANCH   8   9
ATOM      9  C   UNL     1     -47.469   8.095 -30.204  1.00  0.00     0.041 C 
ATOM     10  O   UNL     1     -46.657   8.896 -29.670  1.00  0.00    -0.550 OA
ATOM     11  O   UNL     1     -47.873   6.961 -29.513  1.00  0.00    -0.550 OA
ENDBRANCH   8   9
ENDBRANCH   7   8
ENDBRANCH   6   7
ENDBRANCH   5   6
ENDBRANCH   4   5
ENDBRANCH   3   4
ENDBRANCH   2   3
ENDBRANCH   1   2
BRANCH   1  12
ATOM     12  C   UNL     1     -51.752  10.388 -30.632  1.00  0.00     0.000 C 
BRANCH  12  13
ATOM     13  C   UNL     1     -50.410  11.100 -30.858  1.00  0.00    -0.000 C 
BRANCH  13  14
ATOM     14  C   UNL     1     -49.552  11.072 -29.586  1.00  0.00    -0.000 C 
BRANCH  14  15
ATOM     15  C   UNL     1     -49.659  12.396 -28.820  1.00  0.00    -0.000 C 
BRANCH  15  16
ATOM     16  C   UNL     1     -49.624  13.592 -29.783  1.00  0.00    -0.000 C 
BRANCH  16  17
ATOM     17  C   UNL     1     -50.811  14.553 -29.588  1.00  0.00    -0.000 C 
BRANCH  17  18
ATOM     18  C   UNL     1     -51.880  14.506 -30.701  1.00  0.00    -0.000 C 
BRANCH  18  19
ATOM     19  C   UNL     1     -53.219  13.870 -30.289  1.00  0.00    -0.003 C 
ATOM     20  C   UNL     1     -53.225  13.379 -28.842  1.00  0.00     0.004 C 
ENDBRANCH  18  19
ENDBRANCH  17  18
ENDBRANCH  16  17
ENDBRANCH  15  16
ENDBRANCH  14  15
ENDBRANCH  13  14
ENDBRANCH  12  13
ENDBRANCH   1  12
TORSDOF 16
ENDMDL
