MODEL 1
REMARK VINA RESULT:    -6.301      0.000      0.000
REMARK INTER + INTRA:         -11.070
REMARK INTER:                  -9.249
REMARK INTRA:                  -1.821
REMARK UNBOUND:                -1.821
REMARK SMILES O=c1c(O[C@H]2O[C@H](CO)[C@@H](O)[C@H](O)[C@H]2O)c(-c2ccc(O)c(O)c2)oc2cc(O)cc(O)c12
REMARK SMILES IDX 4 1 3 2 16 3 25 4 2 5 26 6 1 7 33 8 27 9 31 10 28 11 30 12
REMARK SMILES IDX 17 13 18 14 19 15 20 16 24 17 22 18 21 19 23 21 32 23 29 25
REMARK SMILES IDX 5 27 14 28 6 29 12 30 7 31 10 32 15 33 13 35 8 37 9 38 11 40
REMARK H PARENT 21 20 23 22 32 24 29 26 15 34 13 36 9 39 11 41
REMARK Flexibility Score: inf
ROOT
ATOM      1  O   UNL     1       8.017  15.936 -18.327  1.00  0.00    -0.454 OA
ENDROOT
BRANCH   1   2
ATOM      2  C   UNL     1       7.793  16.932 -17.354  1.00  0.00     0.214 A 
ATOM      3  C   UNL     1       7.436  16.517 -16.054  1.00  0.00     0.180 A 
ATOM      4  O   UNL     1       7.165  17.415 -15.114  1.00  0.00    -0.452 OA
ATOM      5  C   UNL     1       7.875  18.320 -17.613  1.00  0.00     0.239 A 
ATOM      6  C   UNL     1       7.231  18.725 -15.315  1.00  0.00     0.146 A 
ATOM      7  O   UNL     1       8.182  18.738 -18.760  1.00  0.00    -0.285 OA
ATOM      8  C   UNL     1       7.597  19.240 -16.578  1.00  0.00     0.111 A 
ATOM      9  C   UNL     1       6.933  19.589 -14.257  1.00  0.00     0.094 A 
ATOM     10  C   UNL     1       7.664  20.645 -16.754  1.00  0.00     0.134 A 
ATOM     11  C   UNL     1       7.000  20.974 -14.437  1.00  0.00     0.123 A 
ATOM     12  C   UNL     1       7.364  21.496 -15.680  1.00  0.00     0.093 A 
BRANCH   3  13
ATOM     13  C   UNL     1       7.330  15.086 -15.695  1.00  0.00     0.025 A 
ATOM     14  C   UNL     1       6.065  14.480 -15.631  1.00  0.00     0.016 A 
ATOM     15  C   UNL     1       5.946  13.130 -15.290  1.00  0.00     0.051 A 
ATOM     16  C   UNL     1       7.087  12.371 -14.998  1.00  0.00     0.157 A 
ATOM     17  C   UNL     1       8.469  14.328 -15.374  1.00  0.00     0.062 A 
ATOM     18  C   UNL     1       8.351  12.973 -15.037  1.00  0.00     0.158 A 
BRANCH  16  19
ATOM     19  O   UNL     1       6.973  11.023 -14.665  1.00  0.00    -0.504 OA
ATOM     20  H   UNL     1       7.677  10.348 -14.938  1.00  0.00     0.293 HD
ENDBRANCH  16  19
BRANCH  18  21
ATOM     21  O   UNL     1       9.485  12.221 -14.737  1.00  0.00    -0.504 OA
ATOM     22  H   UNL     1       9.755  11.420 -15.298  1.00  0.00     0.293 HD
ENDBRANCH  18  21
ENDBRANCH   3  13
BRANCH  10  23
ATOM     23  O   UNL     1       8.024  21.201 -17.982  1.00  0.00    -0.507 OA
ATOM     24  H   UNL     1       7.330  21.455 -18.676  1.00  0.00     0.293 HD
ENDBRANCH  10  23
BRANCH  11  25
ATOM     25  O   UNL     1       6.705  21.841 -13.387  1.00  0.00    -0.508 OA
ATOM     26  H   UNL     1       7.418  22.145 -12.735  1.00  0.00     0.293 HD
ENDBRANCH  11  25
ENDBRANCH   1   2
BRANCH   1  27
ATOM     27  C   UNL     1       9.236  15.654 -19.024  1.00  0.00     0.339 C 
ATOM     28  C   UNL     1       9.011  15.722 -20.543  1.00  0.00     0.214 C 
ATOM     29  O   UNL     1       9.775  14.394 -18.652  1.00  0.00    -0.332 OA
ATOM     30  C   UNL     1       8.098  14.574 -21.001  1.00  0.00     0.180 C 
ATOM     31  C   UNL     1       8.880  13.333 -18.946  1.00  0.00     0.179 C 
ATOM     32  C   UNL     1       8.629  13.231 -20.467  1.00  0.00     0.177 C 
BRANCH  28  33
ATOM     33  O   UNL     1       8.437  16.961 -20.874  1.00  0.00    -0.384 OA
ATOM     34  H   UNL     1       7.710  16.777 -21.524  1.00  0.00     0.211 HD
ENDBRANCH  28  33
BRANCH  30  35
ATOM     35  O   UNL     1       8.058  14.547 -22.406  1.00  0.00    -0.387 OA
ATOM     36  H   UNL     1       8.993  14.445 -22.720  1.00  0.00     0.211 HD
ENDBRANCH  30  35
BRANCH  31  37
ATOM     37  C   UNL     1       9.485  12.030 -18.405  1.00  0.00     0.191 C 
BRANCH  37  38
ATOM     38  O   UNL     1       9.945  11.228 -19.460  1.00  0.00    -0.394 OA
ATOM     39  H   UNL     1      10.750  10.753 -19.127  1.00  0.00     0.210 HD
ENDBRANCH  37  38
ENDBRANCH  31  37
BRANCH  32  40
ATOM     40  O   UNL     1       7.690  12.217 -20.720  1.00  0.00    -0.387 OA
ATOM     41  H   UNL     1       8.193  11.436 -21.069  1.00  0.00     0.211 HD
ENDBRANCH  32  40
ENDBRANCH   1  27
TORSDOF 12
ENDMDL
MODEL 2
REMARK VINA RESULT:    -6.176      5.310     11.221
REMARK INTER + INTRA:         -10.885
REMARK INTER:                  -9.094
REMARK INTRA:                  -1.791
REMARK UNBOUND:                -1.821
REMARK SMILES O=c1c(O[C@H]2O[C@H](CO)[C@@H](O)[C@H](O)[C@H]2O)c(-c2ccc(O)c(O)c2)oc2cc(O)cc(O)c12
REMARK SMILES IDX 4 1 3 2 16 3 25 4 2 5 26 6 1 7 33 8 27 9 31 10 28 11 30 12
REMARK SMILES IDX 17 13 18 14 19 15 20 16 24 17 22 18 21 19 23 21 32 23 29 25
REMARK SMILES IDX 5 27 14 28 6 29 12 30 7 31 10 32 15 33 13 35 8 37 9 38 11 40
REMARK H PARENT 21 20 23 22 32 24 29 26 15 34 13 36 9 39 11 41
REMARK Flexibility Score: inf
ROOT
ATOM      1  O   UNL     1       7.130   8.182 -15.178  1.00  0.00    -0.454 OA
ENDROOT
BRANCH   1   2
ATOM      2  C   UNL     1       7.067   7.237 -16.223  1.00  0.00     0.214 A 
ATOM      3  C   UNL     1       7.018   7.718 -17.547  1.00  0.00     0.180 A 
ATOM      4  O   UNL     1       6.906   6.871 -18.565  1.00  0.00    -0.452 OA
ATOM      5  C   UNL     1       7.019   5.838 -16.018  1.00  0.00     0.239 A 
ATOM      6  C   UNL     1       6.860   5.554 -18.417  1.00  0.00     0.146 A 
ATOM      7  O   UNL     1       7.052   5.362 -14.853  1.00  0.00    -0.285 OA
ATOM      8  C   UNL     1       6.921   4.973 -17.130  1.00  0.00     0.111 A 
ATOM      9  C   UNL     1       6.750   4.747 -19.553  1.00  0.00     0.094 A 
ATOM     10  C   UNL     1       6.875   3.561 -17.011  1.00  0.00     0.134 A 
ATOM     11  C   UNL     1       6.704   3.355 -19.429  1.00  0.00     0.123 A 
ATOM     12  C   UNL     1       6.767   2.768 -18.163  1.00  0.00     0.093 A 
BRANCH   3  13
ATOM     13  C   UNL     1       7.066   9.165 -17.853  1.00  0.00     0.025 A 
ATOM     14  C   UNL     1       5.875   9.852 -18.138  1.00  0.00     0.016 A 
ATOM     15  C   UNL     1       5.901  11.218 -18.432  1.00  0.00     0.051 A 
ATOM     16  C   UNL     1       7.119  11.912 -18.455  1.00  0.00     0.157 A 
ATOM     17  C   UNL     1       8.287   9.859 -17.906  1.00  0.00     0.062 A 
ATOM     18  C   UNL     1       8.314  11.229 -18.196  1.00  0.00     0.158 A 
BRANCH  16  19
ATOM     19  O   UNL     1       7.149  13.276 -18.741  1.00  0.00    -0.504 OA
ATOM     20  H   UNL     1       8.017  13.755 -18.948  1.00  0.00     0.293 HD
ENDBRANCH  16  19
BRANCH  18  21
ATOM     21  O   UNL     1       9.525  11.918 -18.230  1.00  0.00    -0.504 OA
ATOM     22  H   UNL     1      10.262  11.665 -18.879  1.00  0.00     0.293 HD
ENDBRANCH  18  21
ENDBRANCH   3  13
BRANCH  10  23
ATOM     23  O   UNL     1       6.935   2.942 -15.762  1.00  0.00    -0.507 OA
ATOM     24  H   UNL     1       7.198   3.452 -14.926  1.00  0.00     0.293 HD
ENDBRANCH  10  23
BRANCH  11  25
ATOM     25  O   UNL     1       6.596   2.545 -20.557  1.00  0.00    -0.508 OA
ATOM     26  H   UNL     1       6.295   2.918 -21.450  1.00  0.00     0.293 HD
ENDBRANCH  11  25
ENDBRANCH   1   2
BRANCH   1  27
ATOM     27  C   UNL     1       8.172   8.345 -14.209  1.00  0.00     0.339 C 
ATOM     28  C   UNL     1       7.599   8.243 -12.786  1.00  0.00     0.214 C 
ATOM     29  O   UNL     1       8.866   9.572 -14.385  1.00  0.00    -0.332 OA
ATOM     30  C   UNL     1       6.684   9.442 -12.490  1.00  0.00     0.180 C 
ATOM     31  C   UNL     1       8.000  10.688 -14.248  1.00  0.00     0.179 C 
ATOM     32  C   UNL     1       7.413  10.757 -12.821  1.00  0.00     0.177 C 
BRANCH  28  33
ATOM     33  O   UNL     1       6.883   7.042 -12.658  1.00  0.00    -0.384 OA
ATOM     34  H   UNL     1       6.303   7.136 -11.858  1.00  0.00     0.211 HD
ENDBRANCH  28  33
BRANCH  30  35
ATOM     35  O   UNL     1       6.324   9.424 -11.132  1.00  0.00    -0.387 OA
ATOM     36  H   UNL     1       6.302  10.367 -10.825  1.00  0.00     0.211 HD
ENDBRANCH  30  35
BRANCH  31  37
ATOM     37  C   UNL     1       8.800  11.959 -14.570  1.00  0.00     0.191 C 
BRANCH  37  38
ATOM     38  O   UNL     1       8.965  12.740 -13.417  1.00  0.00    -0.394 OA
ATOM     39  H   UNL     1       8.293  13.468 -13.468  1.00  0.00     0.210 HD
ENDBRANCH  37  38
ENDBRANCH  31  37
BRANCH  32  40
ATOM     40  O   UNL     1       6.511  11.832 -12.736  1.00  0.00    -0.387 OA
ATOM     41  H   UNL     1       6.642  12.250 -11.846  1.00  0.00     0.211 HD
ENDBRANCH  32  40
ENDBRANCH   1  27
TORSDOF 12
ENDMDL
MODEL 3
REMARK VINA RESULT:    -6.055      4.158      8.852
REMARK INTER + INTRA:         -10.708
REMARK INTER:                  -8.731
REMARK INTRA:                  -1.977
REMARK UNBOUND:                -1.821
REMARK SMILES O=c1c(O[C@H]2O[C@H](CO)[C@@H](O)[C@H](O)[C@H]2O)c(-c2ccc(O)c(O)c2)oc2cc(O)cc(O)c12
REMARK SMILES IDX 4 1 3 2 16 3 25 4 2 5 26 6 1 7 33 8 27 9 31 10 28 11 30 12
REMARK SMILES IDX 17 13 18 14 19 15 20 16 24 17 22 18 21 19 23 21 32 23 29 25
REMARK SMILES IDX 5 27 14 28 6 29 12 30 7 31 10 32 15 33 13 35 8 37 9 38 11 40
REMARK H PARENT 21 20 23 22 32 24 29 26 15 34 13 36 9 39 11 41
REMARK Flexibility Score: inf
ROOT
ATOM      1  O   UNL     1       7.134  10.513 -18.332  1.00  0.00    -0.454 OA
ENDROOT
BRANCH   1   2
ATOM      2  C   UNL     1       7.229   9.301 -17.617  1.00  0.00     0.214 A 
ATOM      3  C   UNL     1       7.839   9.328 -16.346  1.00  0.00     0.180 A 
ATOM      4  O   UNL     1       7.998   8.206 -15.654  1.00  0.00    -0.452 OA
ATOM      5  C   UNL     1       6.775   8.056 -18.113  1.00  0.00     0.239 A 
ATOM      6  C   UNL     1       7.587   7.020 -16.081  1.00  0.00     0.146 A 
ATOM      7  O   UNL     1       6.231   7.980 -19.246  1.00  0.00    -0.285 OA
ATOM      8  C   UNL     1       6.946   6.890 -17.335  1.00  0.00     0.111 A 
ATOM      9  C   UNL     1       7.794   5.898 -15.274  1.00  0.00     0.094 A 
ATOM     10  C   UNL     1       6.514   5.608 -17.756  1.00  0.00     0.134 A 
ATOM     11  C   UNL     1       7.367   4.635 -15.696  1.00  0.00     0.123 A 
ATOM     12  C   UNL     1       6.730   4.494 -16.930  1.00  0.00     0.093 A 
BRANCH   3  13
ATOM     13  C   UNL     1       8.339  10.586 -15.750  1.00  0.00     0.025 A 
ATOM     14  C   UNL     1       7.572  11.242 -14.773  1.00  0.00     0.016 A 
ATOM     15  C   UNL     1       8.027  12.433 -14.201  1.00  0.00     0.051 A 
ATOM     16  C   UNL     1       9.248  12.990 -14.605  1.00  0.00     0.157 A 
ATOM     17  C   UNL     1       9.549  11.164 -16.172  1.00  0.00     0.062 A 
ATOM     18  C   UNL     1      10.008  12.355 -15.596  1.00  0.00     0.158 A 
BRANCH  16  19
ATOM     19  O   UNL     1       9.709  14.174 -14.032  1.00  0.00    -0.504 OA
ATOM     20  H   UNL     1      10.669  14.477 -14.141  1.00  0.00     0.293 HD
ENDBRANCH  16  19
BRANCH  18  21
ATOM     21  O   UNL     1      11.217  12.915 -16.004  1.00  0.00    -0.504 OA
ATOM     22  H   UNL     1      12.106  12.490 -15.767  1.00  0.00     0.293 HD
ENDBRANCH  18  21
ENDBRANCH   3  13
BRANCH  10  23
ATOM     23  O   UNL     1       5.875   5.431 -18.983  1.00  0.00    -0.507 OA
ATOM     24  H   UNL     1       5.464   4.542 -19.248  1.00  0.00     0.293 HD
ENDBRANCH  10  23
BRANCH  11  25
ATOM     25  O   UNL     1       7.570   3.513 -14.895  1.00  0.00    -0.508 OA
ATOM     26  H   UNL     1       7.029   3.359 -14.052  1.00  0.00     0.293 HD
ENDBRANCH  11  25
ENDBRANCH   1   2
BRANCH   1  27
ATOM     27  C   UNL     1       5.961  11.300 -18.566  1.00  0.00     0.339 C 
ATOM     28  C   UNL     1       5.875  11.703 -20.047  1.00  0.00     0.214 C 
ATOM     29  O   UNL     1       5.922  12.447 -17.729  1.00  0.00    -0.332 OA
ATOM     30  C   UNL     1       7.005  12.684 -20.401  1.00  0.00     0.180 C 
ATOM     31  C   UNL     1       7.037  13.296 -17.952  1.00  0.00     0.179 C 
ATOM     32  C   UNL     1       7.028  13.848 -19.395  1.00  0.00     0.177 C 
BRANCH  28  33
ATOM     33  O   UNL     1       5.961  10.553 -20.848  1.00  0.00    -0.384 OA
ATOM     34  H   UNL     1       5.135  10.522 -21.397  1.00  0.00     0.211 HD
ENDBRANCH  28  33
BRANCH  30  35
ATOM     35  O   UNL     1       6.797  13.178 -21.700  1.00  0.00    -0.387 OA
ATOM     36  H   UNL     1       6.550  12.403 -22.269  1.00  0.00     0.211 HD
ENDBRANCH  30  35
BRANCH  31  37
ATOM     37  C   UNL     1       6.980  14.441 -16.930  1.00  0.00     0.191 C 
BRANCH  37  38
ATOM     38  O   UNL     1       8.232  15.064 -16.821  1.00  0.00    -0.394 OA
ATOM     39  H   UNL     1       8.823  14.635 -17.492  1.00  0.00     0.210 HD
ENDBRANCH  37  38
ENDBRANCH  31  37
BRANCH  32  40
ATOM     40  O   UNL     1       8.177  14.631 -19.604  1.00  0.00    -0.387 OA
ATOM     41  H   UNL     1       8.957  14.020 -19.548  1.00  0.00     0.211 HD
ENDBRANCH  32  40
ENDBRANCH   1  27
TORSDOF 12
ENDMDL
MODEL 4
REMARK VINA RESULT:    -5.892      4.425      9.308
REMARK INTER + INTRA:         -10.468
REMARK INTER:                  -9.923
REMARK INTRA:                  -0.545
REMARK UNBOUND:                -1.821
REMARK SMILES O=c1c(O[C@H]2O[C@H](CO)[C@@H](O)[C@H](O)[C@H]2O)c(-c2ccc(O)c(O)c2)oc2cc(O)cc(O)c12
REMARK SMILES IDX 4 1 3 2 16 3 25 4 2 5 26 6 1 7 33 8 27 9 31 10 28 11 30 12
REMARK SMILES IDX 17 13 18 14 19 15 20 16 24 17 22 18 21 19 23 21 32 23 29 25
REMARK SMILES IDX 5 27 14 28 6 29 12 30 7 31 10 32 15 33 13 35 8 37 9 38 11 40
REMARK H PARENT 21 20 23 22 32 24 29 26 15 34 13 36 9 39 11 41
REMARK Flexibility Score: inf
ROOT
ATOM      1  O   UNL     1       6.774  10.252 -17.401  1.00  0.00    -0.454 OA
ENDROOT
BRANCH   1   2
ATOM      2  C   UNL     1       6.822   8.900 -17.004  1.00  0.00     0.214 A 
ATOM      3  C   UNL     1       7.165   8.616 -15.666  1.00  0.00     0.180 A 
ATOM      4  O   UNL     1       7.274   7.358 -15.254  1.00  0.00    -0.452 OA
ATOM      5  C   UNL     1       6.577   7.814 -17.876  1.00  0.00     0.239 A 
ATOM      6  C   UNL     1       7.052   6.311 -16.038  1.00  0.00     0.146 A 
ATOM      7  O   UNL     1       6.277   8.018 -19.081  1.00  0.00    -0.285 OA
ATOM      8  C   UNL     1       6.685   6.492 -17.391  1.00  0.00     0.111 A 
ATOM      9  C   UNL     1       7.185   5.025 -15.507  1.00  0.00     0.094 A 
ATOM     10  C   UNL     1       6.449   5.350 -18.196  1.00  0.00     0.134 A 
ATOM     11  C   UNL     1       6.953   3.903 -16.307  1.00  0.00     0.123 A 
ATOM     12  C   UNL     1       6.587   4.067 -17.645  1.00  0.00     0.093 A 
BRANCH   3  13
ATOM     13  C   UNL     1       7.433   9.691 -14.686  1.00  0.00     0.025 A 
ATOM     14  C   UNL     1       6.792   9.665 -13.437  1.00  0.00     0.016 A 
ATOM     15  C   UNL     1       7.031  10.674 -12.500  1.00  0.00     0.051 A 
ATOM     16  C   UNL     1       7.905  11.727 -12.803  1.00  0.00     0.157 A 
ATOM     17  C   UNL     1       8.286  10.764 -14.995  1.00  0.00     0.062 A 
ATOM     18  C   UNL     1       8.531  11.774 -14.055  1.00  0.00     0.158 A 
BRANCH  16  19
ATOM     19  O   UNL     1       8.152  12.731 -11.868  1.00  0.00    -0.504 OA
ATOM     20  H   UNL     1       8.483  13.647 -12.149  1.00  0.00     0.293 HD
ENDBRANCH  16  19
BRANCH  18  21
ATOM     21  O   UNL     1       9.392  12.826 -14.359  1.00  0.00    -0.504 OA
ATOM     22  H   UNL     1       9.237  13.424 -15.162  1.00  0.00     0.293 HD
ENDBRANCH  18  21
ENDBRANCH   3  13
BRANCH  10  23
ATOM     23  O   UNL     1       6.083   5.478 -19.536  1.00  0.00    -0.507 OA
ATOM     24  H   UNL     1       6.284   4.753 -20.216  1.00  0.00     0.293 HD
ENDBRANCH  10  23
BRANCH  11  25
ATOM     25  O   UNL     1       7.083   2.619 -15.784  1.00  0.00    -0.508 OA
ATOM     26  H   UNL     1       6.784   2.397 -14.841  1.00  0.00     0.293 HD
ENDBRANCH  11  25
ENDBRANCH   1   2
BRANCH   1  27
ATOM     27  C   UNL     1       7.203  10.813 -18.647  1.00  0.00     0.339 C 
ATOM     28  C   UNL     1       8.723  11.039 -18.636  1.00  0.00     0.214 C 
ATOM     29  O   UNL     1       6.518  12.022 -18.943  1.00  0.00    -0.332 OA
ATOM     30  C   UNL     1       9.094  12.143 -17.634  1.00  0.00     0.180 C 
ATOM     31  C   UNL     1       6.743  13.010 -17.949  1.00  0.00     0.179 C 
ATOM     32  C   UNL     1       8.238  13.397 -17.889  1.00  0.00     0.177 C 
BRANCH  28  33
ATOM     33  O   UNL     1       9.369   9.838 -18.297  1.00  0.00    -0.384 OA
ATOM     34  H   UNL     1       8.837   9.102 -18.697  1.00  0.00     0.211 HD
ENDBRANCH  28  33
BRANCH  30  35
ATOM     35  O   UNL     1      10.456  12.458 -17.775  1.00  0.00    -0.387 OA
ATOM     36  H   UNL     1      10.522  13.447 -17.823  1.00  0.00     0.211 HD
ENDBRANCH  30  35
BRANCH  31  37
ATOM     37  C   UNL     1       5.876  14.232 -18.282  1.00  0.00     0.191 C 
BRANCH  37  38
ATOM     38  O   UNL     1       6.636  15.205 -18.948  1.00  0.00    -0.394 OA
ATOM     39  H   UNL     1       5.997  15.765 -19.460  1.00  0.00     0.210 HD
ENDBRANCH  37  38
ENDBRANCH  31  37
BRANCH  32  40
ATOM     40  O   UNL     1       8.439  14.326 -16.853  1.00  0.00    -0.387 OA
ATOM     41  H   UNL     1       8.463  13.812 -16.004  1.00  0.00     0.211 HD
ENDBRANCH  32  40
ENDBRANCH   1  27
TORSDOF 12
ENDMDL
MODEL 5
REMARK VINA RESULT:    -5.860      2.856      7.791
REMARK INTER + INTRA:         -10.421
REMARK INTER:                  -9.488
REMARK INTRA:                  -0.933
REMARK UNBOUND:                -1.821
REMARK SMILES O=c1c(O[C@H]2O[C@H](CO)[C@@H](O)[C@H](O)[C@H]2O)c(-c2ccc(O)c(O)c2)oc2cc(O)cc(O)c12
REMARK SMILES IDX 4 1 3 2 16 3 25 4 2 5 26 6 1 7 33 8 27 9 31 10 28 11 30 12
REMARK SMILES IDX 17 13 18 14 19 15 20 16 24 17 22 18 21 19 23 21 32 23 29 25
REMARK SMILES IDX 5 27 14 28 6 29 12 30 7 31 10 32 15 33 13 35 8 37 9 38 11 40
REMARK H PARENT 21 20 23 22 32 24 29 26 15 34 13 36 9 39 11 41
REMARK Flexibility Score: inf
ROOT
ATOM      1  O   UNL     1       7.105  13.359 -15.485  1.00  0.00    -0.454 OA
ENDROOT
BRANCH   1   2
ATOM      2  C   UNL     1       7.028  11.951 -15.449  1.00  0.00     0.214 A 
ATOM      3  C   UNL     1       7.028  11.258 -16.677  1.00  0.00     0.180 A 
ATOM      4  O   UNL     1       6.907   9.935 -16.700  1.00  0.00    -0.452 OA
ATOM      5  C   UNL     1       6.921  11.199 -14.257  1.00  0.00     0.239 A 
ATOM      6  C   UNL     1       6.804   9.192 -15.607  1.00  0.00     0.146 A 
ATOM      7  O   UNL     1       6.908  11.774 -13.137  1.00  0.00    -0.285 OA
ATOM      8  C   UNL     1       6.813   9.792 -14.327  1.00  0.00     0.111 A 
ATOM      9  C   UNL     1       6.689   7.805 -15.737  1.00  0.00     0.094 A 
ATOM     10  C   UNL     1       6.709   8.965 -13.180  1.00  0.00     0.134 A 
ATOM     11  C   UNL     1       6.585   6.995 -14.602  1.00  0.00     0.123 A 
ATOM     12  C   UNL     1       6.595   7.575 -13.331  1.00  0.00     0.093 A 
BRANCH   3  13
ATOM     13  C   UNL     1       7.141  11.965 -17.971  1.00  0.00     0.025 A 
ATOM     14  C   UNL     1       6.173  12.919 -18.325  1.00  0.00     0.016 A 
ATOM     15  C   UNL     1       6.261  13.595 -19.545  1.00  0.00     0.051 A 
ATOM     16  C   UNL     1       7.311  13.319 -20.432  1.00  0.00     0.157 A 
ATOM     17  C   UNL     1       8.175  11.671 -18.876  1.00  0.00     0.062 A 
ATOM     18  C   UNL     1       8.268  12.352 -20.097  1.00  0.00     0.158 A 
BRANCH  16  19
ATOM     19  O   UNL     1       7.407  13.996 -21.646  1.00  0.00    -0.504 OA
ATOM     20  H   UNL     1       7.769  14.941 -21.699  1.00  0.00     0.293 HD
ENDBRANCH  16  19
BRANCH  18  21
ATOM     21  O   UNL     1       9.305  12.071 -20.983  1.00  0.00    -0.504 OA
ATOM     22  H   UNL     1       9.192  12.178 -21.985  1.00  0.00     0.293 HD
ENDBRANCH  18  21
ENDBRANCH   3  13
BRANCH  10  23
ATOM     23  O   UNL     1       6.716   9.512 -11.897  1.00  0.00    -0.507 OA
ATOM     24  H   UNL     1       6.918  10.492 -11.735  1.00  0.00     0.293 HD
ENDBRANCH  10  23
BRANCH  11  25
ATOM     25  O   UNL     1       6.470   5.613 -14.725  1.00  0.00    -0.508 OA
ATOM     26  H   UNL     1       5.781   5.190 -15.336  1.00  0.00     0.293 HD
ENDBRANCH  11  25
ENDBRANCH   1   2
BRANCH   1  27
ATOM     27  C   UNL     1       8.096  14.196 -14.878  1.00  0.00     0.339 C 
ATOM     28  C   UNL     1       8.047  15.609 -15.482  1.00  0.00     0.214 C 
ATOM     29  O   UNL     1       9.399  13.642 -15.001  1.00  0.00    -0.332 OA
ATOM     30  C   UNL     1       8.497  15.578 -16.952  1.00  0.00     0.180 C 
ATOM     31  C   UNL     1       9.774  13.482 -16.360  1.00  0.00     0.179 C 
ATOM     32  C   UNL     1       9.848  14.849 -17.075  1.00  0.00     0.177 C 
BRANCH  28  33
ATOM     33  O   UNL     1       6.738  16.110 -15.386  1.00  0.00    -0.384 OA
ATOM     34  H   UNL     1       6.769  17.055 -15.688  1.00  0.00     0.211 HD
ENDBRANCH  28  33
BRANCH  30  35
ATOM     35  O   UNL     1       8.620  16.896 -17.424  1.00  0.00    -0.387 OA
ATOM     36  H   UNL     1       9.577  17.035 -17.650  1.00  0.00     0.211 HD
ENDBRANCH  30  35
BRANCH  31  37
ATOM     37  C   UNL     1      11.135  12.771 -16.402  1.00  0.00     0.191 C 
BRANCH  37  38
ATOM     38  O   UNL     1      11.005  11.498 -16.975  1.00  0.00    -0.394 OA
ATOM     39  H   UNL     1      11.518  10.873 -16.400  1.00  0.00     0.210 HD
ENDBRANCH  37  38
ENDBRANCH  31  37
BRANCH  32  40
ATOM     40  O   UNL     1      10.156  14.653 -18.432  1.00  0.00    -0.387 OA
ATOM     41  H   UNL     1       9.385  14.991 -18.956  1.00  0.00     0.211 HD
ENDBRANCH  32  40
ENDBRANCH   1  27
TORSDOF 12
ENDMDL
MODEL 6
REMARK VINA RESULT:    -5.701      3.422      8.104
REMARK INTER + INTRA:         -10.188
REMARK INTER:                  -8.665
REMARK INTRA:                  -1.524
REMARK UNBOUND:                -1.821
REMARK SMILES O=c1c(O[C@H]2O[C@H](CO)[C@@H](O)[C@H](O)[C@H]2O)c(-c2ccc(O)c(O)c2)oc2cc(O)cc(O)c12
REMARK SMILES IDX 4 1 3 2 16 3 25 4 2 5 26 6 1 7 33 8 27 9 31 10 28 11 30 12
REMARK SMILES IDX 17 13 18 14 19 15 20 16 24 17 22 18 21 19 23 21 32 23 29 25
REMARK SMILES IDX 5 27 14 28 6 29 12 30 7 31 10 32 15 33 13 35 8 37 9 38 11 40
REMARK H PARENT 21 20 23 22 32 24 29 26 15 34 13 36 9 39 11 41
REMARK Flexibility Score: inf
ROOT
ATOM      1  O   UNL     1       7.763  11.832 -18.258  1.00  0.00    -0.454 OA
ENDROOT
BRANCH   1   2
ATOM      2  C   UNL     1       7.929  10.684 -17.455  1.00  0.00     0.214 A 
ATOM      3  C   UNL     1       8.864  10.744 -16.402  1.00  0.00     0.180 A 
ATOM      4  O   UNL     1       9.095   9.675 -15.648  1.00  0.00    -0.452 OA
ATOM      5  C   UNL     1       7.235   9.470 -17.664  1.00  0.00     0.239 A 
ATOM      6  C   UNL     1       8.466   8.519 -15.809  1.00  0.00     0.146 A 
ATOM      7  O   UNL     1       6.397   9.366 -18.598  1.00  0.00    -0.285 OA
ATOM      8  C   UNL     1       7.497   8.363 -16.826  1.00  0.00     0.111 A 
ATOM      9  C   UNL     1       8.774   7.454 -14.958  1.00  0.00     0.094 A 
ATOM     10  C   UNL     1       6.840   7.115 -16.964  1.00  0.00     0.134 A 
ATOM     11  C   UNL     1       8.124   6.224 -15.100  1.00  0.00     0.123 A 
ATOM     12  C   UNL     1       7.162   6.059 -16.099  1.00  0.00     0.093 A 
BRANCH   3  13
ATOM     13  C   UNL     1       9.631  11.975 -16.110  1.00  0.00     0.025 A 
ATOM     14  C   UNL     1      10.987  12.047 -16.467  1.00  0.00     0.016 A 
ATOM     15  C   UNL     1      11.728  13.200 -16.196  1.00  0.00     0.051 A 
ATOM     16  C   UNL     1      11.127  14.293 -15.556  1.00  0.00     0.157 A 
ATOM     17  C   UNL     1       9.040  13.062 -15.442  1.00  0.00     0.062 A 
ATOM     18  C   UNL     1       9.781  14.221 -15.175  1.00  0.00     0.158 A 
BRANCH  16  19
ATOM     19  O   UNL     1      11.860  15.447 -15.290  1.00  0.00    -0.504 OA
ATOM     20  H   UNL     1      12.208  16.037 -16.037  1.00  0.00     0.293 HD
ENDBRANCH  16  19
BRANCH  18  21
ATOM     21  O   UNL     1       9.186  15.303 -14.529  1.00  0.00    -0.504 OA
ATOM     22  H   UNL     1       8.182  15.361 -14.406  1.00  0.00     0.293 HD
ENDBRANCH  18  21
ENDBRANCH   3  13
BRANCH  10  23
ATOM     23  O   UNL     1       5.875   6.915 -17.952  1.00  0.00    -0.507 OA
ATOM     24  H   UNL     1       6.024   7.208 -18.911  1.00  0.00     0.293 HD
ENDBRANCH  10  23
BRANCH  11  25
ATOM     25  O   UNL     1       8.426   5.160 -14.254  1.00  0.00    -0.508 OA
ATOM     26  H   UNL     1       8.691   4.252 -14.618  1.00  0.00     0.293 HD
ENDBRANCH  11  25
ENDBRANCH   1   2
BRANCH   1  27
ATOM     27  C   UNL     1       6.534  12.440 -18.671  1.00  0.00     0.339 C 
ATOM     28  C   UNL     1       6.562  12.732 -20.180  1.00  0.00     0.214 C 
ATOM     29  O   UNL     1       6.259  13.623 -17.935  1.00  0.00    -0.332 OA
ATOM     30  C   UNL     1       7.592  13.829 -20.494  1.00  0.00     0.180 C 
ATOM     31  C   UNL     1       7.277  14.597 -18.109  1.00  0.00     0.179 C 
ATOM     32  C   UNL     1       7.358  15.048 -19.584  1.00  0.00     0.177 C 
BRANCH  28  33
ATOM     33  O   UNL     1       6.879  11.554 -20.876  1.00  0.00    -0.384 OA
ATOM     34  H   UNL     1       6.542  10.797 -20.329  1.00  0.00     0.211 HD
ENDBRANCH  28  33
BRANCH  30  35
ATOM     35  O   UNL     1       7.469  14.206 -21.841  1.00  0.00    -0.387 OA
ATOM     36  H   UNL     1       6.501  14.334 -22.019  1.00  0.00     0.211 HD
ENDBRANCH  30  35
BRANCH  31  37
ATOM     37  C   UNL     1       6.965  15.787 -17.191  1.00  0.00     0.191 C 
BRANCH  37  38
ATOM     38  O   UNL     1       6.208  16.749 -17.876  1.00  0.00    -0.394 OA
ATOM     39  H   UNL     1       6.470  16.691 -18.831  1.00  0.00     0.210 HD
ENDBRANCH  37  38
ENDBRANCH  31  37
BRANCH  32  40
ATOM     40  O   UNL     1       8.416  15.961 -19.737  1.00  0.00    -0.387 OA
ATOM     41  H   UNL     1       8.215  16.738 -19.153  1.00  0.00     0.211 HD
ENDBRANCH  32  40
ENDBRANCH   1  27
TORSDOF 12
ENDMDL
MODEL 7
REMARK VINA RESULT:    -5.622      4.749      9.613
REMARK INTER + INTRA:         -10.072
REMARK INTER:                  -8.461
REMARK INTRA:                  -1.610
REMARK UNBOUND:                -1.821
REMARK SMILES O=c1c(O[C@H]2O[C@H](CO)[C@@H](O)[C@H](O)[C@H]2O)c(-c2ccc(O)c(O)c2)oc2cc(O)cc(O)c12
REMARK SMILES IDX 4 1 3 2 16 3 25 4 2 5 26 6 1 7 33 8 27 9 31 10 28 11 30 12
REMARK SMILES IDX 17 13 18 14 19 15 20 16 24 17 22 18 21 19 23 21 32 23 29 25
REMARK SMILES IDX 5 27 14 28 6 29 12 30 7 31 10 32 15 33 13 35 8 37 9 38 11 40
REMARK H PARENT 21 20 23 22 32 24 29 26 15 34 13 36 9 39 11 41
REMARK Flexibility Score: inf
ROOT
ATOM      1  O   UNL     1       7.097   9.806 -17.861  1.00  0.00    -0.454 OA
ENDROOT
BRANCH   1   2
ATOM      2  C   UNL     1       7.048   8.453 -17.469  1.00  0.00     0.214 A 
ATOM      3  C   UNL     1       7.248   8.151 -16.106  1.00  0.00     0.180 A 
ATOM      4  O   UNL     1       7.261   6.889 -15.693  1.00  0.00    -0.452 OA
ATOM      5  C   UNL     1       6.840   7.380 -18.367  1.00  0.00     0.239 A 
ATOM      6  C   UNL     1       7.070   5.854 -16.501  1.00  0.00     0.146 A 
ATOM      7  O   UNL     1       6.665   7.599 -19.594  1.00  0.00    -0.285 OA
ATOM      8  C   UNL     1       6.842   6.053 -17.882  1.00  0.00     0.111 A 
ATOM      9  C   UNL     1       7.095   4.563 -15.967  1.00  0.00     0.094 A 
ATOM     10  C   UNL     1       6.635   4.924 -18.713  1.00  0.00     0.134 A 
ATOM     11  C   UNL     1       6.891   3.453 -16.793  1.00  0.00     0.123 A 
ATOM     12  C   UNL     1       6.662   3.636 -18.158  1.00  0.00     0.093 A 
BRANCH   3  13
ATOM     13  C   UNL     1       7.468   9.211 -15.098  1.00  0.00     0.025 A 
ATOM     14  C   UNL     1       8.626  10.002 -15.168  1.00  0.00     0.016 A 
ATOM     15  C   UNL     1       8.853  11.006 -14.223  1.00  0.00     0.051 A 
ATOM     16  C   UNL     1       7.931  11.225 -13.189  1.00  0.00     0.157 A 
ATOM     17  C   UNL     1       6.562   9.415 -14.044  1.00  0.00     0.062 A 
ATOM     18  C   UNL     1       6.785  10.425 -13.098  1.00  0.00     0.158 A 
BRANCH  16  19
ATOM     19  O   UNL     1       8.150  12.230 -12.249  1.00  0.00    -0.504 OA
ATOM     20  H   UNL     1       7.657  13.114 -12.293  1.00  0.00     0.293 HD
ENDBRANCH  16  19
BRANCH  18  21
ATOM     21  O   UNL     1       5.875  10.636 -12.065  1.00  0.00    -0.504 OA
ATOM     22  H   UNL     1       5.692   9.926 -11.365  1.00  0.00     0.293 HD
ENDBRANCH  18  21
ENDBRANCH   3  13
BRANCH  10  23
ATOM     23  O   UNL     1       6.405   5.071 -20.081  1.00  0.00    -0.507 OA
ATOM     24  H   UNL     1       6.130   5.960 -20.484  1.00  0.00     0.293 HD
ENDBRANCH  10  23
BRANCH  11  25
ATOM     25  O   UNL     1       6.914   2.163 -16.267  1.00  0.00    -0.508 OA
ATOM     26  H   UNL     1       7.591   1.889 -15.565  1.00  0.00     0.293 HD
ENDBRANCH  11  25
ENDBRANCH   1   2
BRANCH   1  27
ATOM     27  C   UNL     1       5.994  10.670 -18.161  1.00  0.00     0.339 C 
ATOM     28  C   UNL     1       6.131  11.237 -19.583  1.00  0.00     0.214 C 
ATOM     29  O   UNL     1       5.875  11.719 -17.211  1.00  0.00    -0.332 OA
ATOM     30  C   UNL     1       7.331  12.195 -19.665  1.00  0.00     0.180 C 
ATOM     31  C   UNL     1       7.038  12.533 -17.180  1.00  0.00     0.179 C 
ATOM     32  C   UNL     1       7.250  13.240 -18.537  1.00  0.00     0.177 C 
BRANCH  28  33
ATOM     33  O   UNL     1       6.292  10.178 -20.492  1.00  0.00    -0.384 OA
ATOM     34  H   UNL     1       7.082  10.397 -21.052  1.00  0.00     0.211 HD
ENDBRANCH  28  33
BRANCH  30  35
ATOM     35  O   UNL     1       7.324  12.838 -20.914  1.00  0.00    -0.387 OA
ATOM     36  H   UNL     1       7.803  12.243 -21.548  1.00  0.00     0.211 HD
ENDBRANCH  30  35
BRANCH  31  37
ATOM     37  C   UNL     1       6.874  13.561 -16.050  1.00  0.00     0.191 C 
BRANCH  37  38
ATOM     38  O   UNL     1       5.939  13.109 -15.108  1.00  0.00    -0.394 OA
ATOM     39  H   UNL     1       5.223  13.794 -15.065  1.00  0.00     0.210 HD
ENDBRANCH  37  38
ENDBRANCH  31  37
BRANCH  32  40
ATOM     40  O   UNL     1       8.441  13.984 -18.497  1.00  0.00    -0.387 OA
ATOM     41  H   UNL     1       8.229  14.890 -18.844  1.00  0.00     0.211 HD
ENDBRANCH  32  40
ENDBRANCH   1  27
TORSDOF 12
ENDMDL
MODEL 8
REMARK VINA RESULT:    -5.597      2.721      7.367
REMARK INTER + INTRA:         -10.035
REMARK INTER:                  -9.586
REMARK INTRA:                  -0.449
REMARK UNBOUND:                -1.821
REMARK SMILES O=c1c(O[C@H]2O[C@H](CO)[C@@H](O)[C@H](O)[C@H]2O)c(-c2ccc(O)c(O)c2)oc2cc(O)cc(O)c12
REMARK SMILES IDX 4 1 3 2 16 3 25 4 2 5 26 6 1 7 33 8 27 9 31 10 28 11 30 12
REMARK SMILES IDX 17 13 18 14 19 15 20 16 24 17 22 18 21 19 23 21 32 23 29 25
REMARK SMILES IDX 5 27 14 28 6 29 12 30 7 31 10 32 15 33 13 35 8 37 9 38 11 40
REMARK H PARENT 21 20 23 22 32 24 29 26 15 34 13 36 9 39 11 41
REMARK Flexibility Score: inf
ROOT
ATOM      1  O   UNL     1       8.286  11.341 -17.491  1.00  0.00    -0.454 OA
ENDROOT
BRANCH   1   2
ATOM      2  C   UNL     1       7.901  10.947 -16.192  1.00  0.00     0.214 A 
ATOM      3  C   UNL     1       7.215  11.884 -15.393  1.00  0.00     0.180 A 
ATOM      4  O   UNL     1       6.875  11.581 -14.146  1.00  0.00    -0.452 OA
ATOM      5  C   UNL     1       8.190   9.679 -15.636  1.00  0.00     0.239 A 
ATOM      6  C   UNL     1       7.126  10.405 -13.586  1.00  0.00     0.146 A 
ATOM      7  O   UNL     1       8.809   8.813 -16.308  1.00  0.00    -0.285 OA
ATOM      8  C   UNL     1       7.792   9.391 -14.312  1.00  0.00     0.111 A 
ATOM      9  C   UNL     1       6.719  10.180 -12.268  1.00  0.00     0.094 A 
ATOM     10  C   UNL     1       8.037   8.145 -13.684  1.00  0.00     0.134 A 
ATOM     11  C   UNL     1       6.965   8.948 -11.653  1.00  0.00     0.123 A 
ATOM     12  C   UNL     1       7.620   7.938 -12.360  1.00  0.00     0.093 A 
BRANCH   3  13
ATOM     13  C   UNL     1       6.869  13.232 -15.897  1.00  0.00     0.025 A 
ATOM     14  C   UNL     1       6.207  13.362 -17.127  1.00  0.00     0.016 A 
ATOM     15  C   UNL     1       5.875  14.627 -17.621  1.00  0.00     0.051 A 
ATOM     16  C   UNL     1       6.211  15.778 -16.895  1.00  0.00     0.157 A 
ATOM     17  C   UNL     1       7.229  14.390 -15.187  1.00  0.00     0.062 A 
ATOM     18  C   UNL     1       6.892  15.659 -15.677  1.00  0.00     0.158 A 
BRANCH  16  19
ATOM     19  O   UNL     1       5.875  17.041 -17.380  1.00  0.00    -0.504 OA
ATOM     20  H   UNL     1       6.525  17.584 -17.936  1.00  0.00     0.293 HD
ENDBRANCH  16  19
BRANCH  18  21
ATOM     21  O   UNL     1       7.235  16.804 -14.962  1.00  0.00    -0.504 OA
ATOM     22  H   UNL     1       8.189  17.143 -14.927  1.00  0.00     0.293 HD
ENDBRANCH  18  21
ENDBRANCH   3  13
BRANCH  10  23
ATOM     23  O   UNL     1       8.690   7.114 -14.360  1.00  0.00    -0.507 OA
ATOM     24  H   UNL     1       9.673   7.173 -14.603  1.00  0.00     0.293 HD
ENDBRANCH  10  23
BRANCH  11  25
ATOM     25  O   UNL     1       6.562   8.717 -10.340  1.00  0.00    -0.508 OA
ATOM     26  H   UNL     1       5.872   8.011 -10.113  1.00  0.00     0.293 HD
ENDBRANCH  11  25
ENDBRANCH   1   2
BRANCH   1  27
ATOM     27  C   UNL     1       9.616  11.498 -17.998  1.00  0.00     0.339 C 
ATOM     28  C   UNL     1      10.395  12.518 -17.152  1.00  0.00     0.214 C 
ATOM     29  O   UNL     1       9.615  11.878 -19.367  1.00  0.00    -0.332 OA
ATOM     30  C   UNL     1       9.806  13.926 -17.333  1.00  0.00     0.180 C 
ATOM     31  C   UNL     1       8.951  13.116 -19.567  1.00  0.00     0.179 C 
ATOM     32  C   UNL     1       9.686  14.259 -18.832  1.00  0.00     0.177 C 
BRANCH  28  33
ATOM     33  O   UNL     1      10.340  12.139 -15.800  1.00  0.00    -0.384 OA
ATOM     34  H   UNL     1       9.887  12.876 -15.313  1.00  0.00     0.211 HD
ENDBRANCH  28  33
BRANCH  30  35
ATOM     35  O   UNL     1      10.642  14.861 -16.701  1.00  0.00    -0.387 OA
ATOM     36  H   UNL     1      10.411  14.850 -15.736  1.00  0.00     0.211 HD
ENDBRANCH  30  35
BRANCH  31  37
ATOM     37  C   UNL     1       8.891  13.390 -21.077  1.00  0.00     0.191 C 
BRANCH  37  38
ATOM     38  O   UNL     1       7.829  14.256 -21.376  1.00  0.00    -0.394 OA
ATOM     39  H   UNL     1       7.505  14.620 -20.511  1.00  0.00     0.210 HD
ENDBRANCH  37  38
ENDBRANCH  31  37
BRANCH  32  40
ATOM     40  O   UNL     1       8.970  15.457 -18.994  1.00  0.00    -0.387 OA
ATOM     41  H   UNL     1       8.069  15.213 -19.331  1.00  0.00     0.211 HD
ENDBRANCH  32  40
ENDBRANCH   1  27
TORSDOF 12
ENDMDL
MODEL 9
REMARK VINA RESULT:    -5.571      2.621      5.075
REMARK INTER + INTRA:          -9.997
REMARK INTER:                  -9.194
REMARK INTRA:                  -0.803
REMARK UNBOUND:                -1.821
REMARK SMILES O=c1c(O[C@H]2O[C@H](CO)[C@@H](O)[C@H](O)[C@H]2O)c(-c2ccc(O)c(O)c2)oc2cc(O)cc(O)c12
REMARK SMILES IDX 4 1 3 2 16 3 25 4 2 5 26 6 1 7 33 8 27 9 31 10 28 11 30 12
REMARK SMILES IDX 17 13 18 14 19 15 20 16 24 17 22 18 21 19 23 21 32 23 29 25
REMARK SMILES IDX 5 27 14 28 6 29 12 30 7 31 10 32 15 33 13 35 8 37 9 38 11 40
REMARK H PARENT 21 20 23 22 32 24 29 26 15 34 13 36 9 39 11 41
REMARK Flexibility Score: inf
ROOT
ATOM      1  O   UNL     1       7.317  11.355 -18.235  1.00  0.00    -0.454 OA
ENDROOT
BRANCH   1   2
ATOM      2  C   UNL     1       7.522  12.750 -18.216  1.00  0.00     0.214 A 
ATOM      3  C   UNL     1       7.434  13.414 -16.975  1.00  0.00     0.180 A 
ATOM      4  O   UNL     1       7.568  14.734 -16.910  1.00  0.00    -0.452 OA
ATOM      5  C   UNL     1       7.778  13.524 -19.371  1.00  0.00     0.239 A 
ATOM      6  C   UNL     1       7.810  15.497 -17.968  1.00  0.00     0.146 A 
ATOM      7  O   UNL     1       7.857  12.977 -20.502  1.00  0.00    -0.285 OA
ATOM      8  C   UNL     1       7.934  14.923 -19.254  1.00  0.00     0.111 A 
ATOM      9  C   UNL     1       7.943  16.877 -17.794  1.00  0.00     0.094 A 
ATOM     10  C   UNL     1       8.200  15.768 -20.360  1.00  0.00     0.134 A 
ATOM     11  C   UNL     1       8.204  17.706 -18.889  1.00  0.00     0.123 A 
ATOM     12  C   UNL     1       8.332  17.151 -20.165  1.00  0.00     0.093 A 
BRANCH   3  13
ATOM     13  C   UNL     1       7.172  12.682 -15.717  1.00  0.00     0.025 A 
ATOM     14  C   UNL     1       6.141  11.731 -15.671  1.00  0.00     0.016 A 
ATOM     15  C   UNL     1       5.877  11.032 -14.490  1.00  0.00     0.051 A 
ATOM     16  C   UNL     1       6.633  11.283 -13.337  1.00  0.00     0.157 A 
ATOM     17  C   UNL     1       7.909  12.950 -14.550  1.00  0.00     0.062 A 
ATOM     18  C   UNL     1       7.648  12.247 -13.366  1.00  0.00     0.158 A 
BRANCH  16  19
ATOM     19  O   UNL     1       6.377  10.583 -12.159  1.00  0.00    -0.504 OA
ATOM     20  H   UNL     1       5.907   9.686 -12.167  1.00  0.00     0.293 HD
ENDBRANCH  16  19
BRANCH  18  21
ATOM     21  O   UNL     1       8.393  12.502 -12.217  1.00  0.00    -0.504 OA
ATOM     22  H   UNL     1       8.780  11.751 -11.657  1.00  0.00     0.293 HD
ENDBRANCH  18  21
ENDBRANCH   3  13
BRANCH  10  23
ATOM     23  O   UNL     1       8.333  15.248 -21.648  1.00  0.00    -0.507 OA
ATOM     24  H   UNL     1       7.539  14.877 -22.158  1.00  0.00     0.293 HD
ENDBRANCH  10  23
BRANCH  11  25
ATOM     25  O   UNL     1       8.339  19.082 -18.722  1.00  0.00    -0.508 OA
ATOM     26  H   UNL     1       7.530  19.690 -18.665  1.00  0.00     0.293 HD
ENDBRANCH  11  25
ENDBRANCH   1   2
BRANCH   1  27
ATOM     27  C   UNL     1       8.227  10.344 -18.684  1.00  0.00     0.339 C 
ATOM     28  C   UNL     1       7.760   8.957 -18.215  1.00  0.00     0.214 C 
ATOM     29  O   UNL     1       9.555  10.601 -18.249  1.00  0.00    -0.332 OA
ATOM     30  C   UNL     1       7.872   8.843 -16.686  1.00  0.00     0.180 C 
ATOM     31  C   UNL     1       9.645  10.635 -16.833  1.00  0.00     0.179 C 
ATOM     32  C   UNL     1       9.280   9.261 -16.227  1.00  0.00     0.177 C 
BRANCH  28  33
ATOM     33  O   UNL     1       6.432   8.752 -18.621  1.00  0.00    -0.384 OA
ATOM     34  H   UNL     1       6.124   9.598 -19.039  1.00  0.00     0.211 HD
ENDBRANCH  28  33
BRANCH  30  35
ATOM     35  O   UNL     1       7.617   7.516 -16.302  1.00  0.00    -0.387 OA
ATOM     36  H   UNL     1       7.280   7.544 -15.369  1.00  0.00     0.211 HD
ENDBRANCH  30  35
BRANCH  31  37
ATOM     37  C   UNL     1      11.078  11.035 -16.452  1.00  0.00     0.191 C 
BRANCH  37  38
ATOM     38  O   UNL     1      11.291  12.397 -16.710  1.00  0.00    -0.394 OA
ATOM     39  H   UNL     1      11.954  12.713 -16.042  1.00  0.00     0.210 HD
ENDBRANCH  37  38
ENDBRANCH  31  37
BRANCH  32  40
ATOM     40  O   UNL     1       9.315   9.344 -14.824  1.00  0.00    -0.387 OA
ATOM     41  H   UNL     1      10.237   9.610 -14.572  1.00  0.00     0.211 HD
ENDBRANCH  32  40
ENDBRANCH   1  27
TORSDOF 12
ENDMDL
