MODEL 1
REMARK VINA RESULT:    45.401      0.000      0.000
REMARK INTER + INTRA:          65.859
REMARK INTER:                  59.999
REMARK INTRA:                   5.860
REMARK UNBOUND:                 5.860
REMARK SMILES CC[C@@H](C=C[C@H](C)[C@@H]1CC[C@H]2[C@H]3CC=C4C[C@@H](O)CC[C@@]4(C)[C@H]3CC[C@]21C)C(C)C
REMARK SMILES IDX 6 1 7 2 5 3 4 4 3 5 2 6 1 7 28 8 29 9 30 10 8 11 9 12 26 13
REMARK SMILES IDX 10 14 11 15 25 16 27 17 12 18 24 19 23 20 13 21 21 22 14 23
REMARK SMILES IDX 15 24 20 25 22 26 16 27 19 28 17 29 18 30
REMARK H PARENT 18 31
REMARK Flexibility Score: inf
ROOT
ATOM      1  C   UNL     1      -0.863  44.488  50.135  1.00  0.00     0.012 C 
ATOM      2  C   UNL     1      -0.712  44.426  51.665  1.00  0.00     0.012 C 
ENDROOT
BRANCH   1   3
ATOM      3  C   UNL     1      -0.345  45.841  49.666  1.00  0.00    -0.028 C 
ATOM      4  C   UNL     1       0.496  45.949  48.619  1.00  0.00    -0.027 C 
BRANCH   4   5
ATOM      5  C   UNL     1       1.143  47.233  48.112  1.00  0.00     0.014 C 
BRANCH   5   6
ATOM      6  C   UNL     1       0.470  47.857  46.854  1.00  0.00     0.004 C 
ATOM      7  C   UNL     1      -1.014  47.500  46.738  1.00  0.00     0.004 C 
ENDBRANCH   5   6
BRANCH   5   8
ATOM      8  C   UNL     1       2.675  47.039  47.879  1.00  0.00    -0.011 C 
ATOM      9  C   UNL     1       3.481  47.105  49.190  1.00  0.00     0.008 C 
ATOM     10  C   UNL     1       3.246  48.025  46.844  1.00  0.00     0.008 C 
ENDBRANCH   5   8
ENDBRANCH   4   5
ENDBRANCH   1   3
BRANCH   1  11
ATOM     11  C   UNL     1      -0.173  43.344  49.291  1.00  0.00     0.002 C 
ATOM     12  C   UNL     1      -0.391  42.013  50.061  1.00  0.00     0.005 C 
ATOM     13  C   UNL     1       1.382  43.320  49.058  1.00  0.00    -0.026 C 
ATOM     14  C   UNL     1       0.880  41.766  50.884  1.00  0.00     0.005 C 
ATOM     15  C   UNL     1       1.908  42.817  50.417  1.00  0.00    -0.001 C 
ATOM     16  C   UNL     1       1.689  42.289  47.895  1.00  0.00     0.007 C 
ATOM     17  C   UNL     1       2.034  44.671  48.670  1.00  0.00     0.012 C 
ATOM     18  C   UNL     1       3.405  42.380  50.410  1.00  0.00     0.000 C 
ATOM     19  C   UNL     1       2.704  41.179  48.241  1.00  0.00     0.005 C 
ATOM     20  C   UNL     1       3.882  41.696  49.089  1.00  0.00     0.003 C 
ATOM     21  C   UNL     1       3.801  41.614  51.667  1.00  0.00     0.031 C 
ATOM     22  C   UNL     1       5.073  40.642  49.232  1.00  0.00    -0.008 C 
ATOM     23  C   UNL     1       5.259  41.312  51.647  1.00  0.00    -0.027 C 
ATOM     24  C   UNL     1       5.849  40.818  50.544  1.00  0.00    -0.065 C 
ATOM     25  C   UNL     1       4.598  39.155  49.219  1.00  0.00     0.014 C 
ATOM     26  C   UNL     1       6.030  40.885  48.028  1.00  0.00     0.016 C 
ATOM     27  C   UNL     1       7.050  39.923  50.755  1.00  0.00     0.063 C 
ATOM     28  C   UNL     1       5.735  38.136  49.491  1.00  0.00     0.033 C 
ATOM     29  C   UNL     1       6.567  38.464  50.758  1.00  0.00     0.118 C 
BRANCH  29  30
ATOM     30  O   UNL     1       5.795  38.229  51.909  1.00  0.00    -0.393 OA
ATOM     31  H   UNL     1       4.859  38.081  51.609  1.00  0.00     0.210 HD
ENDBRANCH  29  30
ENDBRANCH   1  11
TORSDOF 6
ENDMDL
MODEL 2
REMARK VINA RESULT:    45.532      1.689      2.901
REMARK INTER + INTRA:          66.031
REMARK INTER:                  65.091
REMARK INTRA:                   0.941
REMARK UNBOUND:                 5.860
REMARK SMILES CC[C@@H](C=C[C@H](C)[C@@H]1CC[C@H]2[C@H]3CC=C4C[C@@H](O)CC[C@@]4(C)[C@H]3CC[C@]21C)C(C)C
REMARK SMILES IDX 6 1 7 2 5 3 4 4 3 5 2 6 1 7 28 8 29 9 30 10 8 11 9 12 26 13
REMARK SMILES IDX 10 14 11 15 25 16 27 17 12 18 24 19 23 20 13 21 21 22 14 23
REMARK SMILES IDX 15 24 20 25 22 26 16 27 19 28 17 29 18 30
REMARK H PARENT 18 31
REMARK Flexibility Score: inf
ROOT
ATOM      1  C   UNL     1      -0.094  44.902  50.398  1.00  0.00     0.012 C 
ATOM      2  C   UNL     1      -1.125  45.431  51.409  1.00  0.00     0.012 C 
ENDROOT
BRANCH   1   3
ATOM      3  C   UNL     1      -0.161  45.779  49.155  1.00  0.00    -0.028 C 
ATOM      4  C   UNL     1       0.403  47.003  49.125  1.00  0.00    -0.027 C 
BRANCH   4   5
ATOM      5  C   UNL     1       0.330  47.999  47.974  1.00  0.00     0.014 C 
BRANCH   5   6
ATOM      6  C   UNL     1      -1.063  48.113  47.287  1.00  0.00     0.004 C 
ATOM      7  C   UNL     1      -1.108  47.421  45.923  1.00  0.00     0.004 C 
ENDBRANCH   5   6
BRANCH   5   8
ATOM      8  C   UNL     1       1.445  47.721  46.916  1.00  0.00    -0.011 C 
ATOM      9  C   UNL     1       1.443  46.259  46.432  1.00  0.00     0.008 C 
ATOM     10  C   UNL     1       2.846  48.124  47.411  1.00  0.00     0.008 C 
ENDBRANCH   5   8
ENDBRANCH   4   5
ENDBRANCH   1   3
BRANCH   1  11
ATOM     11  C   UNL     1       1.408  44.796  50.880  1.00  0.00     0.002 C 
ATOM     12  C   UNL     1       2.293  45.390  49.752  1.00  0.00     0.005 C 
ATOM     13  C   UNL     1       2.097  43.402  51.118  1.00  0.00    -0.026 C 
ATOM     14  C   UNL     1       2.790  44.207  48.911  1.00  0.00     0.005 C 
ATOM     15  C   UNL     1       2.387  42.932  49.678  1.00  0.00    -0.001 C 
ATOM     16  C   UNL     1       3.433  43.647  51.933  1.00  0.00     0.007 C 
ATOM     17  C   UNL     1       1.262  42.352  51.892  1.00  0.00     0.012 C 
ATOM     18  C   UNL     1       3.358  41.716  49.577  1.00  0.00     0.000 C 
ATOM     19  C   UNL     1       4.717  43.079  51.291  1.00  0.00     0.005 C 
ATOM     20  C   UNL     1       4.497  41.697  50.648  1.00  0.00     0.003 C 
ATOM     21  C   UNL     1       3.857  41.477  48.157  1.00  0.00     0.031 C 
ATOM     22  C   UNL     1       5.853  40.972  50.219  1.00  0.00    -0.008 C 
ATOM     23  C   UNL     1       4.697  40.248  48.108  1.00  0.00    -0.027 C 
ATOM     24  C   UNL     1       5.655  40.026  49.027  1.00  0.00    -0.065 C 
ATOM     25  C   UNL     1       6.983  41.960  49.790  1.00  0.00     0.014 C 
ATOM     26  C   UNL     1       6.331  40.153  51.454  1.00  0.00     0.016 C 
ATOM     27  C   UNL     1       6.857  39.225  48.579  1.00  0.00     0.063 C 
ATOM     28  C   UNL     1       8.254  41.255  49.248  1.00  0.00     0.033 C 
ATOM     29  C   UNL     1       7.955  40.208  48.144  1.00  0.00     0.118 C 
BRANCH  29  30
ATOM     30  O   UNL     1       7.557  40.861  46.964  1.00  0.00    -0.393 OA
ATOM     31  H   UNL     1       7.626  41.838  47.131  1.00  0.00     0.210 HD
ENDBRANCH  29  30
ENDBRANCH   1  11
TORSDOF 6
ENDMDL
