MODEL 1
REMARK VINA RESULT:    -4.037      0.000      0.000
REMARK INTER + INTRA:          -6.024
REMARK INTER:                  -5.453
REMARK INTRA:                  -0.571
REMARK UNBOUND:                -0.571
REMARK SMILES CCCCCCC=CC(=O)[O-]
REMARK SMILES IDX 5 1 6 2 7 3 8 4 9 5 10 6 11 7 4 8 3 9 2 10 1 11
REMARK H PARENT
REMARK Flexibility Score: inf
ROOT
ATOM      1  C   UNL     1     -14.942 -11.798  18.990  1.00  0.00     0.004 C 
ENDROOT
BRANCH   1   2
ATOM      2  C   UNL     1     -15.125 -11.737  20.512  1.00  0.00     0.027 C 
BRANCH   2   3
ATOM      3  C   UNL     1     -14.645 -12.999  21.169  1.00  0.00    -0.025 C 
ATOM      4  C   UNL     1     -14.097 -12.987  22.387  1.00  0.00     0.020 C 
BRANCH   4   5
ATOM      5  C   UNL     1     -13.636 -14.218  23.048  1.00  0.00     0.064 C 
ATOM      6  O   UNL     1     -13.814 -14.362  24.285  1.00  0.00    -0.545 OA
ATOM      7  O   UNL     1     -13.005 -15.224  22.326  1.00  0.00    -0.545 OA
ENDBRANCH   4   5
ENDBRANCH   2   3
ENDBRANCH   1   2
BRANCH   1   8
ATOM      8  C   UNL     1     -13.701 -12.619  18.619  1.00  0.00     0.000 C 
BRANCH   8   9
ATOM      9  C   UNL     1     -12.630 -11.735  17.969  1.00  0.00    -0.000 C 
BRANCH   9  10
ATOM     10  C   UNL     1     -11.222 -12.253  18.286  1.00  0.00    -0.003 C 
ATOM     11  C   UNL     1     -11.245 -13.228  19.459  1.00  0.00     0.004 C 
ENDBRANCH   9  10
ENDBRANCH   8   9
ENDBRANCH   1   8
TORSDOF 6
ENDMDL
MODEL 2
REMARK VINA RESULT:    -3.935      2.892      4.953
REMARK INTER + INTRA:          -5.886
REMARK INTER:                  -5.180
REMARK INTRA:                  -0.706
REMARK UNBOUND:                -0.571
REMARK SMILES CCCCCCC=CC(=O)[O-]
REMARK SMILES IDX 5 1 6 2 7 3 8 4 9 5 10 6 11 7 4 8 3 9 2 10 1 11
REMARK H PARENT
REMARK Flexibility Score: inf
ROOT
ATOM      1  C   UNL     1     -13.658 -16.240  20.626  1.00  0.00     0.004 C 
ENDROOT
BRANCH   1   2
ATOM      2  C   UNL     1     -13.959 -15.327  19.432  1.00  0.00     0.027 C 
BRANCH   2   3
ATOM      3  C   UNL     1     -12.799 -14.421  19.134  1.00  0.00    -0.025 C 
ATOM      4  C   UNL     1     -12.982 -13.144  18.786  1.00  0.00     0.020 C 
BRANCH   4   5
ATOM      5  C   UNL     1     -11.854 -12.242  18.506  1.00  0.00     0.064 C 
ATOM      6  O   UNL     1     -10.767 -12.398  19.119  1.00  0.00    -0.545 OA
ATOM      7  O   UNL     1     -11.971 -11.218  17.573  1.00  0.00    -0.545 OA
ENDBRANCH   4   5
ENDBRANCH   2   3
ENDBRANCH   1   2
BRANCH   1   8
ATOM      8  C   UNL     1     -14.202 -15.641  21.928  1.00  0.00     0.000 C 
BRANCH   8   9
ATOM      9  C   UNL     1     -13.062 -15.154  22.829  1.00  0.00    -0.000 C 
BRANCH   9  10
ATOM     10  C   UNL     1     -12.971 -13.623  22.822  1.00  0.00    -0.003 C 
ATOM     11  C   UNL     1     -14.294 -12.995  22.396  1.00  0.00     0.004 C 
ENDBRANCH   9  10
ENDBRANCH   8   9
ENDBRANCH   1   8
TORSDOF 6
ENDMDL
MODEL 3
REMARK VINA RESULT:    -3.931      2.880      4.846
REMARK INTER + INTRA:          -5.881
REMARK INTER:                  -5.345
REMARK INTRA:                  -0.537
REMARK UNBOUND:                -0.571
REMARK SMILES CCCCCCC=CC(=O)[O-]
REMARK SMILES IDX 5 1 6 2 7 3 8 4 9 5 10 6 11 7 4 8 3 9 2 10 1 11
REMARK H PARENT
REMARK Flexibility Score: inf
ROOT
ATOM      1  C   UNL     1     -14.948 -12.309  21.583  1.00  0.00     0.004 C 
ENDROOT
BRANCH   1   2
ATOM      2  C   UNL     1     -14.962 -12.957  20.194  1.00  0.00     0.027 C 
BRANCH   2   3
ATOM      3  C   UNL     1     -13.623 -12.840  19.525  1.00  0.00    -0.025 C 
ATOM      4  C   UNL     1     -13.405 -11.954  18.549  1.00  0.00     0.020 C 
BRANCH   4   5
ATOM      5  C   UNL     1     -12.094 -11.819  17.895  1.00  0.00     0.064 C 
ATOM      6  O   UNL     1     -11.290 -12.787  17.911  1.00  0.00    -0.545 OA
ATOM      7  O   UNL     1     -11.729 -10.638  17.260  1.00  0.00    -0.545 OA
ENDBRANCH   4   5
ENDBRANCH   2   3
ENDBRANCH   1   2
BRANCH   1   8
ATOM      8  C   UNL     1     -14.758 -13.363  22.680  1.00  0.00     0.000 C 
BRANCH   8   9
ATOM      9  C   UNL     1     -13.304 -13.397  23.166  1.00  0.00    -0.000 C 
BRANCH   9  10
ATOM     10  C   UNL     1     -12.610 -14.694  22.731  1.00  0.00    -0.003 C 
ATOM     11  C   UNL     1     -13.628 -15.791  22.433  1.00  0.00     0.004 C 
ENDBRANCH   9  10
ENDBRANCH   8   9
ENDBRANCH   1   8
TORSDOF 6
ENDMDL
MODEL 4
REMARK VINA RESULT:    -3.907      1.425      1.690
REMARK INTER + INTRA:          -5.849
REMARK INTER:                  -5.238
REMARK INTRA:                  -0.610
REMARK UNBOUND:                -0.571
REMARK SMILES CCCCCCC=CC(=O)[O-]
REMARK SMILES IDX 5 1 6 2 7 3 8 4 9 5 10 6 11 7 4 8 3 9 2 10 1 11
REMARK H PARENT
REMARK Flexibility Score: inf
ROOT
ATOM      1  C   UNL     1     -14.775 -13.078  18.506  1.00  0.00     0.004 C 
ENDROOT
BRANCH   1   2
ATOM      2  C   UNL     1     -14.842 -14.485  19.111  1.00  0.00     0.027 C 
BRANCH   2   3
ATOM      3  C   UNL     1     -14.445 -14.474  20.559  1.00  0.00    -0.025 C 
ATOM      4  C   UNL     1     -13.670 -15.430  21.079  1.00  0.00     0.020 C 
BRANCH   4   5
ATOM      5  C   UNL     1     -13.262 -15.423  22.492  1.00  0.00     0.064 C 
ATOM      6  O   UNL     1     -12.394 -14.601  22.884  1.00  0.00    -0.545 OA
ATOM      7  O   UNL     1     -13.822 -16.311  23.403  1.00  0.00    -0.545 OA
ENDBRANCH   4   5
ENDBRANCH   2   3
ENDBRANCH   1   2
BRANCH   1   8
ATOM      8  C   UNL     1     -13.601 -12.283  19.089  1.00  0.00     0.000 C 
BRANCH   8   9
ATOM      9  C   UNL     1     -12.679 -11.768  17.978  1.00  0.00    -0.000 C 
BRANCH   9  10
ATOM     10  C   UNL     1     -11.316 -12.470  18.025  1.00  0.00    -0.003 C 
ATOM     11  C   UNL     1     -11.094 -13.152  19.372  1.00  0.00     0.004 C 
ENDBRANCH   9  10
ENDBRANCH   8   9
ENDBRANCH   1   8
TORSDOF 6
ENDMDL
MODEL 5
REMARK VINA RESULT:    -3.773      2.079      2.416
REMARK INTER + INTRA:          -5.667
REMARK INTER:                  -4.982
REMARK INTRA:                  -0.685
REMARK UNBOUND:                -0.571
REMARK SMILES CCCCCCC=CC(=O)[O-]
REMARK SMILES IDX 5 1 6 2 7 3 8 4 9 5 10 6 11 7 4 8 3 9 2 10 1 11
REMARK H PARENT
REMARK Flexibility Score: inf
ROOT
ATOM      1  C   UNL     1     -14.832 -12.064  19.982  1.00  0.00     0.004 C 
ENDROOT
BRANCH   1   2
ATOM      2  C   UNL     1     -14.318 -13.019  21.066  1.00  0.00     0.027 C 
BRANCH   2   3
ATOM      3  C   UNL     1     -14.567 -14.452  20.691  1.00  0.00    -0.025 C 
ATOM      4  C   UNL     1     -13.596 -15.368  20.753  1.00  0.00     0.020 C 
BRANCH   4   5
ATOM      5  C   UNL     1     -13.829 -16.777  20.402  1.00  0.00     0.064 C 
ATOM      6  O   UNL     1     -14.070 -17.612  21.312  1.00  0.00    -0.545 OA
ATOM      7  O   UNL     1     -13.787 -17.202  19.079  1.00  0.00    -0.545 OA
ENDBRANCH   4   5
ENDBRANCH   2   3
ENDBRANCH   1   2
BRANCH   1   8
ATOM      8  C   UNL     1     -14.300 -12.464  18.600  1.00  0.00     0.000 C 
BRANCH   8   9
ATOM      9  C   UNL     1     -12.959 -11.781  18.308  1.00  0.00    -0.000 C 
BRANCH   9  10
ATOM     10  C   UNL     1     -11.851 -12.818  18.085  1.00  0.00    -0.003 C 
ATOM     11  C   UNL     1     -11.007 -13.002  19.343  1.00  0.00     0.004 C 
ENDBRANCH   9  10
ENDBRANCH   8   9
ENDBRANCH   1   8
TORSDOF 6
ENDMDL
MODEL 6
REMARK VINA RESULT:    -3.654     22.396     24.158
REMARK INTER + INTRA:          -5.507
REMARK INTER:                  -5.010
REMARK INTRA:                  -0.497
REMARK UNBOUND:                -0.571
REMARK SMILES CCCCCCC=CC(=O)[O-]
REMARK SMILES IDX 5 1 6 2 7 3 8 4 9 5 10 6 11 7 4 8 3 9 2 10 1 11
REMARK H PARENT
REMARK Flexibility Score: inf
ROOT
ATOM      1  C   UNL     1       4.259  -2.956   8.823  1.00  0.00     0.004 C 
ENDROOT
BRANCH   1   2
ATOM      2  C   UNL     1       5.103  -1.817   8.238  1.00  0.00     0.027 C 
BRANCH   2   3
ATOM      3  C   UNL     1       4.520  -0.477   8.581  1.00  0.00    -0.025 C 
ATOM      4  C   UNL     1       4.566   0.007   9.826  1.00  0.00     0.020 C 
BRANCH   4   5
ATOM      5  C   UNL     1       4.011   1.324  10.173  1.00  0.00     0.064 C 
ATOM      6  O   UNL     1       4.193   1.790  11.328  1.00  0.00    -0.545 OA
ATOM      7  O   UNL     1       3.287   2.063   9.245  1.00  0.00    -0.545 OA
ENDBRANCH   4   5
ENDBRANCH   2   3
ENDBRANCH   1   2
BRANCH   1   8
ATOM      8  C   UNL     1       5.068  -3.776   9.835  1.00  0.00     0.000 C 
BRANCH   8   9
ATOM      9  C   UNL     1       4.183  -4.247  10.995  1.00  0.00    -0.000 C 
BRANCH   9  10
ATOM     10  C   UNL     1       3.328  -3.096  11.537  1.00  0.00    -0.003 C 
ATOM     11  C   UNL     1       4.160  -2.144  12.390  1.00  0.00     0.004 C 
ENDBRANCH   9  10
ENDBRANCH   8   9
ENDBRANCH   1   8
TORSDOF 6
ENDMDL
MODEL 7
REMARK VINA RESULT:    -3.545      3.170      5.481
REMARK INTER + INTRA:          -5.360
REMARK INTER:                  -4.921
REMARK INTRA:                  -0.439
REMARK UNBOUND:                -0.571
REMARK SMILES CCCCCCC=CC(=O)[O-]
REMARK SMILES IDX 5 1 6 2 7 3 8 4 9 5 10 6 11 7 4 8 3 9 2 10 1 11
REMARK H PARENT
REMARK Flexibility Score: inf
ROOT
ATOM      1  C   UNL     1     -12.875 -14.656  21.290  1.00  0.00     0.004 C 
ENDROOT
BRANCH   1   2
ATOM      2  C   UNL     1     -13.927 -13.644  20.822  1.00  0.00     0.027 C 
BRANCH   2   3
ATOM      3  C   UNL     1     -13.442 -12.866  19.633  1.00  0.00    -0.025 C 
ATOM      4  C   UNL     1     -12.268 -13.134  19.055  1.00  0.00     0.020 C 
BRANCH   4   5
ATOM      5  C   UNL     1     -11.787 -12.389  17.881  1.00  0.00     0.064 C 
ATOM      6  O   UNL     1     -10.896 -12.892  17.149  1.00  0.00    -0.545 OA
ATOM      7  O   UNL     1     -12.303 -11.137  17.567  1.00  0.00    -0.545 OA
ENDBRANCH   4   5
ENDBRANCH   2   3
ENDBRANCH   1   2
BRANCH   1   8
ATOM      8  C   UNL     1     -12.821 -14.725  22.821  1.00  0.00     0.000 C 
BRANCH   8   9
ATOM      9  C   UNL     1     -13.641 -13.594  23.452  1.00  0.00    -0.000 C 
BRANCH   9  10
ATOM     10  C   UNL     1     -14.563 -14.131  24.554  1.00  0.00    -0.003 C 
ATOM     11  C   UNL     1     -14.625 -15.655  24.526  1.00  0.00     0.004 C 
ENDBRANCH   9  10
ENDBRANCH   8   9
ENDBRANCH   1   8
TORSDOF 6
ENDMDL
MODEL 8
REMARK VINA RESULT:    -3.545      1.187      2.780
REMARK INTER + INTRA:          -5.359
REMARK INTER:                  -4.716
REMARK INTRA:                  -0.644
REMARK UNBOUND:                -0.571
REMARK SMILES CCCCCCC=CC(=O)[O-]
REMARK SMILES IDX 5 1 6 2 7 3 8 4 9 5 10 6 11 7 4 8 3 9 2 10 1 11
REMARK H PARENT
REMARK Flexibility Score: inf
ROOT
ATOM      1  C   UNL     1     -10.995 -12.606  19.075  1.00  0.00     0.004 C 
ENDROOT
BRANCH   1   2
ATOM      2  C   UNL     1     -11.390 -13.939  19.722  1.00  0.00     0.027 C 
BRANCH   2   3
ATOM      3  C   UNL     1     -12.164 -13.720  20.989  1.00  0.00    -0.025 C 
ATOM      4  C   UNL     1     -13.213 -14.484  21.308  1.00  0.00     0.020 C 
BRANCH   4   5
ATOM      5  C   UNL     1     -13.971 -14.290  22.553  1.00  0.00     0.064 C 
ATOM      6  O   UNL     1     -14.861 -13.402  22.606  1.00  0.00    -0.545 OA
ATOM      7  O   UNL     1     -13.719 -15.072  23.674  1.00  0.00    -0.545 OA
ENDBRANCH   4   5
ENDBRANCH   2   3
ENDBRANCH   1   2
BRANCH   1   8
ATOM      8  C   UNL     1     -11.792 -12.360  17.789  1.00  0.00     0.000 C 
BRANCH   8   9
ATOM      9  C   UNL     1     -13.020 -11.484  18.060  1.00  0.00    -0.000 C 
BRANCH   9  10
ATOM     10  C   UNL     1     -14.257 -12.344  18.347  1.00  0.00    -0.003 C 
ATOM     11  C   UNL     1     -15.097 -11.744  19.470  1.00  0.00     0.004 C 
ENDBRANCH   9  10
ENDBRANCH   8   9
ENDBRANCH   1   8
TORSDOF 6
ENDMDL
MODEL 9
REMARK VINA RESULT:    -3.532     21.585     23.619
REMARK INTER + INTRA:          -5.342
REMARK INTER:                  -4.638
REMARK INTRA:                  -0.704
REMARK UNBOUND:                -0.571
REMARK SMILES CCCCCCC=CC(=O)[O-]
REMARK SMILES IDX 5 1 6 2 7 3 8 4 9 5 10 6 11 7 4 8 3 9 2 10 1 11
REMARK H PARENT
REMARK Flexibility Score: inf
ROOT
ATOM      1  C   UNL     1       5.031   1.076  11.536  1.00  0.00     0.004 C 
ENDROOT
BRANCH   1   2
ATOM      2  C   UNL     1       4.711   0.023  12.604  1.00  0.00     0.027 C 
BRANCH   2   3
ATOM      3  C   UNL     1       4.691  -1.358  12.017  1.00  0.00    -0.025 C 
ATOM      4  C   UNL     1       3.561  -2.068  11.940  1.00  0.00     0.020 C 
BRANCH   4   5
ATOM      5  C   UNL     1       3.525  -3.417  11.354  1.00  0.00     0.064 C 
ATOM      6  O   UNL     1       3.515  -3.550  10.103  1.00  0.00    -0.545 OA
ATOM      7  O   UNL     1       3.500  -4.548  12.162  1.00  0.00    -0.545 OA
ENDBRANCH   4   5
ENDBRANCH   2   3
ENDBRANCH   1   2
BRANCH   1   8
ATOM      8  C   UNL     1       3.748   1.617  10.895  1.00  0.00     0.000 C 
BRANCH   8   9
ATOM      9  C   UNL     1       3.732   1.352   9.385  1.00  0.00    -0.000 C 
BRANCH   9  10
ATOM     10  C   UNL     1       5.023   0.657   8.936  1.00  0.00    -0.003 C 
ATOM     11  C   UNL     1       4.732  -0.719   8.345  1.00  0.00     0.004 C 
ENDBRANCH   9  10
ENDBRANCH   8   9
ENDBRANCH   1   8
TORSDOF 6
ENDMDL
