MODEL 1
REMARK VINA RESULT:    -5.025      0.000      0.000
REMARK INTER + INTRA:         -10.956
REMARK INTER:                  -9.432
REMARK INTRA:                  -1.524
REMARK UNBOUND:                -1.524
REMARK SMILES O=C([O-])CCCCCCCCCCCCCCC(=O)[O-]
REMARK SMILES IDX 10 1 9 2 8 3 7 4 6 5 5 6 4 7 2 8 1 9 3 10 11 11 12 12 13 13
REMARK SMILES IDX 14 14 15 15 16 16 17 17 18 18 19 19 20 20
REMARK H PARENT
REMARK Flexibility Score: inf
ROOT
ATOM      1  C   UNL     1     -51.776 -49.960  20.348  1.00  0.00     0.000 C 
ENDROOT
BRANCH   1   2
ATOM      2  C   UNL     1     -53.107 -49.200  20.234  1.00  0.00     0.000 C 
BRANCH   2   3
ATOM      3  C   UNL     1     -53.907 -49.194  21.547  1.00  0.00     0.000 C 
BRANCH   3   4
ATOM      4  C   UNL     1     -54.078 -47.765  22.112  1.00  0.00     0.000 C 
BRANCH   4   5
ATOM      5  C   UNL     1     -52.913 -47.325  23.018  1.00  0.00     0.000 C 
BRANCH   5   6
ATOM      6  C   UNL     1     -52.154 -48.493  23.684  1.00  0.00     0.006 C 
BRANCH   6   7
ATOM      7  C   UNL     1     -50.626 -48.334  23.654  1.00  0.00     0.053 C 
BRANCH   7   8
ATOM      8  C   UNL     1     -49.913 -49.647  23.733  1.00  0.00     0.041 C 
ATOM      9  O   UNL     1     -50.093 -50.410  24.717  1.00  0.00    -0.550 OA
ATOM     10  O   UNL     1     -49.051 -50.032  22.712  1.00  0.00    -0.550 OA
ENDBRANCH   7   8
ENDBRANCH   6   7
ENDBRANCH   5   6
ENDBRANCH   4   5
ENDBRANCH   3   4
ENDBRANCH   2   3
ENDBRANCH   1   2
BRANCH   1  11
ATOM     11  C   UNL     1     -50.732 -49.483  19.324  1.00  0.00     0.000 C 
BRANCH  11  12
ATOM     12  C   UNL     1     -49.956 -48.245  19.803  1.00  0.00     0.000 C 
BRANCH  12  13
ATOM     13  C   UNL     1     -48.913 -47.766  18.777  1.00  0.00     0.000 C 
BRANCH  13  14
ATOM     14  C   UNL     1     -47.491 -48.243  19.117  1.00  0.00     0.000 C 
BRANCH  14  15
ATOM     15  C   UNL     1     -47.020 -49.389  18.204  1.00  0.00     0.000 C 
BRANCH  15  16
ATOM     16  C   UNL     1     -47.518 -49.239  16.755  1.00  0.00     0.006 C 
BRANCH  16  17
ATOM     17  C   UNL     1     -47.862 -50.568  16.061  1.00  0.00     0.053 C 
BRANCH  17  18
ATOM     18  C   UNL     1     -49.215 -50.533  15.420  1.00  0.00     0.041 C 
ATOM     19  O   UNL     1     -50.161 -51.213  15.901  1.00  0.00    -0.550 OA
ATOM     20  O   UNL     1     -49.423 -49.779  14.273  1.00  0.00    -0.550 OA
ENDBRANCH  17  18
ENDBRANCH  16  17
ENDBRANCH  15  16
ENDBRANCH  14  15
ENDBRANCH  13  14
ENDBRANCH  12  13
ENDBRANCH  11  12
ENDBRANCH   1  11
TORSDOF 15
ENDMDL
MODEL 2
REMARK VINA RESULT:    -4.988      2.571      7.269
REMARK INTER + INTRA:         -10.886
REMARK INTER:                  -9.576
REMARK INTRA:                  -1.310
REMARK UNBOUND:                -1.524
REMARK SMILES O=C([O-])CCCCCCCCCCCCCCC(=O)[O-]
REMARK SMILES IDX 10 1 9 2 8 3 7 4 6 5 5 6 4 7 2 8 1 9 3 10 11 11 12 12 13 13
REMARK SMILES IDX 14 14 15 15 16 16 17 17 18 18 19 19 20 20
REMARK H PARENT
REMARK Flexibility Score: inf
ROOT
ATOM      1  C   UNL     1     -49.910 -49.639  21.197  1.00  0.00     0.000 C 
ENDROOT
BRANCH   1   2
ATOM      2  C   UNL     1     -49.311 -49.718  19.783  1.00  0.00     0.000 C 
BRANCH   2   3
ATOM      3  C   UNL     1     -49.144 -48.338  19.126  1.00  0.00     0.000 C 
BRANCH   3   4
ATOM      4  C   UNL     1     -48.060 -48.350  18.024  1.00  0.00     0.000 C 
BRANCH   4   5
ATOM      5  C   UNL     1     -47.419 -49.734  17.816  1.00  0.00     0.000 C 
BRANCH   5   6
ATOM      6  C   UNL     1     -47.551 -50.281  16.379  1.00  0.00     0.006 C 
BRANCH   6   7
ATOM      7  C   UNL     1     -48.463 -51.513  16.266  1.00  0.00     0.053 C 
BRANCH   7   8
ATOM      8  C   UNL     1     -49.846 -51.162  15.816  1.00  0.00     0.041 C 
ATOM      9  O   UNL     1     -50.132 -51.155  14.591  1.00  0.00    -0.550 OA
ATOM     10  O   UNL     1     -50.823 -50.847  16.753  1.00  0.00    -0.550 OA
ENDBRANCH   7   8
ENDBRANCH   6   7
ENDBRANCH   5   6
ENDBRANCH   4   5
ENDBRANCH   3   4
ENDBRANCH   2   3
ENDBRANCH   1   2
BRANCH   1  11
ATOM     11  C   UNL     1     -49.028 -48.836  22.168  1.00  0.00     0.000 C 
BRANCH  11  12
ATOM     12  C   UNL     1     -49.825 -48.253  23.348  1.00  0.00     0.000 C 
BRANCH  12  13
ATOM     13  C   UNL     1     -50.981 -49.168  23.790  1.00  0.00     0.000 C 
BRANCH  13  14
ATOM     14  C   UNL     1     -52.322 -48.420  23.880  1.00  0.00     0.000 C 
BRANCH  14  15
ATOM     15  C   UNL     1     -53.183 -48.600  22.618  1.00  0.00     0.000 C 
BRANCH  15  16
ATOM     16  C   UNL     1     -53.501 -47.267  21.917  1.00  0.00     0.006 C 
BRANCH  16  17
ATOM     17  C   UNL     1     -54.991 -47.053  21.604  1.00  0.00     0.053 C 
BRANCH  17  18
ATOM     18  C   UNL     1     -55.531 -48.110  20.692  1.00  0.00     0.041 C 
ATOM     19  O   UNL     1     -54.972 -48.340  19.587  1.00  0.00    -0.550 OA
ATOM     20  O   UNL     1     -56.672 -48.819  21.046  1.00  0.00    -0.550 OA
ENDBRANCH  17  18
ENDBRANCH  16  17
ENDBRANCH  15  16
ENDBRANCH  14  15
ENDBRANCH  13  14
ENDBRANCH  12  13
ENDBRANCH  11  12
ENDBRANCH   1  11
TORSDOF 15
ENDMDL
MODEL 3
REMARK VINA RESULT:    -4.963      9.175     13.497
REMARK INTER + INTRA:         -10.838
REMARK INTER:                  -9.150
REMARK INTRA:                  -1.688
REMARK UNBOUND:                -1.524
REMARK SMILES O=C([O-])CCCCCCCCCCCCCCC(=O)[O-]
REMARK SMILES IDX 10 1 9 2 8 3 7 4 6 5 5 6 4 7 2 8 1 9 3 10 11 11 12 12 13 13
REMARK SMILES IDX 14 14 15 15 16 16 17 17 18 18 19 19 20 20
REMARK H PARENT
REMARK Flexibility Score: inf
ROOT
ATOM      1  C   UNL     1     -41.027 -49.246  29.437  1.00  0.00     0.000 C 
ENDROOT
BRANCH   1   2
ATOM      2  C   UNL     1     -39.694 -48.481  29.437  1.00  0.00     0.000 C 
BRANCH   2   3
ATOM      3  C   UNL     1     -39.703 -47.265  28.496  1.00  0.00     0.000 C 
BRANCH   3   4
ATOM      4  C   UNL     1     -41.089 -47.048  27.846  1.00  0.00     0.000 C 
BRANCH   4   5
ATOM      5  C   UNL     1     -41.018 -46.805  26.328  1.00  0.00     0.000 C 
BRANCH   5   6
ATOM      6  C   UNL     1     -42.101 -47.548  25.518  1.00  0.00     0.006 C 
BRANCH   6   7
ATOM      7  C   UNL     1     -42.923 -48.544  26.351  1.00  0.00     0.053 C 
BRANCH   7   8
ATOM      8  C   UNL     1     -43.827 -49.387  25.507  1.00  0.00     0.041 C 
ATOM      9  O   UNL     1     -44.244 -50.495  25.935  1.00  0.00    -0.550 OA
ATOM     10  O   UNL     1     -44.214 -48.945  24.247  1.00  0.00    -0.550 OA
ENDBRANCH   7   8
ENDBRANCH   6   7
ENDBRANCH   5   6
ENDBRANCH   4   5
ENDBRANCH   3   4
ENDBRANCH   2   3
ENDBRANCH   1   2
BRANCH   1  11
ATOM     11  C   UNL     1     -41.372 -49.832  30.817  1.00  0.00     0.000 C 
BRANCH  11  12
ATOM     12  C   UNL     1     -42.648 -50.690  30.794  1.00  0.00     0.000 C 
BRANCH  12  13
ATOM     13  C   UNL     1     -43.342 -50.682  29.421  1.00  0.00     0.000 C 
BRANCH  13  14
ATOM     14  C   UNL     1     -44.745 -50.055  29.474  1.00  0.00     0.000 C 
BRANCH  14  15
ATOM     15  C   UNL     1     -45.113 -49.554  30.882  1.00  0.00     0.000 C 
BRANCH  15  16
ATOM     16  C   UNL     1     -46.528 -49.981  31.315  1.00  0.00     0.006 C 
BRANCH  16  17
ATOM     17  C   UNL     1     -46.572 -50.822  32.601  1.00  0.00     0.053 C 
BRANCH  17  18
ATOM     18  C   UNL     1     -45.684 -52.024  32.517  1.00  0.00     0.041 C 
ATOM     19  O   UNL     1     -45.840 -52.864  31.591  1.00  0.00    -0.550 OA
ATOM     20  O   UNL     1     -44.705 -52.236  33.480  1.00  0.00    -0.550 OA
ENDBRANCH  17  18
ENDBRANCH  16  17
ENDBRANCH  15  16
ENDBRANCH  14  15
ENDBRANCH  13  14
ENDBRANCH  12  13
ENDBRANCH  11  12
ENDBRANCH   1  11
TORSDOF 15
ENDMDL
MODEL 4
REMARK VINA RESULT:    -4.960      9.231     11.981
REMARK INTER + INTRA:         -10.834
REMARK INTER:                  -9.027
REMARK INTRA:                  -1.807
REMARK UNBOUND:                -1.524
REMARK SMILES O=C([O-])CCCCCCCCCCCCCCC(=O)[O-]
REMARK SMILES IDX 10 1 9 2 8 3 7 4 6 5 5 6 4 7 2 8 1 9 3 10 11 11 12 12 13 13
REMARK SMILES IDX 14 14 15 15 16 16 17 17 18 18 19 19 20 20
REMARK H PARENT
REMARK Flexibility Score: inf
ROOT
ATOM      1  C   UNL     1     -41.391 -50.024  30.075  1.00  0.00     0.000 C 
ENDROOT
BRANCH   1   2
ATOM      2  C   UNL     1     -42.785 -50.003  30.723  1.00  0.00     0.000 C 
BRANCH   2   3
ATOM      3  C   UNL     1     -43.911 -49.734  29.710  1.00  0.00     0.000 C 
BRANCH   3   4
ATOM      4  C   UNL     1     -44.755 -48.499  30.100  1.00  0.00     0.000 C 
BRANCH   4   5
ATOM      5  C   UNL     1     -45.563 -48.698  31.395  1.00  0.00     0.000 C 
BRANCH   5   6
ATOM      6  C   UNL     1     -46.632 -49.807  31.309  1.00  0.00     0.006 C 
BRANCH   6   7
ATOM      7  C   UNL     1     -46.642 -50.753  32.521  1.00  0.00     0.053 C 
BRANCH   7   8
ATOM      8  C   UNL     1     -45.648 -51.863  32.388  1.00  0.00     0.041 C 
ATOM      9  O   UNL     1     -45.856 -52.809  31.584  1.00  0.00    -0.550 OA
ATOM     10  O   UNL     1     -44.486 -51.851  33.151  1.00  0.00    -0.550 OA
ENDBRANCH   7   8
ENDBRANCH   6   7
ENDBRANCH   5   6
ENDBRANCH   4   5
ENDBRANCH   3   4
ENDBRANCH   2   3
ENDBRANCH   1   2
BRANCH   1  11
ATOM     11  C   UNL     1     -40.349 -49.237  30.887  1.00  0.00     0.000 C 
BRANCH  11  12
ATOM     12  C   UNL     1     -39.507 -48.292  30.013  1.00  0.00     0.000 C 
BRANCH  12  13
ATOM     13  C   UNL     1     -39.936 -48.315  28.535  1.00  0.00     0.000 C 
BRANCH  13  14
ATOM     14  C   UNL     1     -40.630 -47.012  28.104  1.00  0.00     0.000 C 
BRANCH  14  15
ATOM     15  C   UNL     1     -41.960 -47.267  27.372  1.00  0.00     0.000 C 
BRANCH  15  16
ATOM     16  C   UNL     1     -42.029 -48.666  26.733  1.00  0.00     0.006 C 
BRANCH  16  17
ATOM     17  C   UNL     1     -42.675 -48.696  25.338  1.00  0.00     0.053 C 
BRANCH  17  18
ATOM     18  C   UNL     1     -43.719 -49.763  25.224  1.00  0.00     0.041 C 
ATOM     19  O   UNL     1     -44.306 -50.188  26.255  1.00  0.00    -0.550 OA
ATOM     20  O   UNL     1     -44.021 -50.312  23.985  1.00  0.00    -0.550 OA
ENDBRANCH  17  18
ENDBRANCH  16  17
ENDBRANCH  15  16
ENDBRANCH  14  15
ENDBRANCH  13  14
ENDBRANCH  12  13
ENDBRANCH  11  12
ENDBRANCH   1  11
TORSDOF 15
ENDMDL
MODEL 5
REMARK VINA RESULT:    -4.953      0.885      7.168
REMARK INTER + INTRA:         -10.820
REMARK INTER:                  -9.148
REMARK INTRA:                  -1.672
REMARK UNBOUND:                -1.524
REMARK SMILES O=C([O-])CCCCCCCCCCCCCCC(=O)[O-]
REMARK SMILES IDX 10 1 9 2 8 3 7 4 6 5 5 6 4 7 2 8 1 9 3 10 11 11 12 12 13 13
REMARK SMILES IDX 14 14 15 15 16 16 17 17 18 18 19 19 20 20
REMARK H PARENT
REMARK Flexibility Score: inf
ROOT
ATOM      1  C   UNL     1     -50.901 -49.605  20.082  1.00  0.00     0.000 C 
ENDROOT
BRANCH   1   2
ATOM      2  C   UNL     1     -50.068 -48.327  19.888  1.00  0.00     0.000 C 
BRANCH   2   3
ATOM      3  C   UNL     1     -48.554 -48.597  19.875  1.00  0.00     0.000 C 
BRANCH   3   4
ATOM      4  C   UNL     1     -47.972 -48.550  18.443  1.00  0.00     0.000 C 
BRANCH   4   5
ATOM      5  C   UNL     1     -47.349 -49.884  17.995  1.00  0.00     0.000 C 
BRANCH   5   6
ATOM      6  C   UNL     1     -47.570 -50.215  16.503  1.00  0.00     0.006 C 
BRANCH   6   7
ATOM      7  C   UNL     1     -48.446 -51.456  16.267  1.00  0.00     0.053 C 
BRANCH   7   8
ATOM      8  C   UNL     1     -49.856 -51.102  15.912  1.00  0.00     0.041 C 
ATOM      9  O   UNL     1     -50.676 -50.782  16.811  1.00  0.00    -0.550 OA
ATOM     10  O   UNL     1     -50.263 -51.120  14.583  1.00  0.00    -0.550 OA
ENDBRANCH   7   8
ENDBRANCH   6   7
ENDBRANCH   5   6
ENDBRANCH   4   5
ENDBRANCH   3   4
ENDBRANCH   2   3
ENDBRANCH   1   2
BRANCH   1  11
ATOM     11  C   UNL     1     -52.395 -49.386  19.789  1.00  0.00     0.000 C 
BRANCH  11  12
ATOM     12  C   UNL     1     -53.250 -49.351  21.067  1.00  0.00     0.000 C 
BRANCH  12  13
ATOM     13  C   UNL     1     -53.778 -47.942  21.388  1.00  0.00     0.000 C 
BRANCH  13  14
ATOM     14  C   UNL     1     -53.387 -47.473  22.799  1.00  0.00     0.000 C 
BRANCH  14  15
ATOM     15  C   UNL     1     -52.055 -46.702  22.817  1.00  0.00     0.000 C 
BRANCH  15  16
ATOM     16  C   UNL     1     -50.880 -47.554  23.331  1.00  0.00     0.006 C 
BRANCH  16  17
ATOM     17  C   UNL     1     -51.298 -48.868  24.013  1.00  0.00     0.053 C 
BRANCH  17  18
ATOM     18  C   UNL     1     -50.142 -49.803  24.187  1.00  0.00     0.041 C 
ATOM     19  O   UNL     1     -49.961 -50.389  25.288  1.00  0.00    -0.550 OA
ATOM     20  O   UNL     1     -49.245 -50.002  23.146  1.00  0.00    -0.550 OA
ENDBRANCH  17  18
ENDBRANCH  16  17
ENDBRANCH  15  16
ENDBRANCH  14  15
ENDBRANCH  13  14
ENDBRANCH  12  13
ENDBRANCH  11  12
ENDBRANCH   1  11
TORSDOF 15
ENDMDL
MODEL 6
REMARK VINA RESULT:    -4.895      2.575      3.404
REMARK INTER + INTRA:         -10.712
REMARK INTER:                  -9.479
REMARK INTRA:                  -1.232
REMARK UNBOUND:                -1.524
REMARK SMILES O=C([O-])CCCCCCCCCCCCCCC(=O)[O-]
REMARK SMILES IDX 10 1 9 2 8 3 7 4 6 5 5 6 4 7 2 8 1 9 3 10 11 11 12 12 13 13
REMARK SMILES IDX 14 14 15 15 16 16 17 17 18 18 19 19 20 20
REMARK H PARENT
REMARK Flexibility Score: inf
ROOT
ATOM      1  C   UNL     1     -51.545 -49.894  20.262  1.00  0.00     0.000 C 
ENDROOT
BRANCH   1   2
ATOM      2  C   UNL     1     -51.886 -48.620  21.052  1.00  0.00     0.000 C 
BRANCH   2   3
ATOM      3  C   UNL     1     -51.747 -48.805  22.572  1.00  0.00     0.000 C 
BRANCH   3   4
ATOM      4  C   UNL     1     -52.688 -47.862  23.357  1.00  0.00     0.000 C 
BRANCH   4   5
ATOM      5  C   UNL     1     -53.319 -46.765  22.481  1.00  0.00     0.000 C 
BRANCH   5   6
ATOM      6  C   UNL     1     -54.857 -46.847  22.375  1.00  0.00     0.006 C 
BRANCH   6   7
ATOM      7  C   UNL     1     -55.387 -46.683  20.941  1.00  0.00     0.053 C 
BRANCH   7   8
ATOM      8  C   UNL     1     -55.754 -47.991  20.314  1.00  0.00     0.041 C 
ATOM      9  O   UNL     1     -56.795 -48.599  20.675  1.00  0.00    -0.550 OA
ATOM     10  O   UNL     1     -54.946 -48.537  19.323  1.00  0.00    -0.550 OA
ENDBRANCH   7   8
ENDBRANCH   6   7
ENDBRANCH   5   6
ENDBRANCH   4   5
ENDBRANCH   3   4
ENDBRANCH   2   3
ENDBRANCH   1   2
BRANCH   1  11
ATOM     11  C   UNL     1     -50.330 -49.709  19.337  1.00  0.00     0.000 C 
BRANCH  11  12
ATOM     12  C   UNL     1     -49.052 -49.335  20.107  1.00  0.00     0.000 C 
BRANCH  12  13
ATOM     13  C   UNL     1     -48.196 -48.295  19.362  1.00  0.00     0.000 C 
BRANCH  13  14
ATOM     14  C   UNL     1     -47.144 -48.945  18.448  1.00  0.00     0.000 C 
BRANCH  14  15
ATOM     15  C   UNL     1     -47.423 -48.692  16.956  1.00  0.00     0.000 C 
BRANCH  15  16
ATOM     16  C   UNL     1     -47.411 -49.985  16.120  1.00  0.00     0.006 C 
BRANCH  16  17
ATOM     17  C   UNL     1     -48.411 -51.055  16.589  1.00  0.00     0.053 C 
BRANCH  17  18
ATOM     18  C   UNL     1     -49.525 -51.250  15.608  1.00  0.00     0.041 C 
ATOM     19  O   UNL     1     -50.721 -51.078  15.964  1.00  0.00    -0.550 OA
ATOM     20  O   UNL     1     -49.246 -51.656  14.309  1.00  0.00    -0.550 OA
ENDBRANCH  17  18
ENDBRANCH  16  17
ENDBRANCH  15  16
ENDBRANCH  14  15
ENDBRANCH  13  14
ENDBRANCH  12  13
ENDBRANCH  11  12
ENDBRANCH   1  11
TORSDOF 15
ENDMDL
MODEL 7
REMARK VINA RESULT:    -4.870      2.794      4.010
REMARK INTER + INTRA:         -10.664
REMARK INTER:                  -9.117
REMARK INTRA:                  -1.547
REMARK UNBOUND:                -1.524
REMARK SMILES O=C([O-])CCCCCCCCCCCCCCC(=O)[O-]
REMARK SMILES IDX 10 1 9 2 8 3 7 4 6 5 5 6 4 7 2 8 1 9 3 10 11 11 12 12 13 13
REMARK SMILES IDX 14 14 15 15 16 16 17 17 18 18 19 19 20 20
REMARK H PARENT
REMARK Flexibility Score: inf
ROOT
ATOM      1  C   UNL     1     -49.842 -50.038  24.132  1.00  0.00     0.000 C 
ENDROOT
BRANCH   1   2
ATOM      2  C   UNL     1     -50.651 -48.894  24.764  1.00  0.00     0.000 C 
BRANCH   2   3
ATOM      3  C   UNL     1     -52.026 -48.697  24.104  1.00  0.00     0.000 C 
BRANCH   3   4
ATOM      4  C   UNL     1     -52.504 -47.230  24.193  1.00  0.00     0.000 C 
BRANCH   4   5
ATOM      5  C   UNL     1     -53.549 -46.864  23.123  1.00  0.00     0.000 C 
BRANCH   5   6
ATOM      6  C   UNL     1     -53.420 -47.671  21.813  1.00  0.00     0.006 C 
BRANCH   6   7
ATOM      7  C   UNL     1     -54.531 -48.715  21.618  1.00  0.00     0.053 C 
BRANCH   7   8
ATOM      8  C   UNL     1     -55.708 -48.167  20.874  1.00  0.00     0.041 C 
ATOM      9  O   UNL     1     -56.763 -48.844  20.768  1.00  0.00    -0.550 OA
ATOM     10  O   UNL     1     -55.640 -46.903  20.299  1.00  0.00    -0.550 OA
ENDBRANCH   7   8
ENDBRANCH   6   7
ENDBRANCH   5   6
ENDBRANCH   4   5
ENDBRANCH   3   4
ENDBRANCH   2   3
ENDBRANCH   1   2
BRANCH   1  11
ATOM     11  C   UNL     1     -49.806 -49.958  22.596  1.00  0.00     0.000 C 
BRANCH  11  12
ATOM     12  C   UNL     1     -49.000 -48.753  22.085  1.00  0.00     0.000 C 
BRANCH  12  13
ATOM     13  C   UNL     1     -49.801 -47.876  21.108  1.00  0.00     0.000 C 
BRANCH  13  14
ATOM     14  C   UNL     1     -50.417 -48.689  19.957  1.00  0.00     0.000 C 
BRANCH  14  15
ATOM     15  C   UNL     1     -49.357 -49.215  18.973  1.00  0.00     0.000 C 
BRANCH  15  16
ATOM     16  C   UNL     1     -49.366 -50.749  18.852  1.00  0.00     0.006 C 
BRANCH  16  17
ATOM     17  C   UNL     1     -48.287 -51.319  17.916  1.00  0.00     0.053 C 
BRANCH  17  18
ATOM     18  C   UNL     1     -48.530 -50.949  16.486  1.00  0.00     0.041 C 
ATOM     19  O   UNL     1     -47.642 -50.344  15.829  1.00  0.00    -0.550 OA
ATOM     20  O   UNL     1     -49.749 -51.243  15.888  1.00  0.00    -0.550 OA
ENDBRANCH  17  18
ENDBRANCH  16  17
ENDBRANCH  15  16
ENDBRANCH  14  15
ENDBRANCH  13  14
ENDBRANCH  12  13
ENDBRANCH  11  12
ENDBRANCH   1  11
TORSDOF 15
ENDMDL
MODEL 8
REMARK VINA RESULT:    -4.861      1.023      7.132
REMARK INTER + INTRA:         -10.647
REMARK INTER:                  -8.932
REMARK INTRA:                  -1.715
REMARK UNBOUND:                -1.524
REMARK SMILES O=C([O-])CCCCCCCCCCCCCCC(=O)[O-]
REMARK SMILES IDX 10 1 9 2 8 3 7 4 6 5 5 6 4 7 2 8 1 9 3 10 11 11 12 12 13 13
REMARK SMILES IDX 14 14 15 15 16 16 17 17 18 18 19 19 20 20
REMARK H PARENT
REMARK Flexibility Score: inf
ROOT
ATOM      1  C   UNL     1     -53.191 -49.135  20.376  1.00  0.00     0.000 C 
ENDROOT
BRANCH   1   2
ATOM      2  C   UNL     1     -51.788 -49.679  20.692  1.00  0.00     0.000 C 
BRANCH   2   3
ATOM      3  C   UNL     1     -50.668 -48.689  20.333  1.00  0.00     0.000 C 
BRANCH   3   4
ATOM      4  C   UNL     1     -49.353 -49.413  19.964  1.00  0.00     0.000 C 
BRANCH   4   5
ATOM      5  C   UNL     1     -49.088 -49.461  18.449  1.00  0.00     0.000 C 
BRANCH   5   6
ATOM      6  C   UNL     1     -47.614 -49.721  18.073  1.00  0.00     0.006 C 
BRANCH   6   7
ATOM      7  C   UNL     1     -47.364 -49.788  16.558  1.00  0.00     0.053 C 
BRANCH   7   8
ATOM      8  C   UNL     1     -48.392 -50.608  15.844  1.00  0.00     0.041 C 
ATOM      9  O   UNL     1     -49.135 -50.080  14.976  1.00  0.00    -0.550 OA
ATOM     10  O   UNL     1     -48.527 -51.960  16.136  1.00  0.00    -0.550 OA
ENDBRANCH   7   8
ENDBRANCH   6   7
ENDBRANCH   5   6
ENDBRANCH   4   5
ENDBRANCH   3   4
ENDBRANCH   2   3
ENDBRANCH   1   2
BRANCH   1  11
ATOM     11  C   UNL     1     -54.088 -49.052  21.624  1.00  0.00     0.000 C 
BRANCH  11  12
ATOM     12  C   UNL     1     -54.969 -47.792  21.638  1.00  0.00     0.000 C 
BRANCH  12  13
ATOM     13  C   UNL     1     -54.201 -46.538  22.089  1.00  0.00     0.000 C 
BRANCH  13  14
ATOM     14  C   UNL     1     -53.302 -46.805  23.308  1.00  0.00     0.000 C 
BRANCH  14  15
ATOM     15  C   UNL     1     -51.829 -46.447  23.043  1.00  0.00     0.000 C 
BRANCH  15  16
ATOM     16  C   UNL     1     -50.849 -47.361  23.801  1.00  0.00     0.006 C 
BRANCH  16  17
ATOM     17  C   UNL     1     -51.451 -48.700  24.257  1.00  0.00     0.053 C 
BRANCH  17  18
ATOM     18  C   UNL     1     -50.401 -49.746  24.469  1.00  0.00     0.041 C 
ATOM     19  O   UNL     1     -50.237 -50.259  25.608  1.00  0.00    -0.550 OA
ATOM     20  O   UNL     1     -49.581 -50.132  23.416  1.00  0.00    -0.550 OA
ENDBRANCH  17  18
ENDBRANCH  16  17
ENDBRANCH  15  16
ENDBRANCH  14  15
ENDBRANCH  13  14
ENDBRANCH  12  13
ENDBRANCH  11  12
ENDBRANCH   1  11
TORSDOF 15
ENDMDL
MODEL 9
REMARK VINA RESULT:    -4.846      3.214      4.268
REMARK INTER + INTRA:         -10.619
REMARK INTER:                  -9.434
REMARK INTRA:                  -1.185
REMARK UNBOUND:                -1.524
REMARK SMILES O=C([O-])CCCCCCCCCCCCCCC(=O)[O-]
REMARK SMILES IDX 10 1 9 2 8 3 7 4 6 5 5 6 4 7 2 8 1 9 3 10 11 11 12 12 13 13
REMARK SMILES IDX 14 14 15 15 16 16 17 17 18 18 19 19 20 20
REMARK H PARENT
REMARK Flexibility Score: inf
ROOT
ATOM      1  C   UNL     1     -51.440 -49.044  20.297  1.00  0.00     0.000 C 
ENDROOT
BRANCH   1   2
ATOM      2  C   UNL     1     -50.977 -48.011  21.337  1.00  0.00     0.000 C 
BRANCH   2   3
ATOM      3  C   UNL     1     -51.203 -48.477  22.785  1.00  0.00     0.000 C 
BRANCH   3   4
ATOM      4  C   UNL     1     -52.688 -48.367  23.202  1.00  0.00     0.000 C 
BRANCH   4   5
ATOM      5  C   UNL     1     -53.221 -46.924  23.179  1.00  0.00     0.000 C 
BRANCH   5   6
ATOM      6  C   UNL     1     -54.362 -46.687  22.166  1.00  0.00     0.006 C 
BRANCH   6   7
ATOM      7  C   UNL     1     -54.769 -47.948  21.388  1.00  0.00     0.053 C 
BRANCH   7   8
ATOM      8  C   UNL     1     -56.210 -47.930  20.983  1.00  0.00     0.041 C 
ATOM      9  O   UNL     1     -56.874 -48.998  20.952  1.00  0.00    -0.550 OA
ATOM     10  O   UNL     1     -56.822 -46.728  20.645  1.00  0.00    -0.550 OA
ENDBRANCH   7   8
ENDBRANCH   6   7
ENDBRANCH   5   6
ENDBRANCH   4   5
ENDBRANCH   3   4
ENDBRANCH   2   3
ENDBRANCH   1   2
BRANCH   1  11
ATOM     11  C   UNL     1     -50.334 -49.405  19.290  1.00  0.00     0.000 C 
BRANCH  11  12
ATOM     12  C   UNL     1     -50.822 -50.365  18.193  1.00  0.00     0.000 C 
BRANCH  12  13
ATOM     13  C   UNL     1     -49.665 -50.987  17.393  1.00  0.00     0.000 C 
BRANCH  13  14
ATOM     14  C   UNL     1     -49.976 -51.086  15.890  1.00  0.00     0.000 C 
BRANCH  14  15
ATOM     15  C   UNL     1     -48.955 -50.326  15.025  1.00  0.00     0.000 C 
BRANCH  15  16
ATOM     16  C   UNL     1     -47.661 -49.990  15.788  1.00  0.00     0.006 C 
BRANCH  16  17
ATOM     17  C   UNL     1     -47.360 -48.485  15.897  1.00  0.00     0.053 C 
BRANCH  17  18
ATOM     18  C   UNL     1     -47.499 -47.985  17.302  1.00  0.00     0.041 C 
ATOM     19  O   UNL     1     -47.090 -48.684  18.267  1.00  0.00    -0.550 OA
ATOM     20  O   UNL     1     -48.111 -46.763  17.548  1.00  0.00    -0.550 OA
ENDBRANCH  17  18
ENDBRANCH  16  17
ENDBRANCH  15  16
ENDBRANCH  14  15
ENDBRANCH  13  14
ENDBRANCH  12  13
ENDBRANCH  11  12
ENDBRANCH   1  11
TORSDOF 15
ENDMDL
