MODEL 1
REMARK VINA RESULT:    -4.393      0.000      0.000
REMARK INTER + INTRA:          -5.629
REMARK INTER:                  -5.292
REMARK INTRA:                  -0.337
REMARK UNBOUND:                -0.337
REMARK SMILES CCCCc1oc(O)c2ccccc12
REMARK SMILES IDX 4 1 5 2 7 3 6 4 9 5 14 6 10 7 13 8 11 9 12 10 8 11 3 13 2 14
REMARK SMILES IDX 1 15
REMARK H PARENT 8 12
REMARK Flexibility Score: inf
ROOT
ATOM      1  C   UNL     1      13.279 -22.495  75.334  1.00  0.00     0.076 C 
ENDROOT
BRANCH   1   2
ATOM      2  C   UNL     1      12.836 -21.247  76.034  1.00  0.00     0.116 A 
ATOM      3  C   UNL     1      12.274 -19.200  76.334  1.00  0.00     0.290 A 
ATOM      4  O   UNL     1      12.702 -20.073  75.441  1.00  0.00    -0.430 OA
ATOM      5  C   UNL     1      12.116 -19.818  77.552  1.00  0.00     0.066 A 
ATOM      6  C   UNL     1      12.472 -21.126  77.364  1.00  0.00     0.027 A 
ATOM      7  C   UNL     1      11.687 -19.338  78.788  1.00  0.00     0.016 A 
ATOM      8  C   UNL     1      12.422 -22.057  78.403  1.00  0.00     0.012 A 
ATOM      9  C   UNL     1      11.628 -20.253  79.857  1.00  0.00     0.001 A 
ATOM     10  C   UNL     1      11.993 -21.604  79.666  1.00  0.00     0.001 A 
BRANCH   3  11
ATOM     11  O   UNL     1      12.021 -17.861  76.063  1.00  0.00    -0.480 OA
ATOM     12  H   UNL     1      11.999 -17.526  75.108  1.00  0.00     0.297 HD
ENDBRANCH   3  11
ENDBRANCH   1   2
BRANCH   1  13
ATOM     13  C   UNL     1      12.092 -23.442  75.124  1.00  0.00     0.008 C 
BRANCH  13  14
ATOM     14  C   UNL     1      12.319 -24.773  75.848  1.00  0.00    -0.003 C 
ATOM     15  C   UNL     1      11.205 -25.767  75.533  1.00  0.00     0.004 C 
ENDBRANCH  13  14
ENDBRANCH   1  13
TORSDOF 4
ENDMDL
MODEL 2
REMARK VINA RESULT:    -4.310     12.529     14.036
REMARK INTER + INTRA:          -5.529
REMARK INTER:                  -5.186
REMARK INTRA:                  -0.343
REMARK UNBOUND:                -0.337
REMARK SMILES CCCCc1oc(O)c2ccccc12
REMARK SMILES IDX 4 1 5 2 7 3 6 4 9 5 14 6 10 7 13 8 11 9 12 10 8 11 3 13 2 14
REMARK SMILES IDX 1 15
REMARK H PARENT 8 12
REMARK Flexibility Score: inf
ROOT
ATOM      1  C   UNL     1      22.684 -20.095  71.477  1.00  0.00     0.076 C 
ENDROOT
BRANCH   1   2
ATOM      2  C   UNL     1      23.832 -19.198  71.830  1.00  0.00     0.116 A 
ATOM      3  C   UNL     1      25.193 -18.049  73.022  1.00  0.00     0.290 A 
ATOM      4  O   UNL     1      24.112 -18.804  73.061  1.00  0.00    -0.430 OA
ATOM      5  C   UNL     1      25.643 -17.944  71.727  1.00  0.00     0.066 A 
ATOM      6  C   UNL     1      24.777 -18.679  70.963  1.00  0.00     0.027 A 
ATOM      7  C   UNL     1      26.733 -17.275  71.173  1.00  0.00     0.016 A 
ATOM      8  C   UNL     1      24.940 -18.802  69.582  1.00  0.00     0.012 A 
ATOM      9  C   UNL     1      26.923 -17.379  69.782  1.00  0.00     0.001 A 
ATOM     10  C   UNL     1      26.032 -18.139  68.991  1.00  0.00     0.001 A 
BRANCH   3  11
ATOM     11  O   UNL     1      25.779 -17.459  74.136  1.00  0.00    -0.480 OA
ATOM     12  H   UNL     1      25.278 -17.411  75.014  1.00  0.00     0.297 HD
ENDBRANCH   3  11
ENDBRANCH   1   2
BRANCH   1  13
ATOM     13  C   UNL     1      21.494 -19.270  70.978  1.00  0.00     0.008 C 
BRANCH  13  14
ATOM     14  C   UNL     1      20.753 -18.613  72.147  1.00  0.00    -0.003 C 
ATOM     15  C   UNL     1      20.592 -19.584  73.312  1.00  0.00     0.004 C 
ENDBRANCH  13  14
ENDBRANCH   1  13
TORSDOF 4
ENDMDL
MODEL 3
REMARK VINA RESULT:    -4.261     12.595     13.979
REMARK INTER + INTRA:          -5.470
REMARK INTER:                  -5.032
REMARK INTRA:                  -0.438
REMARK UNBOUND:                -0.337
REMARK SMILES CCCCc1oc(O)c2ccccc12
REMARK SMILES IDX 4 1 5 2 7 3 6 4 9 5 14 6 10 7 13 8 11 9 12 10 8 11 3 13 2 14
REMARK SMILES IDX 1 15
REMARK H PARENT 8 12
REMARK Flexibility Score: inf
ROOT
ATOM      1  C   UNL     1      25.331 -19.680  69.747  1.00  0.00     0.076 C 
ENDROOT
BRANCH   1   2
ATOM      2  C   UNL     1      24.902 -19.088  71.055  1.00  0.00     0.116 A 
ATOM      3  C   UNL     1      25.026 -18.096  72.952  1.00  0.00     0.290 A 
ATOM      4  O   UNL     1      25.730 -18.538  71.927  1.00  0.00    -0.430 OA
ATOM      5  C   UNL     1      23.691 -18.358  72.748  1.00  0.00     0.066 A 
ATOM      6  C   UNL     1      23.608 -18.990  71.536  1.00  0.00     0.027 A 
ATOM      7  C   UNL     1      22.563 -18.087  73.520  1.00  0.00     0.016 A 
ATOM      8  C   UNL     1      22.383 -19.396  71.003  1.00  0.00     0.012 A 
ATOM      9  C   UNL     1      21.313 -18.487  73.010  1.00  0.00     0.001 A 
ATOM     10  C   UNL     1      21.224 -19.137  71.759  1.00  0.00     0.001 A 
BRANCH   3  11
ATOM     11  O   UNL     1      25.569 -17.459  74.061  1.00  0.00    -0.480 OA
ATOM     12  H   UNL     1      26.201 -16.677  73.945  1.00  0.00     0.297 HD
ENDBRANCH   3  11
ENDBRANCH   1   2
BRANCH   1  13
ATOM     13  C   UNL     1      26.238 -18.704  68.991  1.00  0.00     0.008 C 
BRANCH  13  14
ATOM     14  C   UNL     1      25.483 -17.420  68.631  1.00  0.00    -0.003 C 
ATOM     15  C   UNL     1      26.278 -16.183  69.035  1.00  0.00     0.004 C 
ENDBRANCH  13  14
ENDBRANCH   1  13
TORSDOF 4
ENDMDL
MODEL 4
REMARK VINA RESULT:    -4.236      2.188      4.854
REMARK INTER + INTRA:          -5.440
REMARK INTER:                  -5.199
REMARK INTRA:                  -0.241
REMARK UNBOUND:                -0.337
REMARK SMILES CCCCc1oc(O)c2ccccc12
REMARK SMILES IDX 4 1 5 2 7 3 6 4 9 5 14 6 10 7 13 8 11 9 12 10 8 11 3 13 2 14
REMARK SMILES IDX 1 15
REMARK H PARENT 8 12
REMARK Flexibility Score: inf
ROOT
ATOM      1  C   UNL     1      13.232 -19.139  77.763  1.00  0.00     0.076 C 
ENDROOT
BRANCH   1   2
ATOM      2  C   UNL     1      13.092 -20.394  76.957  1.00  0.00     0.116 A 
ATOM      3  C   UNL     1      12.996 -21.688  75.250  1.00  0.00     0.290 A 
ATOM      4  O   UNL     1      13.121 -20.432  75.635  1.00  0.00    -0.430 OA
ATOM      5  C   UNL     1      12.885 -22.505  76.351  1.00  0.00     0.066 A 
ATOM      6  C   UNL     1      12.948 -21.682  77.443  1.00  0.00     0.027 A 
ATOM      7  C   UNL     1      12.743 -23.886  76.473  1.00  0.00     0.016 A 
ATOM      8  C   UNL     1      12.878 -22.182  78.744  1.00  0.00     0.012 A 
ATOM      9  C   UNL     1      12.667 -24.421  77.773  1.00  0.00     0.001 A 
ATOM     10  C   UNL     1      12.734 -23.573  78.903  1.00  0.00     0.001 A 
BRANCH   3  11
ATOM     11  O   UNL     1      12.984 -22.106  73.925  1.00  0.00    -0.480 OA
ATOM     12  H   UNL     1      12.234 -22.691  73.578  1.00  0.00     0.297 HD
ENDBRANCH   3  11
ENDBRANCH   1   2
BRANCH   1  13
ATOM     13  C   UNL     1      14.691 -18.931  78.180  1.00  0.00     0.008 C 
BRANCH  13  14
ATOM     14  C   UNL     1      14.934 -17.484  78.624  1.00  0.00    -0.003 C 
ATOM     15  C   UNL     1      16.324 -17.008  78.212  1.00  0.00     0.004 C 
ENDBRANCH  13  14
ENDBRANCH   1  13
TORSDOF 4
ENDMDL
MODEL 5
REMARK VINA RESULT:    -4.204      7.489      9.116
REMARK INTER + INTRA:          -5.401
REMARK INTER:                  -5.084
REMARK INTRA:                  -0.317
REMARK UNBOUND:                -0.337
REMARK SMILES CCCCc1oc(O)c2ccccc12
REMARK SMILES IDX 4 1 5 2 7 3 6 4 9 5 14 6 10 7 13 8 11 9 12 10 8 11 3 13 2 14
REMARK SMILES IDX 1 15
REMARK H PARENT 8 12
REMARK Flexibility Score: inf
ROOT
ATOM      1  C   UNL     1      19.865 -19.567  78.064  1.00  0.00     0.076 C 
ENDROOT
BRANCH   1   2
ATOM      2  C   UNL     1      20.313 -19.385  76.646  1.00  0.00     0.116 A 
ATOM      3  C   UNL     1      21.151 -18.458  74.905  1.00  0.00     0.290 A 
ATOM      4  O   UNL     1      20.849 -18.272  76.176  1.00  0.00    -0.430 OA
ATOM      5  C   UNL     1      20.807 -19.734  74.525  1.00  0.00     0.066 A 
ATOM      6  C   UNL     1      20.273 -20.330  75.636  1.00  0.00     0.027 A 
ATOM      7  C   UNL     1      20.927 -20.406  73.310  1.00  0.00     0.016 A 
ATOM      8  C   UNL     1      19.821 -21.651  75.614  1.00  0.00     0.012 A 
ATOM      9  C   UNL     1      20.478 -21.739  73.256  1.00  0.00     0.001 A 
ATOM     10  C   UNL     1      19.928 -22.358  74.402  1.00  0.00     0.001 A 
BRANCH   3  11
ATOM     11  O   UNL     1      21.733 -17.496  74.087  1.00  0.00    -0.480 OA
ATOM     12  H   UNL     1      22.734 -17.491  73.933  1.00  0.00     0.297 HD
ENDBRANCH   3  11
ENDBRANCH   1   2
BRANCH   1  13
ATOM     13  C   UNL     1      18.346 -19.401  78.171  1.00  0.00     0.008 C 
BRANCH  13  14
ATOM     14  C   UNL     1      17.941 -17.934  77.997  1.00  0.00    -0.003 C 
ATOM     15  C   UNL     1      16.534 -17.684  78.532  1.00  0.00     0.004 C 
ENDBRANCH  13  14
ENDBRANCH   1  13
TORSDOF 4
ENDMDL
MODEL 6
REMARK VINA RESULT:    -4.165     12.125     13.662
REMARK INTER + INTRA:          -5.353
REMARK INTER:                  -5.081
REMARK INTRA:                  -0.273
REMARK UNBOUND:                -0.337
REMARK SMILES CCCCc1oc(O)c2ccccc12
REMARK SMILES IDX 4 1 5 2 7 3 6 4 9 5 14 6 10 7 13 8 11 9 12 10 8 11 3 13 2 14
REMARK SMILES IDX 1 15
REMARK H PARENT 8 12
REMARK Flexibility Score: inf
ROOT
ATOM      1  C   UNL     1      22.192 -19.843  72.131  1.00  0.00     0.076 C 
ENDROOT
BRANCH   1   2
ATOM      2  C   UNL     1      23.477 -19.089  72.284  1.00  0.00     0.116 A 
ATOM      3  C   UNL     1      25.099 -18.048  73.223  1.00  0.00     0.290 A 
ATOM      4  O   UNL     1      23.940 -18.641  73.439  1.00  0.00    -0.430 OA
ATOM      5  C   UNL     1      25.414 -18.110  71.886  1.00  0.00     0.066 A 
ATOM      6  C   UNL     1      24.381 -18.777  71.283  1.00  0.00     0.027 A 
ATOM      7  C   UNL     1      26.514 -17.646  71.168  1.00  0.00     0.016 A 
ATOM      8  C   UNL     1      24.374 -19.032  69.911  1.00  0.00     0.012 A 
ATOM      9  C   UNL     1      26.535 -17.887  69.780  1.00  0.00     0.001 A 
ATOM     10  C   UNL     1      25.471 -18.576  69.156  1.00  0.00     0.001 A 
BRANCH   3  11
ATOM     11  O   UNL     1      25.875 -17.458  74.214  1.00  0.00    -0.480 OA
ATOM     12  H   UNL     1      25.560 -16.614  74.677  1.00  0.00     0.297 HD
ENDBRANCH   3  11
ENDBRANCH   1   2
BRANCH   1  13
ATOM     13  C   UNL     1      21.038 -19.070  72.777  1.00  0.00     0.008 C 
BRANCH  13  14
ATOM     14  C   UNL     1      20.678 -19.664  74.144  1.00  0.00    -0.003 C 
ATOM     15  C   UNL     1      20.970 -18.675  75.268  1.00  0.00     0.004 C 
ENDBRANCH  13  14
ENDBRANCH   1  13
TORSDOF 4
ENDMDL
MODEL 7
REMARK VINA RESULT:    -4.019     12.254     13.728
REMARK INTER + INTRA:          -5.178
REMARK INTER:                  -4.870
REMARK INTRA:                  -0.308
REMARK UNBOUND:                -0.337
REMARK SMILES CCCCc1oc(O)c2ccccc12
REMARK SMILES IDX 4 1 5 2 7 3 6 4 9 5 14 6 10 7 13 8 11 9 12 10 8 11 3 13 2 14
REMARK SMILES IDX 1 15
REMARK H PARENT 8 12
REMARK Flexibility Score: inf
ROOT
ATOM      1  C   UNL     1      25.940 -18.947  71.056  1.00  0.00     0.076 C 
ENDROOT
BRANCH   1   2
ATOM      2  C   UNL     1      24.468 -19.021  70.784  1.00  0.00     0.116 A 
ATOM      3  C   UNL     1      22.631 -19.241  69.702  1.00  0.00     0.290 A 
ATOM      4  O   UNL     1      23.945 -19.199  69.583  1.00  0.00    -0.430 OA
ATOM      5  C   UNL     1      22.276 -19.090  71.022  1.00  0.00     0.066 A 
ATOM      6  C   UNL     1      23.448 -18.951  71.717  1.00  0.00     0.027 A 
ATOM      7  C   UNL     1      21.035 -19.072  71.654  1.00  0.00     0.016 A 
ATOM      8  C   UNL     1      23.464 -18.786  73.102  1.00  0.00     0.012 A 
ATOM      9  C   UNL     1      21.017 -18.904  73.052  1.00  0.00     0.001 A 
ATOM     10  C   UNL     1      22.225 -18.762  73.772  1.00  0.00     0.001 A 
BRANCH   3  11
ATOM     11  O   UNL     1      21.753 -19.417  68.639  1.00  0.00    -0.480 OA
ATOM     12  H   UNL     1      21.779 -18.793  67.842  1.00  0.00     0.297 HD
ENDBRANCH   3  11
ENDBRANCH   1   2
BRANCH   1  13
ATOM     13  C   UNL     1      26.354 -17.507  71.374  1.00  0.00     0.008 C 
BRANCH  13  14
ATOM     14  C   UNL     1      27.219 -16.925  70.251  1.00  0.00    -0.003 C 
ATOM     15  C   UNL     1      26.359 -16.247  69.189  1.00  0.00     0.004 C 
ENDBRANCH  13  14
ENDBRANCH   1  13
TORSDOF 4
ENDMDL
MODEL 8
REMARK VINA RESULT:    -3.953      3.460      5.326
REMARK INTER + INTRA:          -5.098
REMARK INTER:                  -4.601
REMARK INTRA:                  -0.497
REMARK UNBOUND:                -0.337
REMARK SMILES CCCCc1oc(O)c2ccccc12
REMARK SMILES IDX 4 1 5 2 7 3 6 4 9 5 14 6 10 7 13 8 11 9 12 10 8 11 3 13 2 14
REMARK SMILES IDX 1 15
REMARK H PARENT 8 12
REMARK Flexibility Score: inf
ROOT
ATOM      1  C   UNL     1      15.837 -17.500  79.268  1.00  0.00     0.076 C 
ENDROOT
BRANCH   1   2
ATOM      2  C   UNL     1      14.467 -17.736  78.710  1.00  0.00     0.116 A 
ATOM      3  C   UNL     1      12.445 -17.351  78.111  1.00  0.00     0.290 A 
ATOM      4  O   UNL     1      13.508 -16.827  78.691  1.00  0.00    -0.430 OA
ATOM      5  C   UNL     1      12.712 -18.645  77.730  1.00  0.00     0.066 A 
ATOM      6  C   UNL     1      14.004 -18.894  78.109  1.00  0.00     0.027 A 
ATOM      7  C   UNL     1      11.933 -19.603  77.084  1.00  0.00     0.016 A 
ATOM      8  C   UNL     1      14.616 -20.125  77.866  1.00  0.00     0.012 A 
ATOM      9  C   UNL     1      12.522 -20.856  76.826  1.00  0.00     0.001 A 
ATOM     10  C   UNL     1      13.856 -21.115  77.215  1.00  0.00     0.001 A 
BRANCH   3  11
ATOM     11  O   UNL     1      11.244 -16.679  77.918  1.00  0.00    -0.480 OA
ATOM     12  H   UNL     1      11.240 -15.705  77.639  1.00  0.00     0.297 HD
ENDBRANCH   3  11
ENDBRANCH   1   2
BRANCH   1  13
ATOM     13  C   UNL     1      16.825 -17.172  78.144  1.00  0.00     0.008 C 
BRANCH  13  14
ATOM     14  C   UNL     1      17.955 -18.205  78.089  1.00  0.00    -0.003 C 
ATOM     15  C   UNL     1      17.873 -19.175  79.264  1.00  0.00     0.004 C 
ENDBRANCH  13  14
ENDBRANCH   1  13
TORSDOF 4
ENDMDL
MODEL 9
REMARK VINA RESULT:    -3.940      8.003      8.857
REMARK INTER + INTRA:          -5.083
REMARK INTER:                  -4.591
REMARK INTRA:                  -0.492
REMARK UNBOUND:                -0.337
REMARK SMILES CCCCc1oc(O)c2ccccc12
REMARK SMILES IDX 4 1 5 2 7 3 6 4 9 5 14 6 10 7 13 8 11 9 12 10 8 11 3 13 2 14
REMARK SMILES IDX 1 15
REMARK H PARENT 8 12
REMARK Flexibility Score: inf
ROOT
ATOM      1  C   UNL     1      20.848 -21.776  72.490  1.00  0.00     0.076 C 
ENDROOT
BRANCH   1   2
ATOM      2  C   UNL     1      21.055 -20.547  73.322  1.00  0.00     0.116 A 
ATOM      3  C   UNL     1      21.656 -18.562  73.863  1.00  0.00     0.290 A 
ATOM      4  O   UNL     1      21.669 -19.457  72.894  1.00  0.00    -0.430 OA
ATOM      5  C   UNL     1      21.011 -19.075  74.964  1.00  0.00     0.066 A 
ATOM      6  C   UNL     1      20.624 -20.343  74.621  1.00  0.00     0.027 A 
ATOM      7  C   UNL     1      20.734 -18.530  76.216  1.00  0.00     0.016 A 
ATOM      8  C   UNL     1      19.924 -21.161  75.509  1.00  0.00     0.012 A 
ATOM      9  C   UNL     1      20.032 -19.333  77.135  1.00  0.00     0.001 A 
ATOM     10  C   UNL     1      19.629 -20.641  76.783  1.00  0.00     0.001 A 
BRANCH   3  11
ATOM     11  O   UNL     1      22.214 -17.292  73.766  1.00  0.00    -0.480 OA
ATOM     12  H   UNL     1      23.178 -17.134  74.032  1.00  0.00     0.297 HD
ENDBRANCH   3  11
ENDBRANCH   1   2
BRANCH   1  13
ATOM     13  C   UNL     1      19.431 -21.797  71.910  1.00  0.00     0.008 C 
BRANCH  13  14
ATOM     14  C   UNL     1      18.725 -23.119  72.234  1.00  0.00    -0.003 C 
ATOM     15  C   UNL     1      19.617 -24.026  73.076  1.00  0.00     0.004 C 
ENDBRANCH  13  14
ENDBRANCH   1  13
TORSDOF 4
ENDMDL
