MODEL 1
REMARK VINA RESULT:    -2.669      0.000      0.000
REMARK INTER + INTRA:          -2.669
REMARK INTER:                  -2.669
REMARK INTRA:                   0.000
REMARK UNBOUND:                 0.000
REMARK SMILES CC(=O)[O-]
REMARK SMILES IDX 1 1 2 2 3 3 4 4
REMARK H PARENT
REMARK Flexibility Score: inf
ROOT
ATOM      1  C   UNL     1      -1.849  -0.739  -1.725  1.00  0.00     0.063 C 
ATOM      2  C   UNL     1      -0.545  -0.387  -1.093  1.00  0.00     0.038 C 
ATOM      3  O   UNL     1       0.229  -1.297  -0.696  1.00  0.00    -0.550 OA
ATOM      4  O   UNL     1      -0.206   0.943  -0.891  1.00  0.00    -0.550 OA
ENDROOT
TORSDOF 0
ENDMDL
MODEL 2
REMARK VINA RESULT:    -2.661      1.450      2.610
REMARK INTER + INTRA:          -2.661
REMARK INTER:                  -2.661
REMARK INTRA:                   0.000
REMARK UNBOUND:                 0.000
REMARK SMILES CC(=O)[O-]
REMARK SMILES IDX 1 1 2 2 3 3 4 4
REMARK H PARENT
REMARK Flexibility Score: inf
ROOT
ATOM      1  C   UNL     1       1.780   0.656  -1.563  1.00  0.00     0.063 C 
ATOM      2  C   UNL     1       0.410   0.313  -1.085  1.00  0.00     0.038 C 
ATOM      3  O   UNL     1      -0.406   1.229  -0.799  1.00  0.00    -0.550 OA
ATOM      4  O   UNL     1       0.049  -1.014  -0.902  1.00  0.00    -0.550 OA
ENDROOT
TORSDOF 0
ENDMDL
MODEL 3
REMARK VINA RESULT:    -2.578      1.352      1.790
REMARK INTER + INTRA:          -2.578
REMARK INTER:                  -2.578
REMARK INTRA:                   0.000
REMARK UNBOUND:                 0.000
REMARK SMILES CC(=O)[O-]
REMARK SMILES IDX 1 1 2 2 3 3 4 4
REMARK H PARENT
REMARK Flexibility Score: inf
ROOT
ATOM      1  C   UNL     1       0.695   0.408  -1.136  1.00  0.00     0.063 C 
ATOM      2  C   UNL     1      -0.348  -0.658  -1.112  1.00  0.00     0.038 C 
ATOM      3  O   UNL     1      -0.045  -1.830  -0.766  1.00  0.00    -0.550 OA
ATOM      4  O   UNL     1      -1.642  -0.373  -1.525  1.00  0.00    -0.550 OA
ENDROOT
TORSDOF 0
ENDMDL
MODEL 4
REMARK VINA RESULT:    -2.572      1.213      1.869
REMARK INTER + INTRA:          -2.572
REMARK INTER:                  -2.572
REMARK INTRA:                   0.000
REMARK UNBOUND:                 0.000
REMARK SMILES CC(=O)[O-]
REMARK SMILES IDX 1 1 2 2 3 3 4 4
REMARK H PARENT
REMARK Flexibility Score: inf
ROOT
ATOM      1  C   UNL     1      -0.900  -0.741  -1.118  1.00  0.00     0.063 C 
ATOM      2  C   UNL     1       0.117   0.348  -1.065  1.00  0.00     0.038 C 
ATOM      3  O   UNL     1      -0.212   1.501  -0.684  1.00  0.00    -0.550 OA
ATOM      4  O   UNL     1       1.417   0.107  -1.489  1.00  0.00    -0.550 OA
ENDROOT
TORSDOF 0
ENDMDL
MODEL 5
REMARK VINA RESULT:    -2.549      1.430      2.207
REMARK INTER + INTRA:          -2.549
REMARK INTER:                  -2.549
REMARK INTRA:                   0.000
REMARK UNBOUND:                 0.000
REMARK SMILES CC(=O)[O-]
REMARK SMILES IDX 1 1 2 2 3 3 4 4
REMARK H PARENT
REMARK Flexibility Score: inf
ROOT
ATOM      1  C   UNL     1      -0.028   0.624  -0.767  1.00  0.00     0.063 C 
ATOM      2  C   UNL     1      -0.670  -0.687  -1.075  1.00  0.00     0.038 C 
ATOM      3  O   UNL     1      -1.810  -0.721  -1.607  1.00  0.00    -0.550 OA
ATOM      4  O   UNL     1      -0.035  -1.871  -0.726  1.00  0.00    -0.550 OA
ENDROOT
TORSDOF 0
ENDMDL
MODEL 6
REMARK VINA RESULT:    -2.352      3.000      3.567
REMARK INTER + INTRA:          -2.352
REMARK INTER:                  -2.352
REMARK INTRA:                   0.000
REMARK UNBOUND:                 0.000
REMARK SMILES CC(=O)[O-]
REMARK SMILES IDX 1 1 2 2 3 3 4 4
REMARK H PARENT
REMARK Flexibility Score: inf
ROOT
ATOM      1  C   UNL     1      -1.850  -1.138  -1.546  1.00  0.00     0.063 C 
ATOM      2  C   UNL     1      -2.890  -2.033  -0.964  1.00  0.00     0.038 C 
ATOM      3  O   UNL     1      -3.891  -1.541  -0.380  1.00  0.00    -0.550 OA
ATOM      4  O   UNL     1      -2.730  -3.411  -1.015  1.00  0.00    -0.550 OA
ENDROOT
TORSDOF 0
ENDMDL
MODEL 7
REMARK VINA RESULT:    -2.342      3.622      3.907
REMARK INTER + INTRA:          -2.342
REMARK INTER:                  -2.342
REMARK INTRA:                   0.000
REMARK UNBOUND:                 0.000
REMARK SMILES CC(=O)[O-]
REMARK SMILES IDX 1 1 2 2 3 3 4 4
REMARK H PARENT
REMARK Flexibility Score: inf
ROOT
ATOM      1  C   UNL     1       1.627   0.916  -1.494  1.00  0.00     0.063 C 
ATOM      2  C   UNL     1       2.696   1.763  -0.890  1.00  0.00     0.038 C 
ATOM      3  O   UNL     1       3.692   1.225  -0.340  1.00  0.00    -0.550 OA
ATOM      4  O   UNL     1       2.567   3.145  -0.883  1.00  0.00    -0.550 OA
ENDROOT
TORSDOF 0
ENDMDL
MODEL 8
REMARK VINA RESULT:    -1.912     13.370     13.765
REMARK INTER + INTRA:          -1.912
REMARK INTER:                  -1.912
REMARK INTRA:                   0.000
REMARK UNBOUND:                 0.000
REMARK SMILES CC(=O)[O-]
REMARK SMILES IDX 1 1 2 2 3 3 4 4
REMARK H PARENT
REMARK Flexibility Score: inf
ROOT
ATOM      1  C   UNL     1       8.621   4.079   7.708  1.00  0.00     0.063 C 
ATOM      2  C   UNL     1       9.030   2.712   8.142  1.00  0.00     0.038 C 
ATOM      3  O   UNL     1      10.124   2.541   8.740  1.00  0.00    -0.550 OA
ATOM      4  O   UNL     1       8.231   1.618   7.839  1.00  0.00    -0.550 OA
ENDROOT
TORSDOF 0
ENDMDL
MODEL 9
REMARK VINA RESULT:    -1.903     13.422     13.865
REMARK INTER + INTRA:          -1.903
REMARK INTER:                  -1.903
REMARK INTRA:                   0.000
REMARK UNBOUND:                 0.000
REMARK SMILES CC(=O)[O-]
REMARK SMILES IDX 1 1 2 2 3 3 4 4
REMARK H PARENT
REMARK Flexibility Score: inf
ROOT
ATOM      1  C   UNL     1       9.061   1.871   8.229  1.00  0.00     0.063 C 
ATOM      2  C   UNL     1       8.963   3.349   8.056  1.00  0.00     0.038 C 
ATOM      3  O   UNL     1       8.204   3.832   7.175  1.00  0.00    -0.550 OA
ATOM      4  O   UNL     1       9.749   4.194   8.828  1.00  0.00    -0.550 OA
ENDROOT
TORSDOF 0
ENDMDL
