MODEL 1
REMARK VINA RESULT:    -4.390      0.000      0.000
REMARK INTER + INTRA:          -4.886
REMARK INTER:                  -4.775
REMARK INTRA:                  -0.112
REMARK UNBOUND:                -0.112
REMARK SMILES C=C(C)[C@@H]1CC[C@@H](C)[C@H](O)C1
REMARK SMILES IDX 8 1 7 2 6 3 5 4 4 5 11 6 9 7 10 8 2 10 1 11 3 12
REMARK H PARENT 10 9
REMARK Flexibility Score: inf
ROOT
ATOM      1  C   UNL     1     140.472 143.827 146.288  1.00  0.00     0.010 C 
ATOM      2  C   UNL     1     141.849 144.201 145.719  1.00  0.00     0.015 C 
ATOM      3  C   UNL     1     141.721 144.777 144.285  1.00  0.00     0.006 C 
ATOM      4  C   UNL     1     141.846 143.698 143.198  1.00  0.00     0.008 C 
ATOM      5  C   UNL     1     143.154 142.864 143.308  1.00  0.00     0.017 C 
ATOM      6  C   UNL     1     143.858 143.020 144.674  1.00  0.00     0.040 C 
ATOM      7  C   UNL     1     142.825 142.993 145.812  1.00  0.00     0.117 C 
ENDROOT
BRANCH   7   8
ATOM      8  O   UNL     1     143.482 143.020 147.053  1.00  0.00    -0.393 OA
ATOM      9  H   UNL     1     144.183 142.317 147.024  1.00  0.00     0.210 HD
ENDBRANCH   7   8
BRANCH   5  10
ATOM     10  C   UNL     1     144.120 143.153 142.165  1.00  0.00    -0.077 C 
ATOM     11  C   UNL     1     144.199 144.386 141.641  1.00  0.00     0.008 C 
ATOM     12  C   UNL     1     144.989 142.066 141.585  1.00  0.00     0.039 C 
ENDBRANCH   5  10
TORSDOF 2
ENDMDL
MODEL 2
REMARK VINA RESULT:    -4.228      2.047      4.569
REMARK INTER + INTRA:          -4.710
REMARK INTER:                  -4.563
REMARK INTRA:                  -0.147
REMARK UNBOUND:                -0.112
REMARK SMILES C=C(C)[C@@H]1CC[C@@H](C)[C@H](O)C1
REMARK SMILES IDX 8 1 7 2 6 3 5 4 4 5 11 6 9 7 10 8 2 10 1 11 3 12
REMARK H PARENT 10 9
REMARK Flexibility Score: inf
ROOT
ATOM      1  C   UNL     1     144.048 142.035 140.672  1.00  0.00     0.010 C 
ATOM      2  C   UNL     1     144.278 142.722 142.026  1.00  0.00     0.015 C 
ATOM      3  C   UNL     1     143.859 141.797 143.198  1.00  0.00     0.006 C 
ATOM      4  C   UNL     1     142.399 142.005 143.627  1.00  0.00     0.008 C 
ATOM      5  C   UNL     1     142.068 143.481 143.987  1.00  0.00     0.017 C 
ATOM      6  C   UNL     1     143.134 144.480 143.484  1.00  0.00     0.040 C 
ATOM      7  C   UNL     1     143.579 144.112 142.060  1.00  0.00     0.117 C 
ENDROOT
BRANCH   7   8
ATOM      8  O   UNL     1     144.460 145.088 141.568  1.00  0.00    -0.393 OA
ATOM      9  H   UNL     1     144.932 145.472 142.353  1.00  0.00     0.210 HD
ENDBRANCH   7   8
BRANCH   5  10
ATOM     10  C   UNL     1     141.813 143.667 145.478  1.00  0.00    -0.077 C 
ATOM     11  C   UNL     1     142.830 143.613 146.352  1.00  0.00     0.008 C 
ATOM     12  C   UNL     1     140.420 143.895 146.009  1.00  0.00     0.039 C 
ENDBRANCH   5  10
TORSDOF 2
ENDMDL
MODEL 3
REMARK VINA RESULT:    -4.219     12.171     13.520
REMARK INTER + INTRA:          -4.700
REMARK INTER:                  -4.565
REMARK INTRA:                  -0.135
REMARK UNBOUND:                -0.112
REMARK SMILES C=C(C)[C@@H]1CC[C@@H](C)[C@H](O)C1
REMARK SMILES IDX 8 1 7 2 6 3 5 4 4 5 11 6 9 7 10 8 2 10 1 11 3 12
REMARK H PARENT 10 9
REMARK Flexibility Score: inf
ROOT
ATOM      1  C   UNL     1     140.495 135.091 150.062  1.00  0.00     0.010 C 
ATOM      2  C   UNL     1     140.166 133.599 150.217  1.00  0.00     0.015 C 
ATOM      3  C   UNL     1     139.844 132.954 148.844  1.00  0.00     0.006 C 
ATOM      4  C   UNL     1     138.346 132.990 148.506  1.00  0.00     0.008 C 
ATOM      5  C   UNL     1     137.453 132.346 149.605  1.00  0.00     0.017 C 
ATOM      6  C   UNL     1     138.190 132.155 150.949  1.00  0.00     0.040 C 
ATOM      7  C   UNL     1     139.039 133.395 151.271  1.00  0.00     0.117 C 
ENDROOT
BRANCH   7   8
ATOM      8  O   UNL     1     139.614 133.261 152.545  1.00  0.00    -0.393 OA
ATOM      9  H   UNL     1     140.409 132.675 152.444  1.00  0.00     0.210 HD
ENDBRANCH   7   8
BRANCH   5  10
ATOM     10  C   UNL     1     136.824 131.037 149.142  1.00  0.00    -0.077 C 
ATOM     11  C   UNL     1     135.975 130.373 149.941  1.00  0.00     0.008 C 
ATOM     12  C   UNL     1     137.151 130.448 147.792  1.00  0.00     0.039 C 
ENDBRANCH   5  10
TORSDOF 2
ENDMDL
MODEL 4
REMARK VINA RESULT:    -4.114     12.339     13.365
REMARK INTER + INTRA:          -4.587
REMARK INTER:                  -4.441
REMARK INTRA:                  -0.146
REMARK UNBOUND:                -0.112
REMARK SMILES C=C(C)[C@@H]1CC[C@@H](C)[C@H](O)C1
REMARK SMILES IDX 8 1 7 2 6 3 5 4 4 5 11 6 9 7 10 8 2 10 1 11 3 12
REMARK H PARENT 10 9
REMARK Flexibility Score: inf
ROOT
ATOM      1  C   UNL     1     142.758 132.117 151.246  1.00  0.00     0.010 C 
ATOM      2  C   UNL     1     141.256 131.813 151.341  1.00  0.00     0.015 C 
ATOM      3  C   UNL     1     140.701 131.317 149.980  1.00  0.00     0.006 C 
ATOM      4  C   UNL     1     140.155 132.459 149.110  1.00  0.00     0.008 C 
ATOM      5  C   UNL     1     139.078 133.319 149.829  1.00  0.00     0.017 C 
ATOM      6  C   UNL     1     139.052 133.103 151.358  1.00  0.00     0.040 C 
ATOM      7  C   UNL     1     140.484 133.038 151.911  1.00  0.00     0.117 C 
ENDROOT
BRANCH   7   8
ATOM      8  O   UNL     1     140.452 132.956 153.312  1.00  0.00    -0.393 OA
ATOM      9  H   UNL     1     140.212 133.859 153.648  1.00  0.00     0.210 HD
ENDBRANCH   7   8
BRANCH   5  10
ATOM     10  C   UNL     1     137.690 133.121 149.231  1.00  0.00    -0.077 C 
ATOM     11  C   UNL     1     136.677 132.687 149.997  1.00  0.00     0.008 C 
ATOM     12  C   UNL     1     137.424 133.387 147.770  1.00  0.00     0.039 C 
ENDBRANCH   5  10
TORSDOF 2
ENDMDL
MODEL 5
REMARK VINA RESULT:    -4.072     12.407     13.567
REMARK INTER + INTRA:          -4.541
REMARK INTER:                  -4.390
REMARK INTRA:                  -0.151
REMARK UNBOUND:                -0.112
REMARK SMILES C=C(C)[C@@H]1CC[C@@H](C)[C@H](O)C1
REMARK SMILES IDX 8 1 7 2 6 3 5 4 4 5 11 6 9 7 10 8 2 10 1 11 3 12
REMARK H PARENT 10 9
REMARK Flexibility Score: inf
ROOT
ATOM      1  C   UNL     1     135.785 130.344 149.501  1.00  0.00     0.010 C 
ATOM      2  C   UNL     1     136.767 131.200 150.313  1.00  0.00     0.015 C 
ATOM      3  C   UNL     1     136.749 132.675 149.833  1.00  0.00     0.006 C 
ATOM      4  C   UNL     1     137.796 132.959 148.745  1.00  0.00     0.008 C 
ATOM      5  C   UNL     1     139.241 132.567 149.166  1.00  0.00     0.017 C 
ATOM      6  C   UNL     1     139.281 131.640 150.401  1.00  0.00     0.040 C 
ATOM      7  C   UNL     1     138.188 130.566 150.297  1.00  0.00     0.117 C 
ENDROOT
BRANCH   7   8
ATOM      8  O   UNL     1     138.305 129.661 151.365  1.00  0.00    -0.393 OA
ATOM      9  H   UNL     1     137.582 128.989 151.254  1.00  0.00     0.210 HD
ENDBRANCH   7   8
BRANCH   5  10
ATOM     10  C   UNL     1     140.131 133.786 149.374  1.00  0.00    -0.077 C 
ATOM     11  C   UNL     1     140.113 134.447 150.542  1.00  0.00     0.008 C 
ATOM     12  C   UNL     1     141.034 134.290 148.276  1.00  0.00     0.039 C 
ENDBRANCH   5  10
TORSDOF 2
ENDMDL
MODEL 6
REMARK VINA RESULT:    -4.039     10.828     11.907
REMARK INTER + INTRA:          -4.505
REMARK INTER:                  -4.366
REMARK INTRA:                  -0.138
REMARK UNBOUND:                -0.112
REMARK SMILES C=C(C)[C@@H]1CC[C@@H](C)[C@H](O)C1
REMARK SMILES IDX 8 1 7 2 6 3 5 4 4 5 11 6 9 7 10 8 2 10 1 11 3 12
REMARK H PARENT 10 9
REMARK Flexibility Score: inf
ROOT
ATOM      1  C   UNL     1     137.134 131.596 150.596  1.00  0.00     0.010 C 
ATOM      2  C   UNL     1     137.809 132.967 150.451  1.00  0.00     0.015 C 
ATOM      3  C   UNL     1     137.898 133.390 148.961  1.00  0.00     0.006 C 
ATOM      4  C   UNL     1     139.213 132.956 148.297  1.00  0.00     0.008 C 
ATOM      5  C   UNL     1     140.477 133.453 149.054  1.00  0.00     0.017 C 
ATOM      6  C   UNL     1     140.172 133.937 150.489  1.00  0.00     0.040 C 
ATOM      7  C   UNL     1     139.186 132.979 151.176  1.00  0.00     0.117 C 
ENDROOT
BRANCH   7   8
ATOM      8  O   UNL     1     139.003 133.361 152.514  1.00  0.00    -0.393 OA
ATOM      9  H   UNL     1     138.031 133.298 152.703  1.00  0.00     0.210 HD
ENDBRANCH   7   8
BRANCH   5  10
ATOM     10  C   UNL     1     141.235 134.519 148.272  1.00  0.00    -0.077 C 
ATOM     11  C   UNL     1     142.178 135.259 148.875  1.00  0.00     0.008 C 
ATOM     12  C   UNL     1     140.933 134.783 146.819  1.00  0.00     0.039 C 
ENDBRANCH   5  10
TORSDOF 2
ENDMDL
MODEL 7
REMARK VINA RESULT:    -4.021     12.021     13.228
REMARK INTER + INTRA:          -4.485
REMARK INTER:                  -4.338
REMARK INTRA:                  -0.147
REMARK UNBOUND:                -0.112
REMARK SMILES C=C(C)[C@@H]1CC[C@@H](C)[C@H](O)C1
REMARK SMILES IDX 8 1 7 2 6 3 5 4 4 5 11 6 9 7 10 8 2 10 1 11 3 12
REMARK H PARENT 10 9
REMARK Flexibility Score: inf
ROOT
ATOM      1  C   UNL     1     137.141 133.013 150.234  1.00  0.00     0.010 C 
ATOM      2  C   UNL     1     138.388 132.623 151.041  1.00  0.00     0.015 C 
ATOM      3  C   UNL     1     139.391 133.804 151.123  1.00  0.00     0.006 C 
ATOM      4  C   UNL     1     140.428 133.783 149.990  1.00  0.00     0.008 C 
ATOM      5  C   UNL     1     141.211 132.442 149.899  1.00  0.00     0.017 C 
ATOM      6  C   UNL     1     140.542 131.296 150.689  1.00  0.00     0.040 C 
ATOM      7  C   UNL     1     139.020 131.319 150.475  1.00  0.00     0.117 C 
ENDROOT
BRANCH   7   8
ATOM      8  O   UNL     1     138.433 130.208 151.102  1.00  0.00    -0.393 OA
ATOM      9  H   UNL     1     139.029 129.432 150.932  1.00  0.00     0.210 HD
ENDBRANCH   7   8
BRANCH   5  10
ATOM     10  C   UNL     1     142.671 132.599 150.305  1.00  0.00    -0.077 C 
ATOM     11  C   UNL     1     143.141 131.979 151.399  1.00  0.00     0.008 C 
ATOM     12  C   UNL     1     143.615 133.463 149.506  1.00  0.00     0.039 C 
ENDBRANCH   5  10
TORSDOF 2
ENDMDL
MODEL 8
REMARK VINA RESULT:    -4.009     10.396     12.114
REMARK INTER + INTRA:          -4.472
REMARK INTER:                  -4.325
REMARK INTRA:                  -0.146
REMARK UNBOUND:                -0.112
REMARK SMILES C=C(C)[C@@H]1CC[C@@H](C)[C@H](O)C1
REMARK SMILES IDX 8 1 7 2 6 3 5 4 4 5 11 6 9 7 10 8 2 10 1 11 3 12
REMARK H PARENT 10 9
REMARK Flexibility Score: inf
ROOT
ATOM      1  C   UNL     1     143.857 133.138 147.898  1.00  0.00     0.010 C 
ATOM      2  C   UNL     1     143.084 133.591 149.145  1.00  0.00     0.015 C 
ATOM      3  C   UNL     1     142.323 132.404 149.791  1.00  0.00     0.006 C 
ATOM      4  C   UNL     1     140.887 132.262 149.264  1.00  0.00     0.008 C 
ATOM      5  C   UNL     1     140.046 133.562 149.414  1.00  0.00     0.017 C 
ATOM      6  C   UNL     1     140.909 134.812 149.694  1.00  0.00     0.040 C 
ATOM      7  C   UNL     1     142.166 134.801 148.809  1.00  0.00     0.117 C 
ENDROOT
BRANCH   7   8
ATOM      8  O   UNL     1     142.885 135.994 148.987  1.00  0.00    -0.393 OA
ATOM      9  H   UNL     1     142.788 136.517 148.149  1.00  0.00     0.210 HD
ENDBRANCH   7   8
BRANCH   5  10
ATOM     10  C   UNL     1     138.945 133.419 150.458  1.00  0.00    -0.077 C 
ATOM     11  C   UNL     1     139.253 133.355 151.763  1.00  0.00     0.008 C 
ATOM     12  C   UNL     1     137.495 133.327 150.055  1.00  0.00     0.039 C 
ENDBRANCH   5  10
TORSDOF 2
ENDMDL
MODEL 9
REMARK VINA RESULT:    -3.994      1.688      2.071
REMARK INTER + INTRA:          -4.456
REMARK INTER:                  -4.312
REMARK INTRA:                  -0.144
REMARK UNBOUND:                -0.112
REMARK SMILES C=C(C)[C@@H]1CC[C@@H](C)[C@H](O)C1
REMARK SMILES IDX 8 1 7 2 6 3 5 4 4 5 11 6 9 7 10 8 2 10 1 11 3 12
REMARK H PARENT 10 9
REMARK Flexibility Score: inf
ROOT
ATOM      1  C   UNL     1     141.182 143.807 146.131  1.00  0.00     0.010 C 
ATOM      2  C   UNL     1     142.078 142.952 145.222  1.00  0.00     0.015 C 
ATOM      3  C   UNL     1     143.477 143.600 145.051  1.00  0.00     0.006 C 
ATOM      4  C   UNL     1     143.556 144.528 143.829  1.00  0.00     0.008 C 
ATOM      5  C   UNL     1     143.139 143.834 142.502  1.00  0.00     0.017 C 
ATOM      6  C   UNL     1     142.380 142.507 142.726  1.00  0.00     0.040 C 
ATOM      7  C   UNL     1     141.366 142.660 143.870  1.00  0.00     0.117 C 
ENDROOT
BRANCH   7   8
ATOM      8  O   UNL     1     140.602 141.488 143.991  1.00  0.00    -0.393 OA
ATOM      9  H   UNL     1     140.024 141.601 144.790  1.00  0.00     0.210 HD
ENDBRANCH   7   8
BRANCH   5  10
ATOM     10  C   UNL     1     144.322 143.629 141.563  1.00  0.00    -0.077 C 
ATOM     11  C   UNL     1     144.683 144.598 140.708  1.00  0.00     0.008 C 
ATOM     12  C   UNL     1     145.098 142.336 141.556  1.00  0.00     0.039 C 
ENDBRANCH   5  10
TORSDOF 2
ENDMDL
