MODEL 1
REMARK VINA RESULT:    -2.820      0.000      0.000
REMARK INTER + INTRA:          -4.345
REMARK INTER:                  -3.973
REMARK INTRA:                  -0.371
REMARK UNBOUND:                -0.371
REMARK SMILES CCCCCCCCC(=O)[O-]
REMARK SMILES IDX 6 1 7 2 8 3 9 4 10 5 11 6 5 7 4 8 3 9 2 10 1 11
REMARK H PARENT
REMARK Flexibility Score: inf
ROOT
ATOM      1  C   UNL     1      -5.827  36.325  21.530  1.00  0.00     0.000 C 
ENDROOT
BRANCH   1   2
ATOM      2  C   UNL     1      -5.196  36.403  20.129  1.00  0.00     0.006 C 
BRANCH   2   3
ATOM      3  C   UNL     1      -4.459  35.109  19.753  1.00  0.00     0.053 C 
BRANCH   3   4
ATOM      4  C   UNL     1      -4.898  34.588  18.419  1.00  0.00     0.041 C 
ATOM      5  O   UNL     1      -5.879  33.804  18.336  1.00  0.00    -0.550 OA
ATOM      6  O   UNL     1      -4.239  34.990  17.264  1.00  0.00    -0.550 OA
ENDBRANCH   3   4
ENDBRANCH   2   3
ENDBRANCH   1   2
BRANCH   1   7
ATOM      7  C   UNL     1      -5.909  34.885  22.059  1.00  0.00     0.000 C 
BRANCH   7   8
ATOM      8  C   UNL     1      -5.853  34.814  23.596  1.00  0.00    -0.000 C 
BRANCH   8   9
ATOM      9  C   UNL     1      -6.125  36.173  24.265  1.00  0.00    -0.000 C 
BRANCH   9  10
ATOM     10  C   UNL     1      -5.610  36.294  25.710  1.00  0.00    -0.003 C 
ATOM     11  C   UNL     1      -4.535  37.367  25.874  1.00  0.00     0.004 C 
ENDBRANCH   9  10
ENDBRANCH   8   9
ENDBRANCH   7   8
ENDBRANCH   1   7
TORSDOF 7
ENDMDL
MODEL 2
REMARK VINA RESULT:    -2.315      3.513      6.098
REMARK INTER + INTRA:          -3.633
REMARK INTER:                  -3.252
REMARK INTRA:                  -0.382
REMARK UNBOUND:                -0.371
REMARK SMILES CCCCCCCCC(=O)[O-]
REMARK SMILES IDX 6 1 7 2 8 3 9 4 10 5 11 6 5 7 4 8 3 9 2 10 1 11
REMARK H PARENT
REMARK Flexibility Score: inf
ROOT
ATOM      1  C   UNL     1      -4.765  35.375  21.633  1.00  0.00     0.000 C 
ENDROOT
BRANCH   1   2
ATOM      2  C   UNL     1      -5.835  35.166  22.717  1.00  0.00     0.006 C 
BRANCH   2   3
ATOM      3  C   UNL     1      -5.972  36.385  23.639  1.00  0.00     0.053 C 
BRANCH   3   4
ATOM      4  C   UNL     1      -5.759  36.022  25.076  1.00  0.00     0.041 C 
ATOM      5  O   UNL     1      -5.271  36.862  25.877  1.00  0.00    -0.550 OA
ATOM      6  O   UNL     1      -6.125  34.764  25.537  1.00  0.00    -0.550 OA
ENDBRANCH   3   4
ENDBRANCH   2   3
ENDBRANCH   1   2
BRANCH   1   7
ATOM      7  C   UNL     1      -4.971  36.678  20.845  1.00  0.00     0.000 C 
BRANCH   7   8
ATOM      8  C   UNL     1      -5.385  36.428  19.384  1.00  0.00    -0.000 C 
BRANCH   8   9
ATOM      9  C   UNL     1      -5.864  34.986  19.138  1.00  0.00    -0.000 C 
BRANCH   9  10
ATOM     10  C   UNL     1      -5.000  34.180  18.152  1.00  0.00    -0.003 C 
ATOM     11  C   UNL     1      -4.002  35.046  17.385  1.00  0.00     0.004 C 
ENDBRANCH   9  10
ENDBRANCH   8   9
ENDBRANCH   7   8
ENDBRANCH   1   7
TORSDOF 7
ENDMDL
MODEL 3
REMARK VINA RESULT:    -1.880      3.233      6.598
REMARK INTER + INTRA:          -3.021
REMARK INTER:                  -2.875
REMARK INTRA:                  -0.145
REMARK UNBOUND:                -0.371
REMARK SMILES CCCCCCCCC(=O)[O-]
REMARK SMILES IDX 6 1 7 2 8 3 9 4 10 5 11 6 5 7 4 8 3 9 2 10 1 11
REMARK H PARENT
REMARK Flexibility Score: inf
ROOT
ATOM      1  C   UNL     1      -5.144  35.455  20.078  1.00  0.00     0.000 C 
ENDROOT
BRANCH   1   2
ATOM      2  C   UNL     1      -6.125  35.206  21.236  1.00  0.00     0.006 C 
BRANCH   2   3
ATOM      3  C   UNL     1      -5.782  36.045  22.476  1.00  0.00     0.053 C 
BRANCH   3   4
ATOM      4  C   UNL     1      -5.704  35.203  23.712  1.00  0.00     0.041 C 
ATOM      5  O   UNL     1      -5.804  33.950  23.634  1.00  0.00    -0.550 OA
ATOM      6  O   UNL     1      -5.492  35.800  24.948  1.00  0.00    -0.550 OA
ENDBRANCH   3   4
ENDBRANCH   2   3
ENDBRANCH   1   2
BRANCH   1   7
ATOM      7  C   UNL     1      -5.565  34.739  18.785  1.00  0.00     0.000 C 
BRANCH   7   8
ATOM      8  C   UNL     1      -4.379  34.473  17.842  1.00  0.00    -0.000 C 
BRANCH   8   9
ATOM      9  C   UNL     1      -4.071  35.665  16.919  1.00  0.00    -0.000 C 
BRANCH   9  10
ATOM     10  C   UNL     1      -3.288  35.307  15.644  1.00  0.00    -0.003 C 
ATOM     11  C   UNL     1      -3.478  36.324  14.520  1.00  0.00     0.004 C 
ENDBRANCH   9  10
ENDBRANCH   8   9
ENDBRANCH   7   8
ENDBRANCH   1   7
TORSDOF 7
ENDMDL
MODEL 4
REMARK VINA RESULT:    -1.584      3.260      4.135
REMARK INTER + INTRA:          -2.603
REMARK INTER:                  -2.503
REMARK INTRA:                  -0.100
REMARK UNBOUND:                -0.371
REMARK SMILES CCCCCCCCC(=O)[O-]
REMARK SMILES IDX 6 1 7 2 8 3 9 4 10 5 11 6 5 7 4 8 3 9 2 10 1 11
REMARK H PARENT
REMARK Flexibility Score: inf
ROOT
ATOM      1  C   UNL     1      -5.214  36.432  19.213  1.00  0.00     0.000 C 
ENDROOT
BRANCH   1   2
ATOM      2  C   UNL     1      -4.744  37.573  20.131  1.00  0.00     0.006 C 
BRANCH   2   3
ATOM      3  C   UNL     1      -5.907  38.460  20.595  1.00  0.00     0.053 C 
BRANCH   3   4
ATOM      4  C   UNL     1      -5.568  39.213  21.844  1.00  0.00     0.041 C 
ATOM      5  O   UNL     1      -5.607  40.471  21.857  1.00  0.00    -0.550 OA
ATOM      6  O   UNL     1      -5.234  38.524  23.003  1.00  0.00    -0.550 OA
ENDBRANCH   3   4
ENDBRANCH   2   3
ENDBRANCH   1   2
BRANCH   1   7
ATOM      7  C   UNL     1      -5.444  35.119  19.978  1.00  0.00     0.000 C 
BRANCH   7   8
ATOM      8  C   UNL     1      -6.125  35.338  21.341  1.00  0.00    -0.000 C 
BRANCH   8   9
ATOM      9  C   UNL     1      -5.202  35.008  22.528  1.00  0.00    -0.000 C 
BRANCH   9  10
ATOM     10  C   UNL     1      -5.921  34.435  23.761  1.00  0.00    -0.003 C 
ATOM     11  C   UNL     1      -6.124  35.467  24.869  1.00  0.00     0.004 C 
ENDBRANCH   9  10
ENDBRANCH   8   9
ENDBRANCH   7   8
ENDBRANCH   1   7
TORSDOF 7
ENDMDL
MODEL 5
REMARK VINA RESULT:    -1.349      2.392      2.791
REMARK INTER + INTRA:          -2.273
REMARK INTER:                  -2.064
REMARK INTRA:                  -0.209
REMARK UNBOUND:                -0.371
REMARK SMILES CCCCCCCCC(=O)[O-]
REMARK SMILES IDX 6 1 7 2 8 3 9 4 10 5 11 6 5 7 4 8 3 9 2 10 1 11
REMARK H PARENT
REMARK Flexibility Score: inf
ROOT
ATOM      1  C   UNL     1      -5.083  34.826  21.982  1.00  0.00     0.000 C 
ENDROOT
BRANCH   1   2
ATOM      2  C   UNL     1      -5.706  35.301  20.658  1.00  0.00     0.006 C 
BRANCH   2   3
ATOM      3  C   UNL     1      -4.960  36.506  20.067  1.00  0.00     0.053 C 
BRANCH   3   4
ATOM      4  C   UNL     1      -5.476  37.801  20.615  1.00  0.00     0.041 C 
ATOM      5  O   UNL     1      -5.737  38.759  19.841  1.00  0.00    -0.550 OA
ATOM      6  O   UNL     1      -5.695  37.941  21.980  1.00  0.00    -0.550 OA
ENDBRANCH   3   4
ENDBRANCH   2   3
ENDBRANCH   1   2
BRANCH   1   7
ATOM      7  C   UNL     1      -6.124  34.226  22.940  1.00  0.00     0.000 C 
BRANCH   7   8
ATOM      8  C   UNL     1      -5.791  34.492  24.419  1.00  0.00    -0.000 C 
BRANCH   8   9
ATOM      9  C   UNL     1      -6.004  35.961  24.824  1.00  0.00    -0.000 C 
BRANCH   9  10
ATOM     10  C   UNL     1      -5.015  36.489  25.877  1.00  0.00    -0.003 C 
ATOM     11  C   UNL     1      -4.572  37.927  25.614  1.00  0.00     0.004 C 
ENDBRANCH   9  10
ENDBRANCH   8   9
ENDBRANCH   7   8
ENDBRANCH   1   7
TORSDOF 7
ENDMDL
MODEL 6
REMARK VINA RESULT:    -1.249      2.360      3.757
REMARK INTER + INTRA:          -2.132
REMARK INTER:                  -1.992
REMARK INTRA:                  -0.140
REMARK UNBOUND:                -0.371
REMARK SMILES CCCCCCCCC(=O)[O-]
REMARK SMILES IDX 6 1 7 2 8 3 9 4 10 5 11 6 5 7 4 8 3 9 2 10 1 11
REMARK H PARENT
REMARK Flexibility Score: inf
ROOT
ATOM      1  C   UNL     1      -4.226  35.063  18.399  1.00  0.00     0.000 C 
ENDROOT
BRANCH   1   2
ATOM      2  C   UNL     1      -4.399  35.447  16.920  1.00  0.00     0.006 C 
BRANCH   2   3
ATOM      3  C   UNL     1      -3.127  35.187  16.101  1.00  0.00     0.053 C 
BRANCH   3   4
ATOM      4  C   UNL     1      -3.054  36.069  14.892  1.00  0.00     0.041 C 
ATOM      5  O   UNL     1      -2.028  36.063  14.163  1.00  0.00    -0.550 OA
ATOM      6  O   UNL     1      -4.132  36.878  14.556  1.00  0.00    -0.550 OA
ENDBRANCH   3   4
ENDBRANCH   2   3
ENDBRANCH   1   2
BRANCH   1   7
ATOM      7  C   UNL     1      -5.555  35.072  19.170  1.00  0.00     0.000 C 
BRANCH   7   8
ATOM      8  C   UNL     1      -5.539  36.038  20.368  1.00  0.00    -0.000 C 
BRANCH   8   9
ATOM      9  C   UNL     1      -5.032  35.376  21.661  1.00  0.00    -0.000 C 
BRANCH   9  10
ATOM     10  C   UNL     1      -6.125  35.072  22.700  1.00  0.00    -0.003 C 
ATOM     11  C   UNL     1      -5.728  35.473  24.120  1.00  0.00     0.004 C 
ENDBRANCH   9  10
ENDBRANCH   8   9
ENDBRANCH   7   8
ENDBRANCH   1   7
TORSDOF 7
ENDMDL
MODEL 7
REMARK VINA RESULT:    -1.123      1.344      2.029
REMARK INTER + INTRA:          -1.955
REMARK INTER:                  -1.848
REMARK INTRA:                  -0.107
REMARK UNBOUND:                -0.371
REMARK SMILES CCCCCCCCC(=O)[O-]
REMARK SMILES IDX 6 1 7 2 8 3 9 4 10 5 11 6 5 7 4 8 3 9 2 10 1 11
REMARK H PARENT
REMARK Flexibility Score: inf
ROOT
ATOM      1  C   UNL     1      -5.215  34.653  22.447  1.00  0.00     0.000 C 
ENDROOT
BRANCH   1   2
ATOM      2  C   UNL     1      -5.903  34.983  21.112  1.00  0.00     0.006 C 
BRANCH   2   3
ATOM      3  C   UNL     1      -4.904  35.454  20.046  1.00  0.00     0.053 C 
BRANCH   3   4
ATOM      4  C   UNL     1      -5.107  34.743  18.742  1.00  0.00     0.041 C 
ATOM      5  O   UNL     1      -6.066  33.941  18.599  1.00  0.00    -0.550 OA
ATOM      6  O   UNL     1      -4.251  34.989  17.676  1.00  0.00    -0.550 OA
ENDBRANCH   3   4
ENDBRANCH   2   3
ENDBRANCH   1   2
BRANCH   1   7
ATOM      7  C   UNL     1      -6.078  35.026  23.663  1.00  0.00     0.000 C 
BRANCH   7   8
ATOM      8  C   UNL     1      -5.479  36.181  24.483  1.00  0.00    -0.000 C 
BRANCH   8   9
ATOM      9  C   UNL     1      -5.984  37.562  24.027  1.00  0.00    -0.000 C 
BRANCH   9  10
ATOM     10  C   UNL     1      -5.561  37.965  22.604  1.00  0.00    -0.003 C 
ATOM     11  C   UNL     1      -5.409  39.475  22.431  1.00  0.00     0.004 C 
ENDBRANCH   9  10
ENDBRANCH   8   9
ENDBRANCH   7   8
ENDBRANCH   1   7
TORSDOF 7
ENDMDL
MODEL 8
REMARK VINA RESULT:    -0.319      3.262      5.806
REMARK INTER + INTRA:          -0.821
REMARK INTER:                  -1.387
REMARK INTRA:                   0.566
REMARK UNBOUND:                -0.371
REMARK SMILES CCCCCCCCC(=O)[O-]
REMARK SMILES IDX 6 1 7 2 8 3 9 4 10 5 11 6 5 7 4 8 3 9 2 10 1 11
REMARK H PARENT
REMARK Flexibility Score: inf
ROOT
ATOM      1  C   UNL     1      -5.007  35.155  22.558  1.00  0.00     0.000 C 
ENDROOT
BRANCH   1   2
ATOM      2  C   UNL     1      -5.723  34.249  23.575  1.00  0.00     0.006 C 
BRANCH   2   3
ATOM      3  C   UNL     1      -6.125  35.011  24.845  1.00  0.00     0.053 C 
BRANCH   3   4
ATOM      4  C   UNL     1      -5.456  36.349  24.927  1.00  0.00     0.041 C 
ATOM      5  O   UNL     1      -4.571  36.564  25.796  1.00  0.00    -0.550 OA
ATOM      6  O   UNL     1      -5.791  37.349  24.023  1.00  0.00    -0.550 OA
ENDBRANCH   3   4
ENDBRANCH   2   3
ENDBRANCH   1   2
BRANCH   1   7
ATOM      7  C   UNL     1      -5.939  35.625  21.430  1.00  0.00     0.000 C 
BRANCH   7   8
ATOM      8  C   UNL     1      -5.350  36.796  20.624  1.00  0.00    -0.000 C 
BRANCH   8   9
ATOM      9  C   UNL     1      -5.009  36.411  19.174  1.00  0.00    -0.000 C 
BRANCH   9  10
ATOM     10  C   UNL     1      -4.601  34.941  18.977  1.00  0.00    -0.003 C 
ATOM     11  C   UNL     1      -5.712  34.088  18.368  1.00  0.00     0.004 C 
ENDBRANCH   9  10
ENDBRANCH   8   9
ENDBRANCH   7   8
ENDBRANCH   1   7
TORSDOF 7
ENDMDL
