MODEL 1
REMARK VINA RESULT:    -3.380      0.000      0.000
REMARK INTER + INTRA:          -4.334
REMARK INTER:                  -4.170
REMARK INTRA:                  -0.164
REMARK UNBOUND:                -0.164
REMARK SMILES CCCCCC(=O)[O-]
REMARK SMILES IDX 4 1 5 2 6 3 7 4 8 5 3 6 2 7 1 8
REMARK H PARENT
REMARK Flexibility Score: inf
ROOT
ATOM      1  C   UNL     1      10.450 -20.734  30.456  1.00  0.00     0.006 C 
ENDROOT
BRANCH   1   2
ATOM      2  C   UNL     1       9.269 -20.818  29.486  1.00  0.00     0.053 C 
BRANCH   2   3
ATOM      3  C   UNL     1       9.659 -20.302  28.137  1.00  0.00     0.041 C 
ATOM      4  O   UNL     1       9.428 -19.104  27.825  1.00  0.00    -0.550 OA
ATOM      5  O   UNL     1      10.231 -21.158  27.204  1.00  0.00    -0.550 OA
ENDBRANCH   2   3
ENDBRANCH   1   2
BRANCH   1   6
ATOM      6  C   UNL     1      10.393 -19.440  31.282  1.00  0.00     0.000 C 
BRANCH   6   7
ATOM      7  C   UNL     1       8.956 -19.035  31.647  1.00  0.00    -0.003 C 
ATOM      8  C   UNL     1       8.904 -17.911  32.682  1.00  0.00     0.004 C 
ENDBRANCH   6   7
ENDBRANCH   1   6
TORSDOF 4
ENDMDL
MODEL 2
REMARK VINA RESULT:    -3.358      0.844      1.822
REMARK INTER + INTRA:          -4.308
REMARK INTER:                  -4.128
REMARK INTRA:                  -0.180
REMARK UNBOUND:                -0.164
REMARK SMILES CCCCCC(=O)[O-]
REMARK SMILES IDX 4 1 5 2 6 3 7 4 8 5 3 6 2 7 1 8
REMARK H PARENT
REMARK Flexibility Score: inf
ROOT
ATOM      1  C   UNL     1       8.397 -20.099  30.382  1.00  0.00     0.006 C 
ENDROOT
BRANCH   1   2
ATOM      2  C   UNL     1       9.572 -20.827  29.723  1.00  0.00     0.053 C 
BRANCH   2   3
ATOM      3  C   UNL     1       9.759 -20.356  28.315  1.00  0.00     0.041 C 
ATOM      4  O   UNL     1      10.158 -21.155  27.427  1.00  0.00    -0.550 OA
ATOM      5  O   UNL     1       9.541 -19.023  27.993  1.00  0.00    -0.550 OA
ENDBRANCH   2   3
ENDBRANCH   1   2
BRANCH   1   6
ATOM      6  C   UNL     1       8.881 -19.199  31.529  1.00  0.00     0.000 C 
BRANCH   6   7
ATOM      7  C   UNL     1      10.413 -19.138  31.625  1.00  0.00    -0.003 C 
ATOM      8  C   UNL     1      10.980 -17.795  31.163  1.00  0.00     0.004 C 
ENDBRANCH   6   7
ENDBRANCH   1   6
TORSDOF 4
ENDMDL
MODEL 3
REMARK VINA RESULT:    -3.300      0.670      1.653
REMARK INTER + INTRA:          -4.236
REMARK INTER:                  -4.085
REMARK INTRA:                  -0.151
REMARK UNBOUND:                -0.164
REMARK SMILES CCCCCC(=O)[O-]
REMARK SMILES IDX 4 1 5 2 6 3 7 4 8 5 3 6 2 7 1 8
REMARK H PARENT
REMARK Flexibility Score: inf
ROOT
ATOM      1  C   UNL     1       8.926 -20.510  29.976  1.00  0.00     0.006 C 
ENDROOT
BRANCH   1   2
ATOM      2  C   UNL     1       8.806 -21.265  28.650  1.00  0.00     0.053 C 
BRANCH   2   3
ATOM      3  C   UNL     1       9.613 -20.589  27.586  1.00  0.00     0.041 C 
ATOM      4  O   UNL     1      10.354 -21.267  26.826  1.00  0.00    -0.550 OA
ATOM      5  O   UNL     1       9.586 -19.205  27.467  1.00  0.00    -0.550 OA
ENDBRANCH   2   3
ENDBRANCH   1   2
BRANCH   1   6
ATOM      6  C   UNL     1      10.358 -20.589  30.526  1.00  0.00     0.000 C 
BRANCH   6   7
ATOM      7  C   UNL     1      10.778 -19.311  31.268  1.00  0.00    -0.003 C 
ATOM      8  C   UNL     1       9.617 -18.652  32.013  1.00  0.00     0.004 C 
ENDBRANCH   6   7
ENDBRANCH   1   6
TORSDOF 4
ENDMDL
MODEL 4
REMARK VINA RESULT:    -3.206      2.112      3.405
REMARK INTER + INTRA:          -4.120
REMARK INTER:                  -3.882
REMARK INTRA:                  -0.238
REMARK UNBOUND:                -0.164
REMARK SMILES CCCCCC(=O)[O-]
REMARK SMILES IDX 4 1 5 2 6 3 7 4 8 5 3 6 2 7 1 8
REMARK H PARENT
REMARK Flexibility Score: inf
ROOT
ATOM      1  C   UNL     1      10.329 -19.217  31.553  1.00  0.00     0.006 C 
ENDROOT
BRANCH   1   2
ATOM      2  C   UNL     1      11.150 -18.026  31.052  1.00  0.00     0.053 C 
BRANCH   2   3
ATOM      3  C   UNL     1      10.313 -17.138  30.186  1.00  0.00     0.041 C 
ATOM      4  O   UNL     1      10.325 -17.279  28.934  1.00  0.00    -0.550 OA
ATOM      5  O   UNL     1       9.559 -16.120  30.757  1.00  0.00    -0.550 OA
ENDBRANCH   2   3
ENDBRANCH   1   2
BRANCH   1   6
ATOM      6  C   UNL     1      10.421 -20.398  30.576  1.00  0.00     0.000 C 
BRANCH   6   7
ATOM      7  C   UNL     1       9.066 -20.749  29.944  1.00  0.00    -0.003 C 
ATOM      8  C   UNL     1       7.900 -20.003  30.594  1.00  0.00     0.004 C 
ENDBRANCH   6   7
ENDBRANCH   1   6
TORSDOF 4
ENDMDL
MODEL 5
REMARK VINA RESULT:    -3.147      4.444      5.808
REMARK INTER + INTRA:          -4.047
REMARK INTER:                  -3.932
REMARK INTRA:                  -0.114
REMARK UNBOUND:                -0.164
REMARK SMILES CCCCCC(=O)[O-]
REMARK SMILES IDX 4 1 5 2 6 3 7 4 8 5 3 6 2 7 1 8
REMARK H PARENT
REMARK Flexibility Score: inf
ROOT
ATOM      1  C   UNL     1       8.141 -18.002  32.649  1.00  0.00     0.006 C 
ENDROOT
BRANCH   1   2
ATOM      2  C   UNL     1       9.374 -17.513  33.414  1.00  0.00     0.053 C 
BRANCH   2   3
ATOM      3  C   UNL     1       9.002 -17.106  34.805  1.00  0.00     0.041 C 
ATOM      4  O   UNL     1       9.876 -16.644  35.585  1.00  0.00    -0.550 OA
ATOM      5  O   UNL     1       7.701 -17.287  35.258  1.00  0.00    -0.550 OA
ENDBRANCH   2   3
ENDBRANCH   1   2
BRANCH   1   6
ATOM      6  C   UNL     1       8.517 -19.101  31.644  1.00  0.00     0.000 C 
BRANCH   6   7
ATOM      7  C   UNL     1      10.036 -19.231  31.453  1.00  0.00    -0.003 C 
ATOM      8  C   UNL     1      10.420 -20.408  30.556  1.00  0.00     0.004 C 
ENDBRANCH   6   7
ENDBRANCH   1   6
TORSDOF 4
ENDMDL
MODEL 6
REMARK VINA RESULT:    -3.085      3.654      4.639
REMARK INTER + INTRA:          -3.971
REMARK INTER:                  -3.868
REMARK INTRA:                  -0.102
REMARK UNBOUND:                -0.164
REMARK SMILES CCCCCC(=O)[O-]
REMARK SMILES IDX 4 1 5 2 6 3 7 4 8 5 3 6 2 7 1 8
REMARK H PARENT
REMARK Flexibility Score: inf
ROOT
ATOM      1  C   UNL     1      10.114 -18.613  31.848  1.00  0.00     0.006 C 
ENDROOT
BRANCH   1   2
ATOM      2  C   UNL     1      10.741 -17.320  31.320  1.00  0.00     0.053 C 
BRANCH   2   3
ATOM      3  C   UNL     1      10.468 -16.184  32.256  1.00  0.00     0.041 C 
ATOM      4  O   UNL     1      10.844 -15.018  31.964  1.00  0.00    -0.550 OA
ATOM      5  O   UNL     1       9.844 -16.421  33.474  1.00  0.00    -0.550 OA
ENDBRANCH   2   3
ENDBRANCH   1   2
BRANCH   1   6
ATOM      6  C   UNL     1      10.728 -19.841  31.160  1.00  0.00     0.000 C 
BRANCH   6   7
ATOM      7  C   UNL     1       9.746 -20.537  30.206  1.00  0.00    -0.003 C 
ATOM      8  C   UNL     1       8.287 -20.184  30.500  1.00  0.00     0.004 C 
ENDBRANCH   6   7
ENDBRANCH   1   6
TORSDOF 4
ENDMDL
MODEL 7
REMARK VINA RESULT:    -3.034      1.546      2.188
REMARK INTER + INTRA:          -3.908
REMARK INTER:                  -3.862
REMARK INTRA:                  -0.046
REMARK UNBOUND:                -0.164
REMARK SMILES CCCCCC(=O)[O-]
REMARK SMILES IDX 4 1 5 2 6 3 7 4 8 5 3 6 2 7 1 8
REMARK H PARENT
REMARK Flexibility Score: inf
ROOT
ATOM      1  C   UNL     1       9.071 -19.009  31.515  1.00  0.00     0.006 C 
ENDROOT
BRANCH   1   2
ATOM      2  C   UNL     1      10.120 -19.798  30.727  1.00  0.00     0.053 C 
BRANCH   2   3
ATOM      3  C   UNL     1       9.471 -20.589  29.635  1.00  0.00     0.041 C 
ATOM      4  O   UNL     1       8.368 -21.161  29.836  1.00  0.00    -0.550 OA
ATOM      5  O   UNL     1      10.110 -20.737  28.410  1.00  0.00    -0.550 OA
ENDBRANCH   2   3
ENDBRANCH   1   2
BRANCH   1   6
ATOM      6  C   UNL     1       9.730 -18.174  32.623  1.00  0.00     0.000 C 
BRANCH   6   7
ATOM      7  C   UNL     1       8.702 -17.496  33.542  1.00  0.00    -0.003 C 
ATOM      8  C   UNL     1       9.283 -17.127  34.907  1.00  0.00     0.004 C 
ENDBRANCH   6   7
ENDBRANCH   1   6
TORSDOF 4
ENDMDL
MODEL 8
REMARK VINA RESULT:    -3.008      2.564      3.804
REMARK INTER + INTRA:          -3.876
REMARK INTER:                  -3.797
REMARK INTRA:                  -0.079
REMARK UNBOUND:                -0.164
REMARK SMILES CCCCCC(=O)[O-]
REMARK SMILES IDX 4 1 5 2 6 3 7 4 8 5 3 6 2 7 1 8
REMARK H PARENT
REMARK Flexibility Score: inf
ROOT
ATOM      1  C   UNL     1       9.404 -17.438  32.875  1.00  0.00     0.006 C 
ENDROOT
BRANCH   1   2
ATOM      2  C   UNL     1       9.249 -18.697  32.017  1.00  0.00     0.053 C 
BRANCH   2   3
ATOM      3  C   UNL     1      10.532 -19.018  31.318  1.00  0.00     0.041 C 
ATOM      4  O   UNL     1      11.370 -18.108  31.082  1.00  0.00    -0.550 OA
ATOM      5  O   UNL     1      10.780 -20.312  30.880  1.00  0.00    -0.550 OA
ENDBRANCH   2   3
ENDBRANCH   1   2
BRANCH   1   6
ATOM      6  C   UNL     1       8.267 -17.329  33.902  1.00  0.00     0.000 C 
BRANCH   6   7
ATOM      7  C   UNL     1       8.783 -17.195  35.342  1.00  0.00    -0.003 C 
ATOM      8  C   UNL     1       9.944 -16.209  35.465  1.00  0.00     0.004 C 
ENDBRANCH   6   7
ENDBRANCH   1   6
TORSDOF 4
ENDMDL
MODEL 9
REMARK VINA RESULT:    -2.993      2.538      4.012
REMARK INTER + INTRA:          -3.858
REMARK INTER:                  -3.690
REMARK INTRA:                  -0.168
REMARK UNBOUND:                -0.164
REMARK SMILES CCCCCC(=O)[O-]
REMARK SMILES IDX 4 1 5 2 6 3 7 4 8 5 3 6 2 7 1 8
REMARK H PARENT
REMARK Flexibility Score: inf
ROOT
ATOM      1  C   UNL     1      10.082 -20.570  30.462  1.00  0.00     0.006 C 
ENDROOT
BRANCH   1   2
ATOM      2  C   UNL     1      10.601 -19.296  31.134  1.00  0.00     0.053 C 
BRANCH   2   3
ATOM      3  C   UNL     1       9.526 -18.663  31.961  1.00  0.00     0.041 C 
ATOM      4  O   UNL     1       9.811 -17.752  32.782  1.00  0.00    -0.550 OA
ATOM      5  O   UNL     1       8.216 -19.116  31.863  1.00  0.00    -0.550 OA
ENDBRANCH   2   3
ENDBRANCH   1   2
BRANCH   1   6
ATOM      6  C   UNL     1       9.856 -20.347  28.959  1.00  0.00     0.000 C 
BRANCH   6   7
ATOM      7  C   UNL     1       8.780 -21.276  28.379  1.00  0.00    -0.003 C 
ATOM      8  C   UNL     1       7.629 -21.528  29.352  1.00  0.00     0.004 C 
ENDBRANCH   6   7
ENDBRANCH   1   6
TORSDOF 4
ENDMDL
