MODEL 1
REMARK VINA RESULT:    -1.310      0.000      0.000
REMARK INTER + INTRA:          -0.239
REMARK INTER:                  -1.923
REMARK INTRA:                   1.683
REMARK UNBOUND:                 1.683
REMARK SMILES C=C1CC=CC(C)(C)CC=C(C)CCC1
REMARK SMILES IDX 2 1 1 2 15 3 14 4 13 5 11 6 12 7 10 8 3 10 4 11 5 12 6 13
REMARK SMILES IDX 7 14 8 15 9 16
REMARK H PARENT
REMARK Flexibility Score: 60.00
ROOT
ATOM      1  C   UNL     1       4.698   5.563  12.734  1.00  0.00    -0.074 C 
ATOM      2  C   UNL     1       3.720   4.880  12.115  1.00  0.00     0.008 C 
ENDROOT
BRANCH   1   3
ATOM      3  C   UNL     1       4.320   6.830  13.500  1.00  0.00     0.031 C 
BRANCH   3   4
ATOM      4  C   UNL     1       3.379   7.814  12.780  1.00  0.00     0.009 C 
BRANCH   4   5
ATOM      5  C   UNL     1       3.903   8.229  11.393  1.00  0.00     0.030 C 
BRANCH   5   6
ATOM      6  C   UNL     1       4.953   9.328  11.414  1.00  0.00    -0.077 C 
ATOM      7  C   UNL     1       4.515  10.730  11.063  1.00  0.00     0.039 C 
ATOM      8  C   UNL     1       6.236   9.170  11.835  1.00  0.00    -0.027 CG0
ATOM      9  G   UNL     1       6.991   7.876  12.082  1.00  0.00     0.000 G0
ENDBRANCH   5   6
ENDBRANCH   4   5
ENDBRANCH   3   4
ENDBRANCH   1   3
BRANCH   1  10
ATOM     10  C   UNL     1       6.133   5.092  12.560  1.00  0.00     0.057 C 
BRANCH  10  11
ATOM     11  C   UNL     1       6.916   5.351  13.826  1.00  0.00    -0.026 C 
ATOM     12  C   UNL     1       7.510   6.501  14.224  1.00  0.00    -0.024 C 
BRANCH  12  13
ATOM     13  C   UNL     1       7.803   7.766  13.411  1.00  0.00    -0.014 C 
ATOM     14  C   UNL     1       9.319   7.834  13.111  1.00  0.00     0.016 C 
ATOM     15  C   UNL     1       7.458   8.990  14.294  1.00  0.00     0.016 C 
BRANCH  13  16
ATOM     16  C   UNL     1       7.008   7.885  12.075  1.00  0.00     0.038 CG0
ATOM     17  G   UNL     1       6.252   9.179  11.828  1.00  0.00     0.000 G0
ENDBRANCH  13  16
ENDBRANCH  12  13
ENDBRANCH  10  11
ENDBRANCH   1  10
TORSDOF 0
ENDMDL
MODEL 2
REMARK VINA RESULT:    -0.654      1.096      3.668
REMARK INTER + INTRA:           0.724
REMARK INTER:                  -1.322
REMARK INTRA:                   2.046
REMARK UNBOUND:                 1.683
REMARK SMILES C=C1CC=CC(C)(C)CC=C(C)CCC1
REMARK SMILES IDX 2 1 1 2 15 3 14 4 13 5 11 6 12 7 10 8 3 10 4 11 5 12 6 13
REMARK SMILES IDX 7 14 8 15 9 16
REMARK H PARENT
REMARK Flexibility Score: 60.00
ROOT
ATOM      1  C   UNL     1       6.120   4.990  13.409  1.00  0.00    -0.074 C 
ATOM      2  C   UNL     1       6.680   4.939  14.631  1.00  0.00     0.008 C 
ENDROOT
BRANCH   1   3
ATOM      3  C   UNL     1       7.042   4.942  12.192  1.00  0.00     0.031 C 
BRANCH   3   4
ATOM      4  C   UNL     1       7.746   6.257  11.810  1.00  0.00     0.009 C 
BRANCH   4   5
ATOM      5  C   UNL     1       8.521   6.879  12.986  1.00  0.00     0.030 C 
BRANCH   5   6
ATOM      6  C   UNL     1       7.842   8.075  13.633  1.00  0.00    -0.077 C 
ATOM      7  C   UNL     1       8.307   8.492  15.009  1.00  0.00     0.039 C 
ATOM      8  C   UNL     1       6.924   8.872  13.025  1.00  0.00    -0.027 CG0
ATOM      9  G   UNL     1       6.158   8.611  11.739  1.00  0.00     0.000 G0
ENDBRANCH   5   6
ENDBRANCH   4   5
ENDBRANCH   3   4
ENDBRANCH   1   3
BRANCH   1  10
ATOM     10  C   UNL     1       4.616   5.187  13.310  1.00  0.00     0.057 C 
BRANCH  10  11
ATOM     11  C   UNL     1       4.240   5.559  11.894  1.00  0.00    -0.026 C 
ATOM     12  C   UNL     1       4.371   6.760  11.280  1.00  0.00    -0.024 C 
BRANCH  12  13
ATOM     13  C   UNL     1       4.664   8.131  11.897  1.00  0.00    -0.014 C 
ATOM     14  C   UNL     1       4.281   8.103  13.395  1.00  0.00     0.016 C 
ATOM     15  C   UNL     1       3.744   9.169  11.210  1.00  0.00     0.016 C 
BRANCH  13  16
ATOM     16  C   UNL     1       6.140   8.612  11.752  1.00  0.00     0.038 CG0
ATOM     17  G   UNL     1       6.915   8.877  13.031  1.00  0.00     0.000 G0
ENDBRANCH  13  16
ENDBRANCH  12  13
ENDBRANCH  10  11
ENDBRANCH   1  10
TORSDOF 0
ENDMDL
MODEL 3
REMARK VINA RESULT:    -0.171      1.370      3.675
REMARK INTER + INTRA:           1.432
REMARK INTER:                   0.163
REMARK INTRA:                   1.269
REMARK UNBOUND:                 1.683
REMARK SMILES C=C1CC=CC(C)(C)CC=C(C)CCC1
REMARK SMILES IDX 2 1 1 2 15 3 14 4 13 5 11 6 12 7 10 8 3 10 4 11 5 12 6 13
REMARK SMILES IDX 7 14 8 15 9 16
REMARK H PARENT
REMARK Flexibility Score: 60.00
ROOT
ATOM      1  C   UNL     1       8.479   7.884  13.516  1.00  0.00    -0.074 C 
ATOM      2  C   UNL     1       9.763   8.240  13.697  1.00  0.00     0.008 C 
ENDROOT
BRANCH   1   3
ATOM      3  C   UNL     1       7.428   8.990  13.439  1.00  0.00     0.031 C 
BRANCH   3   4
ATOM      4  C   UNL     1       6.627   9.088  12.127  1.00  0.00     0.009 C 
BRANCH   4   5
ATOM      5  C   UNL     1       5.341   9.920  12.277  1.00  0.00     0.030 C 
BRANCH   5   6
ATOM      6  C   UNL     1       4.069   9.206  11.848  1.00  0.00    -0.077 C 
ATOM      7  C   UNL     1       3.153   9.916  10.879  1.00  0.00     0.039 C 
ATOM      8  C   UNL     1       3.744   7.928  12.180  1.00  0.00    -0.027 CG0
ATOM      9  G   UNL     1       4.370   7.047  13.247  1.00  0.00     0.000 G0
ENDBRANCH   5   6
ENDBRANCH   4   5
ENDBRANCH   3   4
ENDBRANCH   1   3
BRANCH   1  10
ATOM     10  C   UNL     1       8.135   6.403  13.493  1.00  0.00     0.057 C 
BRANCH  10  11
ATOM     11  C   UNL     1       7.529   6.038  12.157  1.00  0.00    -0.026 C 
ATOM     12  C   UNL     1       6.222   5.859  11.850  1.00  0.00    -0.024 C 
BRANCH  12  13
ATOM     13  C   UNL     1       5.024   5.699  12.791  1.00  0.00    -0.014 C 
ATOM     14  C   UNL     1       5.458   4.875  14.025  1.00  0.00     0.016 C 
ATOM     15  C   UNL     1       3.943   4.875  12.049  1.00  0.00     0.016 C 
BRANCH  13  16
ATOM     16  C   UNL     1       4.381   7.037  13.266  1.00  0.00     0.038 CG0
ATOM     17  G   UNL     1       3.777   7.936  12.200  1.00  0.00     0.000 G0
ENDBRANCH  13  16
ENDBRANCH  12  13
ENDBRANCH  10  11
ENDBRANCH   1  10
TORSDOF 0
ENDMDL
MODEL 4
REMARK VINA RESULT:     0.048      1.318      4.383
REMARK INTER + INTRA:           1.754
REMARK INTER:                  -0.426
REMARK INTRA:                   2.180
REMARK UNBOUND:                 1.683
REMARK SMILES C=C1CC=CC(C)(C)CC=C(C)CCC1
REMARK SMILES IDX 2 1 1 2 15 3 14 4 13 5 11 6 12 7 10 8 3 10 4 11 5 12 6 13
REMARK SMILES IDX 7 14 8 15 9 16
REMARK H PARENT
REMARK Flexibility Score: 60.00
ROOT
ATOM      1  C   UNL     1       4.241   9.615  11.458  1.00  0.00    -0.074 C 
ATOM      2  C   UNL     1       4.136  10.952  11.366  1.00  0.00     0.008 C 
ENDROOT
BRANCH   1   3
ATOM      3  C   UNL     1       5.530   8.957  10.968  1.00  0.00     0.031 C 
BRANCH   3   4
ATOM      4  C   UNL     1       6.776   9.141  11.854  1.00  0.00     0.009 C 
BRANCH   4   5
ATOM      5  C   UNL     1       7.621   7.859  11.964  1.00  0.00     0.030 C 
BRANCH   5   6
ATOM      6  C   UNL     1       7.702   7.270  13.363  1.00  0.00    -0.077 C 
ATOM      7  C   UNL     1       8.694   7.875  14.328  1.00  0.00     0.039 C 
ATOM      8  C   UNL     1       6.870   6.313  13.854  1.00  0.00    -0.027 CG0
ATOM      9  G   UNL     1       5.910   5.420  13.087  1.00  0.00     0.000 G0
ENDBRANCH   5   6
ENDBRANCH   4   5
ENDBRANCH   3   4
ENDBRANCH   1   3
BRANCH   1  10
ATOM     10  C   UNL     1       3.040   8.827  11.954  1.00  0.00     0.057 C 
BRANCH  10  11
ATOM     11  C   UNL     1       3.326   8.265  13.328  1.00  0.00    -0.026 C 
ATOM     12  C   UNL     1       4.032   7.154  13.648  1.00  0.00    -0.024 C 
BRANCH  12  13
ATOM     13  C   UNL     1       4.498   6.012  12.739  1.00  0.00    -0.014 C 
ATOM     14  C   UNL     1       4.510   6.507  11.274  1.00  0.00     0.016 C 
ATOM     15  C   UNL     1       3.451   4.875  12.828  1.00  0.00     0.016 C 
BRANCH  13  16
ATOM     16  C   UNL     1       5.896   5.421  13.094  1.00  0.00     0.038 CG0
ATOM     17  G   UNL     1       6.861   6.322  13.846  1.00  0.00     0.000 G0
ENDBRANCH  13  16
ENDBRANCH  12  13
ENDBRANCH  10  11
ENDBRANCH   1  10
TORSDOF 0
ENDMDL
MODEL 5
REMARK VINA RESULT:     0.099      3.329      5.881
REMARK INTER + INTRA:           1.828
REMARK INTER:                   1.178
REMARK INTRA:                   0.650
REMARK UNBOUND:                 1.683
REMARK SMILES C=C1CC=CC(C)(C)CC=C(C)CCC1
REMARK SMILES IDX 2 1 1 2 15 3 14 4 13 5 11 6 12 7 10 8 3 10 4 11 5 12 6 13
REMARK SMILES IDX 7 14 8 15 9 16
REMARK H PARENT
REMARK Flexibility Score: 60.00
ROOT
ATOM      1  C   UNL     1       3.985   8.440  12.392  1.00  0.00    -0.074 C 
ATOM      2  C   UNL     1       4.327   7.171  12.674  1.00  0.00     0.008 C 
ENDROOT
BRANCH   1   3
ATOM      3  C   UNL     1       4.772   9.175  11.308  1.00  0.00     0.031 C 
BRANCH   3   4
ATOM      4  C   UNL     1       5.041  10.672  11.549  1.00  0.00     0.009 C 
BRANCH   4   5
ATOM      5  C   UNL     1       3.996  11.580  10.875  1.00  0.00     0.030 C 
BRANCH   5   6
ATOM      6  C   UNL     1       3.774  12.915  11.567  1.00  0.00    -0.077 C 
ATOM      7  C   UNL     1       4.461  14.131  10.990  1.00  0.00     0.039 C 
ATOM      8  C   UNL     1       2.913  13.124  12.598  1.00  0.00    -0.027 CG0
ATOM      9  G   UNL     1       2.229  12.089  13.475  1.00  0.00     0.000 G0
ENDBRANCH   5   6
ENDBRANCH   4   5
ENDBRANCH   3   4
ENDBRANCH   1   3
BRANCH   1  10
ATOM     10  C   UNL     1       2.902   9.100  13.229  1.00  0.00     0.057 C 
BRANCH  10  11
ATOM     11  C   UNL     1       1.620   9.189  12.433  1.00  0.00    -0.026 C 
ATOM     12  C   UNL     1       0.820  10.267  12.251  1.00  0.00    -0.024 C 
BRANCH  12  13
ATOM     13  C   UNL     1       0.815  11.602  13.002  1.00  0.00    -0.014 C 
ATOM     14  C   UNL     1      -0.116  11.487  14.231  1.00  0.00     0.016 C 
ATOM     15  C   UNL     1       0.204  12.673  12.066  1.00  0.00     0.016 C 
BRANCH  13  16
ATOM     16  C   UNL     1       2.219  12.098  13.464  1.00  0.00     0.038 CG0
ATOM     17  G   UNL     1       2.900  13.153  12.610  1.00  0.00     0.000 G0
ENDBRANCH  13  16
ENDBRANCH  12  13
ENDBRANCH  10  11
ENDBRANCH   1  10
TORSDOF 0
ENDMDL
MODEL 6
REMARK VINA RESULT:     0.231      1.284      3.498
REMARK INTER + INTRA:           2.022
REMARK INTER:                   0.822
REMARK INTRA:                   1.200
REMARK UNBOUND:                 1.683
REMARK SMILES C=C1CC=CC(C)(C)CC=C(C)CCC1
REMARK SMILES IDX 2 1 1 2 15 3 14 4 13 5 11 6 12 7 10 8 3 10 4 11 5 12 6 13
REMARK SMILES IDX 7 14 8 15 9 16
REMARK H PARENT
REMARK Flexibility Score: 60.00
ROOT
ATOM      1  C   UNL     1       3.929   9.599  11.724  1.00  0.00    -0.074 C 
ATOM      2  C   UNL     1       3.723  10.650  10.912  1.00  0.00     0.008 C 
ENDROOT
BRANCH   1   3
ATOM      3  C   UNL     1       2.857   9.265  12.760  1.00  0.00     0.031 C 
BRANCH   3   4
ATOM      4  C   UNL     1       2.689   7.778  13.122  1.00  0.00     0.009 C 
BRANCH   4   5
ATOM      5  C   UNL     1       3.918   7.202  13.850  1.00  0.00     0.030 C 
BRANCH   5   6
ATOM      6  C   UNL     1       4.575   6.022  13.152  1.00  0.00    -0.077 C 
ATOM      7  C   UNL     1       3.682   5.050  12.417  1.00  0.00     0.039 C 
ATOM      8  C   UNL     1       5.916   5.833  13.039  1.00  0.00    -0.027 CG0
ATOM      9  G   UNL     1       7.030   6.535  13.797  1.00  0.00     0.000 G0
ENDBRANCH   5   6
ENDBRANCH   4   5
ENDBRANCH   3   4
ENDBRANCH   1   3
BRANCH   1  10
ATOM     10  C   UNL     1       5.255   8.861  11.629  1.00  0.00     0.057 C 
BRANCH  10  11
ATOM     11  C   UNL     1       6.272   9.514  12.537  1.00  0.00    -0.026 C 
ATOM     12  C   UNL     1       7.438   9.000  12.997  1.00  0.00    -0.024 C 
BRANCH  12  13
ATOM     13  C   UNL     1       7.927   7.548  12.972  1.00  0.00    -0.014 C 
ATOM     14  C   UNL     1       9.380   7.496  13.499  1.00  0.00     0.016 C 
ATOM     15  C   UNL     1       7.959   7.082  11.496  1.00  0.00     0.016 C 
BRANCH  13  16
ATOM     16  C   UNL     1       7.050   6.548  13.784  1.00  0.00     0.038 CG0
ATOM     17  G   UNL     1       5.936   5.834  13.037  1.00  0.00     0.000 G0
ENDBRANCH  13  16
ENDBRANCH  12  13
ENDBRANCH  10  11
ENDBRANCH   1  10
TORSDOF 0
ENDMDL
MODEL 7
REMARK VINA RESULT:     0.984      5.692      7.355
REMARK INTER + INTRA:           3.127
REMARK INTER:                   1.228
REMARK INTRA:                   1.899
REMARK UNBOUND:                 1.683
REMARK SMILES C=C1CC=CC(C)(C)CC=C(C)CCC1
REMARK SMILES IDX 2 1 1 2 15 3 14 4 13 5 11 6 12 7 10 8 3 10 4 11 5 12 6 13
REMARK SMILES IDX 7 14 8 15 9 16
REMARK H PARENT
REMARK Flexibility Score: 60.00
ROOT
ATOM      1  C   UNL     1       2.766  13.164  15.476  1.00  0.00    -0.074 C 
ATOM      2  C   UNL     1       3.028  13.584  16.726  1.00  0.00     0.008 C 
ENDROOT
BRANCH   1   3
ATOM      3  C   UNL     1       3.436  13.895  14.314  1.00  0.00     0.031 C 
BRANCH   3   4
ATOM      4  C   UNL     1       4.473  13.096  13.503  1.00  0.00     0.009 C 
BRANCH   4   5
ATOM      5  C   UNL     1       4.169  13.087  11.994  1.00  0.00     0.030 C 
BRANCH   5   6
ATOM      6  C   UNL     1       3.043  14.015  11.567  1.00  0.00    -0.077 C 
ATOM      7  C   UNL     1       3.279  15.504  11.671  1.00  0.00     0.039 C 
ATOM      8  C   UNL     1       1.879  13.614  10.991  1.00  0.00    -0.027 CG0
ATOM      9  G   UNL     1       1.305  12.210  10.913  1.00  0.00     0.000 G0
ENDBRANCH   5   6
ENDBRANCH   4   5
ENDBRANCH   3   4
ENDBRANCH   1   3
BRANCH   1  10
ATOM     10  C   UNL     1       1.751  12.049  15.285  1.00  0.00     0.057 C 
BRANCH  10  11
ATOM     11  C   UNL     1       2.297  11.014  14.329  1.00  0.00    -0.026 C 
ATOM     12  C   UNL     1       2.013  10.854  13.014  1.00  0.00    -0.024 C 
BRANCH  12  13
ATOM     13  C   UNL     1       0.877  11.471  12.192  1.00  0.00    -0.014 C 
ATOM     14  C   UNL     1       0.099  12.473  13.077  1.00  0.00     0.016 C 
ATOM     15  C   UNL     1      -0.107  10.337  11.814  1.00  0.00     0.016 C 
BRANCH  13  16
ATOM     16  C   UNL     1       1.329  12.184  10.882  1.00  0.00     0.038 CG0
ATOM     17  G   UNL     1       1.874  13.596  11.011  1.00  0.00     0.000 G0
ENDBRANCH  13  16
ENDBRANCH  12  13
ENDBRANCH  10  11
ENDBRANCH   1  10
TORSDOF 0
ENDMDL
MODEL 8
REMARK VINA RESULT:     1.007      4.895      7.619
REMARK INTER + INTRA:           3.161
REMARK INTER:                   2.298
REMARK INTRA:                   0.863
REMARK UNBOUND:                 1.683
REMARK SMILES C=C1CC=CC(C)(C)CC=C(C)CCC1
REMARK SMILES IDX 2 1 1 2 15 3 14 4 13 5 11 6 12 7 10 8 3 10 4 11 5 12 6 13
REMARK SMILES IDX 7 14 8 15 9 16
REMARK H PARENT
REMARK Flexibility Score: 60.00
ROOT
ATOM      1  C   UNL     1       3.591  15.299  11.647  1.00  0.00    -0.074 C 
ATOM      2  C   UNL     1       3.814  16.411  10.926  1.00  0.00     0.008 C 
ENDROOT
BRANCH   1   3
ATOM      3  C   UNL     1       4.144  15.239  13.070  1.00  0.00     0.031 C 
BRANCH   3   4
ATOM      4  C   UNL     1       3.179  14.744  14.163  1.00  0.00     0.009 C 
BRANCH   4   5
ATOM      5  C   UNL     1       3.544  13.343  14.688  1.00  0.00     0.030 C 
BRANCH   5   6
ATOM      6  C   UNL     1       2.353  12.467  15.041  1.00  0.00    -0.077 C 
ATOM      7  C   UNL     1       2.124  12.142  16.498  1.00  0.00     0.039 C 
ATOM      8  C   UNL     1       1.409  12.044  14.159  1.00  0.00    -0.027 CG0
ATOM      9  G   UNL     1       1.462  12.072  12.641  1.00  0.00     0.000 G0
ENDBRANCH   5   6
ENDBRANCH   4   5
ENDBRANCH   3   4
ENDBRANCH   1   3
BRANCH   1  10
ATOM     10  C   UNL     1       2.886  14.131  10.977  1.00  0.00     0.057 C 
BRANCH  10  11
ATOM     11  C   UNL     1       3.826  12.951  10.881  1.00  0.00    -0.026 C 
ATOM     12  C   UNL     1       3.569  11.651  11.160  1.00  0.00    -0.024 C 
BRANCH  12  13
ATOM     13  C   UNL     1       2.377  11.041  11.904  1.00  0.00    -0.014 C 
ATOM     14  C   UNL     1       2.897  10.015  12.937  1.00  0.00     0.016 C 
ATOM     15  C   UNL     1       1.522  10.260  10.875  1.00  0.00     0.016 C 
BRANCH  13  16
ATOM     16  C   UNL     1       1.456  12.074  12.622  1.00  0.00     0.038 CG0
ATOM     17  G   UNL     1       1.443  12.056  14.141  1.00  0.00     0.000 G0
ENDBRANCH  13  16
ENDBRANCH  12  13
ENDBRANCH  10  11
ENDBRANCH   1  10
TORSDOF 0
ENDMDL
MODEL 9
REMARK VINA RESULT:     1.331      2.391      4.794
REMARK INTER + INTRA:           3.637
REMARK INTER:                   1.976
REMARK INTRA:                   1.661
REMARK UNBOUND:                 1.683
REMARK SMILES C=C1CC=CC(C)(C)CC=C(C)CCC1
REMARK SMILES IDX 2 1 1 2 15 3 14 4 13 5 11 6 12 7 10 8 3 10 4 11 5 12 6 13
REMARK SMILES IDX 7 14 8 15 9 16
REMARK H PARENT
REMARK Flexibility Score: 60.00
ROOT
ATOM      1  C   UNL     1       3.422  11.593  11.058  1.00  0.00    -0.074 C 
ATOM      2  C   UNL     1       4.491  12.396  10.924  1.00  0.00     0.008 C 
ENDROOT
BRANCH   1   3
ATOM      3  C   UNL     1       2.092  12.225  11.466  1.00  0.00     0.031 C 
BRANCH   3   4
ATOM      4  C   UNL     1       1.878  12.464  12.972  1.00  0.00     0.009 C 
BRANCH   4   5
ATOM      5  C   UNL     1       2.437  11.323  13.841  1.00  0.00     0.030 C 
BRANCH   5   6
ATOM      6  C   UNL     1       1.874   9.947  13.522  1.00  0.00    -0.077 C 
ATOM      7  C   UNL     1       0.402   9.844  13.201  1.00  0.00     0.039 C 
ATOM      8  C   UNL     1       2.615   8.815  13.389  1.00  0.00    -0.027 CG0
ATOM      9  G   UNL     1       4.057   8.582  13.804  1.00  0.00     0.000 G0
ENDBRANCH   5   6
ENDBRANCH   4   5
ENDBRANCH   3   4
ENDBRANCH   1   3
BRANCH   1  10
ATOM     10  C   UNL     1       3.616  10.095  10.888  1.00  0.00     0.057 C 
BRANCH  10  11
ATOM     11  C   UNL     1       5.080   9.748  11.029  1.00  0.00    -0.026 C 
ATOM     12  C   UNL     1       5.637   8.732  11.730  1.00  0.00    -0.024 C 
BRANCH  12  13
ATOM     13  C   UNL     1       4.998   7.827  12.789  1.00  0.00    -0.014 C 
ATOM     14  C   UNL     1       6.115   7.096  13.569  1.00  0.00     0.016 C 
ATOM     15  C   UNL     1       4.171   6.744  12.053  1.00  0.00     0.016 C 
BRANCH  13  16
ATOM     16  C   UNL     1       4.061   8.559  13.796  1.00  0.00     0.038 CG0
ATOM     17  G   UNL     1       2.627   8.806  13.359  1.00  0.00     0.000 G0
ENDBRANCH  13  16
ENDBRANCH  12  13
ENDBRANCH  10  11
ENDBRANCH   1  10
TORSDOF 0
ENDMDL
