MODEL 1
REMARK VINA RESULT:    -3.448      0.000      0.000
REMARK INTER + INTRA:          -4.454
REMARK INTER:                  -4.254
REMARK INTRA:                  -0.200
REMARK UNBOUND:                -0.200
REMARK SMILES C=CC[C@H](C)C(=O)CC
REMARK SMILES IDX 4 1 5 2 6 3 7 4 8 5 9 6 3 7 2 8 1 9
REMARK H PARENT
REMARK Flexibility Score: inf
ROOT
ATOM      1  C   UNL     1     -14.201   1.799 -12.106  1.00  0.00     0.057 C 
ATOM      2  C   UNL     1     -14.748   3.229 -12.186  1.00  0.00     0.016 C 
ENDROOT
BRANCH   1   3
ATOM      3  C   UNL     1     -13.248   1.528 -13.254  1.00  0.00     0.135 C 
ATOM      4  O   UNL     1     -13.682   1.522 -14.396  1.00  0.00    -0.299 OA
BRANCH   3   5
ATOM      5  C   UNL     1     -11.783   1.238 -13.031  1.00  0.00     0.072 C 
ATOM      6  C   UNL     1     -10.985   2.532 -12.902  1.00  0.00     0.012 C 
ENDBRANCH   3   5
ENDBRANCH   1   3
BRANCH   1   7
ATOM      7  C   UNL     1     -15.351   0.772 -12.052  1.00  0.00     0.038 C 
BRANCH   7   8
ATOM      8  C   UNL     1     -14.844  -0.648 -12.068  1.00  0.00    -0.034 C 
ATOM      9  C   UNL     1     -14.000  -1.083 -11.130  1.00  0.00     0.004 C 
ENDBRANCH   7   8
ENDBRANCH   1   7
TORSDOF 4
ENDMDL
MODEL 2
REMARK VINA RESULT:    -3.447      2.027      3.281
REMARK INTER + INTRA:          -4.453
REMARK INTER:                  -4.252
REMARK INTRA:                  -0.201
REMARK UNBOUND:                -0.200
REMARK SMILES C=CC[C@H](C)C(=O)CC
REMARK SMILES IDX 4 1 5 2 6 3 7 4 8 5 9 6 3 7 2 8 1 9
REMARK H PARENT
REMARK Flexibility Score: inf
ROOT
ATOM      1  C   UNL     1     -13.593  -0.450 -11.991  1.00  0.00     0.057 C 
ATOM      2  C   UNL     1     -13.595  -1.039 -13.407  1.00  0.00     0.016 C 
ENDROOT
BRANCH   1   3
ATOM      3  C   UNL     1     -14.410   0.827 -11.945  1.00  0.00     0.135 C 
ATOM      4  O   UNL     1     -15.627   0.750 -11.858  1.00  0.00    -0.299 OA
BRANCH   3   5
ATOM      5  C   UNL     1     -13.772   2.193 -12.028  1.00  0.00     0.072 C 
ATOM      6  C   UNL     1     -14.827   3.275 -12.241  1.00  0.00     0.012 C 
ENDBRANCH   3   5
ENDBRANCH   1   3
BRANCH   1   7
ATOM      7  C   UNL     1     -12.151  -0.234 -11.486  1.00  0.00     0.038 C 
BRANCH   7   8
ATOM      8  C   UNL     1     -11.842  -1.080 -10.278  1.00  0.00    -0.034 C 
ATOM      9  C   UNL     1     -11.546  -0.515  -9.105  1.00  0.00     0.004 C 
ENDBRANCH   7   8
ENDBRANCH   1   7
TORSDOF 4
ENDMDL
MODEL 3
REMARK VINA RESULT:    -3.335     17.063     18.493
REMARK INTER + INTRA:          -4.315
REMARK INTER:                  -4.008
REMARK INTRA:                  -0.307
REMARK UNBOUND:                -0.200
REMARK SMILES C=CC[C@H](C)C(=O)CC
REMARK SMILES IDX 4 1 5 2 6 3 7 4 8 5 9 6 3 7 2 8 1 9
REMARK H PARENT
REMARK Flexibility Score: inf
ROOT
ATOM      1  C   UNL     1     -12.850  16.229 -23.406  1.00  0.00     0.057 C 
ATOM      2  C   UNL     1     -13.364  16.758 -24.751  1.00  0.00     0.016 C 
ENDROOT
BRANCH   1   3
ATOM      3  C   UNL     1     -13.242  17.166 -22.280  1.00  0.00     0.135 C 
ATOM      4  O   UNL     1     -14.255  17.842 -22.397  1.00  0.00    -0.299 OA
BRANCH   3   5
ATOM      5  C   UNL     1     -12.410  17.313 -21.029  1.00  0.00     0.072 C 
ATOM      6  C   UNL     1     -12.756  18.604 -20.292  1.00  0.00     0.012 C 
ENDBRANCH   3   5
ENDBRANCH   1   3
BRANCH   1   7
ATOM      7  C   UNL     1     -11.327  15.988 -23.455  1.00  0.00     0.038 C 
BRANCH   7   8
ATOM      8  C   UNL     1     -10.972  14.551 -23.169  1.00  0.00    -0.034 C 
ATOM      9  C   UNL     1     -11.836  13.743 -22.549  1.00  0.00     0.004 C 
ENDBRANCH   7   8
ENDBRANCH   1   7
TORSDOF 4
ENDMDL
MODEL 4
REMARK VINA RESULT:    -3.268     16.205     17.759
REMARK INTER + INTRA:          -4.233
REMARK INTER:                  -3.937
REMARK INTRA:                  -0.295
REMARK UNBOUND:                -0.200
REMARK SMILES C=CC[C@H](C)C(=O)CC
REMARK SMILES IDX 4 1 5 2 6 3 7 4 8 5 9 6 3 7 2 8 1 9
REMARK H PARENT
REMARK Flexibility Score: inf
ROOT
ATOM      1  C   UNL     1     -11.859  15.907 -22.854  1.00  0.00     0.057 C 
ATOM      2  C   UNL     1     -10.350  16.072 -23.073  1.00  0.00     0.016 C 
ENDROOT
BRANCH   1   3
ATOM      3  C   UNL     1     -12.199  14.460 -22.551  1.00  0.00     0.135 C 
ATOM      4  O   UNL     1     -11.746  13.582 -23.270  1.00  0.00    -0.299 OA
BRANCH   3   5
ATOM      5  C   UNL     1     -13.100  14.070 -21.405  1.00  0.00     0.072 C 
ATOM      6  C   UNL     1     -12.812  12.643 -20.946  1.00  0.00     0.012 C 
ENDBRANCH   3   5
ENDBRANCH   1   3
BRANCH   1   7
ATOM      7  C   UNL     1     -12.653  16.448 -24.062  1.00  0.00     0.038 C 
BRANCH   7   8
ATOM      8  C   UNL     1     -13.999  16.992 -23.658  1.00  0.00    -0.034 C 
ATOM      9  C   UNL     1     -14.144  17.693 -22.531  1.00  0.00     0.004 C 
ENDBRANCH   7   8
ENDBRANCH   1   7
TORSDOF 4
ENDMDL
MODEL 5
REMARK VINA RESULT:    -3.262      1.834      3.637
REMARK INTER + INTRA:          -4.225
REMARK INTER:                  -3.963
REMARK INTRA:                  -0.262
REMARK UNBOUND:                -0.200
REMARK SMILES C=CC[C@H](C)C(=O)CC
REMARK SMILES IDX 4 1 5 2 6 3 7 4 8 5 9 6 3 7 2 8 1 9
REMARK H PARENT
REMARK Flexibility Score: inf
ROOT
ATOM      1  C   UNL     1     -14.472   1.992 -12.999  1.00  0.00     0.057 C 
ATOM      2  C   UNL     1     -14.818   3.179 -12.091  1.00  0.00     0.016 C 
ENDROOT
BRANCH   1   3
ATOM      3  C   UNL     1     -14.674   0.681 -12.263  1.00  0.00     0.135 C 
ATOM      4  O   UNL     1     -15.708   0.509 -11.633  1.00  0.00    -0.299 OA
BRANCH   3   5
ATOM      5  C   UNL     1     -13.630  -0.409 -12.260  1.00  0.00     0.072 C 
ATOM      6  C   UNL     1     -12.914  -0.474 -10.914  1.00  0.00     0.012 C 
ENDBRANCH   3   5
ENDBRANCH   1   3
BRANCH   1   7
ATOM      7  C   UNL     1     -13.040   2.127 -13.559  1.00  0.00     0.038 C 
BRANCH   7   8
ATOM      8  C   UNL     1     -12.583   3.562 -13.602  1.00  0.00    -0.034 C 
ATOM      9  C   UNL     1     -12.420   4.194 -14.768  1.00  0.00     0.004 C 
ENDBRANCH   7   8
ENDBRANCH   1   7
TORSDOF 4
ENDMDL
MODEL 6
REMARK VINA RESULT:    -3.257     15.668     17.197
REMARK INTER + INTRA:          -4.219
REMARK INTER:                  -3.982
REMARK INTRA:                  -0.237
REMARK UNBOUND:                -0.200
REMARK SMILES C=CC[C@H](C)C(=O)CC
REMARK SMILES IDX 4 1 5 2 6 3 7 4 8 5 9 6 3 7 2 8 1 9
REMARK H PARENT
REMARK Flexibility Score: inf
ROOT
ATOM      1  C   UNL     1     -11.184  14.296 -22.556  1.00  0.00     0.057 C 
ATOM      2  C   UNL     1     -10.025  14.722 -23.466  1.00  0.00     0.016 C 
ENDROOT
BRANCH   1   3
ATOM      3  C   UNL     1     -11.530  12.837 -22.780  1.00  0.00     0.135 C 
ATOM      4  O   UNL     1     -12.407  12.324 -22.101  1.00  0.00    -0.299 OA
BRANCH   3   5
ATOM      5  C   UNL     1     -10.807  11.987 -23.797  1.00  0.00     0.072 C 
ATOM      6  C   UNL     1     -11.797  11.211 -24.662  1.00  0.00     0.012 C 
ENDBRANCH   3   5
ENDBRANCH   1   3
BRANCH   1   7
ATOM      7  C   UNL     1     -12.405  15.218 -22.753  1.00  0.00     0.038 C 
BRANCH   7   8
ATOM      8  C   UNL     1     -12.214  16.173 -23.903  1.00  0.00    -0.034 C 
ATOM      9  C   UNL     1     -13.259  16.782 -24.469  1.00  0.00     0.004 C 
ENDBRANCH   7   8
ENDBRANCH   1   7
TORSDOF 4
ENDMDL
MODEL 7
REMARK VINA RESULT:    -3.230      1.773      4.121
REMARK INTER + INTRA:          -4.185
REMARK INTER:                  -3.899
REMARK INTRA:                  -0.286
REMARK UNBOUND:                -0.200
REMARK SMILES C=CC[C@H](C)C(=O)CC
REMARK SMILES IDX 4 1 5 2 6 3 7 4 8 5 9 6 3 7 2 8 1 9
REMARK H PARENT
REMARK Flexibility Score: inf
ROOT
ATOM      1  C   UNL     1     -13.238   1.550 -13.050  1.00  0.00     0.057 C 
ATOM      2  C   UNL     1     -13.513   1.195 -14.517  1.00  0.00     0.016 C 
ENDROOT
BRANCH   1   3
ATOM      3  C   UNL     1     -14.539   1.726 -12.291  1.00  0.00     0.135 C 
ATOM      4  O   UNL     1     -14.931   2.857 -12.041  1.00  0.00    -0.299 OA
BRANCH   3   5
ATOM      5  C   UNL     1     -15.355   0.550 -11.810  1.00  0.00     0.072 C 
ATOM      6  C   UNL     1     -14.454  -0.633 -11.466  1.00  0.00     0.012 C 
ENDBRANCH   3   5
ENDBRANCH   1   3
BRANCH   1   7
ATOM      7  C   UNL     1     -12.333   2.795 -12.946  1.00  0.00     0.038 C 
BRANCH   7   8
ATOM      8  C   UNL     1     -12.298   3.579 -14.232  1.00  0.00    -0.034 C 
ATOM      9  C   UNL     1     -12.759   4.831 -14.283  1.00  0.00     0.004 C 
ENDBRANCH   7   8
ENDBRANCH   1   7
TORSDOF 4
ENDMDL
MODEL 8
REMARK VINA RESULT:    -3.223     16.649     18.066
REMARK INTER + INTRA:          -4.177
REMARK INTER:                  -3.709
REMARK INTRA:                  -0.468
REMARK UNBOUND:                -0.200
REMARK SMILES C=CC[C@H](C)C(=O)CC
REMARK SMILES IDX 4 1 5 2 6 3 7 4 8 5 9 6 3 7 2 8 1 9
REMARK H PARENT
REMARK Flexibility Score: inf
ROOT
ATOM      1  C   UNL     1     -11.677  16.395 -22.119  1.00  0.00     0.057 C 
ATOM      2  C   UNL     1     -10.466  17.258 -21.742  1.00  0.00     0.016 C 
ENDROOT
BRANCH   1   3
ATOM      3  C   UNL     1     -12.952  17.216 -22.072  1.00  0.00     0.135 C 
ATOM      4  O   UNL     1     -13.182  17.898 -21.084  1.00  0.00    -0.299 OA
BRANCH   3   5
ATOM      5  C   UNL     1     -13.960  17.198 -23.195  1.00  0.00     0.072 C 
ATOM      6  C   UNL     1     -13.326  16.698 -24.490  1.00  0.00     0.012 C 
ENDBRANCH   3   5
ENDBRANCH   1   3
BRANCH   1   7
ATOM      7  C   UNL     1     -11.761  15.143 -21.221  1.00  0.00     0.038 C 
BRANCH   7   8
ATOM      8  C   UNL     1     -12.432  13.989 -21.920  1.00  0.00    -0.034 C 
ATOM      9  C   UNL     1     -11.805  13.318 -22.890  1.00  0.00     0.004 C 
ENDBRANCH   7   8
ENDBRANCH   1   7
TORSDOF 4
ENDMDL
MODEL 9
REMARK VINA RESULT:    -3.197     17.523     18.595
REMARK INTER + INTRA:          -4.145
REMARK INTER:                  -3.778
REMARK INTRA:                  -0.366
REMARK UNBOUND:                -0.200
REMARK SMILES C=CC[C@H](C)C(=O)CC
REMARK SMILES IDX 4 1 5 2 6 3 7 4 8 5 9 6 3 7 2 8 1 9
REMARK H PARENT
REMARK Flexibility Score: inf
ROOT
ATOM      1  C   UNL     1     -10.990  17.007 -22.148  1.00  0.00     0.057 C 
ATOM      2  C   UNL     1      -9.459  17.096 -22.110  1.00  0.00     0.016 C 
ENDROOT
BRANCH   1   3
ATOM      3  C   UNL     1     -11.529  16.518 -20.817  1.00  0.00     0.135 C 
ATOM      4  O   UNL     1     -11.443  15.330 -20.543  1.00  0.00    -0.299 OA
BRANCH   3   5
ATOM      5  C   UNL     1     -12.193  17.447 -19.829  1.00  0.00     0.072 C 
ATOM      6  C   UNL     1     -13.091  18.451 -20.545  1.00  0.00     0.012 C 
ENDBRANCH   3   5
ENDBRANCH   1   3
BRANCH   1   7
ATOM      7  C   UNL     1     -11.461  16.124 -23.323  1.00  0.00     0.038 C 
BRANCH   7   8
ATOM      8  C   UNL     1     -12.933  16.289 -23.600  1.00  0.00    -0.034 C 
ATOM      9  C   UNL     1     -13.360  16.785 -24.764  1.00  0.00     0.004 C 
ENDBRANCH   7   8
ENDBRANCH   1   7
TORSDOF 4
ENDMDL
