MODEL 1
REMARK VINA RESULT:    -5.914      0.000      0.000
REMARK INTER + INTRA:         -11.586
REMARK INTER:                  -9.026
REMARK INTRA:                  -2.560
REMARK UNBOUND:                -2.560
REMARK SMILES CC(=O)CCC=C(C)CCC=C(C)CCC=C(C)C
REMARK SMILES IDX 10 1 11 2 12 3 13 4 14 5 15 6 16 7 18 8 17 9 19 10 9 11 7 12
REMARK SMILES IDX 6 13 8 14 5 15 4 16 2 17 3 18 1 19
REMARK H PARENT
REMARK Flexibility Score: inf
ROOT
ATOM      1  C   UNL     1      25.046  50.090  18.608  1.00  0.00     0.032 C 
ENDROOT
BRANCH   1   2
ATOM      2  C   UNL     1      24.067  51.194  18.934  1.00  0.00    -0.028 C 
ATOM      3  C   UNL     1      24.383  52.394  19.475  1.00  0.00    -0.077 C 
ATOM      4  C   UNL     1      23.266  53.373  19.733  1.00  0.00     0.039 C 
BRANCH   3   5
ATOM      5  C   UNL     1      25.803  52.796  19.833  1.00  0.00     0.034 C 
BRANCH   5   6
ATOM      6  C   UNL     1      26.185  54.153  19.225  1.00  0.00     0.032 C 
BRANCH   6   7
ATOM      7  C   UNL     1      27.165  53.982  18.088  1.00  0.00    -0.028 C 
ATOM      8  C   UNL     1      25.394  53.896  16.318  1.00  0.00     0.039 C 
ATOM      9  C   UNL     1      26.828  53.845  16.786  1.00  0.00    -0.080 C 
ATOM     10  C   UNL     1      27.929  53.632  15.780  1.00  0.00     0.039 C 
ENDBRANCH   6   7
ENDBRANCH   5   6
ENDBRANCH   3   5
ENDBRANCH   1   2
BRANCH   1  11
ATOM     11  C   UNL     1      24.972  49.738  17.119  1.00  0.00     0.034 C 
BRANCH  11  12
ATOM     12  C   UNL     1      26.284  50.043  16.429  1.00  0.00    -0.077 C 
ATOM     13  C   UNL     1      27.418  50.085  17.165  1.00  0.00    -0.028 C 
ATOM     14  C   UNL     1      26.286  50.309  14.941  1.00  0.00     0.039 C 
BRANCH  13  15
ATOM     15  C   UNL     1      28.794  50.329  16.596  1.00  0.00     0.035 C 
BRANCH  15  16
ATOM     16  C   UNL     1      29.788  49.290  17.124  1.00  0.00     0.079 C 
BRANCH  16  17
ATOM     17  C   UNL     1      30.314  48.438  15.999  1.00  0.00     0.130 C 
ATOM     18  O   UNL     1      31.451  48.618  15.589  1.00  0.00    -0.300 OA
ATOM     19  C   UNL     1      29.467  47.378  15.358  1.00  0.00     0.087 C 
ENDBRANCH  16  17
ENDBRANCH  15  16
ENDBRANCH  13  15
ENDBRANCH  11  12
ENDBRANCH   1  11
TORSDOF 9
ENDMDL
MODEL 2
REMARK VINA RESULT:    -5.913      7.347      9.249
REMARK INTER + INTRA:         -11.585
REMARK INTER:                 -10.121
REMARK INTRA:                  -1.464
REMARK UNBOUND:                -2.560
REMARK SMILES CC(=O)CCC=C(C)CCC=C(C)CCC=C(C)C
REMARK SMILES IDX 10 1 11 2 12 3 13 4 14 5 15 6 16 7 18 8 17 9 19 10 9 11 7 12
REMARK SMILES IDX 6 13 8 14 5 15 4 16 2 17 3 18 1 19
REMARK H PARENT
REMARK Flexibility Score: inf
ROOT
ATOM      1  C   UNL     1      28.903  52.368  11.318  1.00  0.00     0.032 C 
ENDROOT
BRANCH   1   2
ATOM      2  C   UNL     1      29.860  53.523  11.136  1.00  0.00    -0.028 C 
ATOM      3  C   UNL     1      29.510  54.824  11.009  1.00  0.00    -0.077 C 
ATOM      4  C   UNL     1      30.609  55.841  10.832  1.00  0.00     0.039 C 
BRANCH   3   5
ATOM      5  C   UNL     1      28.070  55.305  11.038  1.00  0.00     0.034 C 
BRANCH   5   6
ATOM      6  C   UNL     1      27.970  56.828  10.884  1.00  0.00     0.032 C 
BRANCH   6   7
ATOM      7  C   UNL     1      27.752  57.495  12.224  1.00  0.00    -0.028 C 
ATOM      8  C   UNL     1      29.754  58.988  12.024  1.00  0.00     0.039 C 
ATOM      9  C   UNL     1      28.551  58.446  12.757  1.00  0.00    -0.080 C 
ATOM     10  C   UNL     1      28.220  58.973  14.129  1.00  0.00     0.039 C 
ENDBRANCH   6   7
ENDBRANCH   5   6
ENDBRANCH   3   5
ENDBRANCH   1   2
BRANCH   1  11
ATOM     11  C   UNL     1      28.586  51.723   9.964  1.00  0.00     0.034 C 
BRANCH  11  12
ATOM     12  C   UNL     1      27.135  51.938   9.594  1.00  0.00    -0.077 C 
ATOM     13  C   UNL     1      26.770  51.860   8.294  1.00  0.00    -0.028 C 
ATOM     14  C   UNL     1      26.138  52.249  10.686  1.00  0.00     0.039 C 
BRANCH  13  15
ATOM     15  C   UNL     1      25.354  52.005   7.796  1.00  0.00     0.035 C 
BRANCH  15  16
ATOM     16  C   UNL     1      25.164  53.351   7.091  1.00  0.00     0.079 C 
BRANCH  16  17
ATOM     17  C   UNL     1      24.461  54.330   7.994  1.00  0.00     0.130 C 
ATOM     18  O   UNL     1      24.926  55.451   8.144  1.00  0.00    -0.300 OA
ATOM     19  C   UNL     1      23.206  53.957   8.727  1.00  0.00     0.087 C 
ENDBRANCH  16  17
ENDBRANCH  15  16
ENDBRANCH  13  15
ENDBRANCH  11  12
ENDBRANCH   1  11
TORSDOF 9
ENDMDL
MODEL 3
REMARK VINA RESULT:    -5.861      2.876      5.975
REMARK INTER + INTRA:         -11.505
REMARK INTER:                  -9.025
REMARK INTRA:                  -2.480
REMARK UNBOUND:                -2.560
REMARK SMILES CC(=O)CCC=C(C)CCC=C(C)CCC=C(C)C
REMARK SMILES IDX 10 1 11 2 12 3 13 4 14 5 15 6 16 7 18 8 17 9 19 10 9 11 7 12
REMARK SMILES IDX 6 13 8 14 5 15 4 16 2 17 3 18 1 19
REMARK H PARENT
REMARK Flexibility Score: inf
ROOT
ATOM      1  C   UNL     1      26.433  49.843  15.494  1.00  0.00     0.032 C 
ENDROOT
BRANCH   1   2
ATOM      2  C   UNL     1      27.408  48.728  15.197  1.00  0.00    -0.028 C 
ATOM      3  C   UNL     1      28.561  48.489  15.866  1.00  0.00    -0.077 C 
ATOM      4  C   UNL     1      29.412  47.327  15.422  1.00  0.00     0.039 C 
BRANCH   3   5
ATOM      5  C   UNL     1      29.033  49.334  17.035  1.00  0.00     0.034 C 
BRANCH   5   6
ATOM      6  C   UNL     1      30.104  50.350  16.614  1.00  0.00     0.032 C 
BRANCH   6   7
ATOM      7  C   UNL     1      29.540  51.752  16.584  1.00  0.00    -0.028 C 
ATOM      8  C   UNL     1      29.314  51.815  14.090  1.00  0.00     0.039 C 
ATOM      9  C   UNL     1      29.202  52.429  15.465  1.00  0.00    -0.080 C 
ATOM     10  C   UNL     1      28.699  53.842  15.607  1.00  0.00     0.039 C 
ENDBRANCH   6   7
ENDBRANCH   5   6
ENDBRANCH   3   5
ENDBRANCH   1   2
BRANCH   1  11
ATOM     11  C   UNL     1      25.515  49.449  16.657  1.00  0.00     0.034 C 
BRANCH  11  12
ATOM     12  C   UNL     1      25.509  50.523  17.723  1.00  0.00    -0.077 C 
ATOM     13  C   UNL     1      26.077  51.720  17.453  1.00  0.00    -0.028 C 
ATOM     14  C   UNL     1      24.882  50.220  19.064  1.00  0.00     0.039 C 
BRANCH  13  15
ATOM     15  C   UNL     1      26.096  52.888  18.407  1.00  0.00     0.035 C 
BRANCH  15  16
ATOM     16  C   UNL     1      25.133  53.984  17.937  1.00  0.00     0.079 C 
BRANCH  16  17
ATOM     17  C   UNL     1      24.120  54.296  19.006  1.00  0.00     0.130 C 
ATOM     18  O   UNL     1      23.175  55.025  18.745  1.00  0.00    -0.300 OA
ATOM     19  C   UNL     1      24.251  53.741  20.394  1.00  0.00     0.087 C 
ENDBRANCH  16  17
ENDBRANCH  15  16
ENDBRANCH  13  15
ENDBRANCH  11  12
ENDBRANCH   1  11
TORSDOF 9
ENDMDL
MODEL 4
REMARK VINA RESULT:    -5.810      6.652      8.882
REMARK INTER + INTRA:         -11.428
REMARK INTER:                  -8.973
REMARK INTRA:                  -2.455
REMARK UNBOUND:                -2.560
REMARK SMILES CC(=O)CCC=C(C)CCC=C(C)CCC=C(C)C
REMARK SMILES IDX 10 1 11 2 12 3 13 4 14 5 15 6 16 7 18 8 17 9 19 10 9 11 7 12
REMARK SMILES IDX 6 13 8 14 5 15 4 16 2 17 3 18 1 19
REMARK H PARENT
REMARK Flexibility Score: inf
ROOT
ATOM      1  C   UNL     1      26.465  56.357  12.231  1.00  0.00     0.032 C 
ENDROOT
BRANCH   1   2
ATOM      2  C   UNL     1      27.423  57.496  12.490  1.00  0.00    -0.028 C 
ATOM      3  C   UNL     1      28.549  57.754  11.784  1.00  0.00    -0.077 C 
ATOM      4  C   UNL     1      29.386  58.940  12.192  1.00  0.00     0.039 C 
BRANCH   3   5
ATOM      5  C   UNL     1      29.004  56.911  10.606  1.00  0.00     0.034 C 
BRANCH   5   6
ATOM      6  C   UNL     1      30.163  55.978  10.983  1.00  0.00     0.032 C 
BRANCH   6   7
ATOM      7  C   UNL     1      29.723  54.532  10.968  1.00  0.00    -0.028 C 
ATOM      8  C   UNL     1      29.330  54.424  13.440  1.00  0.00     0.039 C 
ATOM      9  C   UNL     1      29.368  53.817  12.058  1.00  0.00    -0.080 C 
ATOM     10  C   UNL     1      29.001  52.367  11.876  1.00  0.00     0.039 C 
ENDBRANCH   6   7
ENDBRANCH   5   6
ENDBRANCH   3   5
ENDBRANCH   1   2
BRANCH   1  11
ATOM     11  C   UNL     1      25.556  56.688  11.043  1.00  0.00     0.034 C 
BRANCH  11  12
ATOM     12  C   UNL     1      25.542  55.550  10.045  1.00  0.00    -0.077 C 
ATOM     13  C   UNL     1      26.204  54.409  10.340  1.00  0.00    -0.028 C 
ATOM     14  C   UNL     1      24.803  55.730   8.739  1.00  0.00     0.039 C 
BRANCH  13  15
ATOM     15  C   UNL     1      26.229  53.185   9.458  1.00  0.00     0.035 C 
BRANCH  15  16
ATOM     16  C   UNL     1      25.247  52.128   9.973  1.00  0.00     0.079 C 
BRANCH  16  17
ATOM     17  C   UNL     1      24.166  51.868   8.958  1.00  0.00     0.130 C 
ATOM     18  O   UNL     1      23.122  51.341   9.313  1.00  0.00    -0.300 OA
ATOM     19  C   UNL     1      24.346  52.230   7.513  1.00  0.00     0.087 C 
ENDBRANCH  16  17
ENDBRANCH  15  16
ENDBRANCH  13  15
ENDBRANCH  11  12
ENDBRANCH   1  11
TORSDOF 9
ENDMDL
MODEL 5
REMARK VINA RESULT:    -5.669      6.667      8.807
REMARK INTER + INTRA:         -11.212
REMARK INTER:                  -8.655
REMARK INTRA:                  -2.558
REMARK UNBOUND:                -2.560
REMARK SMILES CC(=O)CCC=C(C)CCC=C(C)CCC=C(C)C
REMARK SMILES IDX 10 1 11 2 12 3 13 4 14 5 15 6 16 7 18 8 17 9 19 10 9 11 7 12
REMARK SMILES IDX 6 13 8 14 5 15 4 16 2 17 3 18 1 19
REMARK H PARENT
REMARK Flexibility Score: inf
ROOT
ATOM      1  C   UNL     1      26.334  55.863  10.859  1.00  0.00     0.032 C 
ENDROOT
BRANCH   1   2
ATOM      2  C   UNL     1      26.854  56.901  11.827  1.00  0.00    -0.028 C 
ATOM      3  C   UNL     1      28.069  57.494  11.769  1.00  0.00    -0.077 C 
ATOM      4  C   UNL     1      28.414  58.509  12.830  1.00  0.00     0.039 C 
BRANCH   3   5
ATOM      5  C   UNL     1      29.094  57.187  10.693  1.00  0.00     0.034 C 
BRANCH   5   6
ATOM      6  C   UNL     1      30.272  56.368  11.239  1.00  0.00     0.032 C 
BRANCH   6   7
ATOM      7  C   UNL     1      30.148  54.913  10.850  1.00  0.00    -0.028 C 
ATOM      8  C   UNL     1      29.229  54.199  13.069  1.00  0.00     0.039 C 
ATOM      9  C   UNL     1      29.704  53.928  11.662  1.00  0.00    -0.080 C 
ATOM     10  C   UNL     1      29.689  52.517  11.135  1.00  0.00     0.039 C 
ENDBRANCH   6   7
ENDBRANCH   5   6
ENDBRANCH   3   5
ENDBRANCH   1   2
BRANCH   1  11
ATOM     11  C   UNL     1      25.761  54.665  11.622  1.00  0.00     0.034 C 
BRANCH  11  12
ATOM     12  C   UNL     1      26.088  53.369  10.912  1.00  0.00    -0.077 C 
ATOM     13  C   UNL     1      26.412  53.403   9.599  1.00  0.00    -0.028 C 
ATOM     14  C   UNL     1      26.028  52.073  11.686  1.00  0.00     0.039 C 
BRANCH  13  15
ATOM     15  C   UNL     1      26.805  52.195   8.786  1.00  0.00     0.035 C 
BRANCH  15  16
ATOM     16  C   UNL     1      25.576  51.569   8.120  1.00  0.00     0.079 C 
BRANCH  16  17
ATOM     17  C   UNL     1      24.751  52.622   7.429  1.00  0.00     0.130 C 
ATOM     18  O   UNL     1      25.202  53.188   6.444  1.00  0.00    -0.300 OA
ATOM     19  C   UNL     1      23.389  53.003   7.930  1.00  0.00     0.087 C 
ENDBRANCH  16  17
ENDBRANCH  15  16
ENDBRANCH  13  15
ENDBRANCH  11  12
ENDBRANCH   1  11
TORSDOF 9
ENDMDL
MODEL 6
REMARK VINA RESULT:    -5.616      1.491      3.036
REMARK INTER + INTRA:         -11.131
REMARK INTER:                  -9.141
REMARK INTRA:                  -1.990
REMARK UNBOUND:                -2.560
REMARK SMILES CC(=O)CCC=C(C)CCC=C(C)CCC=C(C)C
REMARK SMILES IDX 10 1 11 2 12 3 13 4 14 5 15 6 16 7 18 8 17 9 19 10 9 11 7 12
REMARK SMILES IDX 6 13 8 14 5 15 4 16 2 17 3 18 1 19
REMARK H PARENT
REMARK Flexibility Score: inf
ROOT
ATOM      1  C   UNL     1      26.619  53.688  17.202  1.00  0.00     0.032 C 
ENDROOT
BRANCH   1   2
ATOM      2  C   UNL     1      25.228  54.194  17.507  1.00  0.00    -0.028 C 
ATOM      3  C   UNL     1      24.645  54.210  18.728  1.00  0.00    -0.077 C 
ATOM      4  C   UNL     1      23.242  54.753  18.838  1.00  0.00     0.039 C 
BRANCH   3   5
ATOM      5  C   UNL     1      25.333  53.709  19.985  1.00  0.00     0.034 C 
BRANCH   5   6
ATOM      6  C   UNL     1      24.865  52.300  20.373  1.00  0.00     0.032 C 
BRANCH   6   7
ATOM      7  C   UNL     1      25.246  51.291  19.313  1.00  0.00    -0.028 C 
ATOM      8  C   UNL     1      22.905  51.009  18.467  1.00  0.00     0.039 C 
ATOM      9  C   UNL     1      24.380  50.690  18.468  1.00  0.00    -0.080 C 
ATOM     10  C   UNL     1      24.917  49.666  17.501  1.00  0.00     0.039 C 
ENDBRANCH   6   7
ENDBRANCH   5   6
ENDBRANCH   3   5
ENDBRANCH   1   2
BRANCH   1  11
ATOM     11  C   UNL     1      26.726  53.282  15.729  1.00  0.00     0.034 C 
BRANCH  11  12
ATOM     12  C   UNL     1      27.700  52.137  15.557  1.00  0.00    -0.077 C 
ATOM     13  C   UNL     1      28.373  51.679  16.636  1.00  0.00    -0.028 C 
ATOM     14  C   UNL     1      27.904  51.549  14.179  1.00  0.00     0.039 C 
BRANCH  13  15
ATOM     15  C   UNL     1      29.333  50.516  16.612  1.00  0.00     0.035 C 
BRANCH  15  16
ATOM     16  C   UNL     1      28.609  49.212  16.964  1.00  0.00     0.079 C 
BRANCH  16  17
ATOM     17  C   UNL     1      28.615  48.267  15.792  1.00  0.00     0.130 C 
ATOM     18  O   UNL     1      27.633  48.200  15.068  1.00  0.00    -0.300 OA
ATOM     19  C   UNL     1      29.799  47.393  15.497  1.00  0.00     0.087 C 
ENDBRANCH  16  17
ENDBRANCH  15  16
ENDBRANCH  13  15
ENDBRANCH  11  12
ENDBRANCH   1  11
TORSDOF 9
ENDMDL
MODEL 7
REMARK VINA RESULT:    -5.605      2.489      5.955
REMARK INTER + INTRA:         -11.115
REMARK INTER:                  -8.735
REMARK INTRA:                  -2.380
REMARK UNBOUND:                -2.560
REMARK SMILES CC(=O)CCC=C(C)CCC=C(C)CCC=C(C)C
REMARK SMILES IDX 10 1 11 2 12 3 13 4 14 5 15 6 16 7 18 8 17 9 19 10 9 11 7 12
REMARK SMILES IDX 6 13 8 14 5 15 4 16 2 17 3 18 1 19
REMARK H PARENT
REMARK Flexibility Score: inf
ROOT
ATOM      1  C   UNL     1      28.779  52.887  16.007  1.00  0.00     0.032 C 
ENDROOT
BRANCH   1   2
ATOM      2  C   UNL     1      29.650  51.689  16.306  1.00  0.00    -0.028 C 
ATOM      3  C   UNL     1      29.210  50.479  16.722  1.00  0.00    -0.077 C 
ATOM      4  C   UNL     1      30.232  49.400  16.974  1.00  0.00     0.039 C 
BRANCH   3   5
ATOM      5  C   UNL     1      27.742  50.160  16.946  1.00  0.00     0.034 C 
BRANCH   5   6
ATOM      6  C   UNL     1      27.117  49.454  15.735  1.00  0.00     0.032 C 
BRANCH   6   7
ATOM      7  C   UNL     1      26.174  50.376  14.997  1.00  0.00    -0.028 C 
ATOM      8  C   UNL     1      27.798  50.879  13.157  1.00  0.00     0.039 C 
ATOM      9  C   UNL     1      26.469  51.037  13.856  1.00  0.00    -0.080 C 
ATOM     10  C   UNL     1      25.431  51.960  13.273  1.00  0.00     0.039 C 
ENDBRANCH   6   7
ENDBRANCH   5   6
ENDBRANCH   3   5
ENDBRANCH   1   2
BRANCH   1  11
ATOM     11  C   UNL     1      28.724  53.820  17.221  1.00  0.00     0.034 C 
BRANCH  11  12
ATOM     12  C   UNL     1      27.309  53.940  17.743  1.00  0.00    -0.077 C 
ATOM     13  C   UNL     1      27.112  54.161  19.063  1.00  0.00    -0.028 C 
ATOM     14  C   UNL     1      26.156  53.792  16.777  1.00  0.00     0.039 C 
BRANCH  13  15
ATOM     15  C   UNL     1      25.759  54.349  19.703  1.00  0.00     0.035 C 
BRANCH  15  16
ATOM     16  C   UNL     1      25.362  53.103  20.500  1.00  0.00     0.079 C 
BRANCH  16  17
ATOM     17  C   UNL     1      24.531  52.173  19.656  1.00  0.00     0.130 C 
ATOM     18  O   UNL     1      23.548  52.607  19.073  1.00  0.00    -0.300 OA
ATOM     19  C   UNL     1      24.875  50.719  19.523  1.00  0.00     0.087 C 
ENDBRANCH  16  17
ENDBRANCH  15  16
ENDBRANCH  13  15
ENDBRANCH  11  12
ENDBRANCH   1  11
TORSDOF 9
ENDMDL
MODEL 8
REMARK VINA RESULT:    -5.513      6.588      9.520
REMARK INTER + INTRA:         -10.974
REMARK INTER:                  -9.287
REMARK INTRA:                  -1.687
REMARK UNBOUND:                -2.560
REMARK SMILES CC(=O)CCC=C(C)CCC=C(C)CCC=C(C)C
REMARK SMILES IDX 10 1 11 2 12 3 13 4 14 5 15 6 16 7 18 8 17 9 19 10 9 11 7 12
REMARK SMILES IDX 6 13 8 14 5 15 4 16 2 17 3 18 1 19
REMARK H PARENT
REMARK Flexibility Score: inf
ROOT
ATOM      1  C   UNL     1      25.013  55.362   8.775  1.00  0.00     0.032 C 
ENDROOT
BRANCH   1   2
ATOM      2  C   UNL     1      24.151  54.126   8.877  1.00  0.00    -0.028 C 
ATOM      3  C   UNL     1      24.455  52.909   8.368  1.00  0.00    -0.077 C 
ATOM      4  C   UNL     1      23.466  51.789   8.567  1.00  0.00     0.039 C 
BRANCH   3   5
ATOM      5  C   UNL     1      25.739  52.621   7.609  1.00  0.00     0.034 C 
BRANCH   5   6
ATOM      6  C   UNL     1      26.712  51.767   8.432  1.00  0.00     0.032 C 
BRANCH   6   7
ATOM      7  C   UNL     1      26.738  52.213   9.877  1.00  0.00    -0.028 C 
ATOM      8  C   UNL     1      29.118  51.525  10.249  1.00  0.00     0.039 C 
ATOM      9  C   UNL     1      27.796  52.093  10.708  1.00  0.00    -0.080 C 
ATOM     10  C   UNL     1      27.640  52.542  12.137  1.00  0.00     0.039 C 
ENDBRANCH   6   7
ENDBRANCH   5   6
ENDBRANCH   3   5
ENDBRANCH   1   2
BRANCH   1  11
ATOM     11  C   UNL     1      24.634  56.366   9.869  1.00  0.00     0.034 C 
BRANCH  11  12
ATOM     12  C   UNL     1      25.731  56.471  10.906  1.00  0.00    -0.077 C 
ATOM     13  C   UNL     1      26.968  56.017  10.602  1.00  0.00    -0.028 C 
ATOM     14  C   UNL     1      25.408  57.065  12.258  1.00  0.00     0.039 C 
BRANCH  13  15
ATOM     15  C   UNL     1      28.159  56.106  11.523  1.00  0.00     0.035 C 
BRANCH  15  16
ATOM     16  C   UNL     1      29.463  56.136  10.718  1.00  0.00     0.079 C 
BRANCH  16  17
ATOM     17  C   UNL     1      30.329  57.290  11.151  1.00  0.00     0.130 C 
ATOM     18  O   UNL     1      31.542  57.211  11.027  1.00  0.00    -0.300 OA
ATOM     19  C   UNL     1      29.736  58.533  11.746  1.00  0.00     0.087 C 
ENDBRANCH  16  17
ENDBRANCH  15  16
ENDBRANCH  13  15
ENDBRANCH  11  12
ENDBRANCH   1  11
TORSDOF 9
ENDMDL
MODEL 9
REMARK VINA RESULT:    -5.496      5.902      8.618
REMARK INTER + INTRA:         -10.949
REMARK INTER:                  -8.145
REMARK INTRA:                  -2.804
REMARK UNBOUND:                -2.560
REMARK SMILES CC(=O)CCC=C(C)CCC=C(C)CCC=C(C)C
REMARK SMILES IDX 10 1 11 2 12 3 13 4 14 5 15 6 16 7 18 8 17 9 19 10 9 11 7 12
REMARK SMILES IDX 6 13 8 14 5 15 4 16 2 17 3 18 1 19
REMARK H PARENT
REMARK Flexibility Score: inf
ROOT
ATOM      1  C   UNL     1      28.756  53.183  11.530  1.00  0.00     0.032 C 
ENDROOT
BRANCH   1   2
ATOM      2  C   UNL     1      29.598  54.411  11.272  1.00  0.00    -0.028 C 
ATOM      3  C   UNL     1      29.129  55.623  10.892  1.00  0.00    -0.077 C 
ATOM      4  C   UNL     1      30.125  56.734  10.679  1.00  0.00     0.039 C 
BRANCH   3   5
ATOM      5  C   UNL     1      27.655  55.913  10.673  1.00  0.00     0.034 C 
BRANCH   5   6
ATOM      6  C   UNL     1      27.007  56.557  11.906  1.00  0.00     0.032 C 
BRANCH   6   7
ATOM      7  C   UNL     1      25.985  55.632  12.528  1.00  0.00    -0.028 C 
ATOM      8  C   UNL     1      27.498  54.894  14.384  1.00  0.00     0.039 C 
ATOM      9  C   UNL     1      26.195  54.866  13.621  1.00  0.00    -0.080 C 
ATOM     10  C   UNL     1      25.085  53.959  14.084  1.00  0.00     0.039 C 
ENDBRANCH   6   7
ENDBRANCH   5   6
ENDBRANCH   3   5
ENDBRANCH   1   2
BRANCH   1  11
ATOM     11  C   UNL     1      28.745  52.278  10.293  1.00  0.00     0.034 C 
BRANCH  11  12
ATOM     12  C   UNL     1      27.333  52.080   9.785  1.00  0.00    -0.077 C 
ATOM     13  C   UNL     1      26.295  52.326  10.616  1.00  0.00    -0.028 C 
ATOM     14  C   UNL     1      27.125  51.597   8.368  1.00  0.00     0.039 C 
BRANCH  13  15
ATOM     15  C   UNL     1      24.843  52.217  10.223  1.00  0.00     0.035 C 
BRANCH  15  16
ATOM     16  C   UNL     1      24.208  53.606  10.109  1.00  0.00     0.079 C 
BRANCH  16  17
ATOM     17  C   UNL     1      24.316  54.126   8.699  1.00  0.00     0.130 C 
ATOM     18  O   UNL     1      24.099  53.373   7.762  1.00  0.00    -0.300 OA
ATOM     19  C   UNL     1      24.697  55.550   8.418  1.00  0.00     0.087 C 
ENDBRANCH  16  17
ENDBRANCH  15  16
ENDBRANCH  13  15
ENDBRANCH  11  12
ENDBRANCH   1  11
TORSDOF 9
ENDMDL
