MODEL 1
REMARK VINA RESULT:    -2.074      0.000      0.000
REMARK INTER + INTRA:          -2.795
REMARK INTER:                  -2.680
REMARK INTRA:                  -0.115
REMARK UNBOUND:                -0.115
REMARK SMILES CCCCCCC(=O)[O-]
REMARK SMILES IDX 5 1 6 2 7 3 8 4 9 5 4 6 3 7 2 8 1 9
REMARK H PARENT
REMARK Flexibility Score: inf
ROOT
ATOM      1  C   UNL     1      31.963  23.061  28.977  1.00  0.00     0.006 C 
ENDROOT
BRANCH   1   2
ATOM      2  C   UNL     1      30.677  22.878  28.154  1.00  0.00     0.053 C 
BRANCH   2   3
ATOM      3  C   UNL     1      30.675  21.600  27.376  1.00  0.00     0.041 C 
ATOM      4  O   UNL     1      31.762  21.056  27.049  1.00  0.00    -0.550 OA
ATOM      5  O   UNL     1      29.472  20.997  27.031  1.00  0.00    -0.550 OA
ENDBRANCH   2   3
ENDBRANCH   1   2
BRANCH   1   6
ATOM      6  C   UNL     1      32.943  24.086  28.370  1.00  0.00     0.000 C 
BRANCH   6   7
ATOM      7  C   UNL     1      34.343  24.004  29.002  1.00  0.00    -0.000 C 
BRANCH   7   8
ATOM      8  C   UNL     1      35.411  23.516  28.010  1.00  0.00    -0.003 C 
ATOM      9  C   UNL     1      36.685  23.034  28.703  1.00  0.00     0.004 C 
ENDBRANCH   7   8
ENDBRANCH   6   7
ENDBRANCH   1   6
TORSDOF 5
ENDMDL
MODEL 2
REMARK VINA RESULT:    -1.827      3.261      5.059
REMARK INTER + INTRA:          -2.477
REMARK INTER:                  -2.315
REMARK INTRA:                  -0.161
REMARK UNBOUND:                -0.115
REMARK SMILES CCCCCCC(=O)[O-]
REMARK SMILES IDX 5 1 6 2 7 3 8 4 9 5 4 6 3 7 2 8 1 9
REMARK H PARENT
REMARK Flexibility Score: inf
ROOT
ATOM      1  C   UNL     1      33.924  24.116  27.985  1.00  0.00     0.006 C 
ENDROOT
BRANCH   1   2
ATOM      2  C   UNL     1      34.848  23.185  27.185  1.00  0.00     0.053 C 
BRANCH   2   3
ATOM      3  C   UNL     1      36.191  23.025  27.827  1.00  0.00     0.041 C 
ATOM      4  O   UNL     1      36.471  23.662  28.876  1.00  0.00    -0.550 OA
ATOM      5  O   UNL     1      37.125  22.154  27.280  1.00  0.00    -0.550 OA
ENDBRANCH   2   3
ENDBRANCH   1   2
BRANCH   1   6
ATOM      6  C   UNL     1      32.807  23.373  28.747  1.00  0.00     0.000 C 
BRANCH   6   7
ATOM      7  C   UNL     1      31.480  23.352  27.970  1.00  0.00    -0.000 C 
BRANCH   7   8
ATOM      8  C   UNL     1      31.293  22.063  27.153  1.00  0.00    -0.003 C 
ATOM      9  C   UNL     1      29.876  21.501  27.250  1.00  0.00     0.004 C 
ENDBRANCH   7   8
ENDBRANCH   6   7
ENDBRANCH   1   6
TORSDOF 5
ENDMDL
MODEL 3
REMARK VINA RESULT:    -1.748      1.479      1.647
REMARK INTER + INTRA:          -2.374
REMARK INTER:                  -2.232
REMARK INTRA:                  -0.143
REMARK UNBOUND:                -0.115
REMARK SMILES CCCCCCC(=O)[O-]
REMARK SMILES IDX 5 1 6 2 7 3 8 4 9 5 4 6 3 7 2 8 1 9
REMARK H PARENT
REMARK Flexibility Score: inf
ROOT
ATOM      1  C   UNL     1      32.744  22.626  27.777  1.00  0.00     0.006 C 
ENDROOT
BRANCH   1   2
ATOM      2  C   UNL     1      31.504  22.802  26.885  1.00  0.00     0.053 C 
BRANCH   2   3
ATOM      3  C   UNL     1      30.231  22.509  27.615  1.00  0.00     0.041 C 
ATOM      4  O   UNL     1      29.736  23.366  28.393  1.00  0.00    -0.550 OA
ATOM      5  O   UNL     1      29.578  21.299  27.418  1.00  0.00    -0.550 OA
ENDBRANCH   2   3
ENDBRANCH   1   2
BRANCH   1   6
ATOM      6  C   UNL     1      33.962  23.450  27.311  1.00  0.00     0.000 C 
BRANCH   6   7
ATOM      7  C   UNL     1      34.901  23.817  28.472  1.00  0.00    -0.000 C 
BRANCH   7   8
ATOM      8  C   UNL     1      36.350  23.365  28.225  1.00  0.00    -0.003 C 
ATOM      9  C   UNL     1      36.470  22.368  27.073  1.00  0.00     0.004 C 
ENDBRANCH   7   8
ENDBRANCH   6   7
ENDBRANCH   1   6
TORSDOF 5
ENDMDL
MODEL 4
REMARK VINA RESULT:    -0.409     17.162     17.817
REMARK INTER + INTRA:          -0.644
REMARK INTER:                  -0.474
REMARK INTRA:                  -0.170
REMARK UNBOUND:                -0.115
REMARK SMILES CCCCCCC(=O)[O-]
REMARK SMILES IDX 5 1 6 2 7 3 8 4 9 5 4 6 3 7 2 8 1 9
REMARK H PARENT
REMARK Flexibility Score: inf
ROOT
ATOM      1  C   UNL     1      35.063  12.896  41.050  1.00  0.00     0.006 C 
ENDROOT
BRANCH   1   2
ATOM      2  C   UNL     1      34.991  12.982  42.583  1.00  0.00     0.053 C 
BRANCH   2   3
ATOM      3  C   UNL     1      35.748  14.154  43.124  1.00  0.00     0.041 C 
ATOM      4  O   UNL     1      35.145  15.224  43.401  1.00  0.00    -0.550 OA
ATOM      5  O   UNL     1      37.116  14.058  43.345  1.00  0.00    -0.550 OA
ENDBRANCH   2   3
ENDBRANCH   1   2
BRANCH   1   6
ATOM      6  C   UNL     1      33.781  12.333  40.402  1.00  0.00     0.000 C 
BRANCH   6   7
ATOM      7  C   UNL     1      33.238  11.103  41.148  1.00  0.00    -0.000 C 
BRANCH   7   8
ATOM      8  C   UNL     1      32.842   9.962  40.197  1.00  0.00    -0.003 C 
ATOM      9  C   UNL     1      34.043   9.146  39.720  1.00  0.00     0.004 C 
ENDBRANCH   7   8
ENDBRANCH   6   7
ENDBRANCH   1   6
TORSDOF 5
ENDMDL
MODEL 5
REMARK VINA RESULT:     0.382     16.889     17.276
REMARK INTER + INTRA:           0.379
REMARK INTER:                   0.528
REMARK INTRA:                  -0.149
REMARK UNBOUND:                -0.115
REMARK SMILES CCCCCCC(=O)[O-]
REMARK SMILES IDX 5 1 6 2 7 3 8 4 9 5 4 6 3 7 2 8 1 9
REMARK H PARENT
REMARK Flexibility Score: inf
ROOT
ATOM      1  C   UNL     1      35.073  12.290  41.097  1.00  0.00     0.006 C 
ENDROOT
BRANCH   1   2
ATOM      2  C   UNL     1      33.805  12.055  40.260  1.00  0.00     0.053 C 
BRANCH   2   3
ATOM      3  C   UNL     1      33.032  10.858  40.721  1.00  0.00     0.041 C 
ATOM      4  O   UNL     1      33.034   9.802  40.037  1.00  0.00    -0.550 OA
ATOM      5  O   UNL     1      32.328  10.902  41.918  1.00  0.00    -0.550 OA
ENDBRANCH   2   3
ENDBRANCH   1   2
BRANCH   1   6
ATOM      6  C   UNL     1      34.910  13.387  42.169  1.00  0.00     0.000 C 
BRANCH   6   7
ATOM      7  C   UNL     1      36.194  13.602  42.988  1.00  0.00    -0.000 C 
BRANCH   7   8
ATOM      8  C   UNL     1      36.205  14.951  43.726  1.00  0.00    -0.003 C 
ATOM      9  C   UNL     1      34.923  15.754  43.509  1.00  0.00     0.004 C 
ENDBRANCH   7   8
ENDBRANCH   6   7
ENDBRANCH   1   6
TORSDOF 5
ENDMDL
MODEL 6
REMARK VINA RESULT:     0.574     16.840     17.243
REMARK INTER + INTRA:           0.627
REMARK INTER:                   0.756
REMARK INTRA:                  -0.129
REMARK UNBOUND:                -0.115
REMARK SMILES CCCCCCC(=O)[O-]
REMARK SMILES IDX 5 1 6 2 7 3 8 4 9 5 4 6 3 7 2 8 1 9
REMARK H PARENT
REMARK Flexibility Score: inf
ROOT
ATOM      1  C   UNL     1      34.537  12.395  40.661  1.00  0.00     0.006 C 
ENDROOT
BRANCH   1   2
ATOM      2  C   UNL     1      33.190  11.703  40.400  1.00  0.00     0.053 C 
BRANCH   2   3
ATOM      3  C   UNL     1      33.341  10.231  40.170  1.00  0.00     0.041 C 
ATOM      4  O   UNL     1      32.323   9.498  40.073  1.00  0.00    -0.550 OA
ATOM      5  O   UNL     1      34.606   9.674  40.038  1.00  0.00    -0.550 OA
ENDBRANCH   2   3
ENDBRANCH   1   2
BRANCH   1   6
ATOM      6  C   UNL     1      34.626  13.072  42.044  1.00  0.00     0.000 C 
BRANCH   6   7
ATOM      7  C   UNL     1      36.075  13.399  42.446  1.00  0.00    -0.000 C 
BRANCH   7   8
ATOM      8  C   UNL     1      36.154  14.426  43.587  1.00  0.00    -0.003 C 
ATOM      9  C   UNL     1      35.090  15.517  43.476  1.00  0.00     0.004 C 
ENDBRANCH   7   8
ENDBRANCH   6   7
ENDBRANCH   1   6
TORSDOF 5
ENDMDL
