MODEL 1
REMARK VINA RESULT:     0.000      0.000      0.000
REMARK INTER + INTRA:          -0.301
REMARK INTER:                   0.000
REMARK INTRA:                  -0.301
REMARK UNBOUND:                -0.301
REMARK SMILES O=c1c(O)c(-c2ccc(O)cc2)oc2cc(O)cc(O)c12
REMARK SMILES IDX 5 1 3 2 2 3 1 4 21 5 19 6 18 7 16 8 15 9 14 10 13 11 6 12
REMARK SMILES IDX 7 13 8 14 9 15 12 16 11 17 10 18 4 20 20 22 17 24
REMARK H PARENT 10 19 4 21 20 23 17 25
REMARK Flexibility Score: inf
ROOT
ATOM      1  C   UNL     1      11.880  14.433  52.299  1.00  0.00     0.180 A 
ATOM      2  C   UNL     1      10.718  13.662  52.131  1.00  0.00     0.208 A 
ATOM      3  C   UNL     1       9.761  14.068  51.187  1.00  0.00     0.238 A 
ATOM      4  O   UNL     1       8.697  13.404  51.080  1.00  0.00    -0.285 OA
ATOM      5  C   UNL     1       9.987  15.230  50.411  1.00  0.00     0.111 A 
ATOM      6  C   UNL     1       9.105  15.711  49.397  1.00  0.00     0.134 A 
ATOM      7  C   UNL     1       9.365  16.943  48.783  1.00  0.00     0.093 A 
ATOM      8  C   UNL     1      10.510  17.678  49.100  1.00  0.00     0.123 A 
ATOM      9  C   UNL     1      11.408  17.188  50.045  1.00  0.00     0.094 A 
ATOM     10  C   UNL     1      11.157  15.980  50.701  1.00  0.00     0.146 A 
ATOM     11  O   UNL     1      12.033  15.554  51.603  1.00  0.00    -0.452 OA
ENDROOT
BRANCH   1  12
ATOM     12  C   UNL     1      12.946  14.056  53.256  1.00  0.00     0.021 A 
ATOM     13  C   UNL     1      14.009  13.218  52.876  1.00  0.00     0.016 A 
ATOM     14  C   UNL     1      15.017  12.894  53.790  1.00  0.00     0.047 A 
ATOM     15  C   UNL     1      14.981  13.415  55.090  1.00  0.00     0.115 A 
ATOM     16  C   UNL     1      12.929  14.590  54.555  1.00  0.00     0.016 A 
ATOM     17  C   UNL     1      13.937  14.264  55.468  1.00  0.00     0.047 A 
BRANCH  15  18
ATOM     18  O   UNL     1      15.978  13.098  56.010  1.00  0.00    -0.508 OA
ATOM     19  H   UNL     1      16.940  12.961  55.721  1.00  0.00     0.293 HD
ENDBRANCH  15  18
ENDBRANCH   1  12
BRANCH   2  20
ATOM     20  O   UNL     1      10.505  12.530  52.923  1.00  0.00    -0.502 OA
ATOM     21  H   UNL     1      10.891  12.438  53.856  1.00  0.00     0.293 HD
ENDBRANCH   2  20
BRANCH   6  22
ATOM     22  O   UNL     1       7.984  15.012  48.940  1.00  0.00    -0.507 OA
ATOM     23  H   UNL     1       7.861  14.013  49.015  1.00  0.00     0.293 HD
ENDBRANCH   6  22
BRANCH   8  24
ATOM     24  O   UNL     1      10.769  18.895  48.473  1.00  0.00    -0.508 OA
ATOM     25  H   UNL     1      10.990  19.729  49.004  1.00  0.00     0.293 HD
ENDBRANCH   8  24
TORSDOF 5
ENDMDL
MODEL 2
REMARK VINA RESULT:     0.000      5.343      7.915
REMARK INTER + INTRA:          -0.301
REMARK INTER:                   0.000
REMARK INTRA:                  -0.301
REMARK UNBOUND:                -0.301
REMARK SMILES O=c1c(O)c(-c2ccc(O)cc2)oc2cc(O)cc(O)c12
REMARK SMILES IDX 5 1 3 2 2 3 1 4 21 5 19 6 18 7 16 8 15 9 14 10 13 11 6 12
REMARK SMILES IDX 7 13 8 14 9 15 12 16 11 17 10 18 4 20 20 22 17 24
REMARK H PARENT 10 19 4 21 20 23 17 25
REMARK Flexibility Score: inf
ROOT
ATOM      1  C   UNL     1      14.580  18.265  54.101  1.00  0.00     0.180 A 
ATOM      2  C   UNL     1      13.380  17.782  54.649  1.00  0.00     0.208 A 
ATOM      3  C   UNL     1      13.034  18.145  55.961  1.00  0.00     0.238 A 
ATOM      4  O   UNL     1      11.986  17.666  56.465  1.00  0.00    -0.285 OA
ATOM      5  C   UNL     1      13.885  19.001  56.701  1.00  0.00     0.111 A 
ATOM      6  C   UNL     1      13.614  19.466  58.023  1.00  0.00     0.134 A 
ATOM      7  C   UNL     1      14.588  20.203  58.709  1.00  0.00     0.093 A 
ATOM      8  C   UNL     1      15.796  20.547  58.096  1.00  0.00     0.123 A 
ATOM      9  C   UNL     1      16.044  20.148  56.785  1.00  0.00     0.094 A 
ATOM     10  C   UNL     1      15.107  19.381  56.088  1.00  0.00     0.146 A 
ATOM     11  O   UNL     1      15.389  19.013  54.844  1.00  0.00    -0.452 OA
ENDROOT
BRANCH   1  12
ATOM     12  C   UNL     1      15.000  17.947  52.717  1.00  0.00     0.021 A 
ATOM     13  C   UNL     1      14.617  18.755  51.631  1.00  0.00     0.016 A 
ATOM     14  C   UNL     1      15.046  18.448  50.335  1.00  0.00     0.047 A 
ATOM     15  C   UNL     1      15.872  17.339  50.112  1.00  0.00     0.115 A 
ATOM     16  C   UNL     1      15.845  16.849  52.486  1.00  0.00     0.016 A 
ATOM     17  C   UNL     1      16.271  16.544  51.190  1.00  0.00     0.047 A 
BRANCH  15  18
ATOM     18  O   UNL     1      16.303  17.023  48.826  1.00  0.00    -0.508 OA
ATOM     19  H   UNL     1      16.168  16.097  48.434  1.00  0.00     0.293 HD
ENDBRANCH  15  18
ENDBRANCH   1  12
BRANCH   2  20
ATOM     20  O   UNL     1      12.566  16.921  53.908  1.00  0.00    -0.502 OA
ATOM     21  H   UNL     1      12.709  15.917  53.890  1.00  0.00     0.293 HD
ENDBRANCH   2  20
BRANCH   6  22
ATOM     22  O   UNL     1      12.404  19.258  58.692  1.00  0.00    -0.507 OA
ATOM     23  H   UNL     1      12.011  18.352  58.899  1.00  0.00     0.293 HD
ENDBRANCH   6  22
BRANCH   8  24
ATOM     24  O   UNL     1      16.752  21.294  58.780  1.00  0.00    -0.508 OA
ATOM     25  H   UNL     1      17.709  20.973  58.872  1.00  0.00     0.293 HD
ENDBRANCH   8  24
TORSDOF 5
ENDMDL
MODEL 3
REMARK VINA RESULT:     0.000      4.817      8.001
REMARK INTER + INTRA:          -0.301
REMARK INTER:                   0.000
REMARK INTRA:                  -0.301
REMARK UNBOUND:                -0.301
REMARK SMILES O=c1c(O)c(-c2ccc(O)cc2)oc2cc(O)cc(O)c12
REMARK SMILES IDX 5 1 3 2 2 3 1 4 21 5 19 6 18 7 16 8 15 9 14 10 13 11 6 12
REMARK SMILES IDX 7 13 8 14 9 15 12 16 11 17 10 18 4 20 20 22 17 24
REMARK H PARENT 10 19 4 21 20 23 17 25
REMARK Flexibility Score: inf
ROOT
ATOM      1  C   UNL     1      14.630  18.367  50.688  1.00  0.00     0.180 A 
ATOM      2  C   UNL     1      15.793  18.673  51.414  1.00  0.00     0.208 A 
ATOM      3  C   UNL     1      16.754  17.669  51.618  1.00  0.00     0.238 A 
ATOM      4  O   UNL     1      17.767  17.933  52.315  1.00  0.00    -0.285 OA
ATOM      5  C   UNL     1      16.546  16.377  51.077  1.00  0.00     0.111 A 
ATOM      6  C   UNL     1      17.471  15.295  51.187  1.00  0.00     0.134 A 
ATOM      7  C   UNL     1      17.105  14.024  50.727  1.00  0.00     0.093 A 
ATOM      8  C   UNL     1      15.873  13.811  50.103  1.00  0.00     0.123 A 
ATOM      9  C   UNL     1      14.988  14.874  49.937  1.00  0.00     0.094 A 
ATOM     10  C   UNL     1      15.311  16.146  50.418  1.00  0.00     0.146 A 
ATOM     11  O   UNL     1      14.434  17.129  50.250  1.00  0.00    -0.452 OA
ENDROOT
BRANCH   1  12
ATOM     12  C   UNL     1      13.584  19.379  50.410  1.00  0.00     0.021 A 
ATOM     13  C   UNL     1      13.636  20.190  49.262  1.00  0.00     0.016 A 
ATOM     14  C   UNL     1      12.625  21.122  49.009  1.00  0.00     0.047 A 
ATOM     15  C   UNL     1      11.544  21.245  49.892  1.00  0.00     0.115 A 
ATOM     16  C   UNL     1      12.487  19.495  51.279  1.00  0.00     0.016 A 
ATOM     17  C   UNL     1      11.478  20.428  51.024  1.00  0.00     0.047 A 
BRANCH  15  18
ATOM     18  O   UNL     1      10.532  22.171  49.651  1.00  0.00    -0.508 OA
ATOM     19  H   UNL     1       9.605  22.058  50.046  1.00  0.00     0.293 HD
ENDBRANCH  15  18
ENDBRANCH   1  12
BRANCH   2  20
ATOM     20  O   UNL     1      15.967  19.949  51.957  1.00  0.00    -0.502 OA
ATOM     21  H   UNL     1      16.867  20.415  51.976  1.00  0.00     0.293 HD
ENDBRANCH   2  20
BRANCH   6  22
ATOM     22  O   UNL     1      18.762  15.421  51.709  1.00  0.00    -0.507 OA
ATOM     23  H   UNL     1      19.426  14.665  51.787  1.00  0.00     0.293 HD
ENDBRANCH   6  22
BRANCH   8  24
ATOM     24  O   UNL     1      15.523  12.547  49.633  1.00  0.00    -0.508 OA
ATOM     25  H   UNL     1      15.019  11.887  50.214  1.00  0.00     0.293 HD
ENDBRANCH   8  24
TORSDOF 5
ENDMDL
MODEL 4
REMARK VINA RESULT:     0.000      6.640      7.444
REMARK INTER + INTRA:          -0.301
REMARK INTER:                   0.000
REMARK INTRA:                  -0.301
REMARK UNBOUND:                -0.301
REMARK SMILES O=c1c(O)c(-c2ccc(O)cc2)oc2cc(O)cc(O)c12
REMARK SMILES IDX 5 1 3 2 2 3 1 4 21 5 19 6 18 7 16 8 15 9 14 10 13 11 6 12
REMARK SMILES IDX 7 13 8 14 9 15 12 16 11 17 10 18 4 20 20 22 17 24
REMARK H PARENT 10 19 4 21 20 23 17 25
REMARK Flexibility Score: inf
ROOT
ATOM      1  C   UNL     1       8.718  20.730  53.867  1.00  0.00     0.180 A 
ATOM      2  C   UNL     1       8.284  19.530  54.456  1.00  0.00     0.208 A 
ATOM      3  C   UNL     1       7.334  18.745  53.783  1.00  0.00     0.238 A 
ATOM      4  O   UNL     1       6.908  17.701  54.340  1.00  0.00    -0.285 OA
ATOM      5  C   UNL     1       6.844  19.161  52.521  1.00  0.00     0.111 A 
ATOM      6  C   UNL     1       5.912  18.423  51.731  1.00  0.00     0.134 A 
ATOM      7  C   UNL     1       5.397  18.992  50.559  1.00  0.00     0.093 A 
ATOM      8  C   UNL     1       5.831  20.244  50.115  1.00  0.00     0.123 A 
ATOM      9  C   UNL     1       6.786  20.945  50.848  1.00  0.00     0.094 A 
ATOM     10  C   UNL     1       7.291  20.419  52.040  1.00  0.00     0.146 A 
ATOM     11  O   UNL     1       8.191  21.125  52.713  1.00  0.00    -0.452 OA
ENDROOT
BRANCH   1  12
ATOM     12  C   UNL     1       9.735  21.599  54.503  1.00  0.00     0.021 A 
ATOM     13  C   UNL     1      11.108  21.419  54.259  1.00  0.00     0.016 A 
ATOM     14  C   UNL     1      12.049  22.267  54.853  1.00  0.00     0.047 A 
ATOM     15  C   UNL     1      11.628  23.311  55.686  1.00  0.00     0.115 A 
ATOM     16  C   UNL     1       9.321  22.660  55.324  1.00  0.00     0.016 A 
ATOM     17  C   UNL     1      10.264  23.506  55.917  1.00  0.00     0.047 A 
BRANCH  15  18
ATOM     18  O   UNL     1      12.556  24.160  56.284  1.00  0.00    -0.508 OA
ATOM     19  H   UNL     1      13.344  23.798  56.810  1.00  0.00     0.293 HD
ENDBRANCH  15  18
ENDBRANCH   1  12
BRANCH   2  20
ATOM     20  O   UNL     1       8.763  19.150  55.712  1.00  0.00    -0.502 OA
ATOM     21  H   UNL     1       8.721  18.194  56.045  1.00  0.00     0.293 HD
ENDBRANCH   2  20
BRANCH   6  22
ATOM     22  O   UNL     1       5.482  17.128  52.036  1.00  0.00    -0.507 OA
ATOM     23  H   UNL     1       4.695  16.668  51.604  1.00  0.00     0.293 HD
ENDBRANCH   6  22
BRANCH   8  24
ATOM     24  O   UNL     1       5.326  20.795  48.940  1.00  0.00    -0.508 OA
ATOM     25  H   UNL     1       5.785  20.652  48.048  1.00  0.00     0.293 HD
ENDBRANCH   8  24
TORSDOF 5
ENDMDL
MODEL 5
REMARK VINA RESULT:     0.000      2.369      6.532
REMARK INTER + INTRA:          -0.301
REMARK INTER:                   0.000
REMARK INTRA:                  -0.301
REMARK UNBOUND:                -0.301
REMARK SMILES O=c1c(O)c(-c2ccc(O)cc2)oc2cc(O)cc(O)c12
REMARK SMILES IDX 5 1 3 2 2 3 1 4 21 5 19 6 18 7 16 8 15 9 14 10 13 11 6 12
REMARK SMILES IDX 7 13 8 14 9 15 12 16 11 17 10 18 4 20 20 22 17 24
REMARK H PARENT 10 19 4 21 20 23 17 25
REMARK Flexibility Score: inf
ROOT
ATOM      1  C   UNL     1      11.595  15.180  51.071  1.00  0.00     0.180 A 
ATOM      2  C   UNL     1      11.724  14.814  52.422  1.00  0.00     0.208 A 
ATOM      3  C   UNL     1      12.957  14.323  52.881  1.00  0.00     0.238 A 
ATOM      4  O   UNL     1      13.051  13.946  54.077  1.00  0.00    -0.285 OA
ATOM      5  C   UNL     1      14.050  14.220  51.987  1.00  0.00     0.111 A 
ATOM      6  C   UNL     1      15.356  13.775  52.352  1.00  0.00     0.134 A 
ATOM      7  C   UNL     1      16.326  13.588  51.359  1.00  0.00     0.093 A 
ATOM      8  C   UNL     1      16.055  13.894  50.023  1.00  0.00     0.123 A 
ATOM      9  C   UNL     1      14.803  14.386  49.665  1.00  0.00     0.094 A 
ATOM     10  C   UNL     1      13.804  14.548  50.628  1.00  0.00     0.146 A 
ATOM     11  O   UNL     1      12.620  15.010  50.243  1.00  0.00    -0.452 OA
ENDROOT
BRANCH   1  12
ATOM     12  C   UNL     1      10.336  15.729  50.519  1.00  0.00     0.021 A 
ATOM     13  C   UNL     1      10.073  17.110  50.529  1.00  0.00     0.016 A 
ATOM     14  C   UNL     1       8.886  17.608  49.981  1.00  0.00     0.047 A 
ATOM     15  C   UNL     1       7.956  16.734  49.404  1.00  0.00     0.115 A 
ATOM     16  C   UNL     1       9.407  14.862  49.921  1.00  0.00     0.016 A 
ATOM     17  C   UNL     1       8.221  15.362  49.374  1.00  0.00     0.047 A 
BRANCH  15  18
ATOM     18  O   UNL     1       6.771  17.218  48.857  1.00  0.00    -0.508 OA
ATOM     19  H   UNL     1       6.563  18.210  48.837  1.00  0.00     0.293 HD
ENDBRANCH  15  18
ENDBRANCH   1  12
BRANCH   2  20
ATOM     20  O   UNL     1      10.626  14.903  53.282  1.00  0.00    -0.502 OA
ATOM     21  H   UNL     1       9.781  14.361  53.143  1.00  0.00     0.293 HD
ENDBRANCH   2  20
BRANCH   6  22
ATOM     22  O   UNL     1      15.758  13.529  53.669  1.00  0.00    -0.507 OA
ATOM     23  H   UNL     1      15.130  13.323  54.432  1.00  0.00     0.293 HD
ENDBRANCH   6  22
BRANCH   8  24
ATOM     24  O   UNL     1      17.031  13.721  49.043  1.00  0.00    -0.508 OA
ATOM     25  H   UNL     1      17.523  14.510  48.639  1.00  0.00     0.293 HD
ENDBRANCH   8  24
TORSDOF 5
ENDMDL
MODEL 6
REMARK VINA RESULT:     0.000     10.391     12.940
REMARK INTER + INTRA:          -0.301
REMARK INTER:                   0.000
REMARK INTRA:                  -0.301
REMARK UNBOUND:                -0.301
REMARK SMILES O=c1c(O)c(-c2ccc(O)cc2)oc2cc(O)cc(O)c12
REMARK SMILES IDX 5 1 3 2 2 3 1 4 21 5 19 6 18 7 16 8 15 9 14 10 13 11 6 12
REMARK SMILES IDX 7 13 8 14 9 15 12 16 11 17 10 18 4 20 20 22 17 24
REMARK H PARENT 10 19 4 21 20 23 17 25
REMARK Flexibility Score: inf
ROOT
ATOM      1  C   UNL     1      14.402  25.350  53.862  1.00  0.00     0.180 A 
ATOM      2  C   UNL     1      15.015  25.370  52.597  1.00  0.00     0.208 A 
ATOM      3  C   UNL     1      16.407  25.534  52.517  1.00  0.00     0.238 A 
ATOM      4  O   UNL     1      16.943  25.606  51.382  1.00  0.00    -0.285 OA
ATOM      5  C   UNL     1      17.171  25.658  53.703  1.00  0.00     0.111 A 
ATOM      6  C   UNL     1      18.591  25.788  53.742  1.00  0.00     0.134 A 
ATOM      7  C   UNL     1      19.229  26.036  54.964  1.00  0.00     0.093 A 
ATOM      8  C   UNL     1      18.504  26.094  56.156  1.00  0.00     0.123 A 
ATOM      9  C   UNL     1      17.124  25.909  56.136  1.00  0.00     0.094 A 
ATOM     10  C   UNL     1      16.455  25.696  54.928  1.00  0.00     0.146 A 
ATOM     11  O   UNL     1      15.137  25.535  54.952  1.00  0.00    -0.452 OA
ENDROOT
BRANCH   1  12
ATOM     12  C   UNL     1      12.943  25.156  54.029  1.00  0.00     0.021 A 
ATOM     13  C   UNL     1      12.385  23.872  54.154  1.00  0.00     0.016 A 
ATOM     14  C   UNL     1      11.006  23.714  54.334  1.00  0.00     0.047 A 
ATOM     15  C   UNL     1      10.173  24.838  54.405  1.00  0.00     0.115 A 
ATOM     16  C   UNL     1      12.103  26.278  54.122  1.00  0.00     0.016 A 
ATOM     17  C   UNL     1      10.725  26.118  54.301  1.00  0.00     0.047 A 
BRANCH  15  18
ATOM     18  O   UNL     1       8.799  24.693  54.583  1.00  0.00    -0.508 OA
ATOM     19  H   UNL     1       8.265  25.351  55.139  1.00  0.00     0.293 HD
ENDBRANCH  15  18
ENDBRANCH   1  12
BRANCH   2  20
ATOM     20  O   UNL     1      14.240  25.267  51.439  1.00  0.00    -0.502 OA
ATOM     21  H   UNL     1      14.637  25.337  50.510  1.00  0.00     0.293 HD
ENDBRANCH   2  20
BRANCH   6  22
ATOM     22  O   UNL     1      19.419  25.655  52.623  1.00  0.00    -0.507 OA
ATOM     23  H   UNL     1      19.362  24.903  51.953  1.00  0.00     0.293 HD
ENDBRANCH   6  22
BRANCH   8  24
ATOM     24  O   UNL     1      19.149  26.324  57.370  1.00  0.00    -0.508 OA
ATOM     25  H   UNL     1      19.026  27.192  57.878  1.00  0.00     0.293 HD
ENDBRANCH   8  24
TORSDOF 5
ENDMDL
MODEL 7
REMARK VINA RESULT:     0.000      7.725      8.799
REMARK INTER + INTRA:          -0.301
REMARK INTER:                   0.000
REMARK INTRA:                  -0.301
REMARK UNBOUND:                -0.301
REMARK SMILES O=c1c(O)c(-c2ccc(O)cc2)oc2cc(O)cc(O)c12
REMARK SMILES IDX 5 1 3 2 2 3 1 4 21 5 19 6 18 7 16 8 15 9 14 10 13 11 6 12
REMARK SMILES IDX 7 13 8 14 9 15 12 16 11 17 10 18 4 20 20 22 17 24
REMARK H PARENT 10 19 4 21 20 23 17 25
REMARK Flexibility Score: inf
ROOT
ATOM      1  C   UNL     1      10.558  21.941  54.610  1.00  0.00     0.180 A 
ATOM      2  C   UNL     1      10.203  21.106  53.536  1.00  0.00     0.208 A 
ATOM      3  C   UNL     1       8.922  20.531  53.514  1.00  0.00     0.238 A 
ATOM      4  O   UNL     1       8.630  19.742  52.578  1.00  0.00    -0.285 OA
ATOM      5  C   UNL     1       8.007  20.811  54.557  1.00  0.00     0.111 A 
ATOM      6  C   UNL     1       6.669  20.316  54.615  1.00  0.00     0.134 A 
ATOM      7  C   UNL     1       5.895  20.550  55.759  1.00  0.00     0.093 A 
ATOM      8  C   UNL     1       6.388  21.318  56.817  1.00  0.00     0.123 A 
ATOM      9  C   UNL     1       7.671  21.856  56.743  1.00  0.00     0.094 A 
ATOM     10  C   UNL     1       8.480  21.609  55.631  1.00  0.00     0.146 A 
ATOM     11  O   UNL     1       9.700  22.131  55.605  1.00  0.00    -0.452 OA
ENDROOT
BRANCH   1  12
ATOM     12  C   UNL     1      11.880  22.604  54.691  1.00  0.00     0.021 A 
ATOM     13  C   UNL     1      12.099  23.871  54.122  1.00  0.00     0.016 A 
ATOM     14  C   UNL     1      13.350  24.488  54.232  1.00  0.00     0.047 A 
ATOM     15  C   UNL     1      14.391  23.852  54.921  1.00  0.00     0.115 A 
ATOM     16  C   UNL     1      12.922  21.982  55.397  1.00  0.00     0.016 A 
ATOM     17  C   UNL     1      14.172  22.600  55.504  1.00  0.00     0.047 A 
BRANCH  15  18
ATOM     18  O   UNL     1      15.640  24.456  55.035  1.00  0.00    -0.508 OA
ATOM     19  H   UNL     1      15.889  25.267  54.481  1.00  0.00     0.293 HD
ENDBRANCH  15  18
ENDBRANCH   1  12
BRANCH   2  20
ATOM     20  O   UNL     1      11.130  20.826  52.528  1.00  0.00    -0.502 OA
ATOM     21  H   UNL     1      11.000  21.128  51.569  1.00  0.00     0.293 HD
ENDBRANCH   2  20
BRANCH   6  22
ATOM     22  O   UNL     1       6.049  19.617  53.575  1.00  0.00    -0.507 OA
ATOM     23  H   UNL     1       5.617  20.048  52.772  1.00  0.00     0.293 HD
ENDBRANCH   6  22
BRANCH   8  24
ATOM     24  O   UNL     1       5.606  21.560  57.944  1.00  0.00    -0.508 OA
ATOM     25  H   UNL     1       4.669  21.939  57.867  1.00  0.00     0.293 HD
ENDBRANCH   8  24
TORSDOF 5
ENDMDL
MODEL 8
REMARK VINA RESULT:     0.000      3.863      5.102
REMARK INTER + INTRA:          -0.301
REMARK INTER:                   0.000
REMARK INTRA:                  -0.301
REMARK UNBOUND:                -0.301
REMARK SMILES O=c1c(O)c(-c2ccc(O)cc2)oc2cc(O)cc(O)c12
REMARK SMILES IDX 5 1 3 2 2 3 1 4 21 5 19 6 18 7 16 8 15 9 14 10 13 11 6 12
REMARK SMILES IDX 7 13 8 14 9 15 12 16 11 17 10 18 4 20 20 22 17 24
REMARK H PARENT 10 19 4 21 20 23 17 25
REMARK Flexibility Score: inf
ROOT
ATOM      1  C   UNL     1      12.503  17.915  49.861  1.00  0.00     0.180 A 
ATOM      2  C   UNL     1      13.187  17.539  48.692  1.00  0.00     0.208 A 
ATOM      3  C   UNL     1      12.456  17.020  47.611  1.00  0.00     0.238 A 
ATOM      4  O   UNL     1      13.079  16.635  46.588  1.00  0.00    -0.285 OA
ATOM      5  C   UNL     1      11.048  16.899  47.707  1.00  0.00     0.111 A 
ATOM      6  C   UNL     1      10.203  16.424  46.660  1.00  0.00     0.134 A 
ATOM      7  C   UNL     1       8.840  16.223  46.910  1.00  0.00     0.093 A 
ATOM      8  C   UNL     1       8.281  16.541  48.150  1.00  0.00     0.123 A 
ATOM      9  C   UNL     1       9.087  17.061  49.160  1.00  0.00     0.094 A 
ATOM     10  C   UNL     1      10.457  17.239  48.952  1.00  0.00     0.146 A 
ATOM     11  O   UNL     1      11.191  17.728  49.944  1.00  0.00    -0.452 OA
ENDROOT
BRANCH   1  12
ATOM     12  C   UNL     1      13.201  18.493  51.032  1.00  0.00     0.021 A 
ATOM     13  C   UNL     1      13.402  19.880  51.153  1.00  0.00     0.016 A 
ATOM     14  C   UNL     1      14.043  20.405  52.280  1.00  0.00     0.047 A 
ATOM     15  C   UNL     1      14.479  19.554  53.303  1.00  0.00     0.115 A 
ATOM     16  C   UNL     1      13.623  17.649  52.072  1.00  0.00     0.016 A 
ATOM     17  C   UNL     1      14.265  18.177  53.196  1.00  0.00     0.047 A 
BRANCH  15  18
ATOM     18  O   UNL     1      15.120  20.066  54.429  1.00  0.00    -0.508 OA
ATOM     19  H   UNL     1      15.475  21.015  54.450  1.00  0.00     0.293 HD
ENDBRANCH  15  18
ENDBRANCH   1  12
BRANCH   2  20
ATOM     20  O   UNL     1      14.579  17.647  48.627  1.00  0.00    -0.502 OA
ATOM     21  H   UNL     1      15.183  16.839  48.530  1.00  0.00     0.293 HD
ENDBRANCH   2  20
BRANCH   6  22
ATOM     22  O   UNL     1      10.643  16.164  45.359  1.00  0.00    -0.507 OA
ATOM     23  H   UNL     1      10.139  15.610  44.682  1.00  0.00     0.293 HD
ENDBRANCH   6  22
BRANCH   8  24
ATOM     24  O   UNL     1       6.921  16.353  48.386  1.00  0.00    -0.508 OA
ATOM     25  H   UNL     1       6.219  16.690  47.737  1.00  0.00     0.293 HD
ENDBRANCH   8  24
TORSDOF 5
ENDMDL
MODEL 9
REMARK VINA RESULT:     0.000      7.655      8.729
REMARK INTER + INTRA:          -0.301
REMARK INTER:                   0.000
REMARK INTRA:                  -0.301
REMARK UNBOUND:                -0.301
REMARK SMILES O=c1c(O)c(-c2ccc(O)cc2)oc2cc(O)cc(O)c12
REMARK SMILES IDX 5 1 3 2 2 3 1 4 21 5 19 6 18 7 16 8 15 9 14 10 13 11 6 12
REMARK SMILES IDX 7 13 8 14 9 15 12 16 11 17 10 18 4 20 20 22 17 24
REMARK H PARENT 10 19 4 21 20 23 17 25
REMARK Flexibility Score: inf
ROOT
ATOM      1  C   UNL     1      11.746  20.387  56.683  1.00  0.00     0.180 A 
ATOM      2  C   UNL     1      12.171  21.150  57.785  1.00  0.00     0.208 A 
ATOM      3  C   UNL     1      11.355  22.196  58.244  1.00  0.00     0.238 A 
ATOM      4  O   UNL     1      11.765  22.910  59.196  1.00  0.00    -0.285 OA
ATOM      5  C   UNL     1      10.117  22.456  57.608  1.00  0.00     0.111 A 
ATOM      6  C   UNL     1       9.192  23.464  58.015  1.00  0.00     0.134 A 
ATOM      7  C   UNL     1       8.059  23.718  57.232  1.00  0.00     0.093 A 
ATOM      8  C   UNL     1       7.784  22.957  56.094  1.00  0.00     0.123 A 
ATOM      9  C   UNL     1       8.650  21.931  55.722  1.00  0.00     0.094 A 
ATOM     10  C   UNL     1       9.807  21.677  56.462  1.00  0.00     0.146 A 
ATOM     11  O   UNL     1      10.611  20.697  56.067  1.00  0.00    -0.452 OA
ENDROOT
BRANCH   1  12
ATOM     12  C   UNL     1      12.539  19.252  56.156  1.00  0.00     0.021 A 
ATOM     13  C   UNL     1      12.366  17.947  56.650  1.00  0.00     0.016 A 
ATOM     14  C   UNL     1      13.109  16.887  56.121  1.00  0.00     0.047 A 
ATOM     15  C   UNL     1      14.023  17.116  55.084  1.00  0.00     0.115 A 
ATOM     16  C   UNL     1      13.442  19.470  55.104  1.00  0.00     0.016 A 
ATOM     17  C   UNL     1      14.184  18.408  54.577  1.00  0.00     0.047 A 
BRANCH  15  18
ATOM     18  O   UNL     1      14.769  16.068  54.551  1.00  0.00    -0.508 OA
ATOM     19  H   UNL     1      14.332  15.321  54.024  1.00  0.00     0.293 HD
ENDBRANCH  15  18
ENDBRANCH   1  12
BRANCH   2  20
ATOM     20  O   UNL     1      13.406  20.891  58.384  1.00  0.00    -0.502 OA
ATOM     21  H   UNL     1      14.285  21.003  57.891  1.00  0.00     0.293 HD
ENDBRANCH   2  20
BRANCH   6  22
ATOM     22  O   UNL     1       9.324  24.219  59.184  1.00  0.00    -0.507 OA
ATOM     23  H   UNL     1       8.575  24.409  59.832  1.00  0.00     0.293 HD
ENDBRANCH   6  22
BRANCH   8  24
ATOM     24  O   UNL     1       6.646  23.206  55.330  1.00  0.00    -0.508 OA
ATOM     25  H   UNL     1       6.255  22.501  54.716  1.00  0.00     0.293 HD
ENDBRANCH   8  24
TORSDOF 5
ENDMDL
