MODEL 1
REMARK VINA RESULT:    -4.234      0.000      0.000
REMARK INTER + INTRA:          -4.234
REMARK INTER:                  -4.234
REMARK INTRA:                   0.000
REMARK UNBOUND:                 0.000
REMARK SMILES CC1=CC(=O)[C@@H]2C[C@H]1C2(C)C
REMARK SMILES IDX 1 1 2 2 3 3 4 4 5 5 6 6 7 7 8 8 9 9 10 10 11 11
REMARK H PARENT
REMARK Flexibility Score: inf
ROOT
ATOM      1  C   UNL     1       4.871  -0.873  -9.187  1.00  0.00     0.040 C 
ATOM      2  C   UNL     1       5.607  -0.760  -7.890  1.00  0.00    -0.066 C 
ATOM      3  C   UNL     1       5.664  -1.802  -7.015  1.00  0.00     0.047 C 
ATOM      4  C   UNL     1       6.458  -1.575  -5.764  1.00  0.00     0.159 C 
ATOM      5  O   UNL     1       6.619  -2.473  -4.897  1.00  0.00    -0.295 OA
ATOM      6  C   UNL     1       7.060  -0.177  -5.617  1.00  0.00     0.067 C 
ATOM      7  C   UNL     1       5.906   0.774  -6.001  1.00  0.00     0.021 C 
ATOM      8  C   UNL     1       6.320   0.543  -7.472  1.00  0.00     0.022 C 
ATOM      9  C   UNL     1       7.751   0.208  -6.957  1.00  0.00    -0.019 C 
ATOM     10  C   UNL     1       8.639   1.471  -6.820  1.00  0.00     0.012 C 
ATOM     11  C   UNL     1       8.566  -0.882  -7.708  1.00  0.00     0.012 C 
ENDROOT
TORSDOF 0
ENDMDL
MODEL 2
REMARK VINA RESULT:    -3.916      1.697      2.520
REMARK INTER + INTRA:          -3.916
REMARK INTER:                  -3.916
REMARK INTRA:                   0.000
REMARK UNBOUND:                 0.000
REMARK SMILES CC1=CC(=O)[C@@H]2C[C@H]1C2(C)C
REMARK SMILES IDX 1 1 2 2 3 3 4 4 5 5 6 6 7 7 8 8 9 9 10 10 11 11
REMARK H PARENT
REMARK Flexibility Score: inf
ROOT
ATOM      1  C   UNL     1       5.932  -2.125  -9.352  1.00  0.00     0.040 C 
ATOM      2  C   UNL     1       6.663  -1.437  -8.243  1.00  0.00    -0.066 C 
ATOM      3  C   UNL     1       8.015  -1.283  -8.275  1.00  0.00     0.047 C 
ATOM      4  C   UNL     1       8.627  -0.550  -7.120  1.00  0.00     0.159 C 
ATOM      5  O   UNL     1       9.861  -0.309  -7.052  1.00  0.00    -0.295 OA
ATOM      6  C   UNL     1       7.646  -0.111  -6.031  1.00  0.00     0.067 C 
ATOM      7  C   UNL     1       6.763  -1.355  -5.795  1.00  0.00     0.021 C 
ATOM      8  C   UNL     1       5.926  -0.884  -7.005  1.00  0.00     0.022 C 
ATOM      9  C   UNL     1       6.421   0.563  -6.711  1.00  0.00    -0.019 C 
ATOM     10  C   UNL     1       5.514   1.301  -5.693  1.00  0.00     0.012 C 
ATOM     11  C   UNL     1       6.673   1.512  -7.916  1.00  0.00     0.012 C 
ENDROOT
TORSDOF 0
ENDMDL
MODEL 3
REMARK VINA RESULT:    -3.908      1.753      3.049
REMARK INTER + INTRA:          -3.908
REMARK INTER:                  -3.908
REMARK INTRA:                   0.000
REMARK UNBOUND:                 0.000
REMARK SMILES CC1=CC(=O)[C@@H]2C[C@H]1C2(C)C
REMARK SMILES IDX 1 1 2 2 3 3 4 4 5 5 6 6 7 7 8 8 9 9 10 10 11 11
REMARK H PARENT
REMARK Flexibility Score: inf
ROOT
ATOM      1  C   UNL     1       6.704  -2.079  -5.059  1.00  0.00     0.040 C 
ATOM      2  C   UNL     1       6.594  -1.289  -6.324  1.00  0.00    -0.066 C 
ATOM      3  C   UNL     1       5.570  -1.491  -7.199  1.00  0.00     0.047 C 
ATOM      4  C   UNL     1       5.554  -0.615  -8.416  1.00  0.00     0.159 C 
ATOM      5  O   UNL     1       4.639  -0.678  -9.278  1.00  0.00    -0.295 OA
ATOM      6  C   UNL     1       6.725   0.362  -8.533  1.00  0.00     0.067 C 
ATOM      7  C   UNL     1       7.965  -0.493  -8.194  1.00  0.00     0.021 C 
ATOM      8  C   UNL     1       7.640  -0.221  -6.709  1.00  0.00     0.022 C 
ATOM      9  C   UNL     1       6.912   1.077  -7.165  1.00  0.00    -0.019 C 
ATOM     10  C   UNL     1       7.872   2.290  -7.260  1.00  0.00     0.012 C 
ATOM     11  C   UNL     1       5.643   1.521  -6.384  1.00  0.00     0.012 C 
ENDROOT
TORSDOF 0
ENDMDL
MODEL 4
REMARK VINA RESULT:    -3.832      1.902      3.147
REMARK INTER + INTRA:          -3.832
REMARK INTER:                  -3.832
REMARK INTRA:                   0.000
REMARK UNBOUND:                 0.000
REMARK SMILES CC1=CC(=O)[C@@H]2C[C@H]1C2(C)C
REMARK SMILES IDX 1 1 2 2 3 3 4 4 5 5 6 6 7 7 8 8 9 9 10 10 11 11
REMARK H PARENT
REMARK Flexibility Score: inf
ROOT
ATOM      1  C   UNL     1       8.318  -0.752  -9.727  1.00  0.00     0.040 C 
ATOM      2  C   UNL     1       7.655  -0.258  -8.481  1.00  0.00    -0.066 C 
ATOM      3  C   UNL     1       6.795   0.797  -8.507  1.00  0.00     0.047 C 
ATOM      4  C   UNL     1       6.172   1.177  -7.197  1.00  0.00     0.159 C 
ATOM      5  O   UNL     1       5.331   2.109  -7.097  1.00  0.00    -0.295 OA
ATOM      6  C   UNL     1       6.628   0.352  -5.993  1.00  0.00     0.067 C 
ATOM      7  C   UNL     1       8.162   0.280  -6.143  1.00  0.00     0.021 C 
ATOM      8  C   UNL     1       7.926  -0.905  -7.106  1.00  0.00     0.022 C 
ATOM      9  C   UNL     1       6.574  -1.154  -6.376  1.00  0.00    -0.019 C 
ATOM     10  C   UNL     1       6.732  -2.081  -5.143  1.00  0.00     0.012 C 
ATOM     11  C   UNL     1       5.368  -1.661  -7.215  1.00  0.00     0.012 C 
ENDROOT
TORSDOF 0
ENDMDL
MODEL 5
REMARK VINA RESULT:    -3.796      0.941      3.134
REMARK INTER + INTRA:          -3.796
REMARK INTER:                  -3.796
REMARK INTRA:                   0.000
REMARK UNBOUND:                 0.000
REMARK SMILES CC1=CC(=O)[C@@H]2C[C@H]1C2(C)C
REMARK SMILES IDX 1 1 2 2 3 3 4 4 5 5 6 6 7 7 8 8 9 9 10 10 11 11
REMARK H PARENT
REMARK Flexibility Score: inf
ROOT
ATOM      1  C   UNL     1       9.625   1.255  -6.301  1.00  0.00     0.040 C 
ATOM      2  C   UNL     1       8.493   0.297  -6.495  1.00  0.00    -0.066 C 
ATOM      3  C   UNL     1       8.135  -0.583  -5.519  1.00  0.00     0.047 C 
ATOM      4  C   UNL     1       6.965  -1.470  -5.822  1.00  0.00     0.159 C 
ATOM      5  O   UNL     1       6.514  -2.297  -4.987  1.00  0.00    -0.295 OA
ATOM      6  C   UNL     1       6.358  -1.298  -7.215  1.00  0.00     0.067 C 
ATOM      7  C   UNL     1       7.581  -1.257  -8.157  1.00  0.00     0.021 C 
ATOM      8  C   UNL     1       7.689   0.245  -7.811  1.00  0.00     0.022 C 
ATOM      9  C   UNL     1       6.167   0.221  -7.487  1.00  0.00    -0.019 C 
ATOM     10  C   UNL     1       5.293   0.490  -8.739  1.00  0.00     0.012 C 
ATOM     11  C   UNL     1       5.648   1.119  -6.329  1.00  0.00     0.012 C 
ENDROOT
TORSDOF 0
ENDMDL
MODEL 6
REMARK VINA RESULT:    -3.795      1.184      2.573
REMARK INTER + INTRA:          -3.795
REMARK INTER:                  -3.795
REMARK INTRA:                   0.000
REMARK UNBOUND:                 0.000
REMARK SMILES CC1=CC(=O)[C@@H]2C[C@H]1C2(C)C
REMARK SMILES IDX 1 1 2 2 3 3 4 4 5 5 6 6 7 7 8 8 9 9 10 10 11 11
REMARK H PARENT
REMARK Flexibility Score: inf
ROOT
ATOM      1  C   UNL     1       5.402   2.470  -6.821  1.00  0.00     0.040 C 
ATOM      2  C   UNL     1       6.153   1.179  -6.756  1.00  0.00    -0.066 C 
ATOM      3  C   UNL     1       6.062   0.361  -5.671  1.00  0.00     0.047 C 
ATOM      4  C   UNL     1       6.838  -0.920  -5.739  1.00  0.00     0.159 C 
ATOM      5  O   UNL     1       6.805  -1.777  -4.818  1.00  0.00    -0.295 OA
ATOM      6  C   UNL     1       7.670  -1.113  -7.008  1.00  0.00     0.067 C 
ATOM      7  C   UNL     1       8.374   0.246  -7.208  1.00  0.00     0.021 C 
ATOM      8  C   UNL     1       7.077   0.718  -7.903  1.00  0.00     0.022 C 
ATOM      9  C   UNL     1       6.782  -0.773  -8.239  1.00  0.00    -0.019 C 
ATOM     10  C   UNL     1       7.432  -1.216  -9.575  1.00  0.00     0.012 C 
ATOM     11  C   UNL     1       5.302  -1.248  -8.236  1.00  0.00     0.012 C 
ENDROOT
TORSDOF 0
ENDMDL
MODEL 7
REMARK VINA RESULT:    -3.793      1.979      3.185
REMARK INTER + INTRA:          -3.793
REMARK INTER:                  -3.793
REMARK INTRA:                   0.000
REMARK UNBOUND:                 0.000
REMARK SMILES CC1=CC(=O)[C@@H]2C[C@H]1C2(C)C
REMARK SMILES IDX 1 1 2 2 3 3 4 4 5 5 6 6 7 7 8 8 9 9 10 10 11 11
REMARK H PARENT
REMARK Flexibility Score: inf
ROOT
ATOM      1  C   UNL     1       6.796  -1.987  -5.160  1.00  0.00     0.040 C 
ATOM      2  C   UNL     1       6.975  -0.727  -5.947  1.00  0.00    -0.066 C 
ATOM      3  C   UNL     1       8.152  -0.043  -5.931  1.00  0.00     0.047 C 
ATOM      4  C   UNL     1       8.216   1.188  -6.785  1.00  0.00     0.159 C 
ATOM      5  O   UNL     1       9.260   1.883  -6.886  1.00  0.00    -0.295 OA
ATOM      6  C   UNL     1       6.924   1.536  -7.526  1.00  0.00     0.067 C 
ATOM      7  C   UNL     1       5.821   1.375  -6.459  1.00  0.00     0.021 C 
ATOM      8  C   UNL     1       5.833  -0.133  -6.798  1.00  0.00     0.022 C 
ATOM      9  C   UNL     1       6.380   0.247  -8.205  1.00  0.00    -0.019 C 
ATOM     10  C   UNL     1       5.245   0.549  -9.217  1.00  0.00     0.012 C 
ATOM     11  C   UNL     1       7.395  -0.715  -8.883  1.00  0.00     0.012 C 
ENDROOT
TORSDOF 0
ENDMDL
MODEL 8
REMARK VINA RESULT:    -3.787      2.020      3.122
REMARK INTER + INTRA:          -3.787
REMARK INTER:                  -3.787
REMARK INTRA:                   0.000
REMARK UNBOUND:                 0.000
REMARK SMILES CC1=CC(=O)[C@@H]2C[C@H]1C2(C)C
REMARK SMILES IDX 1 1 2 2 3 3 4 4 5 5 6 6 7 7 8 8 9 9 10 10 11 11
REMARK H PARENT
REMARK Flexibility Score: inf
ROOT
ATOM      1  C   UNL     1       5.468   2.490  -7.367  1.00  0.00     0.040 C 
ATOM      2  C   UNL     1       6.067   1.143  -7.618  1.00  0.00    -0.066 C 
ATOM      3  C   UNL     1       6.897   0.923  -8.676  1.00  0.00     0.047 C 
ATOM      4  C   UNL     1       7.457  -0.462  -8.802  1.00  0.00     0.159 C 
ATOM      5  O   UNL     1       8.265  -0.781  -9.713  1.00  0.00    -0.295 OA
ATOM      6  C   UNL     1       6.979  -1.459  -7.745  1.00  0.00     0.067 C 
ATOM      7  C   UNL     1       5.454  -1.230  -7.671  1.00  0.00     0.021 C 
ATOM      8  C   UNL     1       5.763  -0.064  -6.706  1.00  0.00     0.022 C 
ATOM      9  C   UNL     1       7.092  -0.789  -6.345  1.00  0.00    -0.019 C 
ATOM     10  C   UNL     1       6.915  -1.806  -5.189  1.00  0.00     0.012 C 
ATOM     11  C   UNL     1       8.345   0.081  -6.042  1.00  0.00     0.012 C 
ENDROOT
TORSDOF 0
ENDMDL
MODEL 9
REMARK VINA RESULT:    -3.625      2.018      3.216
REMARK INTER + INTRA:          -3.625
REMARK INTER:                  -3.625
REMARK INTRA:                   0.000
REMARK UNBOUND:                 0.000
REMARK SMILES CC1=CC(=O)[C@@H]2C[C@H]1C2(C)C
REMARK SMILES IDX 1 1 2 2 3 3 4 4 5 5 6 6 7 7 8 8 9 9 10 10 11 11
REMARK H PARENT
REMARK Flexibility Score: inf
ROOT
ATOM      1  C   UNL     1       6.820  -1.912  -5.161  1.00  0.00     0.040 C 
ATOM      2  C   UNL     1       6.512  -0.971  -6.282  1.00  0.00    -0.066 C 
ATOM      3  C   UNL     1       6.121   0.312  -6.042  1.00  0.00     0.047 C 
ATOM      4  C   UNL     1       5.871   1.165  -7.249  1.00  0.00     0.159 C 
ATOM      5  O   UNL     1       5.544   2.378  -7.160  1.00  0.00    -0.295 OA
ATOM      6  C   UNL     1       6.045   0.461  -8.595  1.00  0.00     0.067 C 
ATOM      7  C   UNL     1       5.308  -0.884  -8.416  1.00  0.00     0.021 C 
ATOM      8  C   UNL     1       6.604  -1.409  -7.759  1.00  0.00     0.022 C 
ATOM      9  C   UNL     1       7.383  -0.332  -8.571  1.00  0.00    -0.019 C 
ATOM     10  C   UNL     1       7.795  -0.838  -9.977  1.00  0.00     0.012 C 
ATOM     11  C   UNL     1       8.623   0.332  -7.909  1.00  0.00     0.012 C 
ENDROOT
TORSDOF 0
ENDMDL
