MODEL 1
REMARK VINA RESULT:    -3.647      0.000      0.000
REMARK INTER + INTRA:          -4.724
REMARK INTER:                  -5.140
REMARK INTRA:                   0.415
REMARK UNBOUND:                 0.415
REMARK SMILES CC1=CCC(=C(C)C)C(=O)CC(C)=CCC1
REMARK SMILES IDX 12 1 14 2 13 3 15 4 16 5 2 6 1 7 3 8 11 10 9 11 10 12 5 13
REMARK SMILES IDX 6 14 7 15 8 16 4 17
REMARK H PARENT
REMARK Flexibility Score: 60.00
ROOT
ATOM      1  C   UNL     1      21.661  27.664  43.107  1.00  0.00    -0.070 C 
ATOM      2  C   UNL     1      22.212  26.521  42.637  1.00  0.00    -0.027 C 
ATOM      3  C   UNL     1      22.511  28.908  43.119  1.00  0.00     0.039 C 
ENDROOT
BRANCH   2   4
ATOM      4  C   UNL     1      21.493  25.199  42.496  1.00  0.00     0.032 C 
BRANCH   4   5
ATOM      5  C   UNL     1      21.397  24.760  41.027  1.00  0.00     0.034 C 
BRANCH   5   6
ATOM      6  C   UNL     1      20.935  25.867  40.090  1.00  0.00    -0.077 C 
ATOM      7  C   UNL     1      21.901  26.401  39.063  1.00  0.00     0.039 C 
ATOM      8  C   UNL     1      19.687  26.391  40.115  1.00  0.00    -0.023 CG0
ATOM      9  G   UNL     1      18.609  26.035  41.112  1.00  0.00     0.000 G0
ENDBRANCH   5   6
ENDBRANCH   4   5
ENDBRANCH   2   4
BRANCH   1  10
ATOM     10  C   UNL     1      20.236  27.741  43.621  1.00  0.00     0.111 C 
BRANCH  10  11
ATOM     11  C   UNL     1      19.282  28.109  42.520  1.00  0.00     0.163 C 
ATOM     12  O   UNL     1      19.396  29.228  41.951  1.00  0.00    -0.294 OA
BRANCH  11  13
ATOM     13  C   UNL     1      18.223  27.169  42.071  1.00  0.00    -0.002 C 
ATOM     14  C   UNL     1      16.945  27.315  42.512  1.00  0.00    -0.069 C 
ATOM     15  C   UNL     1      15.864  26.338  42.108  1.00  0.00     0.039 C 
ATOM     16  C   UNL     1      16.547  28.482  43.389  1.00  0.00     0.039 C 
BRANCH  13  17
ATOM     17  C   UNL     1      18.589  26.042  41.110  1.00  0.00     0.066 CG0
ATOM     18  G   UNL     1      19.680  26.408  40.131  1.00  0.00     0.000 G0
ENDBRANCH  13  17
ENDBRANCH  11  13
ENDBRANCH  10  11
ENDBRANCH   1  10
TORSDOF 0
ENDMDL
MODEL 2
REMARK VINA RESULT:    -3.481      1.453      4.007
REMARK INTER + INTRA:          -4.490
REMARK INTER:                  -4.911
REMARK INTRA:                   0.422
REMARK UNBOUND:                 0.415
REMARK SMILES CC1=CCC(=C(C)C)C(=O)CC(C)=CCC1
REMARK SMILES IDX 12 1 14 2 13 3 15 4 16 5 2 6 1 7 3 8 11 10 9 11 10 12 5 13
REMARK SMILES IDX 6 14 7 15 8 16 4 17
REMARK H PARENT
REMARK Flexibility Score: 60.00
ROOT
ATOM      1  C   UNL     1      17.912  28.177  43.286  1.00  0.00    -0.070 C 
ATOM      2  C   UNL     1      16.977  27.477  42.601  1.00  0.00    -0.027 C 
ATOM      3  C   UNL     1      17.533  29.533  43.820  1.00  0.00     0.039 C 
ENDROOT
BRANCH   2   4
ATOM      4  C   UNL     1      17.162  26.082  42.048  1.00  0.00     0.032 C 
BRANCH   4   5
ATOM      5  C   UNL     1      16.960  26.045  40.527  1.00  0.00     0.034 C 
BRANCH   5   6
ATOM      6  C   UNL     1      17.684  27.162  39.789  1.00  0.00    -0.077 C 
ATOM      7  C   UNL     1      16.869  28.192  39.046  1.00  0.00     0.039 C 
ATOM      8  C   UNL     1      19.031  27.297  39.777  1.00  0.00    -0.023 CG0
ATOM      9  G   UNL     1      20.011  26.332  40.401  1.00  0.00     0.000 G0
ENDBRANCH   5   6
ENDBRANCH   4   5
ENDBRANCH   2   4
BRANCH   1  10
ATOM     10  C   UNL     1      19.316  27.655  43.531  1.00  0.00     0.111 C 
BRANCH  10  11
ATOM     11  C   UNL     1      20.230  28.000  42.388  1.00  0.00     0.163 C 
ATOM     12  O   UNL     1      20.495  29.210  42.153  1.00  0.00    -0.294 OA
BRANCH  11  13
ATOM     13  C   UNL     1      20.845  26.942  41.547  1.00  0.00    -0.002 C 
ATOM     14  C   UNL     1      22.113  26.518  41.797  1.00  0.00    -0.069 C 
ATOM     15  C   UNL     1      22.776  25.481  40.920  1.00  0.00     0.039 C 
ATOM     16  C   UNL     1      22.892  27.038  42.986  1.00  0.00     0.039 C 
BRANCH  13  17
ATOM     17  C   UNL     1      20.037  26.340  40.402  1.00  0.00     0.066 CG0
ATOM     18  G   UNL     1      19.038  27.296  39.794  1.00  0.00     0.000 G0
ENDBRANCH  13  17
ENDBRANCH  11  13
ENDBRANCH  10  11
ENDBRANCH   1  10
TORSDOF 0
ENDMDL
MODEL 3
REMARK VINA RESULT:    -3.424      1.942      4.106
REMARK INTER + INTRA:          -4.410
REMARK INTER:                  -4.895
REMARK INTRA:                   0.485
REMARK UNBOUND:                 0.415
REMARK SMILES CC1=CCC(=C(C)C)C(=O)CC(C)=CCC1
REMARK SMILES IDX 12 1 14 2 13 3 15 4 16 5 2 6 1 7 3 8 11 10 9 11 10 12 5 13
REMARK SMILES IDX 6 14 7 15 8 16 4 17
REMARK H PARENT
REMARK Flexibility Score: 60.00
ROOT
ATOM      1  C   UNL     1      19.560  27.103  42.838  1.00  0.00    -0.070 C 
ATOM      2  C   UNL     1      20.585  26.742  43.646  1.00  0.00    -0.027 C 
ATOM      3  C   UNL     1      18.607  28.160  43.332  1.00  0.00     0.039 C 
ENDROOT
BRANCH   2   4
ATOM      4  C   UNL     1      21.666  25.747  43.292  1.00  0.00     0.032 C 
BRANCH   4   5
ATOM      5  C   UNL     1      23.042  26.420  43.186  1.00  0.00     0.034 C 
BRANCH   5   6
ATOM      6  C   UNL     1      23.010  27.761  42.467  1.00  0.00    -0.077 C 
ATOM      7  C   UNL     1      23.249  29.020  43.265  1.00  0.00     0.039 C 
ATOM      8  C   UNL     1      22.796  27.888  41.137  1.00  0.00    -0.023 CG0
ATOM      9  G   UNL     1      22.471  26.756  40.191  1.00  0.00     0.000 G0
ENDBRANCH   5   6
ENDBRANCH   4   5
ENDBRANCH   2   4
BRANCH   1  10
ATOM     10  C   UNL     1      19.334  26.490  41.469  1.00  0.00     0.111 C 
BRANCH  10  11
ATOM     11  C   UNL     1      19.944  27.338  40.388  1.00  0.00     0.163 C 
ATOM     12  O   UNL     1      19.506  28.504  40.196  1.00  0.00    -0.294 OA
BRANCH  11  13
ATOM     13  C   UNL     1      21.070  26.838  39.558  1.00  0.00    -0.002 C 
ATOM     14  C   UNL     1      20.856  26.458  38.270  1.00  0.00    -0.069 C 
ATOM     15  C   UNL     1      21.979  25.898  37.426  1.00  0.00     0.039 C 
ATOM     16  C   UNL     1      19.499  26.621  37.620  1.00  0.00     0.039 C 
BRANCH  13  17
ATOM     17  C   UNL     1      22.465  26.758  40.170  1.00  0.00     0.066 CG0
ATOM     18  G   UNL     1      22.775  27.884  41.128  1.00  0.00     0.000 G0
ENDBRANCH  13  17
ENDBRANCH  11  13
ENDBRANCH  10  11
ENDBRANCH   1  10
TORSDOF 0
ENDMDL
MODEL 4
REMARK VINA RESULT:    -3.399      1.635      3.160
REMARK INTER + INTRA:          -4.375
REMARK INTER:                  -4.862
REMARK INTRA:                   0.487
REMARK UNBOUND:                 0.415
REMARK SMILES CC1=CCC(=C(C)C)C(=O)CC(C)=CCC1
REMARK SMILES IDX 12 1 14 2 13 3 15 4 16 5 2 6 1 7 3 8 11 10 9 11 10 12 5 13
REMARK SMILES IDX 6 14 7 15 8 16 4 17
REMARK H PARENT
REMARK Flexibility Score: 60.00
ROOT
ATOM      1  C   UNL     1      20.697  26.177  40.026  1.00  0.00    -0.070 C 
ATOM      2  C   UNL     1      21.573  25.687  40.935  1.00  0.00    -0.027 C 
ATOM      3  C   UNL     1      21.165  26.332  38.603  1.00  0.00     0.039 C 
ENDROOT
BRANCH   2   4
ATOM      4  C   UNL     1      21.259  25.409  42.387  1.00  0.00     0.032 C 
BRANCH   4   5
ATOM      5  C   UNL     1      22.208  26.167  43.327  1.00  0.00     0.034 C 
BRANCH   5   6
ATOM      6  C   UNL     1      22.301  27.656  43.025  1.00  0.00    -0.077 C 
ATOM      7  C   UNL     1      23.647  28.246  42.680  1.00  0.00     0.039 C 
ATOM      8  C   UNL     1      21.233  28.486  43.032  1.00  0.00    -0.023 CG0
ATOM      9  G   UNL     1      19.825  28.097  43.419  1.00  0.00     0.000 G0
ENDBRANCH   5   6
ENDBRANCH   4   5
ENDBRANCH   2   4
BRANCH   1  10
ATOM     10  C   UNL     1      19.276  26.574  40.381  1.00  0.00     0.111 C 
BRANCH  10  11
ATOM     11  C   UNL     1      19.217  27.994  40.870  1.00  0.00     0.163 C 
ATOM     12  O   UNL     1      19.491  28.934  40.075  1.00  0.00    -0.294 OA
BRANCH  11  13
ATOM     13  C   UNL     1      18.819  28.314  42.265  1.00  0.00    -0.002 C 
ATOM     14  C   UNL     1      17.572  28.787  42.531  1.00  0.00    -0.069 C 
ATOM     15  C   UNL     1      17.166  29.168  43.936  1.00  0.00     0.039 C 
ATOM     16  C   UNL     1      16.533  28.912  41.438  1.00  0.00     0.039 C 
BRANCH  13  17
ATOM     17  C   UNL     1      19.826  28.103  43.392  1.00  0.00     0.066 CG0
ATOM     18  G   UNL     1      21.237  28.501  43.028  1.00  0.00     0.000 G0
ENDBRANCH  13  17
ENDBRANCH  11  13
ENDBRANCH  10  11
ENDBRANCH   1  10
TORSDOF 0
ENDMDL
MODEL 5
REMARK VINA RESULT:    -3.382      1.688      3.058
REMARK INTER + INTRA:          -4.351
REMARK INTER:                  -4.876
REMARK INTRA:                   0.525
REMARK UNBOUND:                 0.415
REMARK SMILES CC1=CCC(=C(C)C)C(=O)CC(C)=CCC1
REMARK SMILES IDX 12 1 14 2 13 3 15 4 16 5 2 6 1 7 3 8 11 10 9 11 10 12 5 13
REMARK SMILES IDX 6 14 7 15 8 16 4 17
REMARK H PARENT
REMARK Flexibility Score: 60.00
ROOT
ATOM      1  C   UNL     1      21.651  25.315  41.404  1.00  0.00    -0.070 C 
ATOM      2  C   UNL     1      22.548  26.131  42.007  1.00  0.00    -0.027 C 
ATOM      3  C   UNL     1      22.123  24.472  40.248  1.00  0.00     0.039 C 
ENDROOT
BRANCH   2   4
ATOM      4  C   UNL     1      22.266  26.998  43.212  1.00  0.00     0.032 C 
BRANCH   4   5
ATOM      5  C   UNL     1      22.641  28.465  42.954  1.00  0.00     0.034 C 
BRANCH   5   6
ATOM      6  C   UNL     1      21.925  29.074  41.757  1.00  0.00    -0.077 C 
ATOM      7  C   UNL     1      22.748  29.709  40.663  1.00  0.00     0.039 C 
ATOM      8  C   UNL     1      20.580  29.062  41.608  1.00  0.00    -0.023 CG0
ATOM      9  G   UNL     1      19.592  28.536  42.623  1.00  0.00     0.000 G0
ENDBRANCH   5   6
ENDBRANCH   4   5
ENDBRANCH   2   4
BRANCH   1  10
ATOM     10  C   UNL     1      20.201  25.220  41.840  1.00  0.00     0.111 C 
BRANCH  10  11
ATOM     11  C   UNL     1      19.385  26.341  41.260  1.00  0.00     0.163 C 
ATOM     12  O   UNL     1      19.223  26.405  40.011  1.00  0.00    -0.294 OA
BRANCH  11  13
ATOM     13  C   UNL     1      18.746  27.361  42.130  1.00  0.00    -0.002 C 
ATOM     14  C   UNL     1      17.437  27.239  42.481  1.00  0.00    -0.069 C 
ATOM     15  C   UNL     1      16.755  28.294  43.322  1.00  0.00     0.039 C 
ATOM     16  C   UNL     1      16.627  26.027  42.077  1.00  0.00     0.039 C 
BRANCH  13  17
ATOM     17  C   UNL     1      19.575  28.542  42.624  1.00  0.00     0.066 CG0
ATOM     18  G   UNL     1      20.563  29.059  41.604  1.00  0.00     0.000 G0
ENDBRANCH  13  17
ENDBRANCH  11  13
ENDBRANCH  10  11
ENDBRANCH   1  10
TORSDOF 0
ENDMDL
MODEL 6
REMARK VINA RESULT:    -3.323      1.971      4.856
REMARK INTER + INTRA:          -4.268
REMARK INTER:                  -4.734
REMARK INTRA:                   0.466
REMARK UNBOUND:                 0.415
REMARK SMILES CC1=CCC(=C(C)C)C(=O)CC(C)=CCC1
REMARK SMILES IDX 12 1 14 2 13 3 15 4 16 5 2 6 1 7 3 8 11 10 9 11 10 12 5 13
REMARK SMILES IDX 6 14 7 15 8 16 4 17
REMARK H PARENT
REMARK Flexibility Score: 60.00
ROOT
ATOM      1  C   UNL     1      18.712  28.695  39.902  1.00  0.00    -0.070 C 
ATOM      2  C   UNL     1      17.571  28.270  40.495  1.00  0.00    -0.027 C 
ATOM      3  C   UNL     1      18.675  29.997  39.145  1.00  0.00     0.039 C 
ENDROOT
BRANCH   2   4
ATOM      4  C   UNL     1      17.439  27.025  41.341  1.00  0.00     0.032 C 
BRANCH   4   5
ATOM      5  C   UNL     1      17.042  27.361  42.786  1.00  0.00     0.034 C 
BRANCH   5   6
ATOM      6  C   UNL     1      17.908  28.441  43.418  1.00  0.00    -0.077 C 
ATOM      7  C   UNL     1      17.267  29.750  43.810  1.00  0.00     0.039 C 
ATOM      8  C   UNL     1      19.228  28.286  43.669  1.00  0.00    -0.023 CG0
ATOM      9  G   UNL     1      20.055  27.080  43.288  1.00  0.00     0.000 G0
ENDBRANCH   5   6
ENDBRANCH   4   5
ENDBRANCH   2   4
BRANCH   1  10
ATOM     10  C   UNL     1      20.013  27.917  39.966  1.00  0.00     0.111 C 
BRANCH  10  11
ATOM     11  C   UNL     1      20.841  28.344  41.145  1.00  0.00     0.163 C 
ATOM     12  O   UNL     1      21.268  29.529  41.205  1.00  0.00    -0.294 OA
BRANCH  11  13
ATOM     13  C   UNL     1      21.146  27.404  42.254  1.00  0.00    -0.002 C 
ATOM     14  C   UNL     1      22.376  26.829  42.347  1.00  0.00    -0.069 C 
ATOM     15  C   UNL     1      22.689  25.830  43.438  1.00  0.00     0.039 C 
ATOM     16  C   UNL     1      23.487  27.197  41.388  1.00  0.00     0.039 C 
BRANCH  13  17
ATOM     17  C   UNL     1      20.065  27.095  43.285  1.00  0.00     0.066 CG0
ATOM     18  G   UNL     1      19.239  28.297  43.678  1.00  0.00     0.000 G0
ENDBRANCH  13  17
ENDBRANCH  11  13
ENDBRANCH  10  11
ENDBRANCH   1  10
TORSDOF 0
ENDMDL
MODEL 7
REMARK VINA RESULT:    -3.298      1.636      4.323
REMARK INTER + INTRA:          -4.232
REMARK INTER:                  -4.585
REMARK INTRA:                   0.353
REMARK UNBOUND:                 0.415
REMARK SMILES CC1=CCC(=C(C)C)C(=O)CC(C)=CCC1
REMARK SMILES IDX 12 1 14 2 13 3 15 4 16 5 2 6 1 7 3 8 11 10 9 11 10 12 5 13
REMARK SMILES IDX 6 14 7 15 8 16 4 17
REMARK H PARENT
REMARK Flexibility Score: 60.00
ROOT
ATOM      1  C   UNL     1      17.344  28.439  42.142  1.00  0.00    -0.070 C 
ATOM      2  C   UNL     1      17.843  28.650  43.383  1.00  0.00    -0.027 C 
ATOM      3  C   UNL     1      15.853  28.291  41.993  1.00  0.00     0.039 C 
ENDROOT
BRANCH   2   4
ATOM      4  C   UNL     1      19.301  28.880  43.710  1.00  0.00     0.032 C 
BRANCH   4   5
ATOM      5  C   UNL     1      20.115  27.582  43.613  1.00  0.00     0.034 C 
BRANCH   5   6
ATOM      6  C   UNL     1      21.396  27.725  42.804  1.00  0.00    -0.077 C 
ATOM      7  C   UNL     1      22.399  28.777  43.209  1.00  0.00     0.039 C 
ATOM      8  C   UNL     1      21.697  26.943  41.742  1.00  0.00    -0.023 CG0
ATOM      9  G   UNL     1      20.793  25.888  41.147  1.00  0.00     0.000 G0
ENDBRANCH   5   6
ENDBRANCH   4   5
ENDBRANCH   2   4
BRANCH   1  10
ATOM     10  C   UNL     1      18.220  28.344  40.907  1.00  0.00     0.111 C 
BRANCH  10  11
ATOM     11  C   UNL     1      18.471  26.911  40.530  1.00  0.00     0.163 C 
ATOM     12  O   UNL     1      17.519  26.086  40.568  1.00  0.00    -0.294 OA
BRANCH  11  13
ATOM     13  C   UNL     1      19.814  26.452  40.090  1.00  0.00    -0.002 C 
ATOM     14  C   UNL     1      20.166  26.521  38.778  1.00  0.00    -0.069 C 
ATOM     15  C   UNL     1      21.508  26.011  38.303  1.00  0.00     0.039 C 
ATOM     16  C   UNL     1      19.247  27.147  37.752  1.00  0.00     0.039 C 
BRANCH  13  17
ATOM     17  C   UNL     1      20.789  25.906  41.128  1.00  0.00     0.066 CG0
ATOM     18  G   UNL     1      21.687  26.960  41.733  1.00  0.00     0.000 G0
ENDBRANCH  13  17
ENDBRANCH  11  13
ENDBRANCH  10  11
ENDBRANCH   1  10
TORSDOF 0
ENDMDL
MODEL 8
REMARK VINA RESULT:    -3.207      1.988      2.976
REMARK INTER + INTRA:          -4.104
REMARK INTER:                  -4.743
REMARK INTRA:                   0.639
REMARK UNBOUND:                 0.415
REMARK SMILES CC1=CCC(=C(C)C)C(=O)CC(C)=CCC1
REMARK SMILES IDX 12 1 14 2 13 3 15 4 16 5 2 6 1 7 3 8 11 10 9 11 10 12 5 13
REMARK SMILES IDX 6 14 7 15 8 16 4 17
REMARK H PARENT
REMARK Flexibility Score: 60.00
ROOT
ATOM      1  C   UNL     1      18.079  28.308  43.358  1.00  0.00    -0.070 C 
ATOM      2  C   UNL     1      19.409  28.149  43.553  1.00  0.00    -0.027 C 
ATOM      3  C   UNL     1      17.484  29.671  43.600  1.00  0.00     0.039 C 
ENDROOT
BRANCH   2   4
ATOM      4  C   UNL     1      20.181  26.874  43.302  1.00  0.00     0.032 C 
BRANCH   4   5
ATOM      5  C   UNL     1      21.278  27.075  42.247  1.00  0.00     0.034 C 
BRANCH   5   6
ATOM      6  C   UNL     1      21.013  26.335  40.944  1.00  0.00    -0.077 C 
ATOM      7  C   UNL     1      21.786  25.073  40.653  1.00  0.00     0.039 C 
ATOM      8  C   UNL     1      20.099  26.739  40.031  1.00  0.00    -0.023 CG0
ATOM      9  G   UNL     1      19.282  28.007  40.113  1.00  0.00     0.000 G0
ENDBRANCH   5   6
ENDBRANCH   4   5
ENDBRANCH   2   4
BRANCH   1  10
ATOM     10  C   UNL     1      17.170  27.178  42.911  1.00  0.00     0.111 C 
BRANCH  10  11
ATOM     11  C   UNL     1      17.466  26.773  41.494  1.00  0.00     0.163 C 
ATOM     12  O   UNL     1      17.396  25.557  41.171  1.00  0.00    -0.294 OA
BRANCH  11  13
ATOM     13  C   UNL     1      17.816  27.781  40.461  1.00  0.00    -0.002 C 
ATOM     14  C   UNL     1      16.838  28.501  39.846  1.00  0.00    -0.069 C 
ATOM     15  C   UNL     1      17.170  29.493  38.755  1.00  0.00     0.039 C 
ATOM     16  C   UNL     1      15.389  28.365  40.259  1.00  0.00     0.039 C 
BRANCH  13  17
ATOM     17  C   UNL     1      19.282  27.998  40.100  1.00  0.00     0.066 CG0
ATOM     18  G   UNL     1      20.086  26.721  40.028  1.00  0.00     0.000 G0
ENDBRANCH  13  17
ENDBRANCH  11  13
ENDBRANCH  10  11
ENDBRANCH   1  10
TORSDOF 0
ENDMDL
MODEL 9
REMARK VINA RESULT:    -3.195      1.578      2.251
REMARK INTER + INTRA:          -4.086
REMARK INTER:                  -4.485
REMARK INTRA:                   0.399
REMARK UNBOUND:                 0.415
REMARK SMILES CC1=CCC(=C(C)C)C(=O)CC(C)=CCC1
REMARK SMILES IDX 12 1 14 2 13 3 15 4 16 5 2 6 1 7 3 8 11 10 9 11 10 12 5 13
REMARK SMILES IDX 6 14 7 15 8 16 4 17
REMARK H PARENT
REMARK Flexibility Score: 60.00
ROOT
ATOM      1  C   UNL     1      22.814  27.126  41.398  1.00  0.00    -0.070 C 
ATOM      2  C   UNL     1      23.047  26.672  40.144  1.00  0.00    -0.027 C 
ATOM      3  C   UNL     1      23.857  26.862  42.452  1.00  0.00     0.039 C 
ENDROOT
BRANCH   2   4
ATOM      4  C   UNL     1      22.143  26.896  38.953  1.00  0.00     0.032 C 
BRANCH   4   5
ATOM      5  C   UNL     1      20.871  26.040  39.038  1.00  0.00     0.034 C 
BRANCH   5   6
ATOM      6  C   UNL     1      19.587  26.842  38.883  1.00  0.00    -0.077 C 
ATOM      7  C   UNL     1      19.391  27.667  37.636  1.00  0.00     0.039 C 
ATOM      8  C   UNL     1      18.593  26.841  39.801  1.00  0.00    -0.023 CG0
ATOM      9  G   UNL     1      18.636  26.135  41.136  1.00  0.00     0.000 G0
ENDBRANCH   5   6
ENDBRANCH   4   5
ENDBRANCH   2   4
BRANCH   1  10
ATOM     10  C   UNL     1      21.555  27.880  41.781  1.00  0.00     0.111 C 
BRANCH  10  11
ATOM     11  C   UNL     1      20.616  27.004  42.563  1.00  0.00     0.163 C 
ATOM     12  O   UNL     1      21.073  26.277  43.486  1.00  0.00    -0.294 OA
BRANCH  11  13
ATOM     13  C   UNL     1      19.156  26.998  42.287  1.00  0.00    -0.002 C 
ATOM     14  C   UNL     1      18.312  27.746  43.046  1.00  0.00    -0.069 C 
ATOM     15  C   UNL     1      16.818  27.712  42.814  1.00  0.00     0.039 C 
ATOM     16  C   UNL     1      18.837  28.670  44.123  1.00  0.00     0.039 C 
BRANCH  13  17
ATOM     17  C   UNL     1      18.621  26.144  41.142  1.00  0.00     0.066 CG0
ATOM     18  G   UNL     1      18.601  26.856  39.810  1.00  0.00     0.000 G0
ENDBRANCH  13  17
ENDBRANCH  11  13
ENDBRANCH  10  11
ENDBRANCH   1  10
TORSDOF 0
ENDMDL
