MODEL 1
REMARK VINA RESULT:    -3.652      0.000      0.000
REMARK INTER + INTRA:          -4.574
REMARK INTER:                  -4.506
REMARK INTRA:                  -0.068
REMARK UNBOUND:                -0.068
REMARK SMILES CCCCCC(=O)[O-]
REMARK SMILES IDX 4 1 5 2 6 3 7 4 8 5 3 6 2 7 1 8
REMARK H PARENT
REMARK Flexibility Score: inf
ROOT
ATOM      1  C   UNL     1     -11.733 -20.119  17.158  1.00  0.00     0.006 C 
ENDROOT
BRANCH   1   2
ATOM      2  C   UNL     1     -10.985 -21.137  16.293  1.00  0.00     0.053 C 
BRANCH   2   3
ATOM      3  C   UNL     1     -10.660 -20.549  14.956  1.00  0.00     0.041 C 
ATOM      4  O   UNL     1      -9.464 -20.471  14.570  1.00  0.00    -0.550 OA
ATOM      5  O   UNL     1     -11.684 -20.129  14.115  1.00  0.00    -0.550 OA
ENDBRANCH   2   3
ENDBRANCH   1   2
BRANCH   1   6
ATOM      6  C   UNL     1     -11.283 -20.206  18.622  1.00  0.00     0.000 C 
BRANCH   6   7
ATOM      7  C   UNL     1     -12.472 -20.031  19.573  1.00  0.00    -0.003 C 
ATOM      8  C   UNL     1     -13.239 -18.746  19.266  1.00  0.00     0.004 C 
ENDBRANCH   6   7
ENDBRANCH   1   6
TORSDOF 4
ENDMDL
MODEL 2
REMARK VINA RESULT:    -3.586      0.819      1.653
REMARK INTER + INTRA:          -4.493
REMARK INTER:                  -4.367
REMARK INTRA:                  -0.126
REMARK UNBOUND:                -0.068
REMARK SMILES CCCCCC(=O)[O-]
REMARK SMILES IDX 4 1 5 2 6 3 7 4 8 5 3 6 2 7 1 8
REMARK H PARENT
REMARK Flexibility Score: inf
ROOT
ATOM      1  C   UNL     1      -9.834 -20.797  16.797  1.00  0.00     0.006 C 
ENDROOT
BRANCH   1   2
ATOM      2  C   UNL     1     -10.992 -20.915  15.803  1.00  0.00     0.053 C 
BRANCH   2   3
ATOM      3  C   UNL     1     -10.657 -20.215  14.524  1.00  0.00     0.041 C 
ATOM      4  O   UNL     1     -11.573 -19.856  13.738  1.00  0.00    -0.550 OA
ATOM      5  O   UNL     1      -9.334 -19.914  14.223  1.00  0.00    -0.550 OA
ENDBRANCH   2   3
ENDBRANCH   1   2
BRANCH   1   6
ATOM      6  C   UNL     1     -10.352 -20.498  18.210  1.00  0.00     0.000 C 
BRANCH   6   7
ATOM      7  C   UNL     1     -11.843 -20.145  18.185  1.00  0.00    -0.003 C 
ATOM      8  C   UNL     1     -12.413 -20.061  19.600  1.00  0.00     0.004 C 
ENDBRANCH   6   7
ENDBRANCH   1   6
TORSDOF 4
ENDMDL
MODEL 3
REMARK VINA RESULT:    -3.575     13.398     14.446
REMARK INTER + INTRA:          -4.479
REMARK INTER:                  -4.384
REMARK INTRA:                  -0.094
REMARK UNBOUND:                -0.068
REMARK SMILES CCCCCC(=O)[O-]
REMARK SMILES IDX 4 1 5 2 6 3 7 4 8 5 3 6 2 7 1 8
REMARK H PARENT
REMARK Flexibility Score: inf
ROOT
ATOM      1  C   UNL     1     -13.693 -10.740   7.036  1.00  0.00     0.006 C 
ENDROOT
BRANCH   1   2
ATOM      2  C   UNL     1     -15.043 -10.063   7.289  1.00  0.00     0.053 C 
BRANCH   2   3
ATOM      3  C   UNL     1     -15.244  -9.827   8.752  1.00  0.00     0.041 C 
ATOM      4  O   UNL     1     -16.297  -9.275   9.168  1.00  0.00    -0.550 OA
ATOM      5  O   UNL     1     -14.289 -10.261   9.663  1.00  0.00    -0.550 OA
ENDBRANCH   2   3
ENDBRANCH   1   2
BRANCH   1   6
ATOM      6  C   UNL     1     -12.638  -9.714   6.602  1.00  0.00     0.000 C 
BRANCH   6   7
ATOM      7  C   UNL     1     -11.494 -10.392   5.839  1.00  0.00    -0.003 C 
ATOM      8  C   UNL     1     -11.006 -11.639   6.573  1.00  0.00     0.004 C 
ENDBRANCH   6   7
ENDBRANCH   1   6
TORSDOF 4
ENDMDL
MODEL 4
REMARK VINA RESULT:    -3.524     13.705     14.496
REMARK INTER + INTRA:          -4.417
REMARK INTER:                  -4.318
REMARK INTRA:                  -0.099
REMARK UNBOUND:                -0.068
REMARK SMILES CCCCCC(=O)[O-]
REMARK SMILES IDX 4 1 5 2 6 3 7 4 8 5 3 6 2 7 1 8
REMARK H PARENT
REMARK Flexibility Score: inf
ROOT
ATOM      1  C   UNL     1     -12.464  -9.747   6.587  1.00  0.00     0.006 C 
ENDROOT
BRANCH   1   2
ATOM      2  C   UNL     1     -13.567 -10.734   6.979  1.00  0.00     0.053 C 
BRANCH   2   3
ATOM      3  C   UNL     1     -14.708 -10.014   7.626  1.00  0.00     0.041 C 
ATOM      4  O   UNL     1     -15.819  -9.930   7.040  1.00  0.00    -0.550 OA
ATOM      5  O   UNL     1     -14.558  -9.477   8.899  1.00  0.00    -0.550 OA
ENDBRANCH   2   3
ENDBRANCH   1   2
BRANCH   1   6
ATOM      6  C   UNL     1     -11.314 -10.464   5.870  1.00  0.00     0.000 C 
BRANCH   6   7
ATOM      7  C   UNL     1     -10.747 -11.595   6.735  1.00  0.00    -0.003 C 
ATOM      8  C   UNL     1     -10.199 -12.728   5.870  1.00  0.00     0.004 C 
ENDBRANCH   6   7
ENDBRANCH   1   6
TORSDOF 4
ENDMDL
MODEL 5
REMARK VINA RESULT:    -3.515     13.188     13.803
REMARK INTER + INTRA:          -4.405
REMARK INTER:                  -4.320
REMARK INTRA:                  -0.085
REMARK UNBOUND:                -0.068
REMARK SMILES CCCCCC(=O)[O-]
REMARK SMILES IDX 4 1 5 2 6 3 7 4 8 5 3 6 2 7 1 8
REMARK H PARENT
REMARK Flexibility Score: inf
ROOT
ATOM      1  C   UNL     1     -13.532 -10.383   7.499  1.00  0.00     0.006 C 
ENDROOT
BRANCH   1   2
ATOM      2  C   UNL     1     -12.598 -10.349   6.286  1.00  0.00     0.053 C 
BRANCH   2   3
ATOM      3  C   UNL     1     -11.290 -10.995   6.614  1.00  0.00     0.041 C 
ATOM      4  O   UNL     1     -10.758 -10.815   7.741  1.00  0.00    -0.550 OA
ATOM      5  O   UNL     1     -10.680 -11.836   5.691  1.00  0.00    -0.550 OA
ENDBRANCH   2   3
ENDBRANCH   1   2
BRANCH   1   6
ATOM      6  C   UNL     1     -15.000 -10.278   7.067  1.00  0.00     0.000 C 
BRANCH   6   7
ATOM      7  C   UNL     1     -15.870  -9.735   8.206  1.00  0.00    -0.003 C 
ATOM      8  C   UNL     1     -15.144  -9.829   9.547  1.00  0.00     0.004 C 
ENDBRANCH   6   7
ENDBRANCH   1   6
TORSDOF 4
ENDMDL
MODEL 6
REMARK VINA RESULT:    -3.407      3.199      4.684
REMARK INTER + INTRA:          -4.271
REMARK INTER:                  -4.179
REMARK INTRA:                  -0.093
REMARK UNBOUND:                -0.068
REMARK SMILES CCCCCC(=O)[O-]
REMARK SMILES IDX 4 1 5 2 6 3 7 4 8 5 3 6 2 7 1 8
REMARK H PARENT
REMARK Flexibility Score: inf
ROOT
ATOM      1  C   UNL     1     -11.319 -20.302  18.645  1.00  0.00     0.006 C 
ENDROOT
BRANCH   1   2
ATOM      2  C   UNL     1     -12.512 -20.104  19.584  1.00  0.00     0.053 C 
BRANCH   2   3
ATOM      3  C   UNL     1     -12.782 -18.646  19.786  1.00  0.00     0.041 C 
ATOM      4  O   UNL     1     -11.830 -17.843  19.969  1.00  0.00    -0.550 OA
ATOM      5  O   UNL     1     -14.085 -18.167  19.724  1.00  0.00    -0.550 OA
ENDBRANCH   2   3
ENDBRANCH   1   2
BRANCH   1   6
ATOM      6  C   UNL     1     -11.729 -20.086  17.183  1.00  0.00     0.000 C 
BRANCH   6   7
ATOM      7  C   UNL     1     -10.938 -21.008  16.248  1.00  0.00    -0.003 C 
ATOM      8  C   UNL     1     -11.033 -20.537  14.799  1.00  0.00     0.004 C 
ENDBRANCH   6   7
ENDBRANCH   1   6
TORSDOF 4
ENDMDL
MODEL 7
REMARK VINA RESULT:    -3.296     13.486     13.932
REMARK INTER + INTRA:          -4.134
REMARK INTER:                  -4.003
REMARK INTRA:                  -0.131
REMARK UNBOUND:                -0.068
REMARK SMILES CCCCCC(=O)[O-]
REMARK SMILES IDX 4 1 5 2 6 3 7 4 8 5 3 6 2 7 1 8
REMARK H PARENT
REMARK Flexibility Score: inf
ROOT
ATOM      1  C   UNL     1     -13.007 -10.766   6.936  1.00  0.00     0.006 C 
ENDROOT
BRANCH   1   2
ATOM      2  C   UNL     1     -11.876 -10.160   6.100  1.00  0.00     0.053 C 
BRANCH   2   3
ATOM      3  C   UNL     1     -10.598 -10.901   6.334  1.00  0.00     0.041 C 
ATOM      4  O   UNL     1      -9.609 -10.314   6.846  1.00  0.00    -0.550 OA
ATOM      5  O   UNL     1     -10.515 -12.255   6.031  1.00  0.00    -0.550 OA
ENDBRANCH   2   3
ENDBRANCH   1   2
BRANCH   1   6
ATOM      6  C   UNL     1     -13.200  -9.990   8.245  1.00  0.00     0.000 C 
BRANCH   6   7
ATOM      7  C   UNL     1     -14.680  -9.673   8.483  1.00  0.00    -0.003 C 
ATOM      8  C   UNL     1     -15.530 -10.072   7.279  1.00  0.00     0.004 C 
ENDBRANCH   6   7
ENDBRANCH   1   6
TORSDOF 4
ENDMDL
MODEL 8
REMARK VINA RESULT:    -3.235     13.430     14.221
REMARK INTER + INTRA:          -4.059
REMARK INTER:                  -3.946
REMARK INTRA:                  -0.113
REMARK UNBOUND:                -0.068
REMARK SMILES CCCCCC(=O)[O-]
REMARK SMILES IDX 4 1 5 2 6 3 7 4 8 5 3 6 2 7 1 8
REMARK H PARENT
REMARK Flexibility Score: inf
ROOT
ATOM      1  C   UNL     1     -10.442 -10.630   6.341  1.00  0.00     0.006 C 
ENDROOT
BRANCH   1   2
ATOM      2  C   UNL     1     -11.815 -10.014   6.058  1.00  0.00     0.053 C 
BRANCH   2   3
ATOM      3  C   UNL     1     -12.773 -10.343   7.160  1.00  0.00     0.041 C 
ATOM      4  O   UNL     1     -13.902 -10.833   6.894  1.00  0.00    -0.550 OA
ATOM      5  O   UNL     1     -12.399 -10.153   8.485  1.00  0.00    -0.550 OA
ENDBRANCH   2   3
ENDBRANCH   1   2
BRANCH   1   6
ATOM      6  C   UNL     1     -10.478 -12.154   6.169  1.00  0.00     0.000 C 
BRANCH   6   7
ATOM      7  C   UNL     1      -9.077 -12.757   6.319  1.00  0.00    -0.003 C 
ATOM      8  C   UNL     1      -8.721 -13.631   5.119  1.00  0.00     0.004 C 
ENDBRANCH   6   7
ENDBRANCH   1   6
TORSDOF 4
ENDMDL
MODEL 9
REMARK VINA RESULT:    -3.136     14.487     15.503
REMARK INTER + INTRA:          -3.937
REMARK INTER:                  -3.797
REMARK INTRA:                  -0.140
REMARK UNBOUND:                -0.068
REMARK SMILES CCCCCC(=O)[O-]
REMARK SMILES IDX 4 1 5 2 6 3 7 4 8 5 3 6 2 7 1 8
REMARK H PARENT
REMARK Flexibility Score: inf
ROOT
ATOM      1  C   UNL     1      -2.683 -16.077   4.871  1.00  0.00     0.006 C 
ENDROOT
BRANCH   1   2
ATOM      2  C   UNL     1      -2.689 -16.847   3.547  1.00  0.00     0.053 C 
BRANCH   2   3
ATOM      3  C   UNL     1      -1.650 -17.924   3.564  1.00  0.00     0.041 C 
ATOM      4  O   UNL     1      -0.890 -18.057   4.560  1.00  0.00    -0.550 OA
ATOM      5  O   UNL     1      -1.553 -18.812   2.500  1.00  0.00    -0.550 OA
ENDBRANCH   2   3
ENDBRANCH   1   2
BRANCH   1   6
ATOM      6  C   UNL     1      -3.997 -16.286   5.634  1.00  0.00     0.000 C 
BRANCH   6   7
ATOM      7  C   UNL     1      -5.188 -16.348   4.672  1.00  0.00    -0.003 C 
ATOM      8  C   UNL     1      -6.276 -15.357   5.077  1.00  0.00     0.004 C 
ENDBRANCH   6   7
ENDBRANCH   1   6
TORSDOF 4
ENDMDL
