MODEL 1
REMARK VINA RESULT:    -2.588      0.000      0.000
REMARK INTER + INTRA:          -5.309
REMARK INTER:                  -4.857
REMARK INTRA:                  -0.451
REMARK UNBOUND:                -0.451
REMARK SMILES O=C([O-])CCCCCCCCCCCCCCC(=O)[O-]
REMARK SMILES IDX 10 1 9 2 8 3 7 4 6 5 5 6 4 7 2 8 1 9 3 10 11 11 12 12 13 13
REMARK SMILES IDX 14 14 15 15 16 16 17 17 18 18 19 19 20 20
REMARK H PARENT
REMARK Flexibility Score: inf
ROOT
ATOM      1  C   UNL     1      -7.359 -22.641  20.767  1.00  0.00     0.000 C 
ENDROOT
BRANCH   1   2
ATOM      2  C   UNL     1      -7.815 -23.122  22.154  1.00  0.00     0.000 C 
BRANCH   2   3
ATOM      3  C   UNL     1      -8.524 -22.018  22.958  1.00  0.00     0.000 C 
BRANCH   3   4
ATOM      4  C   UNL     1      -9.900 -22.457  23.483  1.00  0.00     0.000 C 
BRANCH   4   5
ATOM      5  C   UNL     1     -10.939 -21.324  23.434  1.00  0.00     0.000 C 
BRANCH   5   6
ATOM      6  C   UNL     1     -10.616 -20.266  22.361  1.00  0.00     0.006 C 
BRANCH   6   7
ATOM      7  C   UNL     1     -10.872 -18.816  22.801  1.00  0.00     0.053 C 
BRANCH   7   8
ATOM      8  C   UNL     1      -9.826 -17.878  22.282  1.00  0.00     0.041 C 
ATOM      9  O   UNL     1      -9.836 -17.520  21.076  1.00  0.00    -0.550 OA
ATOM     10  O   UNL     1      -8.858 -17.372  23.141  1.00  0.00    -0.550 OA
ENDBRANCH   7   8
ENDBRANCH   6   7
ENDBRANCH   5   6
ENDBRANCH   4   5
ENDBRANCH   3   4
ENDBRANCH   2   3
ENDBRANCH   1   2
BRANCH   1  11
ATOM     11  C   UNL     1      -8.282 -23.125  19.640  1.00  0.00     0.000 C 
BRANCH  11  12
ATOM     12  C   UNL     1      -9.747 -23.123  20.090  1.00  0.00     0.000 C 
BRANCH  12  13
ATOM     13  C   UNL     1     -10.646 -22.453  19.045  1.00  0.00     0.000 C 
BRANCH  13  14
ATOM     14  C   UNL     1      -9.987 -21.185  18.484  1.00  0.00     0.000 C 
BRANCH  14  15
ATOM     15  C   UNL     1      -9.505 -21.350  17.032  1.00  0.00     0.000 C 
BRANCH  15  16
ATOM     16  C   UNL     1      -8.342 -22.346  16.839  1.00  0.00     0.006 C 
BRANCH  16  17
ATOM     17  C   UNL     1      -7.223 -21.849  15.911  1.00  0.00     0.053 C 
BRANCH  17  18
ATOM     18  C   UNL     1      -5.864 -22.094  16.490  1.00  0.00     0.041 C 
ATOM     19  O   UNL     1      -4.837 -21.972  15.773  1.00  0.00    -0.550 OA
ATOM     20  O   UNL     1      -5.734 -22.491  17.815  1.00  0.00    -0.550 OA
ENDBRANCH  17  18
ENDBRANCH  16  17
ENDBRANCH  15  16
ENDBRANCH  14  15
ENDBRANCH  13  14
ENDBRANCH  12  13
ENDBRANCH  11  12
ENDBRANCH   1  11
TORSDOF 15
ENDMDL
MODEL 2
REMARK VINA RESULT:    -2.564      2.273      3.553
REMARK INTER + INTRA:          -5.263
REMARK INTER:                  -4.222
REMARK INTRA:                  -1.042
REMARK UNBOUND:                -0.451
REMARK SMILES O=C([O-])CCCCCCCCCCCCCCC(=O)[O-]
REMARK SMILES IDX 10 1 9 2 8 3 7 4 6 5 5 6 4 7 2 8 1 9 3 10 11 11 12 12 13 13
REMARK SMILES IDX 14 14 15 15 16 16 17 17 18 18 19 19 20 20
REMARK H PARENT
REMARK Flexibility Score: inf
ROOT
ATOM      1  C   UNL     1      -6.918 -22.803  19.599  1.00  0.00     0.000 C 
ENDROOT
BRANCH   1   2
ATOM      2  C   UNL     1      -8.412 -23.125  19.438  1.00  0.00     0.000 C 
BRANCH   2   3
ATOM      3  C   UNL     1      -9.223 -22.815  20.708  1.00  0.00     0.000 C 
BRANCH   3   4
ATOM      4  C   UNL     1     -10.605 -22.217  20.399  1.00  0.00     0.000 C 
BRANCH   4   5
ATOM      5  C   UNL     1     -10.736 -20.759  20.874  1.00  0.00     0.000 C 
BRANCH   5   6
ATOM      6  C   UNL     1     -10.504 -20.603  22.388  1.00  0.00     0.006 C 
BRANCH   6   7
ATOM      7  C   UNL     1      -9.404 -19.597  22.763  1.00  0.00     0.053 C 
BRANCH   7   8
ATOM      8  C   UNL     1      -9.876 -18.180  22.647  1.00  0.00     0.041 C 
ATOM      9  O   UNL     1     -10.477 -17.631  23.607  1.00  0.00    -0.550 OA
ATOM     10  O   UNL     1      -9.621 -17.455  21.490  1.00  0.00    -0.550 OA
ENDBRANCH   7   8
ENDBRANCH   6   7
ENDBRANCH   5   6
ENDBRANCH   4   5
ENDBRANCH   3   4
ENDBRANCH   2   3
ENDBRANCH   1   2
BRANCH   1  11
ATOM     11  C   UNL     1      -6.112 -23.076  18.322  1.00  0.00     0.000 C 
BRANCH  11  12
ATOM     12  C   UNL     1      -6.215 -21.899  17.345  1.00  0.00     0.000 C 
BRANCH  12  13
ATOM     13  C   UNL     1      -7.082 -22.260  16.133  1.00  0.00     0.000 C 
BRANCH  13  14
ATOM     14  C   UNL     1      -7.329 -21.031  15.247  1.00  0.00     0.000 C 
BRANCH  14  15
ATOM     15  C   UNL     1      -8.669 -21.096  14.492  1.00  0.00     0.000 C 
BRANCH  15  16
ATOM     16  C   UNL     1      -9.582 -19.866  14.677  1.00  0.00     0.006 C 
BRANCH  16  17
ATOM     17  C   UNL     1     -10.998 -20.192  15.178  1.00  0.00     0.053 C 
BRANCH  17  18
ATOM     18  C   UNL     1     -10.993 -20.668  16.599  1.00  0.00     0.041 C 
ATOM     19  O   UNL     1     -10.908 -21.897  16.855  1.00  0.00    -0.550 OA
ATOM     20  O   UNL     1     -11.118 -19.755  17.639  1.00  0.00    -0.550 OA
ENDBRANCH  17  18
ENDBRANCH  16  17
ENDBRANCH  15  16
ENDBRANCH  14  15
ENDBRANCH  13  14
ENDBRANCH  12  13
ENDBRANCH  11  12
ENDBRANCH   1  11
TORSDOF 15
ENDMDL
MODEL 3
REMARK VINA RESULT:    -2.257      7.277     12.110
REMARK INTER + INTRA:          -4.687
REMARK INTER:                  -4.343
REMARK INTRA:                  -0.344
REMARK UNBOUND:                -0.451
REMARK SMILES O=C([O-])CCCCCCCCCCCCCCC(=O)[O-]
REMARK SMILES IDX 10 1 9 2 8 3 7 4 6 5 5 6 4 7 2 8 1 9 3 10 11 11 12 12 13 13
REMARK SMILES IDX 14 14 15 15 16 16 17 17 18 18 19 19 20 20
REMARK H PARENT
REMARK Flexibility Score: inf
ROOT
ATOM      1  C   UNL     1      -1.199 -21.952  16.218  1.00  0.00     0.000 C 
ENDROOT
BRANCH   1   2
ATOM      2  C   UNL     1      -0.249 -23.005  15.626  1.00  0.00     0.000 C 
BRANCH   2   3
ATOM      3  C   UNL     1       1.228 -22.580  15.707  1.00  0.00     0.000 C 
BRANCH   3   4
ATOM      4  C   UNL     1       2.067 -23.125  14.541  1.00  0.00     0.000 C 
BRANCH   4   5
ATOM      5  C   UNL     1       3.579 -22.958  14.774  1.00  0.00     0.000 C 
BRANCH   5   6
ATOM      6  C   UNL     1       4.401 -23.109  13.480  1.00  0.00     0.006 C 
BRANCH   6   7
ATOM      7  C   UNL     1       5.893 -22.773  13.633  1.00  0.00     0.053 C 
BRANCH   7   8
ATOM      8  C   UNL     1       6.455 -22.136  12.399  1.00  0.00     0.041 C 
ATOM      9  O   UNL     1       6.285 -22.675  11.273  1.00  0.00    -0.550 OA
ATOM     10  O   UNL     1       7.138 -20.930  12.487  1.00  0.00    -0.550 OA
ENDBRANCH   7   8
ENDBRANCH   6   7
ENDBRANCH   5   6
ENDBRANCH   4   5
ENDBRANCH   3   4
ENDBRANCH   2   3
ENDBRANCH   1   2
BRANCH   1  11
ATOM     11  C   UNL     1      -2.579 -21.956  15.547  1.00  0.00     0.000 C 
BRANCH  11  12
ATOM     12  C   UNL     1      -3.518 -22.961  16.224  1.00  0.00     0.000 C 
BRANCH  12  13
ATOM     13  C   UNL     1      -4.912 -22.360  16.434  1.00  0.00     0.000 C 
BRANCH  13  14
ATOM     14  C   UNL     1      -5.583 -22.948  17.684  1.00  0.00     0.000 C 
BRANCH  14  15
ATOM     15  C   UNL     1      -6.795 -22.125  18.158  1.00  0.00     0.000 C 
BRANCH  15  16
ATOM     16  C   UNL     1      -8.171 -22.713  17.781  1.00  0.00     0.006 C 
BRANCH  16  17
ATOM     17  C   UNL     1      -9.278 -22.460  18.816  1.00  0.00     0.053 C 
BRANCH  17  18
ATOM     18  C   UNL     1      -9.998 -21.172  18.562  1.00  0.00     0.041 C 
ATOM     19  O   UNL     1     -10.306 -20.838  17.388  1.00  0.00    -0.550 OA
ATOM     20  O   UNL     1     -10.299 -20.322  19.620  1.00  0.00    -0.550 OA
ENDBRANCH  17  18
ENDBRANCH  16  17
ENDBRANCH  15  16
ENDBRANCH  14  15
ENDBRANCH  13  14
ENDBRANCH  12  13
ENDBRANCH  11  12
ENDBRANCH   1  11
TORSDOF 15
ENDMDL
MODEL 4
REMARK VINA RESULT:    -2.139      2.081      2.735
REMARK INTER + INTRA:          -4.467
REMARK INTER:                  -4.159
REMARK INTRA:                  -0.308
REMARK UNBOUND:                -0.451
REMARK SMILES O=C([O-])CCCCCCCCCCCCCCC(=O)[O-]
REMARK SMILES IDX 10 1 9 2 8 3 7 4 6 5 5 6 4 7 2 8 1 9 3 10 11 11 12 12 13 13
REMARK SMILES IDX 14 14 15 15 16 16 17 17 18 18 19 19 20 20
REMARK H PARENT
REMARK Flexibility Score: inf
ROOT
ATOM      1  C   UNL     1      -6.341 -22.561  20.520  1.00  0.00     0.000 C 
ENDROOT
BRANCH   1   2
ATOM      2  C   UNL     1      -6.999 -23.123  21.790  1.00  0.00     0.000 C 
BRANCH   2   3
ATOM      3  C   UNL     1      -8.469 -22.691  21.934  1.00  0.00     0.000 C 
BRANCH   3   4
ATOM      4  C   UNL     1      -8.971 -22.768  23.385  1.00  0.00     0.000 C 
BRANCH   4   5
ATOM      5  C   UNL     1     -10.108 -21.771  23.669  1.00  0.00     0.000 C 
BRANCH   5   6
ATOM      6  C   UNL     1     -10.275 -20.724  22.552  1.00  0.00     0.006 C 
BRANCH   6   7
ATOM      7  C   UNL     1     -10.699 -19.331  23.044  1.00  0.00     0.053 C 
BRANCH   7   8
ATOM      8  C   UNL     1      -9.808 -18.252  22.510  1.00  0.00     0.041 C 
ATOM      9  O   UNL     1      -8.858 -17.810  23.208  1.00  0.00    -0.550 OA
ATOM     10  O   UNL     1     -10.007 -17.756  21.228  1.00  0.00    -0.550 OA
ENDBRANCH   7   8
ENDBRANCH   6   7
ENDBRANCH   5   6
ENDBRANCH   4   5
ENDBRANCH   3   4
ENDBRANCH   2   3
ENDBRANCH   1   2
BRANCH   1  11
ATOM     11  C   UNL     1      -6.960 -23.125  19.234  1.00  0.00     0.000 C 
BRANCH  11  12
ATOM     12  C   UNL     1      -8.482 -22.935  19.226  1.00  0.00     0.000 C 
BRANCH  12  13
ATOM     13  C   UNL     1      -8.876 -21.661  18.470  1.00  0.00     0.000 C 
BRANCH  13  14
ATOM     14  C   UNL     1      -9.956 -20.880  19.232  1.00  0.00     0.000 C 
BRANCH  14  15
ATOM     15  C   UNL     1     -11.077 -20.356  18.316  1.00  0.00     0.000 C 
BRANCH  15  16
ATOM     16  C   UNL     1     -11.061 -20.916  16.879  1.00  0.00     0.006 C 
BRANCH  16  17
ATOM     17  C   UNL     1     -11.037 -19.846  15.777  1.00  0.00     0.053 C 
BRANCH  17  18
ATOM     18  C   UNL     1     -10.036 -20.165  14.709  1.00  0.00     0.041 C 
ATOM     19  O   UNL     1      -8.847 -20.440  15.016  1.00  0.00    -0.550 OA
ATOM     20  O   UNL     1     -10.409 -20.124  13.371  1.00  0.00    -0.550 OA
ENDBRANCH  17  18
ENDBRANCH  16  17
ENDBRANCH  15  16
ENDBRANCH  14  15
ENDBRANCH  13  14
ENDBRANCH  12  13
ENDBRANCH  11  12
ENDBRANCH   1  11
TORSDOF 15
ENDMDL
MODEL 5
REMARK VINA RESULT:    -1.861      4.347      6.087
REMARK INTER + INTRA:          -3.943
REMARK INTER:                  -3.318
REMARK INTRA:                  -0.625
REMARK UNBOUND:                -0.451
REMARK SMILES O=C([O-])CCCCCCCCCCCCCCC(=O)[O-]
REMARK SMILES IDX 10 1 9 2 8 3 7 4 6 5 5 6 4 7 2 8 1 9 3 10 11 11 12 12 13 13
REMARK SMILES IDX 14 14 15 15 16 16 17 17 18 18 19 19 20 20
REMARK H PARENT
REMARK Flexibility Score: inf
ROOT
ATOM      1  C   UNL     1      -6.991 -22.130  17.477  1.00  0.00     0.000 C 
ENDROOT
BRANCH   1   2
ATOM      2  C   UNL     1      -8.193 -22.879  18.074  1.00  0.00     0.000 C 
BRANCH   2   3
ATOM      3  C   UNL     1      -8.116 -22.992  19.607  1.00  0.00     0.000 C 
BRANCH   3   4
ATOM      4  C   UNL     1      -9.474 -22.759  20.288  1.00  0.00     0.000 C 
BRANCH   4   5
ATOM      5  C   UNL     1     -10.536 -22.218  19.315  1.00  0.00     0.000 C 
BRANCH   5   6
ATOM      6  C   UNL     1     -11.084 -20.841  19.738  1.00  0.00     0.006 C 
BRANCH   6   7
ATOM      7  C   UNL     1     -10.002 -19.802  20.071  1.00  0.00     0.053 C 
BRANCH   7   8
ATOM      8  C   UNL     1     -10.592 -18.487  20.479  1.00  0.00     0.041 C 
ATOM      9  O   UNL     1     -11.104 -17.726  19.616  1.00  0.00    -0.550 OA
ATOM     10  O   UNL     1     -10.608 -18.117  21.817  1.00  0.00    -0.550 OA
ENDBRANCH   7   8
ENDBRANCH   6   7
ENDBRANCH   5   6
ENDBRANCH   4   5
ENDBRANCH   3   4
ENDBRANCH   2   3
ENDBRANCH   1   2
BRANCH   1  11
ATOM     11  C   UNL     1      -6.057 -23.050  16.680  1.00  0.00     0.000 C 
BRANCH  11  12
ATOM     12  C   UNL     1      -4.609 -22.921  17.169  1.00  0.00     0.000 C 
BRANCH  12  13
ATOM     13  C   UNL     1      -3.656 -22.633  16.003  1.00  0.00     0.000 C 
BRANCH  13  14
ATOM     14  C   UNL     1      -2.233 -23.109  16.324  1.00  0.00     0.000 C 
BRANCH  14  15
ATOM     15  C   UNL     1      -1.188 -22.608  15.311  1.00  0.00     0.000 C 
BRANCH  15  16
ATOM     16  C   UNL     1       0.277 -22.933  15.668  1.00  0.00     0.006 C 
BRANCH  16  17
ATOM     17  C   UNL     1       1.259 -22.827  14.491  1.00  0.00     0.053 C 
BRANCH  17  18
ATOM     18  C   UNL     1       2.683 -22.961  14.937  1.00  0.00     0.041 C 
ATOM     19  O   UNL     1       2.959 -23.048  16.162  1.00  0.00    -0.550 OA
ATOM     20  O   UNL     1       3.709 -22.954  14.000  1.00  0.00    -0.550 OA
ENDBRANCH  17  18
ENDBRANCH  16  17
ENDBRANCH  15  16
ENDBRANCH  14  15
ENDBRANCH  13  14
ENDBRANCH  12  13
ENDBRANCH  11  12
ENDBRANCH   1  11
TORSDOF 15
ENDMDL
MODEL 6
REMARK VINA RESULT:    -1.790      9.639     14.035
REMARK INTER + INTRA:          -3.811
REMARK INTER:                  -3.223
REMARK INTRA:                  -0.588
REMARK UNBOUND:                -0.451
REMARK SMILES O=C([O-])CCCCCCCCCCCCCCC(=O)[O-]
REMARK SMILES IDX 10 1 9 2 8 3 7 4 6 5 5 6 4 7 2 8 1 9 3 10 11 11 12 12 13 13
REMARK SMILES IDX 14 14 15 15 16 16 17 17 18 18 19 19 20 20
REMARK H PARENT
REMARK Flexibility Score: inf
ROOT
ATOM      1  C   UNL     1       2.910 -22.292  15.842  1.00  0.00     0.000 C 
ENDROOT
BRANCH   1   2
ATOM      2  C   UNL     1       4.255 -23.015  15.666  1.00  0.00     0.000 C 
BRANCH   2   3
ATOM      3  C   UNL     1       5.452 -22.049  15.692  1.00  0.00     0.000 C 
BRANCH   3   4
ATOM      4  C   UNL     1       6.135 -21.987  17.067  1.00  0.00     0.000 C 
BRANCH   4   5
ATOM      5  C   UNL     1       7.506 -22.685  17.077  1.00  0.00     0.000 C 
BRANCH   5   6
ATOM      6  C   UNL     1       8.620 -21.818  16.462  1.00  0.00     0.006 C 
BRANCH   6   7
ATOM      7  C   UNL     1       9.086 -22.274  15.070  1.00  0.00     0.053 C 
BRANCH   7   8
ATOM      8  C   UNL     1       8.747 -21.274  14.008  1.00  0.00     0.041 C 
ATOM      9  O   UNL     1       8.638 -20.054  14.297  1.00  0.00    -0.550 OA
ATOM     10  O   UNL     1       8.586 -21.685  12.691  1.00  0.00    -0.550 OA
ENDBRANCH   7   8
ENDBRANCH   6   7
ENDBRANCH   5   6
ENDBRANCH   4   5
ENDBRANCH   3   4
ENDBRANCH   2   3
ENDBRANCH   1   2
BRANCH   1  11
ATOM     11  C   UNL     1       1.995 -22.437  14.619  1.00  0.00     0.000 C 
BRANCH  11  12
ATOM     12  C   UNL     1       0.677 -23.124  14.996  1.00  0.00     0.000 C 
BRANCH  12  13
ATOM     13  C   UNL     1       0.006 -22.419  16.181  1.00  0.00     0.000 C 
BRANCH  13  14
ATOM     14  C   UNL     1      -1.421 -21.981  15.824  1.00  0.00     0.000 C 
BRANCH  14  15
ATOM     15  C   UNL     1      -2.494 -22.965  16.325  1.00  0.00     0.000 C 
BRANCH  15  16
ATOM     16  C   UNL     1      -3.950 -22.481  16.166  1.00  0.00     0.006 C 
BRANCH  16  17
ATOM     17  C   UNL     1      -4.947 -23.121  17.144  1.00  0.00     0.053 C 
BRANCH  17  18
ATOM     18  C   UNL     1      -6.315 -22.524  17.020  1.00  0.00     0.041 C 
ATOM     19  O   UNL     1      -6.935 -22.140  18.047  1.00  0.00    -0.550 OA
ATOM     20  O   UNL     1      -6.920 -22.425  15.774  1.00  0.00    -0.550 OA
ENDBRANCH  17  18
ENDBRANCH  16  17
ENDBRANCH  15  16
ENDBRANCH  14  15
ENDBRANCH  13  14
ENDBRANCH  12  13
ENDBRANCH  11  12
ENDBRANCH   1  11
TORSDOF 15
ENDMDL
MODEL 7
REMARK VINA RESULT:    -1.685      8.476     13.203
REMARK INTER + INTRA:          -3.614
REMARK INTER:                  -3.177
REMARK INTRA:                  -0.436
REMARK UNBOUND:                -0.451
REMARK SMILES O=C([O-])CCCCCCCCCCCCCCC(=O)[O-]
REMARK SMILES IDX 10 1 9 2 8 3 7 4 6 5 5 6 4 7 2 8 1 9 3 10 11 11 12 12 13 13
REMARK SMILES IDX 14 14 15 15 16 16 17 17 18 18 19 19 20 20
REMARK H PARENT
REMARK Flexibility Score: inf
ROOT
ATOM      1  C   UNL     1       1.157 -22.410  15.996  1.00  0.00     0.000 C 
ENDROOT
BRANCH   1   2
ATOM      2  C   UNL     1       2.346 -22.707  15.068  1.00  0.00     0.000 C 
BRANCH   2   3
ATOM      3  C   UNL     1       3.677 -22.823  15.832  1.00  0.00     0.000 C 
BRANCH   3   4
ATOM      4  C   UNL     1       4.893 -22.910  14.896  1.00  0.00     0.000 C 
BRANCH   4   5
ATOM      5  C   UNL     1       4.497 -22.867  13.410  1.00  0.00     0.000 C 
BRANCH   5   6
ATOM      6  C   UNL     1       5.689 -23.123  12.469  1.00  0.00     0.006 C 
BRANCH   6   7
ATOM      7  C   UNL     1       6.547 -21.882  12.178  1.00  0.00     0.053 C 
BRANCH   7   8
ATOM      8  C   UNL     1       7.804 -21.863  12.992  1.00  0.00     0.041 C 
ATOM      9  O   UNL     1       8.704 -22.719  12.788  1.00  0.00    -0.550 OA
ATOM     10  O   UNL     1       7.996 -20.880  13.954  1.00  0.00    -0.550 OA
ENDBRANCH   7   8
ENDBRANCH   6   7
ENDBRANCH   5   6
ENDBRANCH   4   5
ENDBRANCH   3   4
ENDBRANCH   2   3
ENDBRANCH   1   2
BRANCH   1  11
ATOM     11  C   UNL     1      -0.176 -22.918  15.430  1.00  0.00     0.000 C 
BRANCH  11  12
ATOM     12  C   UNL     1      -1.356 -22.425  16.275  1.00  0.00     0.000 C 
BRANCH  12  13
ATOM     13  C   UNL     1      -2.670 -23.071  15.820  1.00  0.00     0.000 C 
BRANCH  13  14
ATOM     14  C   UNL     1      -3.879 -22.250  16.290  1.00  0.00     0.000 C 
BRANCH  14  15
ATOM     15  C   UNL     1      -5.018 -23.123  16.847  1.00  0.00     0.000 C 
BRANCH  15  16
ATOM     16  C   UNL     1      -6.405 -22.448  16.875  1.00  0.00     0.006 C 
BRANCH  16  17
ATOM     17  C   UNL     1      -7.263 -22.803  18.099  1.00  0.00     0.053 C 
BRANCH  17  18
ATOM     18  C   UNL     1      -8.551 -22.040  18.120  1.00  0.00     0.041 C 
ATOM     19  O   UNL     1      -9.200 -21.919  19.193  1.00  0.00    -0.550 OA
ATOM     20  O   UNL     1      -9.054 -21.492  16.947  1.00  0.00    -0.550 OA
ENDBRANCH  17  18
ENDBRANCH  16  17
ENDBRANCH  15  16
ENDBRANCH  14  15
ENDBRANCH  13  14
ENDBRANCH  12  13
ENDBRANCH  11  12
ENDBRANCH   1  11
TORSDOF 15
ENDMDL
MODEL 8
REMARK VINA RESULT:    -1.553      7.992     10.823
REMARK INTER + INTRA:          -3.367
REMARK INTER:                  -2.980
REMARK INTRA:                  -0.386
REMARK UNBOUND:                -0.451
REMARK SMILES O=C([O-])CCCCCCCCCCCCCCC(=O)[O-]
REMARK SMILES IDX 10 1 9 2 8 3 7 4 6 5 5 6 4 7 2 8 1 9 3 10 11 11 12 12 13 13
REMARK SMILES IDX 14 14 15 15 16 16 17 17 18 18 19 19 20 20
REMARK H PARENT
REMARK Flexibility Score: inf
ROOT
ATOM      1  C   UNL     1      -0.976 -21.769  16.352  1.00  0.00     0.000 C 
ENDROOT
BRANCH   1   2
ATOM      2  C   UNL     1      -2.364 -21.641  15.704  1.00  0.00     0.000 C 
BRANCH   2   3
ATOM      3  C   UNL     1      -3.310 -22.788  16.102  1.00  0.00     0.000 C 
BRANCH   3   4
ATOM      4  C   UNL     1      -4.765 -22.325  16.276  1.00  0.00     0.000 C 
BRANCH   4   5
ATOM      5  C   UNL     1      -5.494 -23.082  17.399  1.00  0.00     0.000 C 
BRANCH   5   6
ATOM      6  C   UNL     1      -6.731 -22.326  17.921  1.00  0.00     0.006 C 
BRANCH   6   7
ATOM      7  C   UNL     1      -8.052 -23.099  17.786  1.00  0.00     0.053 C 
BRANCH   7   8
ATOM      8  C   UNL     1      -9.240 -22.240  18.094  1.00  0.00     0.041 C 
ATOM      9  O   UNL     1      -9.200 -21.420  19.048  1.00  0.00    -0.550 OA
ATOM     10  O   UNL     1     -10.381 -22.321  17.305  1.00  0.00    -0.550 OA
ENDBRANCH   7   8
ENDBRANCH   6   7
ENDBRANCH   5   6
ENDBRANCH   4   5
ENDBRANCH   3   4
ENDBRANCH   2   3
ENDBRANCH   1   2
BRANCH   1  11
ATOM     11  C   UNL     1      -0.142 -22.905  15.744  1.00  0.00     0.000 C 
BRANCH  11  12
ATOM     12  C   UNL     1       1.354 -22.570  15.784  1.00  0.00     0.000 C 
BRANCH  12  13
ATOM     13  C   UNL     1       2.077 -23.125  14.552  1.00  0.00     0.000 C 
BRANCH  13  14
ATOM     14  C   UNL     1       3.594 -22.915  14.662  1.00  0.00     0.000 C 
BRANCH  14  15
ATOM     15  C   UNL     1       4.328 -23.125  13.326  1.00  0.00     0.000 C 
BRANCH  15  16
ATOM     16  C   UNL     1       5.864 -23.000  13.398  1.00  0.00     0.006 C 
BRANCH  16  17
ATOM     17  C   UNL     1       6.420 -22.770  14.811  1.00  0.00     0.053 C 
BRANCH  17  18
ATOM     18  C   UNL     1       7.561 -21.799  14.813  1.00  0.00     0.041 C 
ATOM     19  O   UNL     1       7.663 -20.942  15.730  1.00  0.00    -0.550 OA
ATOM     20  O   UNL     1       8.492 -21.817  13.782  1.00  0.00    -0.550 OA
ENDBRANCH  17  18
ENDBRANCH  16  17
ENDBRANCH  15  16
ENDBRANCH  14  15
ENDBRANCH  13  14
ENDBRANCH  12  13
ENDBRANCH  11  12
ENDBRANCH   1  11
TORSDOF 15
ENDMDL
