MODEL 1
REMARK VINA RESULT:    -3.082      0.000      0.000
REMARK INTER + INTRA:          -3.480
REMARK INTER:                  -3.443
REMARK INTRA:                  -0.037
REMARK UNBOUND:                -0.037
REMARK SMILES CCCC(=O)[O-]
REMARK SMILES IDX 3 1 4 2 5 3 6 4 2 5 1 6
REMARK H PARENT
REMARK Flexibility Score: inf
ROOT
ATOM      1  C   UNL     1      28.807  14.745  -9.882  1.00  0.00     0.052 C 
ENDROOT
BRANCH   1   2
ATOM      2  C   UNL     1      28.862  13.315 -10.325  1.00  0.00     0.041 C 
ATOM      3  O   UNL     1      29.456  13.005 -11.391  1.00  0.00    -0.550 OA
ATOM      4  O   UNL     1      28.287  12.320  -9.544  1.00  0.00    -0.550 OA
ENDBRANCH   1   2
BRANCH   1   5
ATOM      5  C   UNL     1      27.877  14.930  -8.675  1.00  0.00     0.003 C 
ATOM      6  C   UNL     1      26.460  15.324  -9.087  1.00  0.00     0.004 C 
ENDBRANCH   1   5
TORSDOF 2
ENDMDL
MODEL 2
REMARK VINA RESULT:    -2.950     11.315     11.993
REMARK INTER + INTRA:          -3.332
REMARK INTER:                  -3.301
REMARK INTRA:                  -0.031
REMARK UNBOUND:                -0.037
REMARK SMILES CCCC(=O)[O-]
REMARK SMILES IDX 3 1 4 2 5 3 6 4 2 5 1 6
REMARK H PARENT
REMARK Flexibility Score: inf
ROOT
ATOM      1  C   UNL     1      20.292  21.591  -6.884  1.00  0.00     0.052 C 
ENDROOT
BRANCH   1   2
ATOM      2  C   UNL     1      18.940  21.092  -6.475  1.00  0.00     0.041 C 
ATOM      3  O   UNL     1      18.803  20.437  -5.408  1.00  0.00    -0.550 OA
ATOM      4  O   UNL     1      17.827  21.378  -7.254  1.00  0.00    -0.550 OA
ENDBRANCH   1   2
BRANCH   1   5
ATOM      5  C   UNL     1      21.411  20.943  -6.058  1.00  0.00     0.003 C 
ATOM      6  C   UNL     1      22.329  21.978  -5.408  1.00  0.00     0.004 C 
ENDBRANCH   1   5
TORSDOF 2
ENDMDL
MODEL 3
REMARK VINA RESULT:    -2.916      1.754      2.080
REMARK INTER + INTRA:          -3.294
REMARK INTER:                  -3.226
REMARK INTRA:                  -0.068
REMARK UNBOUND:                -0.037
REMARK SMILES CCCC(=O)[O-]
REMARK SMILES IDX 3 1 4 2 5 3 6 4 2 5 1 6
REMARK H PARENT
REMARK Flexibility Score: inf
ROOT
ATOM      1  C   UNL     1      29.078  13.312 -10.681  1.00  0.00     0.052 C 
ENDROOT
BRANCH   1   2
ATOM      2  C   UNL     1      27.998  12.594  -9.932  1.00  0.00     0.041 C 
ATOM      3  O   UNL     1      28.105  12.407  -8.691  1.00  0.00    -0.550 OA
ATOM      4  O   UNL     1      26.858  12.161 -10.596  1.00  0.00    -0.550 OA
ENDBRANCH   1   2
BRANCH   1   5
ATOM      5  C   UNL     1      29.228  14.765 -10.211  1.00  0.00     0.003 C 
ATOM      6  C   UNL     1      28.037  15.633 -10.616  1.00  0.00     0.004 C 
ENDBRANCH   1   5
TORSDOF 2
ENDMDL
MODEL 4
REMARK VINA RESULT:    -2.907     11.042     11.770
REMARK INTER + INTRA:          -3.284
REMARK INTER:                  -3.252
REMARK INTRA:                  -0.032
REMARK UNBOUND:                -0.037
REMARK SMILES CCCC(=O)[O-]
REMARK SMILES IDX 3 1 4 2 5 3 6 4 2 5 1 6
REMARK H PARENT
REMARK Flexibility Score: inf
ROOT
ATOM      1  C   UNL     1      20.552  20.451  -5.381  1.00  0.00     0.052 C 
ENDROOT
BRANCH   1   2
ATOM      2  C   UNL     1      19.438  21.076  -6.164  1.00  0.00     0.041 C 
ATOM      3  O   UNL     1      18.240  20.896  -5.816  1.00  0.00    -0.550 OA
ATOM      4  O   UNL     1      19.721  21.883  -7.258  1.00  0.00    -0.550 OA
ENDBRANCH   1   2
BRANCH   1   5
ATOM      5  C   UNL     1      20.529  18.920  -5.483  1.00  0.00     0.003 C 
ATOM      6  C   UNL     1      19.952  18.262  -4.230  1.00  0.00     0.004 C 
ENDBRANCH   1   5
TORSDOF 2
ENDMDL
MODEL 5
REMARK VINA RESULT:    -2.892      2.065      3.010
REMARK INTER + INTRA:          -3.267
REMARK INTER:                  -3.209
REMARK INTRA:                  -0.058
REMARK UNBOUND:                -0.037
REMARK SMILES CCCC(=O)[O-]
REMARK SMILES IDX 3 1 4 2 5 3 6 4 2 5 1 6
REMARK H PARENT
REMARK Flexibility Score: inf
ROOT
ATOM      1  C   UNL     1      28.310  14.873  -8.848  1.00  0.00     0.052 C 
ENDROOT
BRANCH   1   2
ATOM      2  C   UNL     1      26.833  14.736  -9.053  1.00  0.00     0.041 C 
ATOM      3  O   UNL     1      26.168  15.691  -9.534  1.00  0.00    -0.550 OA
ATOM      4  O   UNL     1      26.194  13.541  -8.745  1.00  0.00    -0.550 OA
ENDBRANCH   1   2
BRANCH   1   5
ATOM      5  C   UNL     1      29.076  14.821 -10.176  1.00  0.00     0.003 C 
ATOM      6  C   UNL     1      29.123  13.412 -10.766  1.00  0.00     0.004 C 
ENDBRANCH   1   5
TORSDOF 2
ENDMDL
MODEL 6
REMARK VINA RESULT:    -2.868      9.999     11.099
REMARK INTER + INTRA:          -3.241
REMARK INTER:                  -3.176
REMARK INTRA:                  -0.065
REMARK UNBOUND:                -0.037
REMARK SMILES CCCC(=O)[O-]
REMARK SMILES IDX 3 1 4 2 5 3 6 4 2 5 1 6
REMARK H PARENT
REMARK Flexibility Score: inf
ROOT
ATOM      1  C   UNL     1      20.163  20.446  -5.466  1.00  0.00     0.052 C 
ENDROOT
BRANCH   1   2
ATOM      2  C   UNL     1      20.523  19.010  -5.243  1.00  0.00     0.041 C 
ATOM      3  O   UNL     1      20.039  18.379  -4.267  1.00  0.00    -0.550 OA
ATOM      4  O   UNL     1      21.368  18.357  -6.132  1.00  0.00    -0.550 OA
ENDBRANCH   1   2
BRANCH   1   5
ATOM      5  C   UNL     1      18.662  20.621  -5.734  1.00  0.00     0.003 C 
ATOM      6  C   UNL     1      18.262  20.153  -7.132  1.00  0.00     0.004 C 
ENDBRANCH   1   5
TORSDOF 2
ENDMDL
MODEL 7
REMARK VINA RESULT:    -2.854     10.795     11.552
REMARK INTER + INTRA:          -3.225
REMARK INTER:                  -3.194
REMARK INTRA:                  -0.031
REMARK UNBOUND:                -0.037
REMARK SMILES CCCC(=O)[O-]
REMARK SMILES IDX 3 1 4 2 5 3 6 4 2 5 1 6
REMARK H PARENT
REMARK Flexibility Score: inf
ROOT
ATOM      1  C   UNL     1      20.154  20.269  -5.752  1.00  0.00     0.052 C 
ENDROOT
BRANCH   1   2
ATOM      2  C   UNL     1      21.148  21.311  -6.164  1.00  0.00     0.041 C 
ATOM      3  O   UNL     1      22.349  21.223  -5.793  1.00  0.00    -0.550 OA
ATOM      4  O   UNL     1      20.758  22.361  -6.985  1.00  0.00    -0.550 OA
ENDBRANCH   1   2
BRANCH   1   5
ATOM      5  C   UNL     1      18.711  20.764  -5.915  1.00  0.00     0.003 C 
ATOM      6  C   UNL     1      18.024  20.165  -7.141  1.00  0.00     0.004 C 
ENDBRANCH   1   5
TORSDOF 2
ENDMDL
MODEL 8
REMARK VINA RESULT:    -2.786      9.252     10.052
REMARK INTER + INTRA:          -3.149
REMARK INTER:                  -3.110
REMARK INTRA:                  -0.039
REMARK UNBOUND:                -0.037
REMARK SMILES CCCC(=O)[O-]
REMARK SMILES IDX 3 1 4 2 5 3 6 4 2 5 1 6
REMARK H PARENT
REMARK Flexibility Score: inf
ROOT
ATOM      1  C   UNL     1      20.684  20.039  -5.339  1.00  0.00     0.052 C 
ENDROOT
BRANCH   1   2
ATOM      2  C   UNL     1      21.033  18.735  -5.987  1.00  0.00     0.041 C 
ATOM      3  O   UNL     1      22.208  18.522  -6.390  1.00  0.00    -0.550 OA
ATOM      4  O   UNL     1      20.072  17.741  -6.117  1.00  0.00    -0.550 OA
ENDBRANCH   1   2
BRANCH   1   5
ATOM      5  C   UNL     1      21.223  21.234  -6.138  1.00  0.00     0.003 C 
ATOM      6  C   UNL     1      22.329  21.980  -5.394  1.00  0.00     0.004 C 
ENDBRANCH   1   5
TORSDOF 2
ENDMDL
MODEL 9
REMARK VINA RESULT:    -2.735      1.775      2.091
REMARK INTER + INTRA:          -3.092
REMARK INTER:                  -3.051
REMARK INTRA:                  -0.041
REMARK UNBOUND:                -0.037
REMARK SMILES CCCC(=O)[O-]
REMARK SMILES IDX 3 1 4 2 5 3 6 4 2 5 1 6
REMARK H PARENT
REMARK Flexibility Score: inf
ROOT
ATOM      1  C   UNL     1      28.250  14.806  -8.699  1.00  0.00     0.052 C 
ENDROOT
BRANCH   1   2
ATOM      2  C   UNL     1      28.898  14.874 -10.048  1.00  0.00     0.041 C 
ATOM      3  O   UNL     1      29.018  15.980 -10.638  1.00  0.00    -0.550 OA
ATOM      4  O   UNL     1      29.400  13.721 -10.639  1.00  0.00    -0.550 OA
ENDBRANCH   1   2
BRANCH   1   5
ATOM      5  C   UNL     1      27.870  13.368  -8.321  1.00  0.00     0.003 C 
ATOM      6  C   UNL     1      26.438  13.020  -8.724  1.00  0.00     0.004 C 
ENDBRANCH   1   5
TORSDOF 2
ENDMDL
