MODEL 1
REMARK VINA RESULT:    -4.760      0.000      0.000
REMARK INTER + INTRA:          -4.760
REMARK INTER:                  -4.760
REMARK INTRA:                   0.000
REMARK UNBOUND:                 0.000
REMARK SMILES CC1(C)[C@H]2CC[C@]1(C)C(=O)C2
REMARK SMILES IDX 1 1 2 2 4 3 5 4 6 5 7 6 9 7 10 8 11 9 8 10 3 11
REMARK H PARENT
REMARK Flexibility Score: inf
ROOT
ATOM      1  C   UNL     1       7.438  31.131  66.505  1.00  0.00     0.012 C 
ATOM      2  C   UNL     1       7.778  32.290  67.489  1.00  0.00    -0.020 C 
ATOM      3  C   UNL     1       7.235  33.669  67.042  1.00  0.00     0.003 C 
ATOM      4  C   UNL     1       5.695  33.461  67.089  1.00  0.00     0.005 C 
ATOM      5  C   UNL     1       5.507  32.527  68.311  1.00  0.00     0.015 C 
ATOM      6  C   UNL     1       6.960  32.311  68.799  1.00  0.00     0.032 C 
ATOM      7  C   UNL     1       7.378  33.645  69.367  1.00  0.00     0.139 C 
ATOM      8  O   UNL     1       7.451  33.929  70.552  1.00  0.00    -0.299 OA
ATOM      9  C   UNL     1       7.587  34.602  68.234  1.00  0.00     0.080 C 
ATOM     10  C   UNL     1       7.149  31.117  69.742  1.00  0.00     0.020 C 
ATOM     11  C   UNL     1       9.325  32.262  67.688  1.00  0.00     0.012 C 
ENDROOT
TORSDOF 0
ENDMDL
MODEL 2
REMARK VINA RESULT:    -4.692      1.582      2.741
REMARK INTER + INTRA:          -4.692
REMARK INTER:                  -4.692
REMARK INTRA:                   0.000
REMARK UNBOUND:                 0.000
REMARK SMILES CC1(C)[C@H]2CC[C@]1(C)C(=O)C2
REMARK SMILES IDX 1 1 2 2 4 3 5 4 6 5 7 6 9 7 10 8 11 9 8 10 3 11
REMARK H PARENT
REMARK Flexibility Score: inf
ROOT
ATOM      1  C   UNL     1       7.746  31.378  69.809  1.00  0.00     0.012 C 
ATOM      2  C   UNL     1       7.192  32.597  69.012  1.00  0.00    -0.020 C 
ATOM      3  C   UNL     1       8.204  33.199  68.007  1.00  0.00     0.003 C 
ATOM      4  C   UNL     1       8.410  32.040  66.992  1.00  0.00     0.005 C 
ATOM      5  C   UNL     1       7.003  31.394  66.913  1.00  0.00     0.015 C 
ATOM      6  C   UNL     1       6.178  32.257  67.898  1.00  0.00     0.032 C 
ATOM      7  C   UNL     1       6.049  33.598  67.219  1.00  0.00     0.139 C 
ATOM      8  O   UNL     1       5.056  34.023  66.649  1.00  0.00    -0.299 OA
ATOM      9  C   UNL     1       7.378  34.287  67.266  1.00  0.00     0.080 C 
ATOM     10  C   UNL     1       4.854  31.629  68.347  1.00  0.00     0.020 C 
ATOM     11  C   UNL     1       6.678  33.621  70.070  1.00  0.00     0.012 C 
ENDROOT
TORSDOF 0
ENDMDL
MODEL 3
REMARK VINA RESULT:    -4.541      1.069      2.893
REMARK INTER + INTRA:          -4.541
REMARK INTER:                  -4.541
REMARK INTRA:                   0.000
REMARK UNBOUND:                 0.000
REMARK SMILES CC1(C)[C@H]2CC[C@]1(C)C(=O)C2
REMARK SMILES IDX 1 1 2 2 4 3 5 4 6 5 7 6 9 7 10 8 11 9 8 10 3 11
REMARK H PARENT
REMARK Flexibility Score: inf
ROOT
ATOM      1  C   UNL     1       5.221  33.711  67.055  1.00  0.00     0.012 C 
ATOM      2  C   UNL     1       5.846  33.098  68.343  1.00  0.00    -0.020 C 
ATOM      3  C   UNL     1       7.109  32.243  68.079  1.00  0.00     0.003 C 
ATOM      4  C   UNL     1       8.120  33.287  67.529  1.00  0.00     0.005 C 
ATOM      5  C   UNL     1       7.782  34.562  68.342  1.00  0.00     0.015 C 
ATOM      6  C   UNL     1       6.616  34.088  69.245  1.00  0.00     0.032 C 
ATOM      7  C   UNL     1       7.253  33.135  70.226  1.00  0.00     0.139 C 
ATOM      8  O   UNL     1       7.521  33.379  71.392  1.00  0.00    -0.299 OA
ATOM      9  C   UNL     1       7.601  31.869  69.506  1.00  0.00     0.080 C 
ATOM     10  C   UNL     1       5.795  35.217  69.878  1.00  0.00     0.020 C 
ATOM     11  C   UNL     1       4.703  32.318  69.063  1.00  0.00     0.012 C 
ENDROOT
TORSDOF 0
ENDMDL
MODEL 4
REMARK VINA RESULT:    -4.531      1.554      3.061
REMARK INTER + INTRA:          -4.531
REMARK INTER:                  -4.531
REMARK INTRA:                   0.000
REMARK UNBOUND:                 0.000
REMARK SMILES CC1(C)[C@H]2CC[C@]1(C)C(=O)C2
REMARK SMILES IDX 1 1 2 2 4 3 5 4 6 5 7 6 9 7 10 8 11 9 8 10 3 11
REMARK H PARENT
REMARK Flexibility Score: inf
ROOT
ATOM      1  C   UNL     1       8.903  32.748  67.739  1.00  0.00     0.012 C 
ATOM      2  C   UNL     1       7.362  32.592  67.908  1.00  0.00    -0.020 C 
ATOM      3  C   UNL     1       6.918  32.310  69.363  1.00  0.00     0.003 C 
ATOM      4  C   UNL     1       7.332  33.611  70.105  1.00  0.00     0.005 C 
ATOM      5  C   UNL     1       7.069  34.713  69.049  1.00  0.00     0.015 C 
ATOM      6  C   UNL     1       6.549  33.903  67.837  1.00  0.00     0.032 C 
ATOM      7  C   UNL     1       5.187  33.411  68.259  1.00  0.00     0.139 C 
ATOM      8  O   UNL     1       4.114  33.869  67.898  1.00  0.00    -0.299 OA
ATOM      9  C   UNL     1       5.366  32.330  69.280  1.00  0.00     0.080 C 
ATOM     10  C   UNL     1       6.581  34.655  66.501  1.00  0.00     0.020 C 
ATOM     11  C   UNL     1       6.915  31.493  66.894  1.00  0.00     0.012 C 
ENDROOT
TORSDOF 0
ENDMDL
MODEL 5
REMARK VINA RESULT:    -4.531      1.270      1.983
REMARK INTER + INTRA:          -4.531
REMARK INTER:                  -4.531
REMARK INTRA:                   0.000
REMARK UNBOUND:                 0.000
REMARK SMILES CC1(C)[C@H]2CC[C@]1(C)C(=O)C2
REMARK SMILES IDX 1 1 2 2 4 3 5 4 6 5 7 6 9 7 10 8 11 9 8 10 3 11
REMARK H PARENT
REMARK Flexibility Score: inf
ROOT
ATOM      1  C   UNL     1       7.597  31.617  67.243  1.00  0.00     0.012 C 
ATOM      2  C   UNL     1       7.105  32.569  68.374  1.00  0.00    -0.020 C 
ATOM      3  C   UNL     1       7.632  34.019  68.245  1.00  0.00     0.003 C 
ATOM      4  C   UNL     1       6.979  34.502  66.920  1.00  0.00     0.005 C 
ATOM      5  C   UNL     1       5.591  33.814  66.944  1.00  0.00     0.015 C 
ATOM      6  C   UNL     1       5.631  33.018  68.271  1.00  0.00     0.032 C 
ATOM      7  C   UNL     1       5.583  34.070  69.352  1.00  0.00     0.139 C 
ATOM      8  O   UNL     1       4.608  34.362  70.027  1.00  0.00    -0.299 OA
ATOM      9  C   UNL     1       6.903  34.774  69.392  1.00  0.00     0.080 C 
ATOM     10  C   UNL     1       4.571  31.917  68.391  1.00  0.00     0.020 C 
ATOM     11  C   UNL     1       7.484  31.885  69.724  1.00  0.00     0.012 C 
ENDROOT
TORSDOF 0
ENDMDL
MODEL 6
REMARK VINA RESULT:    -4.485      1.573      2.912
REMARK INTER + INTRA:          -4.485
REMARK INTER:                  -4.485
REMARK INTRA:                   0.000
REMARK UNBOUND:                 0.000
REMARK SMILES CC1(C)[C@H]2CC[C@]1(C)C(=O)C2
REMARK SMILES IDX 1 1 2 2 4 3 5 4 6 5 7 6 9 7 10 8 11 9 8 10 3 11
REMARK H PARENT
REMARK Flexibility Score: inf
ROOT
ATOM      1  C   UNL     1       4.443  32.959  69.402  1.00  0.00     0.012 C 
ATOM      2  C   UNL     1       5.685  33.322  68.535  1.00  0.00    -0.020 C 
ATOM      3  C   UNL     1       6.547  34.464  69.124  1.00  0.00     0.003 C 
ATOM      4  C   UNL     1       7.075  33.846  70.448  1.00  0.00     0.005 C 
ATOM      5  C   UNL     1       7.294  32.358  70.074  1.00  0.00     0.015 C 
ATOM      6  C   UNL     1       6.854  32.314  68.591  1.00  0.00     0.032 C 
ATOM      7  C   UNL     1       7.921  33.081  67.850  1.00  0.00     0.139 C 
ATOM      8  O   UNL     1       8.817  32.596  67.177  1.00  0.00    -0.299 OA
ATOM      9  C   UNL     1       7.764  34.537  68.160  1.00  0.00     0.080 C 
ATOM     10  C   UNL     1       6.571  30.908  68.047  1.00  0.00     0.020 C 
ATOM     11  C   UNL     1       5.151  33.620  67.099  1.00  0.00     0.012 C 
ENDROOT
TORSDOF 0
ENDMDL
MODEL 7
REMARK VINA RESULT:    -4.453      1.949      3.500
REMARK INTER + INTRA:          -4.453
REMARK INTER:                  -4.453
REMARK INTRA:                   0.000
REMARK UNBOUND:                 0.000
REMARK SMILES CC1(C)[C@H]2CC[C@]1(C)C(=O)C2
REMARK SMILES IDX 1 1 2 2 4 3 5 4 6 5 7 6 9 7 10 8 11 9 8 10 3 11
REMARK H PARENT
REMARK Flexibility Score: inf
ROOT
ATOM      1  C   UNL     1       5.104  33.183  71.040  1.00  0.00     0.012 C 
ATOM      2  C   UNL     1       5.883  33.984  69.955  1.00  0.00    -0.020 C 
ATOM      3  C   UNL     1       7.395  33.656  69.900  1.00  0.00     0.003 C 
ATOM      4  C   UNL     1       7.405  32.163  69.467  1.00  0.00     0.005 C 
ATOM      5  C   UNL     1       6.206  32.076  68.490  1.00  0.00     0.015 C 
ATOM      6  C   UNL     1       5.657  33.524  68.498  1.00  0.00     0.032 C 
ATOM      7  C   UNL     1       6.707  34.337  67.782  1.00  0.00     0.139 C 
ATOM      8  O   UNL     1       6.638  34.748  66.634  1.00  0.00    -0.299 OA
ATOM      9  C   UNL     1       7.900  34.470  68.676  1.00  0.00     0.080 C 
ATOM     10  C   UNL     1       4.234  33.673  67.946  1.00  0.00     0.020 C 
ATOM     11  C   UNL     1       5.580  35.492  70.215  1.00  0.00     0.012 C 
ENDROOT
TORSDOF 0
ENDMDL
MODEL 8
REMARK VINA RESULT:    -4.317      1.505      2.921
REMARK INTER + INTRA:          -4.317
REMARK INTER:                  -4.317
REMARK INTRA:                   0.000
REMARK UNBOUND:                 0.000
REMARK SMILES CC1(C)[C@H]2CC[C@]1(C)C(=O)C2
REMARK SMILES IDX 1 1 2 2 4 3 5 4 6 5 7 6 9 7 10 8 11 9 8 10 3 11
REMARK H PARENT
REMARK Flexibility Score: inf
ROOT
ATOM      1  C   UNL     1       4.804  34.056  69.165  1.00  0.00     0.012 C 
ATOM      2  C   UNL     1       5.685  32.897  68.610  1.00  0.00    -0.020 C 
ATOM      3  C   UNL     1       6.098  33.079  67.130  1.00  0.00     0.003 C 
ATOM      4  C   UNL     1       6.989  34.352  67.177  1.00  0.00     0.005 C 
ATOM      5  C   UNL     1       7.723  34.212  68.535  1.00  0.00     0.015 C 
ATOM      6  C   UNL     1       7.152  32.886  69.093  1.00  0.00     0.032 C 
ATOM      7  C   UNL     1       7.731  31.813  68.205  1.00  0.00     0.139 C 
ATOM      8  O   UNL     1       8.653  31.065  68.490  1.00  0.00    -0.299 OA
ATOM      9  C   UNL     1       7.057  31.884  66.870  1.00  0.00     0.080 C 
ATOM     10  C   UNL     1       7.375  32.673  70.595  1.00  0.00     0.020 C 
ATOM     11  C   UNL     1       4.901  31.576  68.882  1.00  0.00     0.012 C 
ENDROOT
TORSDOF 0
ENDMDL
MODEL 9
REMARK VINA RESULT:    -4.260      2.162      3.696
REMARK INTER + INTRA:          -4.260
REMARK INTER:                  -4.260
REMARK INTRA:                   0.000
REMARK UNBOUND:                 0.000
REMARK SMILES CC1(C)[C@H]2CC[C@]1(C)C(=O)C2
REMARK SMILES IDX 1 1 2 2 4 3 5 4 6 5 7 6 9 7 10 8 11 9 8 10 3 11
REMARK H PARENT
REMARK Flexibility Score: inf
ROOT
ATOM      1  C   UNL     1       7.375  33.284  71.559  1.00  0.00     0.012 C 
ATOM      2  C   UNL     1       6.497  33.050  70.293  1.00  0.00    -0.020 C 
ATOM      3  C   UNL     1       4.975  33.103  70.569  1.00  0.00     0.003 C 
ATOM      4  C   UNL     1       4.760  34.577  71.012  1.00  0.00     0.005 C 
ATOM      5  C   UNL     1       5.764  35.357  70.127  1.00  0.00     0.015 C 
ATOM      6  C   UNL     1       6.432  34.231  69.301  1.00  0.00     0.032 C 
ATOM      7  C   UNL     1       5.352  33.750  68.364  1.00  0.00     0.139 C 
ATOM      8  O   UNL     1       5.263  34.015  67.175  1.00  0.00    -0.299 OA
ATOM      9  C   UNL     1       4.344  32.976  69.154  1.00  0.00     0.080 C 
ATOM     10  C   UNL     1       7.749  34.627  68.623  1.00  0.00     0.020 C 
ATOM     11  C   UNL     1       6.971  31.701  69.669  1.00  0.00     0.012 C 
ENDROOT
TORSDOF 0
ENDMDL
