MODEL 1
REMARK VINA RESULT:    -4.476      0.000      0.000
REMARK INTER + INTRA:          -8.512
REMARK INTER:                  -7.746
REMARK INTRA:                  -0.766
REMARK UNBOUND:                -0.766
REMARK SMILES CCCCCCCCCCCCCCO
REMARK SMILES IDX 8 1 7 2 6 3 5 4 4 5 3 6 2 7 1 8 9 9 10 10 11 11 12 12 13 13
REMARK SMILES IDX 14 14 15 15
REMARK H PARENT 15 16
REMARK Flexibility Score: inf
ROOT
ATOM      1  C   UNL     1      10.519 -25.882  13.884  1.00  0.00     0.000 C 
ENDROOT
BRANCH   1   2
ATOM      2  C   UNL     1      11.698 -26.783  14.283  1.00  0.00    -0.000 C 
BRANCH   2   3
ATOM      3  C   UNL     1      13.010 -26.379  13.591  1.00  0.00    -0.000 C 
BRANCH   3   4
ATOM      4  C   UNL     1      12.931 -26.466  12.056  1.00  0.00    -0.000 C 
BRANCH   4   5
ATOM      5  C   UNL     1      13.826 -25.470  11.297  1.00  0.00    -0.000 C 
BRANCH   5   6
ATOM      6  C   UNL     1      13.466 -24.004  11.575  1.00  0.00    -0.000 C 
BRANCH   6   7
ATOM      7  C   UNL     1      14.720 -23.178  11.884  1.00  0.00    -0.003 C 
ATOM      8  C   UNL     1      15.790 -24.033  12.559  1.00  0.00     0.004 C 
ENDBRANCH   6   7
ENDBRANCH   5   6
ENDBRANCH   4   5
ENDBRANCH   3   4
ENDBRANCH   2   3
ENDBRANCH   1   2
BRANCH   1   9
ATOM      9  C   UNL     1       9.168 -26.410  14.400  1.00  0.00     0.000 C 
BRANCH   9  10
ATOM     10  C   UNL     1       7.972 -25.845  13.617  1.00  0.00     0.000 C 
BRANCH  10  11
ATOM     11  C   UNL     1       6.873 -25.286  14.538  1.00  0.00     0.000 C 
BRANCH  11  12
ATOM     12  C   UNL     1       7.346 -24.082  15.373  1.00  0.00     0.002 C 
BRANCH  12  13
ATOM     13  C   UNL     1       7.329 -24.297  16.899  1.00  0.00     0.028 C 
BRANCH  13  14
ATOM     14  C   UNL     1       6.123 -23.662  17.604  1.00  0.00     0.156 C 
BRANCH  14  15
ATOM     15  O   UNL     1       5.527 -22.679  16.800  1.00  0.00    -0.396 OA
ATOM     16  H   UNL     1       5.911 -22.785  15.890  1.00  0.00     0.210 HD
ENDBRANCH  14  15
ENDBRANCH  13  14
ENDBRANCH  12  13
ENDBRANCH  11  12
ENDBRANCH  10  11
ENDBRANCH   9  10
ENDBRANCH   1   9
TORSDOF 13
ENDMDL
MODEL 2
REMARK VINA RESULT:    -4.416      1.151      1.751
REMARK INTER + INTRA:          -8.408
REMARK INTER:                  -7.182
REMARK INTRA:                  -1.226
REMARK UNBOUND:                -0.766
REMARK SMILES CCCCCCCCCCCCCCO
REMARK SMILES IDX 8 1 7 2 6 3 5 4 4 5 3 6 2 7 1 8 9 9 10 10 11 11 12 12 13 13
REMARK SMILES IDX 14 14 15 15
REMARK H PARENT 15 16
REMARK Flexibility Score: inf
ROOT
ATOM      1  C   UNL     1      10.026 -27.942  14.377  1.00  0.00     0.000 C 
ENDROOT
BRANCH   1   2
ATOM      2  C   UNL     1      11.400 -28.381  13.845  1.00  0.00    -0.000 C 
BRANCH   2   3
ATOM      3  C   UNL     1      11.648 -27.918  12.400  1.00  0.00    -0.000 C 
BRANCH   3   4
ATOM      4  C   UNL     1      12.989 -27.181  12.229  1.00  0.00    -0.000 C 
BRANCH   4   5
ATOM      5  C   UNL     1      13.340 -26.189  13.353  1.00  0.00    -0.000 C 
BRANCH   5   6
ATOM      6  C   UNL     1      12.851 -24.762  13.071  1.00  0.00    -0.000 C 
BRANCH   6   7
ATOM      7  C   UNL     1      13.255 -24.311  11.663  1.00  0.00    -0.003 C 
ATOM      8  C   UNL     1      14.383 -23.284  11.715  1.00  0.00     0.004 C 
ENDBRANCH   6   7
ENDBRANCH   5   6
ENDBRANCH   4   5
ENDBRANCH   3   4
ENDBRANCH   2   3
ENDBRANCH   1   2
BRANCH   1   9
ATOM      9  C   UNL     1      10.051 -26.529  14.990  1.00  0.00     0.000 C 
BRANCH   9  10
ATOM     10  C   UNL     1       9.402 -25.475  14.078  1.00  0.00     0.000 C 
BRANCH  10  11
ATOM     11  C   UNL     1       8.025 -25.915  13.553  1.00  0.00     0.000 C 
BRANCH  11  12
ATOM     12  C   UNL     1       6.861 -25.401  14.419  1.00  0.00     0.002 C 
BRANCH  12  13
ATOM     13  C   UNL     1       7.194 -24.189  15.311  1.00  0.00     0.028 C 
BRANCH  13  14
ATOM     14  C   UNL     1       6.969 -24.438  16.809  1.00  0.00     0.156 C 
BRANCH  14  15
ATOM     15  O   UNL     1       7.196 -23.273  17.554  1.00  0.00    -0.396 OA
ATOM     16  H   UNL     1       8.109 -22.958  17.320  1.00  0.00     0.210 HD
ENDBRANCH  14  15
ENDBRANCH  13  14
ENDBRANCH  12  13
ENDBRANCH  11  12
ENDBRANCH  10  11
ENDBRANCH   9  10
ENDBRANCH   1   9
TORSDOF 13
ENDMDL
MODEL 3
REMARK VINA RESULT:    -4.403      1.735      3.659
REMARK INTER + INTRA:          -8.386
REMARK INTER:                  -6.787
REMARK INTRA:                  -1.598
REMARK UNBOUND:                -0.766
REMARK SMILES CCCCCCCCCCCCCCO
REMARK SMILES IDX 8 1 7 2 6 3 5 4 4 5 3 6 2 7 1 8 9 9 10 10 11 11 12 12 13 13
REMARK SMILES IDX 14 14 15 15
REMARK H PARENT 15 16
REMARK Flexibility Score: inf
ROOT
ATOM      1  C   UNL     1      14.465 -27.549  11.526  1.00  0.00     0.000 C 
ENDROOT
BRANCH   1   2
ATOM      2  C   UNL     1      13.760 -26.778  10.398  1.00  0.00    -0.000 C 
BRANCH   2   3
ATOM      3  C   UNL     1      14.725 -25.888   9.599  1.00  0.00    -0.000 C 
BRANCH   3   4
ATOM      4  C   UNL     1      14.505 -24.385   9.853  1.00  0.00    -0.000 C 
BRANCH   4   5
ATOM      5  C   UNL     1      13.403 -24.048  10.874  1.00  0.00    -0.000 C 
BRANCH   5   6
ATOM      6  C   UNL     1      13.958 -23.648  12.248  1.00  0.00    -0.000 C 
BRANCH   6   7
ATOM      7  C   UNL     1      15.488 -23.560  12.218  1.00  0.00    -0.003 C 
ATOM      8  C   UNL     1      16.118 -24.592  13.149  1.00  0.00     0.004 C 
ENDBRANCH   6   7
ENDBRANCH   5   6
ENDBRANCH   4   5
ENDBRANCH   3   4
ENDBRANCH   2   3
ENDBRANCH   1   2
BRANCH   1   9
ATOM      9  C   UNL     1      13.696 -27.484  12.859  1.00  0.00     0.000 C 
BRANCH   9  10
ATOM     10  C   UNL     1      12.252 -26.987  12.687  1.00  0.00     0.000 C 
BRANCH  10  11
ATOM     11  C   UNL     1      11.682 -26.370  13.976  1.00  0.00     0.000 C 
BRANCH  11  12
ATOM     12  C   UNL     1      10.435 -25.503  13.726  1.00  0.00     0.002 C 
BRANCH  12  13
ATOM     13  C   UNL     1       9.161 -25.961  14.462  1.00  0.00     0.028 C 
BRANCH  13  14
ATOM     14  C   UNL     1       8.257 -24.808  14.919  1.00  0.00     0.156 C 
BRANCH  14  15
ATOM     15  O   UNL     1       8.775 -24.182  16.061  1.00  0.00    -0.396 OA
ATOM     16  H   UNL     1       9.499 -24.770  16.405  1.00  0.00     0.210 HD
ENDBRANCH  14  15
ENDBRANCH  13  14
ENDBRANCH  12  13
ENDBRANCH  11  12
ENDBRANCH  10  11
ENDBRANCH   9  10
ENDBRANCH   1   9
TORSDOF 13
ENDMDL
MODEL 4
REMARK VINA RESULT:    -4.355      1.263      1.968
REMARK INTER + INTRA:          -8.302
REMARK INTER:                  -7.249
REMARK INTRA:                  -1.053
REMARK UNBOUND:                -0.766
REMARK SMILES CCCCCCCCCCCCCCO
REMARK SMILES IDX 8 1 7 2 6 3 5 4 4 5 3 6 2 7 1 8 9 9 10 10 11 11 12 12 13 13
REMARK SMILES IDX 14 14 15 15
REMARK H PARENT 15 16
REMARK Flexibility Score: inf
ROOT
ATOM      1  C   UNL     1      11.427 -27.551  13.195  1.00  0.00     0.000 C 
ENDROOT
BRANCH   1   2
ATOM      2  C   UNL     1      12.597 -26.657  12.754  1.00  0.00    -0.000 C 
BRANCH   2   3
ATOM      3  C   UNL     1      12.400 -25.187  13.160  1.00  0.00    -0.000 C 
BRANCH   3   4
ATOM      4  C   UNL     1      12.883 -24.197  12.084  1.00  0.00    -0.000 C 
BRANCH   4   5
ATOM      5  C   UNL     1      13.655 -24.830  10.912  1.00  0.00    -0.000 C 
BRANCH   5   6
ATOM      6  C   UNL     1      15.148 -24.474  10.913  1.00  0.00    -0.000 C 
BRANCH   6   7
ATOM      7  C   UNL     1      15.503 -23.596  12.119  1.00  0.00    -0.003 C 
ATOM      8  C   UNL     1      16.314 -24.375  13.150  1.00  0.00     0.004 C 
ENDBRANCH   6   7
ENDBRANCH   5   6
ENDBRANCH   4   5
ENDBRANCH   3   4
ENDBRANCH   2   3
ENDBRANCH   1   2
BRANCH   1   9
ATOM      9  C   UNL     1      11.012 -27.307  14.657  1.00  0.00     0.000 C 
BRANCH   9  10
ATOM     10  C   UNL     1       9.492 -27.402  14.866  1.00  0.00     0.000 C 
BRANCH  10  11
ATOM     11  C   UNL     1       8.702 -26.570  13.841  1.00  0.00     0.000 C 
BRANCH  11  12
ATOM     12  C   UNL     1       8.763 -25.058  14.121  1.00  0.00     0.002 C 
BRANCH  12  13
ATOM     13  C   UNL     1       7.416 -24.403  14.482  1.00  0.00     0.028 C 
BRANCH  13  14
ATOM     14  C   UNL     1       7.037 -24.536  15.964  1.00  0.00     0.156 C 
BRANCH  14  15
ATOM     15  O   UNL     1       7.963 -23.875  16.783  1.00  0.00    -0.396 OA
ATOM     16  H   UNL     1       8.756 -24.468  16.852  1.00  0.00     0.210 HD
ENDBRANCH  14  15
ENDBRANCH  13  14
ENDBRANCH  12  13
ENDBRANCH  11  12
ENDBRANCH  10  11
ENDBRANCH   9  10
ENDBRANCH   1   9
TORSDOF 13
ENDMDL
MODEL 5
REMARK VINA RESULT:    -4.354      3.203      6.942
REMARK INTER + INTRA:          -8.302
REMARK INTER:                  -6.940
REMARK INTRA:                  -1.362
REMARK UNBOUND:                -0.766
REMARK SMILES CCCCCCCCCCCCCCO
REMARK SMILES IDX 8 1 7 2 6 3 5 4 4 5 3 6 2 7 1 8 9 9 10 10 11 11 12 12 13 13
REMARK SMILES IDX 14 14 15 15
REMARK H PARENT 15 16
REMARK Flexibility Score: inf
ROOT
ATOM      1  C   UNL     1       8.320 -26.074  13.499  1.00  0.00     0.000 C 
ENDROOT
BRANCH   1   2
ATOM      2  C   UNL     1       7.195 -25.317  14.223  1.00  0.00    -0.000 C 
BRANCH   2   3
ATOM      3  C   UNL     1       7.730 -24.229  15.169  1.00  0.00    -0.000 C 
BRANCH   3   4
ATOM      4  C   UNL     1       7.564 -24.592  16.656  1.00  0.00    -0.000 C 
BRANCH   4   5
ATOM      5  C   UNL     1       8.715 -25.416  17.261  1.00  0.00    -0.000 C 
BRANCH   5   6
ATOM      6  C   UNL     1       8.500 -26.931  17.136  1.00  0.00    -0.000 C 
BRANCH   6   7
ATOM      7  C   UNL     1       9.825 -27.688  17.284  1.00  0.00    -0.003 C 
ATOM      8  C   UNL     1      10.953 -26.748  17.701  1.00  0.00     0.004 C 
ENDBRANCH   6   7
ENDBRANCH   5   6
ENDBRANCH   4   5
ENDBRANCH   3   4
ENDBRANCH   2   3
ENDBRANCH   1   2
BRANCH   1   9
ATOM      9  C   UNL     1       9.720 -25.544  13.862  1.00  0.00     0.000 C 
BRANCH   9  10
ATOM     10  C   UNL     1      10.790 -26.648  13.863  1.00  0.00     0.000 C 
BRANCH  10  11
ATOM     11  C   UNL     1      12.219 -26.084  13.949  1.00  0.00     0.000 C 
BRANCH  11  12
ATOM     12  C   UNL     1      12.784 -25.669  12.579  1.00  0.00     0.002 C 
BRANCH  12  13
ATOM     13  C   UNL     1      13.227 -24.197  12.472  1.00  0.00     0.028 C 
BRANCH  13  14
ATOM     14  C   UNL     1      14.742 -24.014  12.307  1.00  0.00     0.156 C 
BRANCH  14  15
ATOM     15  O   UNL     1      15.443 -24.635  13.351  1.00  0.00    -0.396 OA
ATOM     16  H   UNL     1      15.831 -23.908  13.905  1.00  0.00     0.210 HD
ENDBRANCH  14  15
ENDBRANCH  13  14
ENDBRANCH  12  13
ENDBRANCH  11  12
ENDBRANCH  10  11
ENDBRANCH   9  10
ENDBRANCH   1   9
TORSDOF 13
ENDMDL
MODEL 6
REMARK VINA RESULT:    -4.331      3.066      7.373
REMARK INTER + INTRA:          -8.261
REMARK INTER:                  -7.155
REMARK INTRA:                  -1.106
REMARK UNBOUND:                -0.766
REMARK SMILES CCCCCCCCCCCCCCO
REMARK SMILES IDX 8 1 7 2 6 3 5 4 4 5 3 6 2 7 1 8 9 9 10 10 11 11 12 12 13 13
REMARK SMILES IDX 14 14 15 15
REMARK H PARENT 15 16
REMARK Flexibility Score: inf
ROOT
ATOM      1  C   UNL     1       9.704 -25.718  14.043  1.00  0.00     0.000 C 
ENDROOT
BRANCH   1   2
ATOM      2  C   UNL     1       8.268 -26.130  13.680  1.00  0.00    -0.000 C 
BRANCH   2   3
ATOM      3  C   UNL     1       7.254 -24.999  13.917  1.00  0.00    -0.000 C 
BRANCH   3   4
ATOM      4  C   UNL     1       7.607 -24.121  15.132  1.00  0.00    -0.000 C 
BRANCH   4   5
ATOM      5  C   UNL     1       6.961 -24.552  16.461  1.00  0.00    -0.000 C 
BRANCH   5   6
ATOM      6  C   UNL     1       7.864 -25.466  17.300  1.00  0.00    -0.000 C 
BRANCH   6   7
ATOM      7  C   UNL     1       7.398 -26.924  17.218  1.00  0.00    -0.003 C 
ATOM      8  C   UNL     1       8.568 -27.862  16.933  1.00  0.00     0.004 C 
ENDBRANCH   6   7
ENDBRANCH   5   6
ENDBRANCH   4   5
ENDBRANCH   3   4
ENDBRANCH   2   3
ENDBRANCH   1   2
BRANCH   1   9
ATOM      9  C   UNL     1      10.709 -26.875  13.890  1.00  0.00     0.000 C 
BRANCH   9  10
ATOM     10  C   UNL     1      11.856 -26.541  12.922  1.00  0.00     0.000 C 
BRANCH  10  11
ATOM     11  C   UNL     1      12.890 -25.585  13.540  1.00  0.00     0.000 C 
BRANCH  11  12
ATOM     12  C   UNL     1      13.102 -24.309  12.705  1.00  0.00     0.002 C 
BRANCH  12  13
ATOM     13  C   UNL     1      13.458 -24.548  11.224  1.00  0.00     0.028 C 
BRANCH  13  14
ATOM     14  C   UNL     1      14.673 -23.745  10.740  1.00  0.00     0.156 C 
BRANCH  14  15
ATOM     15  O   UNL     1      14.710 -22.476  11.334  1.00  0.00    -0.396 OA
ATOM     16  H   UNL     1      14.014 -21.930  10.883  1.00  0.00     0.210 HD
ENDBRANCH  14  15
ENDBRANCH  13  14
ENDBRANCH  12  13
ENDBRANCH  11  12
ENDBRANCH  10  11
ENDBRANCH   9  10
ENDBRANCH   1   9
TORSDOF 13
ENDMDL
MODEL 7
REMARK VINA RESULT:    -4.330      3.115      7.299
REMARK INTER + INTRA:          -8.260
REMARK INTER:                  -7.125
REMARK INTRA:                  -1.135
REMARK UNBOUND:                -0.766
REMARK SMILES CCCCCCCCCCCCCCO
REMARK SMILES IDX 8 1 7 2 6 3 5 4 4 5 3 6 2 7 1 8 9 9 10 10 11 11 12 12 13 13
REMARK SMILES IDX 14 14 15 15
REMARK H PARENT 15 16
REMARK Flexibility Score: inf
ROOT
ATOM      1  C   UNL     1      10.768 -26.888  15.065  1.00  0.00     0.000 C 
ENDROOT
BRANCH   1   2
ATOM      2  C   UNL     1       9.870 -27.458  13.955  1.00  0.00    -0.000 C 
BRANCH   2   3
ATOM      3  C   UNL     1       8.744 -26.491  13.553  1.00  0.00    -0.000 C 
BRANCH   3   4
ATOM      4  C   UNL     1       8.918 -25.084  14.155  1.00  0.00    -0.000 C 
BRANCH   4   5
ATOM      5  C   UNL     1       7.802 -24.643  15.120  1.00  0.00    -0.000 C 
BRANCH   5   6
ATOM      6  C   UNL     1       6.543 -25.517  15.023  1.00  0.00    -0.000 C 
BRANCH   6   7
ATOM      7  C   UNL     1       6.168 -26.094  16.393  1.00  0.00    -0.003 C 
ATOM      8  C   UNL     1       7.331 -26.872  17.000  1.00  0.00     0.004 C 
ENDBRANCH   6   7
ENDBRANCH   5   6
ENDBRANCH   4   5
ENDBRANCH   3   4
ENDBRANCH   2   3
ENDBRANCH   1   2
BRANCH   1   9
ATOM      9  C   UNL     1      12.234 -26.734  14.621  1.00  0.00     0.000 C 
BRANCH   9  10
ATOM     10  C   UNL     1      12.367 -26.284  13.157  1.00  0.00     0.000 C 
BRANCH  10  11
ATOM     11  C   UNL     1      12.601 -24.769  13.023  1.00  0.00     0.000 C 
BRANCH  11  12
ATOM     12  C   UNL     1      13.429 -24.397  11.781  1.00  0.00     0.002 C 
BRANCH  12  13
ATOM     13  C   UNL     1      14.467 -23.278  11.996  1.00  0.00     0.028 C 
BRANCH  13  14
ATOM     14  C   UNL     1      15.886 -23.792  12.277  1.00  0.00     0.156 C 
BRANCH  14  15
ATOM     15  O   UNL     1      15.922 -24.562  13.448  1.00  0.00    -0.396 OA
ATOM     16  H   UNL     1      16.750 -24.305  13.932  1.00  0.00     0.210 HD
ENDBRANCH  14  15
ENDBRANCH  13  14
ENDBRANCH  12  13
ENDBRANCH  11  12
ENDBRANCH  10  11
ENDBRANCH   9  10
ENDBRANCH   1   9
TORSDOF 13
ENDMDL
MODEL 8
REMARK VINA RESULT:    -4.256      1.637      3.212
REMARK INTER + INTRA:          -8.132
REMARK INTER:                  -7.057
REMARK INTRA:                  -1.075
REMARK UNBOUND:                -0.766
REMARK SMILES CCCCCCCCCCCCCCO
REMARK SMILES IDX 8 1 7 2 6 3 5 4 4 5 3 6 2 7 1 8 9 9 10 10 11 11 12 12 13 13
REMARK SMILES IDX 14 14 15 15
REMARK H PARENT 15 16
REMARK Flexibility Score: inf
ROOT
ATOM      1  C   UNL     1      13.018 -25.970  13.516  1.00  0.00     0.000 C 
ENDROOT
BRANCH   1   2
ATOM      2  C   UNL     1      12.843 -24.600  12.841  1.00  0.00    -0.000 C 
BRANCH   2   3
ATOM      3  C   UNL     1      14.166 -24.038  12.295  1.00  0.00    -0.000 C 
BRANCH   3   4
ATOM      4  C   UNL     1      14.066 -23.588  10.826  1.00  0.00    -0.000 C 
BRANCH   4   5
ATOM      5  C   UNL     1      14.789 -24.495   9.813  1.00  0.00    -0.000 C 
BRANCH   5   6
ATOM      6  C   UNL     1      14.776 -25.976  10.216  1.00  0.00    -0.000 C 
BRANCH   6   7
ATOM      7  C   UNL     1      13.492 -26.665   9.738  1.00  0.00    -0.003 C 
ATOM      8  C   UNL     1      13.589 -28.180   9.890  1.00  0.00     0.004 C 
ENDBRANCH   6   7
ENDBRANCH   5   6
ENDBRANCH   4   5
ENDBRANCH   3   4
ENDBRANCH   2   3
ENDBRANCH   1   2
BRANCH   1   9
ATOM      9  C   UNL     1      11.880 -26.950  13.173  1.00  0.00     0.000 C 
BRANCH   9  10
ATOM     10  C   UNL     1      10.912 -27.168  14.347  1.00  0.00     0.000 C 
BRANCH  10  11
ATOM     11  C   UNL     1       9.454 -26.844  13.979  1.00  0.00     0.000 C 
BRANCH  11  12
ATOM     12  C   UNL     1       9.146 -25.336  14.024  1.00  0.00     0.002 C 
BRANCH  12  13
ATOM     13  C   UNL     1       7.681 -24.977  14.339  1.00  0.00     0.028 C 
BRANCH  13  14
ATOM     14  C   UNL     1       7.497 -24.214  15.659  1.00  0.00     0.156 C 
BRANCH  14  15
ATOM     15  O   UNL     1       8.692 -24.175  16.391  1.00  0.00    -0.396 OA
ATOM     16  H   UNL     1       8.847 -25.095  16.731  1.00  0.00     0.210 HD
ENDBRANCH  14  15
ENDBRANCH  13  14
ENDBRANCH  12  13
ENDBRANCH  11  12
ENDBRANCH  10  11
ENDBRANCH   9  10
ENDBRANCH   1   9
TORSDOF 13
ENDMDL
MODEL 9
REMARK VINA RESULT:    -4.228     12.107     14.728
REMARK INTER + INTRA:          -8.083
REMARK INTER:                  -7.383
REMARK INTRA:                  -0.700
REMARK UNBOUND:                -0.766
REMARK SMILES CCCCCCCCCCCCCCO
REMARK SMILES IDX 8 1 7 2 6 3 5 4 4 5 3 6 2 7 1 8 9 9 10 10 11 11 12 12 13 13
REMARK SMILES IDX 14 14 15 15
REMARK H PARENT 15 16
REMARK Flexibility Score: inf
ROOT
ATOM      1  C   UNL     1      21.576 -22.758  18.077  1.00  0.00     0.000 C 
ENDROOT
BRANCH   1   2
ATOM      2  C   UNL     1      20.722 -24.007  18.349  1.00  0.00    -0.000 C 
BRANCH   2   3
ATOM      3  C   UNL     1      21.460 -25.051  19.203  1.00  0.00    -0.000 C 
BRANCH   3   4
ATOM      4  C   UNL     1      20.774 -25.313  20.556  1.00  0.00    -0.000 C 
BRANCH   4   5
ATOM      5  C   UNL     1      21.726 -25.653  21.718  1.00  0.00    -0.000 C 
BRANCH   5   6
ATOM      6  C   UNL     1      23.125 -26.072  21.245  1.00  0.00    -0.000 C 
BRANCH   6   7
ATOM      7  C   UNL     1      23.805 -26.979  22.278  1.00  0.00    -0.003 C 
ATOM      8  C   UNL     1      23.684 -28.449  21.887  1.00  0.00     0.004 C 
ENDBRANCH   6   7
ENDBRANCH   5   6
ENDBRANCH   4   5
ENDBRANCH   3   4
ENDBRANCH   2   3
ENDBRANCH   1   2
BRANCH   1   9
ATOM      9  C   UNL     1      23.059 -22.966  18.433  1.00  0.00     0.000 C 
BRANCH   9  10
ATOM     10  C   UNL     1      23.918 -21.723  18.146  1.00  0.00     0.000 C 
BRANCH  10  11
ATOM     11  C   UNL     1      23.089 -20.545  17.606  1.00  0.00     0.000 C 
BRANCH  11  12
ATOM     12  C   UNL     1      23.960 -19.395  17.069  1.00  0.00     0.002 C 
BRANCH  12  13
ATOM     13  C   UNL     1      23.928 -19.209  15.539  1.00  0.00     0.028 C 
BRANCH  13  14
ATOM     14  C   UNL     1      22.689 -18.461  15.029  1.00  0.00     0.156 C 
BRANCH  14  15
ATOM     15  O   UNL     1      22.162 -17.621  16.020  1.00  0.00    -0.396 OA
ATOM     16  H   UNL     1      22.936 -17.225  16.499  1.00  0.00     0.210 HD
ENDBRANCH  14  15
ENDBRANCH  13  14
ENDBRANCH  12  13
ENDBRANCH  11  12
ENDBRANCH  10  11
ENDBRANCH   9  10
ENDBRANCH   1   9
TORSDOF 13
ENDMDL
