MODEL 1
REMARK VINA RESULT:    -3.859      0.000      0.000
REMARK INTER + INTRA:          -8.559
REMARK INTER:                  -6.792
REMARK INTRA:                  -1.767
REMARK UNBOUND:                -1.767
REMARK SMILES CCCCCCCCCCCCCCC(=O)[O-]
REMARK SMILES IDX 9 1 10 2 11 3 12 4 13 5 14 6 15 7 16 8 17 9 8 10 7 11 6 12
REMARK SMILES IDX 5 13 4 14 3 15 2 16 1 17
REMARK H PARENT
REMARK Flexibility Score: inf
ROOT
ATOM      1  C   UNL     1     163.532 162.612 188.285  1.00  0.00     0.000 C 
ENDROOT
BRANCH   1   2
ATOM      2  C   UNL     1     163.121 161.154 188.544  1.00  0.00     0.000 C 
BRANCH   2   3
ATOM      3  C   UNL     1     164.335 160.218 188.685  1.00  0.00     0.000 C 
BRANCH   3   4
ATOM      4  C   UNL     1     165.623 160.831 188.111  1.00  0.00     0.000 C 
BRANCH   4   5
ATOM      5  C   UNL     1     166.822 160.689 189.060  1.00  0.00     0.006 C 
BRANCH   5   6
ATOM      6  C   UNL     1     166.575 161.441 190.372  1.00  0.00     0.053 C 
BRANCH   6   7
ATOM      7  C   UNL     1     166.791 162.909 190.184  1.00  0.00     0.041 C 
ATOM      8  O   UNL     1     167.833 163.328 189.616  1.00  0.00    -0.550 OA
ATOM      9  O   UNL     1     165.864 163.817 190.680  1.00  0.00    -0.550 OA
ENDBRANCH   6   7
ENDBRANCH   5   6
ENDBRANCH   4   5
ENDBRANCH   3   4
ENDBRANCH   2   3
ENDBRANCH   1   2
BRANCH   1  10
ATOM     10  C   UNL     1     162.376 163.600 188.514  1.00  0.00     0.000 C 
BRANCH  10  11
ATOM     11  C   UNL     1     161.057 162.901 188.885  1.00  0.00    -0.000 C 
BRANCH  11  12
ATOM     12  C   UNL     1     159.875 163.272 187.964  1.00  0.00    -0.000 C 
BRANCH  12  13
ATOM     13  C   UNL     1     160.276 163.282 186.478  1.00  0.00    -0.000 C 
BRANCH  13  14
ATOM     14  C   UNL     1     159.876 161.991 185.740  1.00  0.00    -0.000 C 
BRANCH  14  15
ATOM     15  C   UNL     1     161.008 160.959 185.575  1.00  0.00    -0.000 C 
BRANCH  15  16
ATOM     16  C   UNL     1     162.296 161.569 185.005  1.00  0.00    -0.003 C 
ATOM     17  C   UNL     1     162.896 160.674 183.923  1.00  0.00     0.004 C 
ENDBRANCH  15  16
ENDBRANCH  14  15
ENDBRANCH  13  14
ENDBRANCH  12  13
ENDBRANCH  11  12
ENDBRANCH  10  11
ENDBRANCH   1  10
TORSDOF 13
ENDMDL
MODEL 2
REMARK VINA RESULT:    -3.665      3.012      6.011
REMARK INTER + INTRA:          -8.217
REMARK INTER:                  -6.376
REMARK INTRA:                  -1.842
REMARK UNBOUND:                -1.767
REMARK SMILES CCCCCCCCCCCCCCC(=O)[O-]
REMARK SMILES IDX 9 1 10 2 11 3 12 4 13 5 14 6 15 7 16 8 17 9 8 10 7 11 6 12
REMARK SMILES IDX 5 13 4 14 3 15 2 16 1 17
REMARK H PARENT
REMARK Flexibility Score: inf
ROOT
ATOM      1  C   UNL     1     163.376 160.903 187.968  1.00  0.00     0.000 C 
ENDROOT
BRANCH   1   2
ATOM      2  C   UNL     1     163.311 162.419 188.217  1.00  0.00     0.000 C 
BRANCH   2   3
ATOM      3  C   UNL     1     161.921 162.875 188.696  1.00  0.00     0.000 C 
BRANCH   3   4
ATOM      4  C   UNL     1     160.840 161.804 188.477  1.00  0.00     0.000 C 
BRANCH   4   5
ATOM      5  C   UNL     1     159.925 162.118 187.284  1.00  0.00     0.006 C 
BRANCH   5   6
ATOM      6  C   UNL     1     159.976 160.994 186.244  1.00  0.00     0.053 C 
BRANCH   6   7
ATOM      7  C   UNL     1     161.077 161.237 185.262  1.00  0.00     0.041 C 
ATOM      8  O   UNL     1     161.767 160.275 184.833  1.00  0.00    -0.550 OA
ATOM      9  O   UNL     1     161.375 162.531 184.856  1.00  0.00    -0.550 OA
ENDBRANCH   6   7
ENDBRANCH   5   6
ENDBRANCH   4   5
ENDBRANCH   3   4
ENDBRANCH   2   3
ENDBRANCH   1   2
BRANCH   1  10
ATOM     10  C   UNL     1     164.310 160.184 188.956  1.00  0.00     0.000 C 
BRANCH  10  11
ATOM     11  C   UNL     1     165.478 161.068 189.425  1.00  0.00    -0.000 C 
BRANCH  11  12
ATOM     12  C   UNL     1     166.868 160.430 189.210  1.00  0.00    -0.000 C 
BRANCH  12  13
ATOM     13  C   UNL     1     167.667 161.138 188.101  1.00  0.00    -0.000 C 
BRANCH  13  14
ATOM     14  C   UNL     1     167.729 160.326 186.793  1.00  0.00    -0.000 C 
BRANCH  14  15
ATOM     15  C   UNL     1     166.439 160.351 185.952  1.00  0.00    -0.000 C 
BRANCH  15  16
ATOM     16  C   UNL     1     166.049 161.763 185.493  1.00  0.00    -0.003 C 
ATOM     17  C   UNL     1     164.968 161.712 184.416  1.00  0.00     0.004 C 
ENDBRANCH  15  16
ENDBRANCH  14  15
ENDBRANCH  13  14
ENDBRANCH  12  13
ENDBRANCH  11  12
ENDBRANCH  10  11
ENDBRANCH   1  10
TORSDOF 13
ENDMDL
MODEL 3
REMARK VINA RESULT:    -3.519      1.739      2.760
REMARK INTER + INTRA:          -7.961
REMARK INTER:                  -5.800
REMARK INTRA:                  -2.161
REMARK UNBOUND:                -1.767
REMARK SMILES CCCCCCCCCCCCCCC(=O)[O-]
REMARK SMILES IDX 9 1 10 2 11 3 12 4 13 5 14 6 15 7 16 8 17 9 8 10 7 11 6 12
REMARK SMILES IDX 5 13 4 14 3 15 2 16 1 17
REMARK H PARENT
REMARK Flexibility Score: inf
ROOT
ATOM      1  C   UNL     1     161.506 164.985 187.219  1.00  0.00     0.000 C 
ENDROOT
BRANCH   1   2
ATOM      2  C   UNL     1     162.765 164.457 187.924  1.00  0.00     0.000 C 
BRANCH   2   3
ATOM      3  C   UNL     1     163.881 164.083 186.932  1.00  0.00     0.000 C 
BRANCH   3   4
ATOM      4  C   UNL     1     164.340 162.623 187.083  1.00  0.00     0.000 C 
BRANCH   4   5
ATOM      5  C   UNL     1     163.933 162.009 188.431  1.00  0.00     0.006 C 
BRANCH   5   6
ATOM      6  C   UNL     1     164.392 160.550 188.529  1.00  0.00     0.053 C 
BRANCH   6   7
ATOM      7  C   UNL     1     165.870 160.479 188.750  1.00  0.00     0.041 C 
ATOM      8  O   UNL     1     166.359 160.798 189.866  1.00  0.00    -0.550 OA
ATOM      9  O   UNL     1     166.712 160.108 187.710  1.00  0.00    -0.550 OA
ENDBRANCH   6   7
ENDBRANCH   5   6
ENDBRANCH   4   5
ENDBRANCH   3   4
ENDBRANCH   2   3
ENDBRANCH   1   2
BRANCH   1  10
ATOM     10  C   UNL     1     160.226 164.269 187.682  1.00  0.00     0.000 C 
BRANCH  10  11
ATOM     11  C   UNL     1     160.471 163.313 188.863  1.00  0.00    -0.000 C 
BRANCH  11  12
ATOM     12  C   UNL     1     160.238 161.826 188.519  1.00  0.00    -0.000 C 
BRANCH  12  13
ATOM     13  C   UNL     1     159.875 161.622 187.037  1.00  0.00    -0.000 C 
BRANCH  13  14
ATOM     14  C   UNL     1     161.077 161.183 186.179  1.00  0.00    -0.000 C 
BRANCH  14  15
ATOM     15  C   UNL     1     160.961 161.515 184.680  1.00  0.00    -0.000 C 
BRANCH  15  16
ATOM     16  C   UNL     1     161.995 162.549 184.213  1.00  0.00    -0.003 C 
ATOM     17  C   UNL     1     162.102 162.570 182.691  1.00  0.00     0.004 C 
ENDBRANCH  15  16
ENDBRANCH  14  15
ENDBRANCH  13  14
ENDBRANCH  12  13
ENDBRANCH  11  12
ENDBRANCH  10  11
ENDBRANCH   1  10
TORSDOF 13
ENDMDL
MODEL 4
REMARK VINA RESULT:    -3.518      3.073      5.545
REMARK INTER + INTRA:          -7.959
REMARK INTER:                  -5.762
REMARK INTRA:                  -2.197
REMARK UNBOUND:                -1.767
REMARK SMILES CCCCCCCCCCCCCCC(=O)[O-]
REMARK SMILES IDX 9 1 10 2 11 3 12 4 13 5 14 6 15 7 16 8 17 9 8 10 7 11 6 12
REMARK SMILES IDX 5 13 4 14 3 15 2 16 1 17
REMARK H PARENT
REMARK Flexibility Score: inf
ROOT
ATOM      1  C   UNL     1     161.987 164.712 186.739  1.00  0.00     0.000 C 
ENDROOT
BRANCH   1   2
ATOM      2  C   UNL     1     161.758 164.369 185.258  1.00  0.00     0.000 C 
BRANCH   2   3
ATOM      3  C   UNL     1     160.312 163.925 184.975  1.00  0.00     0.000 C 
BRANCH   3   4
ATOM      4  C   UNL     1     160.242 162.585 184.224  1.00  0.00     0.000 C 
BRANCH   4   5
ATOM      5  C   UNL     1     161.604 162.143 183.671  1.00  0.00     0.006 C 
BRANCH   5   6
ATOM      6  C   UNL     1     162.055 160.827 184.314  1.00  0.00     0.053 C 
BRANCH   6   7
ATOM      7  C   UNL     1     163.377 160.398 183.760  1.00  0.00     0.041 C 
ATOM      8  O   UNL     1     164.344 160.172 184.534  1.00  0.00    -0.550 OA
ATOM      9  O   UNL     1     163.555 160.296 182.387  1.00  0.00    -0.550 OA
ENDBRANCH   6   7
ENDBRANCH   5   6
ENDBRANCH   4   5
ENDBRANCH   3   4
ENDBRANCH   2   3
ENDBRANCH   1   2
BRANCH   1  10
ATOM     10  C   UNL     1     160.675 164.772 187.540  1.00  0.00     0.000 C 
BRANCH  10  11
ATOM     11  C   UNL     1     160.625 163.744 188.683  1.00  0.00    -0.000 C 
BRANCH  11  12
ATOM     12  C   UNL     1     159.875 162.445 188.319  1.00  0.00    -0.000 C 
BRANCH  12  13
ATOM     13  C   UNL     1     160.829 161.340 187.829  1.00  0.00    -0.000 C 
BRANCH  13  14
ATOM     14  C   UNL     1     162.176 161.334 188.576  1.00  0.00    -0.000 C 
BRANCH  14  15
ATOM     15  C   UNL     1     163.417 161.484 187.678  1.00  0.00    -0.000 C 
BRANCH  15  16
ATOM     16  C   UNL     1     164.675 161.895 188.457  1.00  0.00    -0.003 C 
ATOM     17  C   UNL     1     164.559 163.327 188.972  1.00  0.00     0.004 C 
ENDBRANCH  15  16
ENDBRANCH  14  15
ENDBRANCH  13  14
ENDBRANCH  12  13
ENDBRANCH  11  12
ENDBRANCH  10  11
ENDBRANCH   1  10
TORSDOF 13
ENDMDL
MODEL 5
REMARK VINA RESULT:    -3.515      3.285      6.091
REMARK INTER + INTRA:          -7.953
REMARK INTER:                  -6.327
REMARK INTRA:                  -1.626
REMARK UNBOUND:                -1.767
REMARK SMILES CCCCCCCCCCCCCCC(=O)[O-]
REMARK SMILES IDX 9 1 10 2 11 3 12 4 13 5 14 6 15 7 16 8 17 9 8 10 7 11 6 12
REMARK SMILES IDX 5 13 4 14 3 15 2 16 1 17
REMARK H PARENT
REMARK Flexibility Score: inf
ROOT
ATOM      1  C   UNL     1     160.325 163.363 188.967  1.00  0.00     0.000 C 
ENDROOT
BRANCH   1   2
ATOM      2  C   UNL     1     159.875 164.418 187.943  1.00  0.00     0.000 C 
BRANCH   2   3
ATOM      3  C   UNL     1     160.973 165.455 187.648  1.00  0.00     0.000 C 
BRANCH   3   4
ATOM      4  C   UNL     1     161.935 164.998 186.539  1.00  0.00     0.000 C 
BRANCH   4   5
ATOM      5  C   UNL     1     161.256 164.094 185.499  1.00  0.00     0.006 C 
BRANCH   5   6
ATOM      6  C   UNL     1     162.284 163.210 184.786  1.00  0.00     0.053 C 
BRANCH   6   7
ATOM      7  C   UNL     1     161.602 162.107 184.042  1.00  0.00     0.041 C 
ATOM      8  O   UNL     1     161.704 160.917 184.440  1.00  0.00    -0.550 OA
ATOM      9  O   UNL     1     160.893 162.386 182.881  1.00  0.00    -0.550 OA
ENDBRANCH   6   7
ENDBRANCH   5   6
ENDBRANCH   4   5
ENDBRANCH   3   4
ENDBRANCH   2   3
ENDBRANCH   1   2
BRANCH   1  10
ATOM     10  C   UNL     1     159.905 161.938 188.570  1.00  0.00     0.000 C 
BRANCH  10  11
ATOM     11  C   UNL     1     161.032 161.153 187.879  1.00  0.00    -0.000 C 
BRANCH  11  12
ATOM     12  C   UNL     1     162.435 161.443 188.452  1.00  0.00    -0.000 C 
BRANCH  12  13
ATOM     13  C   UNL     1     163.554 161.122 187.445  1.00  0.00    -0.000 C 
BRANCH  13  14
ATOM     14  C   UNL     1     164.500 160.008 187.932  1.00  0.00    -0.000 C 
BRANCH  14  15
ATOM     15  C   UNL     1     164.960 160.139 189.395  1.00  0.00    -0.000 C 
BRANCH  15  16
ATOM     16  C   UNL     1     166.433 160.552 189.526  1.00  0.00    -0.003 C 
ATOM     17  C   UNL     1     166.564 161.909 190.213  1.00  0.00     0.004 C 
ENDBRANCH  15  16
ENDBRANCH  14  15
ENDBRANCH  13  14
ENDBRANCH  12  13
ENDBRANCH  11  12
ENDBRANCH  10  11
ENDBRANCH   1  10
TORSDOF 13
ENDMDL
MODEL 6
REMARK VINA RESULT:    -3.490      2.337      5.464
REMARK INTER + INTRA:          -7.909
REMARK INTER:                  -6.459
REMARK INTRA:                  -1.451
REMARK UNBOUND:                -1.767
REMARK SMILES CCCCCCCCCCCCCCC(=O)[O-]
REMARK SMILES IDX 9 1 10 2 11 3 12 4 13 5 14 6 15 7 16 8 17 9 8 10 7 11 6 12
REMARK SMILES IDX 5 13 4 14 3 15 2 16 1 17
REMARK H PARENT
REMARK Flexibility Score: inf
ROOT
ATOM      1  C   UNL     1     160.432 164.065 187.730  1.00  0.00     0.000 C 
ENDROOT
BRANCH   1   2
ATOM      2  C   UNL     1     159.884 163.289 186.522  1.00  0.00     0.000 C 
BRANCH   2   3
ATOM      3  C   UNL     1     160.813 163.377 185.298  1.00  0.00     0.000 C 
BRANCH   3   4
ATOM      4  C   UNL     1     160.743 162.121 184.412  1.00  0.00     0.000 C 
BRANCH   4   5
ATOM      5  C   UNL     1     161.560 160.950 184.977  1.00  0.00     0.006 C 
BRANCH   5   6
ATOM      6  C   UNL     1     162.787 160.667 184.104  1.00  0.00     0.053 C 
BRANCH   6   7
ATOM      7  C   UNL     1     164.046 160.940 184.863  1.00  0.00     0.041 C 
ATOM      8  O   UNL     1     164.633 162.047 184.738  1.00  0.00    -0.550 OA
ATOM      9  O   UNL     1     164.600 159.955 185.670  1.00  0.00    -0.550 OA
ENDBRANCH   6   7
ENDBRANCH   5   6
ENDBRANCH   4   5
ENDBRANCH   3   4
ENDBRANCH   2   3
ENDBRANCH   1   2
BRANCH   1  10
ATOM     10  C   UNL     1     160.788 163.145 188.909  1.00  0.00     0.000 C 
BRANCH  10  11
ATOM     11  C   UNL     1     161.098 161.704 188.470  1.00  0.00    -0.000 C 
BRANCH  11  12
ATOM     12  C   UNL     1     162.602 161.356 188.491  1.00  0.00    -0.000 C 
BRANCH  12  13
ATOM     13  C   UNL     1     163.491 162.612 188.433  1.00  0.00    -0.000 C 
BRANCH  13  14
ATOM     14  C   UNL     1     164.985 162.284 188.259  1.00  0.00    -0.000 C 
BRANCH  14  15
ATOM     15  C   UNL     1     165.812 162.310 189.558  1.00  0.00    -0.000 C 
BRANCH  15  16
ATOM     16  C   UNL     1     166.448 160.953 189.892  1.00  0.00    -0.003 C 
ATOM     17  C   UNL     1     167.290 160.439 188.727  1.00  0.00     0.004 C 
ENDBRANCH  15  16
ENDBRANCH  14  15
ENDBRANCH  13  14
ENDBRANCH  12  13
ENDBRANCH  11  12
ENDBRANCH  10  11
ENDBRANCH   1  10
TORSDOF 13
ENDMDL
MODEL 7
REMARK VINA RESULT:    -3.485      2.976      6.237
REMARK INTER + INTRA:          -7.900
REMARK INTER:                  -6.254
REMARK INTRA:                  -1.646
REMARK UNBOUND:                -1.767
REMARK SMILES CCCCCCCCCCCCCCC(=O)[O-]
REMARK SMILES IDX 9 1 10 2 11 3 12 4 13 5 14 6 15 7 16 8 17 9 8 10 7 11 6 12
REMARK SMILES IDX 5 13 4 14 3 15 2 16 1 17
REMARK H PARENT
REMARK Flexibility Score: inf
ROOT
ATOM      1  C   UNL     1     162.078 163.995 188.242  1.00  0.00     0.000 C 
ENDROOT
BRANCH   1   2
ATOM      2  C   UNL     1     160.908 163.699 189.194  1.00  0.00     0.000 C 
BRANCH   2   3
ATOM      3  C   UNL     1     160.084 162.479 188.747  1.00  0.00     0.000 C 
BRANCH   3   4
ATOM      4  C   UNL     1     159.875 162.432 187.225  1.00  0.00     0.000 C 
BRANCH   4   5
ATOM      5  C   UNL     1     160.241 161.070 186.617  1.00  0.00     0.006 C 
BRANCH   5   6
ATOM      6  C   UNL     1     159.962 161.048 185.111  1.00  0.00     0.053 C 
BRANCH   6   7
ATOM      7  C   UNL     1     161.202 161.378 184.343  1.00  0.00     0.041 C 
ATOM      8  O   UNL     1     162.244 160.688 184.495  1.00  0.00    -0.550 OA
ATOM      9  O   UNL     1     161.223 162.478 183.495  1.00  0.00    -0.550 OA
ENDBRANCH   6   7
ENDBRANCH   5   6
ENDBRANCH   4   5
ENDBRANCH   3   4
ENDBRANCH   2   3
ENDBRANCH   1   2
BRANCH   1  10
ATOM     10  C   UNL     1     163.369 163.264 188.648  1.00  0.00     0.000 C 
BRANCH  10  11
ATOM     11  C   UNL     1     164.006 162.487 187.484  1.00  0.00    -0.000 C 
BRANCH  11  12
ATOM     12  C   UNL     1     163.671 160.980 187.484  1.00  0.00    -0.000 C 
BRANCH  12  13
ATOM     13  C   UNL     1     164.232 160.259 188.723  1.00  0.00    -0.000 C 
BRANCH  13  14
ATOM     14  C   UNL     1     165.770 160.298 188.797  1.00  0.00    -0.000 C 
BRANCH  14  15
ATOM     15  C   UNL     1     166.346 160.621 190.188  1.00  0.00    -0.000 C 
BRANCH  15  16
ATOM     16  C   UNL     1     166.642 162.115 190.383  1.00  0.00    -0.003 C 
ATOM     17  C   UNL     1     167.335 162.702 189.156  1.00  0.00     0.004 C 
ENDBRANCH  15  16
ENDBRANCH  14  15
ENDBRANCH  13  14
ENDBRANCH  12  13
ENDBRANCH  11  12
ENDBRANCH  10  11
ENDBRANCH   1  10
TORSDOF 13
ENDMDL
MODEL 8
REMARK VINA RESULT:    -3.452      2.894      6.020
REMARK INTER + INTRA:          -7.843
REMARK INTER:                  -6.128
REMARK INTRA:                  -1.715
REMARK UNBOUND:                -1.767
REMARK SMILES CCCCCCCCCCCCCCC(=O)[O-]
REMARK SMILES IDX 9 1 10 2 11 3 12 4 13 5 14 6 15 7 16 8 17 9 8 10 7 11 6 12
REMARK SMILES IDX 5 13 4 14 3 15 2 16 1 17
REMARK H PARENT
REMARK Flexibility Score: inf
ROOT
ATOM      1  C   UNL     1     162.732 163.634 187.903  1.00  0.00     0.000 C 
ENDROOT
BRANCH   1   2
ATOM      2  C   UNL     1     161.560 163.886 188.866  1.00  0.00     0.000 C 
BRANCH   2   3
ATOM      3  C   UNL     1     160.583 162.699 188.924  1.00  0.00     0.000 C 
BRANCH   3   4
ATOM      4  C   UNL     1     159.875 162.450 187.582  1.00  0.00     0.000 C 
BRANCH   4   5
ATOM      5  C   UNL     1     160.111 161.032 187.041  1.00  0.00     0.006 C 
BRANCH   5   6
ATOM      6  C   UNL     1     160.053 161.012 185.510  1.00  0.00     0.053 C 
BRANCH   6   7
ATOM      7  C   UNL     1     161.416 161.226 184.931  1.00  0.00     0.041 C 
ATOM      8  O   UNL     1     162.190 160.249 184.755  1.00  0.00    -0.550 OA
ATOM      9  O   UNL     1     161.850 162.511 184.631  1.00  0.00    -0.550 OA
ENDBRANCH   6   7
ENDBRANCH   5   6
ENDBRANCH   4   5
ENDBRANCH   3   4
ENDBRANCH   2   3
ENDBRANCH   1   2
BRANCH   1  10
ATOM     10  C   UNL     1     163.801 162.708 188.505  1.00  0.00     0.000 C 
BRANCH  10  11
ATOM     11  C   UNL     1     163.776 161.294 187.900  1.00  0.00    -0.000 C 
BRANCH  11  12
ATOM     12  C   UNL     1     164.281 160.196 188.861  1.00  0.00    -0.000 C 
BRANCH  12  13
ATOM     13  C   UNL     1     165.616 160.574 189.527  1.00  0.00    -0.000 C 
BRANCH  13  14
ATOM     14  C   UNL     1     166.794 160.608 188.534  1.00  0.00    -0.000 C 
BRANCH  14  15
ATOM     15  C   UNL     1     167.581 161.931 188.506  1.00  0.00    -0.000 C 
BRANCH  15  16
ATOM     16  C   UNL     1     167.443 162.683 187.175  1.00  0.00    -0.003 C 
ATOM     17  C   UNL     1     166.982 161.747 186.060  1.00  0.00     0.004 C 
ENDBRANCH  15  16
ENDBRANCH  14  15
ENDBRANCH  13  14
ENDBRANCH  12  13
ENDBRANCH  11  12
ENDBRANCH  10  11
ENDBRANCH   1  10
TORSDOF 13
ENDMDL
MODEL 9
REMARK VINA RESULT:    -3.436      3.187      6.167
REMARK INTER + INTRA:          -7.815
REMARK INTER:                  -6.201
REMARK INTRA:                  -1.614
REMARK UNBOUND:                -1.767
REMARK SMILES CCCCCCCCCCCCCCC(=O)[O-]
REMARK SMILES IDX 9 1 10 2 11 3 12 4 13 5 14 6 15 7 16 8 17 9 8 10 7 11 6 12
REMARK SMILES IDX 5 13 4 14 3 15 2 16 1 17
REMARK H PARENT
REMARK Flexibility Score: inf
ROOT
ATOM      1  C   UNL     1     160.354 161.510 187.931  1.00  0.00     0.000 C 
ENDROOT
BRANCH   1   2
ATOM      2  C   UNL     1     159.876 161.657 186.478  1.00  0.00     0.000 C 
BRANCH   2   3
ATOM      3  C   UNL     1     160.840 161.002 185.473  1.00  0.00     0.000 C 
BRANCH   3   4
ATOM      4  C   UNL     1     161.725 162.030 184.748  1.00  0.00     0.000 C 
BRANCH   4   5
ATOM      5  C   UNL     1     163.205 161.622 184.716  1.00  0.00     0.006 C 
BRANCH   5   6
ATOM      6  C   UNL     1     163.400 160.329 183.916  1.00  0.00     0.053 C 
BRANCH   6   7
ATOM      7  C   UNL     1     163.925 160.633 182.549  1.00  0.00     0.041 C 
ATOM      8  O   UNL     1     163.624 159.893 181.577  1.00  0.00    -0.550 OA
ATOM      9  O   UNL     1     164.788 161.704 182.358  1.00  0.00    -0.550 OA
ENDBRANCH   6   7
ENDBRANCH   5   6
ENDBRANCH   4   5
ENDBRANCH   3   4
ENDBRANCH   2   3
ENDBRANCH   1   2
BRANCH   1  10
ATOM     10  C   UNL     1     161.262 162.669 188.373  1.00  0.00     0.000 C 
BRANCH  10  11
ATOM     11  C   UNL     1     162.739 162.258 188.495  1.00  0.00    -0.000 C 
BRANCH  11  12
ATOM     12  C   UNL     1     162.966 160.732 188.450  1.00  0.00    -0.000 C 
BRANCH  12  13
ATOM     13  C   UNL     1     164.419 160.370 188.091  1.00  0.00    -0.000 C 
BRANCH  13  14
ATOM     14  C   UNL     1     165.331 160.245 189.326  1.00  0.00    -0.000 C 
BRANCH  14  15
ATOM     15  C   UNL     1     166.596 161.121 189.290  1.00  0.00    -0.000 C 
BRANCH  15  16
ATOM     16  C   UNL     1     166.627 162.177 190.404  1.00  0.00    -0.003 C 
ATOM     17  C   UNL     1     165.931 163.462 189.963  1.00  0.00     0.004 C 
ENDBRANCH  15  16
ENDBRANCH  14  15
ENDBRANCH  13  14
ENDBRANCH  12  13
ENDBRANCH  11  12
ENDBRANCH  10  11
ENDBRANCH   1  10
TORSDOF 13
ENDMDL
