MODEL 1
REMARK VINA RESULT:    -5.404      0.000      0.000
REMARK INTER + INTRA:          -6.459
REMARK INTER:                  -6.352
REMARK INTRA:                  -0.106
REMARK UNBOUND:                -0.106
REMARK SMILES O=c1c(O)c(-c2ccc(O)c(O)c2)oc2cc(O)ccc12
REMARK SMILES IDX 5 1 3 2 2 3 1 4 21 5 15 6 14 7 16 8 17 9 19 10 20 11 6 12
REMARK SMILES IDX 7 13 8 14 9 15 13 16 11 17 10 18 12 20 4 22 18 24
REMARK H PARENT 10 19 12 21 4 23 18 25
REMARK Flexibility Score: inf
ROOT
ATOM      1  C   UNL     1      24.232  71.638  59.862  1.00  0.00     0.180 A 
ATOM      2  C   UNL     1      23.394  70.941  58.965  1.00  0.00     0.208 A 
ATOM      3  C   UNL     1      23.678  69.595  58.682  1.00  0.00     0.235 A 
ATOM      4  O   UNL     1      22.950  68.954  57.875  1.00  0.00    -0.285 OA
ATOM      5  C   UNL     1      24.768  68.973  59.309  1.00  0.00     0.069 A 
ATOM      6  C   UNL     1      25.543  69.732  60.212  1.00  0.00     0.142 A 
ATOM      7  O   UNL     1      25.247  71.006  60.446  1.00  0.00    -0.452 OA
ATOM      8  C   UNL     1      26.633  69.145  60.865  1.00  0.00     0.094 A 
ATOM      9  C   UNL     1      26.961  67.805  60.626  1.00  0.00     0.119 A 
ATOM     10  C   UNL     1      26.194  67.049  59.729  1.00  0.00     0.047 A 
ATOM     11  C   UNL     1      25.103  67.627  59.072  1.00  0.00     0.020 A 
ENDROOT
BRANCH   1  12
ATOM     12  C   UNL     1      24.011  73.062  60.198  1.00  0.00     0.025 A 
ATOM     13  C   UNL     1      23.876  73.442  61.543  1.00  0.00     0.016 A 
ATOM     14  C   UNL     1      23.688  74.783  61.884  1.00  0.00     0.051 A 
ATOM     15  C   UNL     1      23.646  75.766  60.891  1.00  0.00     0.157 A 
ATOM     16  C   UNL     1      23.989  74.055  59.201  1.00  0.00     0.062 A 
ATOM     17  C   UNL     1      23.801  75.402  59.542  1.00  0.00     0.158 A 
BRANCH  15  18
ATOM     18  O   UNL     1      23.454  77.097  61.262  1.00  0.00    -0.504 OA
ATOM     19  H   UNL     1      23.611  77.863  60.617  1.00  0.00     0.293 HD
ENDBRANCH  15  18
BRANCH  17  20
ATOM     20  O   UNL     1      23.775  76.380  58.548  1.00  0.00    -0.504 OA
ATOM     21  H   UNL     1      23.840  77.366  58.771  1.00  0.00     0.293 HD
ENDBRANCH  17  20
ENDBRANCH   1  12
BRANCH   2  22
ATOM     22  O   UNL     1      22.287  71.573  58.394  1.00  0.00    -0.502 OA
ATOM     23  H   UNL     1      21.341  71.398  58.711  1.00  0.00     0.293 HD
ENDBRANCH   2  22
BRANCH   9  24
ATOM     24  O   UNL     1      28.048  67.236  61.284  1.00  0.00    -0.508 OA
ATOM     25  H   UNL     1      28.929  67.729  61.378  1.00  0.00     0.293 HD
ENDBRANCH   9  24
TORSDOF 5
ENDMDL
MODEL 2
REMARK VINA RESULT:    -5.377      1.727      6.858
REMARK INTER + INTRA:          -6.427
REMARK INTER:                  -6.311
REMARK INTRA:                  -0.115
REMARK UNBOUND:                -0.106
REMARK SMILES O=c1c(O)c(-c2ccc(O)c(O)c2)oc2cc(O)ccc12
REMARK SMILES IDX 5 1 3 2 2 3 1 4 21 5 15 6 14 7 16 8 17 9 19 10 20 11 6 12
REMARK SMILES IDX 7 13 8 14 9 15 13 16 11 17 10 18 12 20 4 22 18 24
REMARK H PARENT 10 19 12 21 4 23 18 25
REMARK Flexibility Score: inf
ROOT
ATOM      1  C   UNL     1      24.141  73.092  60.181  1.00  0.00     0.180 A 
ATOM      2  C   UNL     1      23.997  74.133  59.239  1.00  0.00     0.208 A 
ATOM      3  C   UNL     1      23.725  75.430  59.701  1.00  0.00     0.235 A 
ATOM      4  O   UNL     1      23.581  76.375  58.878  1.00  0.00    -0.285 OA
ATOM      5  C   UNL     1      23.623  75.665  61.081  1.00  0.00     0.069 A 
ATOM      6  C   UNL     1      23.804  74.575  61.960  1.00  0.00     0.142 A 
ATOM      7  O   UNL     1      24.051  73.360  61.482  1.00  0.00    -0.452 OA
ATOM      8  C   UNL     1      23.720  74.769  63.343  1.00  0.00     0.094 A 
ATOM      9  C   UNL     1      23.456  76.042  63.862  1.00  0.00     0.119 A 
ATOM     10  C   UNL     1      23.274  77.126  62.993  1.00  0.00     0.047 A 
ATOM     11  C   UNL     1      23.357  76.941  61.608  1.00  0.00     0.020 A 
ENDROOT
BRANCH   1  12
ATOM     12  C   UNL     1      24.410  71.695  59.774  1.00  0.00     0.025 A 
ATOM     13  C   UNL     1      23.486  71.022  58.959  1.00  0.00     0.016 A 
ATOM     14  C   UNL     1      23.729  69.710  58.546  1.00  0.00     0.051 A 
ATOM     15  C   UNL     1      24.904  69.056  58.927  1.00  0.00     0.157 A 
ATOM     16  C   UNL     1      25.601  71.041  60.140  1.00  0.00     0.062 A 
ATOM     17  C   UNL     1      25.848  69.724  59.725  1.00  0.00     0.158 A 
BRANCH  15  18
ATOM     18  O   UNL     1      25.118  67.745  58.502  1.00  0.00    -0.504 OA
ATOM     19  H   UNL     1      24.438  67.011  58.658  1.00  0.00     0.293 HD
ENDBRANCH  15  18
BRANCH  17  20
ATOM     20  O   UNL     1      27.028  69.082  60.097  1.00  0.00    -0.504 OA
ATOM     21  H   UNL     1      27.656  69.481  60.785  1.00  0.00     0.293 HD
ENDBRANCH  17  20
ENDBRANCH   1  12
BRANCH   2  22
ATOM     22  O   UNL     1      24.152  73.878  57.875  1.00  0.00    -0.502 OA
ATOM     23  H   UNL     1      23.444  73.402  57.329  1.00  0.00     0.293 HD
ENDBRANCH   2  22
BRANCH   9  24
ATOM     24  O   UNL     1      23.376  76.218  65.241  1.00  0.00    -0.508 OA
ATOM     25  H   UNL     1      23.250  77.136  65.652  1.00  0.00     0.293 HD
ENDBRANCH   9  24
TORSDOF 5
ENDMDL
MODEL 3
REMARK VINA RESULT:    -5.370      1.625      7.062
REMARK INTER + INTRA:          -6.418
REMARK INTER:                  -6.141
REMARK INTRA:                  -0.277
REMARK UNBOUND:                -0.106
REMARK SMILES O=c1c(O)c(-c2ccc(O)c(O)c2)oc2cc(O)ccc12
REMARK SMILES IDX 5 1 3 2 2 3 1 4 21 5 15 6 14 7 16 8 17 9 19 10 20 11 6 12
REMARK SMILES IDX 7 13 8 14 9 15 13 16 11 17 10 18 12 20 4 22 18 24
REMARK H PARENT 10 19 12 21 4 23 18 25
REMARK Flexibility Score: inf
ROOT
ATOM      1  C   UNL     1      24.549  71.533  60.745  1.00  0.00     0.180 A 
ATOM      2  C   UNL     1      24.525  72.001  62.076  1.00  0.00     0.208 A 
ATOM      3  C   UNL     1      24.248  73.357  62.311  1.00  0.00     0.235 A 
ATOM      4  O   UNL     1      24.233  73.802  63.491  1.00  0.00    -0.285 OA
ATOM      5  C   UNL     1      23.982  74.205  61.226  1.00  0.00     0.069 A 
ATOM      6  C   UNL     1      24.000  73.655  59.926  1.00  0.00     0.142 A 
ATOM      7  O   UNL     1      24.277  72.368  59.745  1.00  0.00    -0.452 OA
ATOM      8  C   UNL     1      23.731  74.466  58.818  1.00  0.00     0.094 A 
ATOM      9  C   UNL     1      23.443  75.824  58.991  1.00  0.00     0.119 A 
ATOM     10  C   UNL     1      23.425  76.375  60.279  1.00  0.00     0.047 A 
ATOM     11  C   UNL     1      23.693  75.572  61.393  1.00  0.00     0.020 A 
ENDROOT
BRANCH   1  12
ATOM     12  C   UNL     1      24.851  70.122  60.413  1.00  0.00     0.025 A 
ATOM     13  C   UNL     1      23.816  69.277  59.984  1.00  0.00     0.016 A 
ATOM     14  C   UNL     1      24.082  67.948  59.646  1.00  0.00     0.051 A 
ATOM     15  C   UNL     1      25.385  67.448  59.717  1.00  0.00     0.157 A 
ATOM     16  C   UNL     1      26.165  69.623  60.465  1.00  0.00     0.062 A 
ATOM     17  C   UNL     1      26.434  68.289  60.125  1.00  0.00     0.158 A 
BRANCH  15  18
ATOM     18  O   UNL     1      25.620  66.116  59.376  1.00  0.00    -0.504 OA
ATOM     19  H   UNL     1      25.911  65.843  58.444  1.00  0.00     0.293 HD
ENDBRANCH  15  18
BRANCH  17  20
ATOM     20  O   UNL     1      27.739  67.800  60.184  1.00  0.00    -0.504 OA
ATOM     21  H   UNL     1      28.285  67.642  59.346  1.00  0.00     0.293 HD
ENDBRANCH  17  20
ENDBRANCH   1  12
BRANCH   2  22
ATOM     22  O   UNL     1      24.746  71.122  63.139  1.00  0.00    -0.502 OA
ATOM     23  H   UNL     1      24.331  70.199  63.173  1.00  0.00     0.293 HD
ENDBRANCH   2  22
BRANCH   9  24
ATOM     24  O   UNL     1      23.177  76.618  57.877  1.00  0.00    -0.508 OA
ATOM     25  H   UNL     1      23.320  77.621  57.894  1.00  0.00     0.293 HD
ENDBRANCH   9  24
TORSDOF 5
ENDMDL
MODEL 4
REMARK VINA RESULT:    -5.315     15.027     17.087
REMARK INTER + INTRA:          -6.353
REMARK INTER:                  -6.103
REMARK INTRA:                  -0.250
REMARK UNBOUND:                -0.106
REMARK SMILES O=c1c(O)c(-c2ccc(O)c(O)c2)oc2cc(O)ccc12
REMARK SMILES IDX 5 1 3 2 2 3 1 4 21 5 15 6 14 7 16 8 17 9 19 10 20 11 6 12
REMARK SMILES IDX 7 13 8 14 9 15 13 16 11 17 10 18 12 20 4 22 18 24
REMARK H PARENT 10 19 12 21 4 23 18 25
REMARK Flexibility Score: inf
ROOT
ATOM      1  C   UNL     1      10.647  63.962  64.059  1.00  0.00     0.180 A 
ATOM      2  C   UNL     1      10.544  63.804  65.458  1.00  0.00     0.208 A 
ATOM      3  C   UNL     1      11.253  64.684  66.292  1.00  0.00     0.235 A 
ATOM      4  O   UNL     1      11.186  64.556  67.545  1.00  0.00    -0.285 OA
ATOM      5  C   UNL     1      12.025  65.706  65.719  1.00  0.00     0.069 A 
ATOM      6  C   UNL     1      12.057  65.813  64.312  1.00  0.00     0.142 A 
ATOM      7  O   UNL     1      11.380  64.954  63.557  1.00  0.00    -0.452 OA
ATOM      8  C   UNL     1      12.808  66.824  63.703  1.00  0.00     0.094 A 
ATOM      9  C   UNL     1      13.532  67.733  64.483  1.00  0.00     0.119 A 
ATOM     10  C   UNL     1      13.504  67.629  65.881  1.00  0.00     0.047 A 
ATOM     11  C   UNL     1      12.755  66.622  66.498  1.00  0.00     0.020 A 
ENDROOT
BRANCH   1  12
ATOM     12  C   UNL     1       9.946  63.066  63.113  1.00  0.00     0.025 A 
ATOM     13  C   UNL     1       8.566  63.218  62.910  1.00  0.00     0.016 A 
ATOM     14  C   UNL     1       7.888  62.396  62.006  1.00  0.00     0.051 A 
ATOM     15  C   UNL     1       8.579  61.421  61.282  1.00  0.00     0.157 A 
ATOM     16  C   UNL     1      10.644  62.097  62.368  1.00  0.00     0.062 A 
ATOM     17  C   UNL     1       9.965  61.272  61.460  1.00  0.00     0.158 A 
BRANCH  15  18
ATOM     18  O   UNL     1       7.875  60.613  60.389  1.00  0.00    -0.504 OA
ATOM     19  H   UNL     1       8.250  60.361  59.482  1.00  0.00     0.293 HD
ENDBRANCH  15  18
BRANCH  17  20
ATOM     20  O   UNL     1      10.663  60.311  60.729  1.00  0.00    -0.504 OA
ATOM     21  H   UNL     1      10.913  60.459  59.759  1.00  0.00     0.293 HD
ENDBRANCH  17  20
ENDBRANCH   1  12
BRANCH   2  22
ATOM     22  O   UNL     1       9.728  62.808  65.999  1.00  0.00    -0.502 OA
ATOM     23  H   UNL     1      10.088  61.901  66.270  1.00  0.00     0.293 HD
ENDBRANCH   2  22
BRANCH   9  24
ATOM     24  O   UNL     1      14.274  68.734  63.862  1.00  0.00    -0.508 OA
ATOM     25  H   UNL     1      15.033  68.515  63.227  1.00  0.00     0.293 HD
ENDBRANCH   9  24
TORSDOF 5
ENDMDL
MODEL 5
REMARK VINA RESULT:    -5.164      1.526      6.670
REMARK INTER + INTRA:          -6.176
REMARK INTER:                  -5.860
REMARK INTRA:                  -0.317
REMARK UNBOUND:                -0.106
REMARK SMILES O=c1c(O)c(-c2ccc(O)c(O)c2)oc2cc(O)ccc12
REMARK SMILES IDX 5 1 3 2 2 3 1 4 21 5 15 6 14 7 16 8 17 9 19 10 20 11 6 12
REMARK SMILES IDX 7 13 8 14 9 15 13 16 11 17 10 18 12 20 4 22 18 24
REMARK H PARENT 10 19 12 21 4 23 18 25
REMARK Flexibility Score: inf
ROOT
ATOM      1  C   UNL     1      24.449  71.518  60.299  1.00  0.00     0.180 A 
ATOM      2  C   UNL     1      24.172  72.170  59.079  1.00  0.00     0.208 A 
ATOM      3  C   UNL     1      23.888  73.545  59.096  1.00  0.00     0.235 A 
ATOM      4  O   UNL     1      23.627  74.148  58.019  1.00  0.00    -0.285 OA
ATOM      5  C   UNL     1      23.906  74.238  60.315  1.00  0.00     0.069 A 
ATOM      6  C   UNL     1      24.216  73.519  61.490  1.00  0.00     0.142 A 
ATOM      7  O   UNL     1      24.469  72.216  61.433  1.00  0.00    -0.452 OA
ATOM      8  C   UNL     1      24.253  74.177  62.724  1.00  0.00     0.094 A 
ATOM      9  C   UNL     1      23.984  75.547  62.803  1.00  0.00     0.119 A 
ATOM     10  C   UNL     1      23.675  76.265  61.639  1.00  0.00     0.047 A 
ATOM     11  C   UNL     1      23.635  75.616  60.400  1.00  0.00     0.020 A 
ENDROOT
BRANCH   1  12
ATOM     12  C   UNL     1      24.739  70.068  60.368  1.00  0.00     0.025 A 
ATOM     13  C   UNL     1      23.682  69.159  60.530  1.00  0.00     0.016 A 
ATOM     14  C   UNL     1      23.931  67.785  60.576  1.00  0.00     0.051 A 
ATOM     15  C   UNL     1      25.235  67.298  60.448  1.00  0.00     0.157 A 
ATOM     16  C   UNL     1      26.049  69.575  60.218  1.00  0.00     0.062 A 
ATOM     17  C   UNL     1      26.300  68.197  60.264  1.00  0.00     0.158 A 
BRANCH  15  18
ATOM     18  O   UNL     1      25.453  65.922  60.501  1.00  0.00    -0.504 OA
ATOM     19  H   UNL     1      24.867  65.265  59.999  1.00  0.00     0.293 HD
ENDBRANCH  15  18
BRANCH  17  20
ATOM     20  O   UNL     1      27.601  67.717  60.120  1.00  0.00    -0.504 OA
ATOM     21  H   UNL     1      27.795  66.839  59.653  1.00  0.00     0.293 HD
ENDBRANCH  17  20
ENDBRANCH   1  12
BRANCH   2  22
ATOM     22  O   UNL     1      24.210  71.463  57.875  1.00  0.00    -0.502 OA
ATOM     23  H   UNL     1      24.922  70.771  57.676  1.00  0.00     0.293 HD
ENDBRANCH   2  22
BRANCH   9  24
ATOM     24  O   UNL     1      24.025  76.187  64.039  1.00  0.00    -0.508 OA
ATOM     25  H   UNL     1      23.415  75.911  64.800  1.00  0.00     0.293 HD
ENDBRANCH   9  24
TORSDOF 5
ENDMDL
MODEL 6
REMARK VINA RESULT:    -5.131      1.820      3.490
REMARK INTER + INTRA:          -6.137
REMARK INTER:                  -5.821
REMARK INTRA:                  -0.317
REMARK UNBOUND:                -0.106
REMARK SMILES O=c1c(O)c(-c2ccc(O)c(O)c2)oc2cc(O)ccc12
REMARK SMILES IDX 5 1 3 2 2 3 1 4 21 5 15 6 14 7 16 8 17 9 19 10 20 11 6 12
REMARK SMILES IDX 7 13 8 14 9 15 13 16 11 17 10 18 12 20 4 22 18 24
REMARK H PARENT 10 19 12 21 4 23 18 25
REMARK Flexibility Score: inf
ROOT
ATOM      1  C   UNL     1      23.473  71.541  59.306  1.00  0.00     0.180 A 
ATOM      2  C   UNL     1      24.638  70.780  59.065  1.00  0.00     0.208 A 
ATOM      3  C   UNL     1      24.501  69.446  58.652  1.00  0.00     0.235 A 
ATOM      4  O   UNL     1      25.526  68.743  58.440  1.00  0.00    -0.285 OA
ATOM      5  C   UNL     1      23.217  68.908  58.470  1.00  0.00     0.069 A 
ATOM      6  C   UNL     1      22.102  69.740  58.709  1.00  0.00     0.142 A 
ATOM      7  O   UNL     1      22.275  70.996  59.109  1.00  0.00    -0.452 OA
ATOM      8  C   UNL     1      20.807  69.244  58.531  1.00  0.00     0.094 A 
ATOM      9  C   UNL     1      20.608  67.922  58.116  1.00  0.00     0.119 A 
ATOM     10  C   UNL     1      21.712  67.092  57.879  1.00  0.00     0.047 A 
ATOM     11  C   UNL     1      23.012  67.580  58.055  1.00  0.00     0.020 A 
ENDROOT
BRANCH   1  12
ATOM     12  C   UNL     1      23.533  72.948  59.761  1.00  0.00     0.025 A 
ATOM     13  C   UNL     1      23.624  73.227  61.134  1.00  0.00     0.016 A 
ATOM     14  C   UNL     1      23.703  74.547  61.584  1.00  0.00     0.051 A 
ATOM     15  C   UNL     1      23.707  75.606  60.672  1.00  0.00     0.157 A 
ATOM     16  C   UNL     1      23.558  74.014  58.843  1.00  0.00     0.062 A 
ATOM     17  C   UNL     1      23.638  75.340  59.294  1.00  0.00     0.158 A 
BRANCH  15  18
ATOM     18  O   UNL     1      23.783  76.913  61.151  1.00  0.00    -0.504 OA
ATOM     19  H   UNL     1      22.984  77.384  61.559  1.00  0.00     0.293 HD
ENDBRANCH  15  18
BRANCH  17  20
ATOM     20  O   UNL     1      23.656  76.391  58.378  1.00  0.00    -0.504 OA
ATOM     21  H   UNL     1      24.076  76.289  57.461  1.00  0.00     0.293 HD
ENDBRANCH  17  20
ENDBRANCH   1  12
BRANCH   2  22
ATOM     22  O   UNL     1      25.901  71.358  59.206  1.00  0.00    -0.502 OA
ATOM     23  H   UNL     1      26.028  72.349  59.376  1.00  0.00     0.293 HD
ENDBRANCH   2  22
BRANCH   9  24
ATOM     24  O   UNL     1      19.311  67.444  57.943  1.00  0.00    -0.508 OA
ATOM     25  H   UNL     1      19.065  66.487  58.168  1.00  0.00     0.293 HD
ENDBRANCH   9  24
TORSDOF 5
ENDMDL
MODEL 7
REMARK VINA RESULT:    -5.093     13.544     15.999
REMARK INTER + INTRA:          -6.092
REMARK INTER:                  -5.788
REMARK INTRA:                  -0.305
REMARK UNBOUND:                -0.106
REMARK SMILES O=c1c(O)c(-c2ccc(O)c(O)c2)oc2cc(O)ccc12
REMARK SMILES IDX 5 1 3 2 2 3 1 4 21 5 15 6 14 7 16 8 17 9 19 10 20 11 6 12
REMARK SMILES IDX 7 13 8 14 9 15 13 16 11 17 10 18 12 20 4 22 18 24
REMARK H PARENT 10 19 12 21 4 23 18 25
REMARK Flexibility Score: inf
ROOT
ATOM      1  C   UNL     1      13.077  63.287  62.444  1.00  0.00     0.180 A 
ATOM      2  C   UNL     1      13.588  64.424  63.106  1.00  0.00     0.208 A 
ATOM      3  C   UNL     1      12.816  65.025  64.112  1.00  0.00     0.235 A 
ATOM      4  O   UNL     1      13.246  66.049  64.710  1.00  0.00    -0.285 OA
ATOM      5  C   UNL     1      11.571  64.473  64.449  1.00  0.00     0.069 A 
ATOM      6  C   UNL     1      11.141  63.320  63.757  1.00  0.00     0.142 A 
ATOM      7  O   UNL     1      11.898  62.787  62.804  1.00  0.00    -0.452 OA
ATOM      8  C   UNL     1       9.909  62.734  64.070  1.00  0.00     0.094 A 
ATOM      9  C   UNL     1       9.098  63.286  65.067  1.00  0.00     0.119 A 
ATOM     10  C   UNL     1       9.521  64.431  65.756  1.00  0.00     0.047 A 
ATOM     11  C   UNL     1      10.751  65.024  65.450  1.00  0.00     0.020 A 
ENDROOT
BRANCH   1  12
ATOM     12  C   UNL     1      13.822  62.607  61.360  1.00  0.00     0.025 A 
ATOM     13  C   UNL     1      13.569  62.956  60.025  1.00  0.00     0.016 A 
ATOM     14  C   UNL     1      14.275  62.342  58.987  1.00  0.00     0.051 A 
ATOM     15  C   UNL     1      15.252  61.383  59.267  1.00  0.00     0.157 A 
ATOM     16  C   UNL     1      14.820  61.656  61.642  1.00  0.00     0.062 A 
ATOM     17  C   UNL     1      15.530  61.040  60.601  1.00  0.00     0.158 A 
BRANCH  15  18
ATOM     18  O   UNL     1      15.938  60.785  58.210  1.00  0.00    -0.504 OA
ATOM     19  H   UNL     1      16.739  60.183  58.361  1.00  0.00     0.293 HD
ENDBRANCH  15  18
BRANCH  17  20
ATOM     20  O   UNL     1      16.514  60.095  60.888  1.00  0.00    -0.504 OA
ATOM     21  H   UNL     1      17.287  60.304  61.509  1.00  0.00     0.293 HD
ENDBRANCH  17  20
ENDBRANCH   1  12
BRANCH   2  22
ATOM     22  O   UNL     1      14.853  64.922  62.783  1.00  0.00    -0.502 OA
ATOM     23  H   UNL     1      15.400  65.473  63.432  1.00  0.00     0.293 HD
ENDBRANCH   2  22
BRANCH   9  24
ATOM     24  O   UNL     1       7.875  62.690  65.367  1.00  0.00    -0.508 OA
ATOM     25  H   UNL     1       7.077  62.776  64.748  1.00  0.00     0.293 HD
ENDBRANCH   9  24
TORSDOF 5
ENDMDL
MODEL 8
REMARK VINA RESULT:    -5.018     14.712     15.929
REMARK INTER + INTRA:          -6.005
REMARK INTER:                  -5.940
REMARK INTRA:                  -0.065
REMARK UNBOUND:                -0.106
REMARK SMILES O=c1c(O)c(-c2ccc(O)c(O)c2)oc2cc(O)ccc12
REMARK SMILES IDX 5 1 3 2 2 3 1 4 21 5 15 6 14 7 16 8 17 9 19 10 20 11 6 12
REMARK SMILES IDX 7 13 8 14 9 15 13 16 11 17 10 18 12 20 4 22 18 24
REMARK H PARENT 10 19 12 21 4 23 18 25
REMARK Flexibility Score: inf
ROOT
ATOM      1  C   UNL     1      11.036  64.578  64.074  1.00  0.00     0.180 A 
ATOM      2  C   UNL     1       9.783  64.328  64.673  1.00  0.00     0.208 A 
ATOM      3  C   UNL     1       9.004  63.264  64.192  1.00  0.00     0.235 A 
ATOM      4  O   UNL     1       7.876  63.027  64.704  1.00  0.00    -0.285 OA
ATOM      5  C   UNL     1       9.495  62.466  63.147  1.00  0.00     0.069 A 
ATOM      6  C   UNL     1      10.768  62.766  62.617  1.00  0.00     0.142 A 
ATOM      7  O   UNL     1      11.471  63.788  63.094  1.00  0.00    -0.452 OA
ATOM      8  C   UNL     1      11.296  61.988  61.581  1.00  0.00     0.094 A 
ATOM      9  C   UNL     1      10.567  60.911  61.064  1.00  0.00     0.119 A 
ATOM     10  C   UNL     1       9.302  60.611  61.587  1.00  0.00     0.047 A 
ATOM     11  C   UNL     1       8.766  61.383  62.623  1.00  0.00     0.020 A 
ENDROOT
BRANCH   1  12
ATOM     12  C   UNL     1      11.908  65.691  64.510  1.00  0.00     0.025 A 
ATOM     13  C   UNL     1      12.346  65.743  65.843  1.00  0.00     0.016 A 
ATOM     14  C   UNL     1      13.187  66.773  66.272  1.00  0.00     0.051 A 
ATOM     15  C   UNL     1      13.614  67.757  65.375  1.00  0.00     0.157 A 
ATOM     16  C   UNL     1      12.356  66.670  63.605  1.00  0.00     0.062 A 
ATOM     17  C   UNL     1      13.200  67.704  64.033  1.00  0.00     0.158 A 
BRANCH  15  18
ATOM     18  O   UNL     1      14.451  68.774  65.833  1.00  0.00    -0.504 OA
ATOM     19  H   UNL     1      15.460  68.685  65.825  1.00  0.00     0.293 HD
ENDBRANCH  15  18
BRANCH  17  20
ATOM     20  O   UNL     1      13.635  68.674  63.131  1.00  0.00    -0.504 OA
ATOM     21  H   UNL     1      13.802  68.455  62.156  1.00  0.00     0.293 HD
ENDBRANCH  17  20
ENDBRANCH   1  12
BRANCH   2  22
ATOM     22  O   UNL     1       9.343  65.108  65.744  1.00  0.00    -0.502 OA
ATOM     23  H   UNL     1       9.141  64.714  66.654  1.00  0.00     0.293 HD
ENDBRANCH   2  22
BRANCH   9  24
ATOM     24  O   UNL     1      11.108  60.147  60.033  1.00  0.00    -0.508 OA
ATOM     25  H   UNL     1      11.101  60.471  59.073  1.00  0.00     0.293 HD
ENDBRANCH   9  24
TORSDOF 5
ENDMDL
MODEL 9
REMARK VINA RESULT:    -4.986      1.900      6.879
REMARK INTER + INTRA:          -5.967
REMARK INTER:                  -5.647
REMARK INTRA:                  -0.320
REMARK UNBOUND:                -0.106
REMARK SMILES O=c1c(O)c(-c2ccc(O)c(O)c2)oc2cc(O)ccc12
REMARK SMILES IDX 5 1 3 2 2 3 1 4 21 5 15 6 14 7 16 8 17 9 19 10 20 11 6 12
REMARK SMILES IDX 7 13 8 14 9 15 13 16 11 17 10 18 12 20 4 22 18 24
REMARK H PARENT 10 19 12 21 4 23 18 25
REMARK Flexibility Score: inf
ROOT
ATOM      1  C   UNL     1      25.136  70.143  60.720  1.00  0.00     0.180 A 
ATOM      2  C   UNL     1      24.718  70.725  59.504  1.00  0.00     0.208 A 
ATOM      3  C   UNL     1      24.280  72.059  59.509  1.00  0.00     0.235 A 
ATOM      4  O   UNL     1      23.891  72.599  58.437  1.00  0.00    -0.285 OA
ATOM      5  C   UNL     1      24.287  72.784  60.710  1.00  0.00     0.069 A 
ATOM      6  C   UNL     1      24.743  72.137  61.880  1.00  0.00     0.142 A 
ATOM      7  O   UNL     1      25.141  70.870  61.835  1.00  0.00    -0.452 OA
ATOM      8  C   UNL     1      24.775  72.829  63.095  1.00  0.00     0.094 A 
ATOM      9  C   UNL     1      24.355  74.162  63.161  1.00  0.00     0.119 A 
ATOM     10  C   UNL     1      23.900  74.807  62.002  1.00  0.00     0.047 A 
ATOM     11  C   UNL     1      23.866  74.124  60.782  1.00  0.00     0.020 A 
ENDROOT
BRANCH   1  12
ATOM     12  C   UNL     1      25.594  68.738  60.802  1.00  0.00     0.025 A 
ATOM     13  C   UNL     1      26.969  68.458  60.790  1.00  0.00     0.016 A 
ATOM     14  C   UNL     1      27.424  67.140  60.887  1.00  0.00     0.051 A 
ATOM     15  C   UNL     1      26.515  66.086  61.012  1.00  0.00     0.157 A 
ATOM     16  C   UNL     1      24.681  67.677  60.949  1.00  0.00     0.062 A 
ATOM     17  C   UNL     1      25.136  66.354  61.048  1.00  0.00     0.158 A 
BRANCH  15  18
ATOM     18  O   UNL     1      26.999  64.781  61.105  1.00  0.00    -0.504 OA
ATOM     19  H   UNL     1      27.919  64.524  60.769  1.00  0.00     0.293 HD
ENDBRANCH  15  18
BRANCH  17  20
ATOM     20  O   UNL     1      24.225  65.308  61.187  1.00  0.00    -0.504 OA
ATOM     21  H   UNL     1      23.882  64.792  60.386  1.00  0.00     0.293 HD
ENDBRANCH  17  20
ENDBRANCH   1  12
BRANCH   2  22
ATOM     22  O   UNL     1      24.769  69.994  58.316  1.00  0.00    -0.502 OA
ATOM     23  H   UNL     1      25.075  69.029  58.286  1.00  0.00     0.293 HD
ENDBRANCH   2  22
BRANCH   9  24
ATOM     24  O   UNL     1      24.393  74.836  64.379  1.00  0.00    -0.508 OA
ATOM     25  H   UNL     1      24.426  75.848  64.424  1.00  0.00     0.293 HD
ENDBRANCH   9  24
TORSDOF 5
ENDMDL
