MODEL 1
REMARK VINA RESULT:    -2.368      0.000      0.000
REMARK INTER + INTRA:          -2.683
REMARK INTER:                  -2.644
REMARK INTRA:                  -0.038
REMARK UNBOUND:                -0.038
REMARK SMILES CCCC(=O)[O-]
REMARK SMILES IDX 3 1 4 2 5 3 6 4 2 5 1 6
REMARK H PARENT
REMARK Flexibility Score: inf
ROOT
ATOM      1  C   UNL     1     -20.712   3.025   0.074  1.00  0.00     0.052 C 
ENDROOT
BRANCH   1   2
ATOM      2  C   UNL     1     -20.281   3.813   1.270  1.00  0.00     0.041 C 
ATOM      3  O   UNL     1     -20.476   3.361   2.430  1.00  0.00    -0.550 OA
ATOM      4  O   UNL     1     -19.710   5.068   1.107  1.00  0.00    -0.550 OA
ENDBRANCH   1   2
BRANCH   1   5
ATOM      5  C   UNL     1     -19.900   3.436  -1.158  1.00  0.00     0.003 C 
ATOM      6  C   UNL     1     -20.791   4.087  -2.212  1.00  0.00     0.004 C 
ENDBRANCH   1   5
TORSDOF 2
ENDMDL
MODEL 2
REMARK VINA RESULT:    -2.266      2.512      3.582
REMARK INTER + INTRA:          -2.569
REMARK INTER:                  -2.561
REMARK INTRA:                  -0.008
REMARK UNBOUND:                -0.038
REMARK SMILES CCCC(=O)[O-]
REMARK SMILES IDX 3 1 4 2 5 3 6 4 2 5 1 6
REMARK H PARENT
REMARK Flexibility Score: inf
ROOT
ATOM      1  C   UNL     1     -20.105   3.597  -0.145  1.00  0.00     0.052 C 
ENDROOT
BRANCH   1   2
ATOM      2  C   UNL     1     -20.592   3.636  -1.559  1.00  0.00     0.041 C 
ATOM      3  O   UNL     1     -20.565   4.713  -2.209  1.00  0.00    -0.550 OA
ATOM      4  O   UNL     1     -21.123   2.492  -2.142  1.00  0.00    -0.550 OA
ENDBRANCH   1   2
BRANCH   1   5
ATOM      5  C   UNL     1     -20.885   2.555   0.662  1.00  0.00     0.003 C 
ATOM      6  C   UNL     1     -20.863   2.883   2.152  1.00  0.00     0.004 C 
ENDBRANCH   1   5
TORSDOF 2
ENDMDL
MODEL 3
REMARK VINA RESULT:    -2.188     15.119     15.528
REMARK INTER + INTRA:          -2.483
REMARK INTER:                  -2.469
REMARK INTRA:                  -0.014
REMARK UNBOUND:                -0.038
REMARK SMILES CCCC(=O)[O-]
REMARK SMILES IDX 3 1 4 2 5 3 6 4 2 5 1 6
REMARK H PARENT
REMARK Flexibility Score: inf
ROOT
ATOM      1  C   UNL     1     -15.851  -3.733 -11.515  1.00  0.00     0.052 C 
ENDROOT
BRANCH   1   2
ATOM      2  C   UNL     1     -14.451  -4.071 -11.920  1.00  0.00     0.041 C 
ATOM      3  O   UNL     1     -14.097  -5.274 -12.034  1.00  0.00    -0.550 OA
ATOM      4  O   UNL     1     -13.523  -3.058 -12.125  1.00  0.00    -0.550 OA
ENDBRANCH   1   2
BRANCH   1   5
ATOM      5  C   UNL     1     -16.772  -4.940 -11.713  1.00  0.00     0.003 C 
ATOM      6  C   UNL     1     -18.186  -4.499 -12.080  1.00  0.00     0.004 C 
ENDBRANCH   1   5
TORSDOF 2
ENDMDL
MODEL 4
REMARK VINA RESULT:    -2.065     15.299     15.898
REMARK INTER + INTRA:          -2.345
REMARK INTER:                  -2.337
REMARK INTRA:                  -0.008
REMARK UNBOUND:                -0.038
REMARK SMILES CCCC(=O)[O-]
REMARK SMILES IDX 3 1 4 2 5 3 6 4 2 5 1 6
REMARK H PARENT
REMARK Flexibility Score: inf
ROOT
ATOM      1  C   UNL     1     -15.864  -5.918 -12.117  1.00  0.00     0.052 C 
ENDROOT
BRANCH   1   2
ATOM      2  C   UNL     1     -16.533  -4.656 -11.672  1.00  0.00     0.041 C 
ATOM      3  O   UNL     1     -17.776  -4.633 -11.474  1.00  0.00    -0.550 OA
ATOM      4  O   UNL     1     -15.791  -3.491 -11.522  1.00  0.00    -0.550 OA
ENDBRANCH   1   2
BRANCH   1   5
ATOM      5  C   UNL     1     -14.421  -5.966 -11.607  1.00  0.00     0.003 C 
ATOM      6  C   UNL     1     -13.827  -7.363 -11.768  1.00  0.00     0.004 C 
ENDBRANCH   1   5
TORSDOF 2
ENDMDL
MODEL 5
REMARK VINA RESULT:    -2.042     16.307     16.772
REMARK INTER + INTRA:          -2.320
REMARK INTER:                  -2.295
REMARK INTRA:                  -0.025
REMARK UNBOUND:                -0.038
REMARK SMILES CCCC(=O)[O-]
REMARK SMILES IDX 3 1 4 2 5 3 6 4 2 5 1 6
REMARK H PARENT
REMARK Flexibility Score: inf
ROOT
ATOM      1  C   UNL     1      -4.422   6.336   1.685  1.00  0.00     0.052 C 
ENDROOT
BRANCH   1   2
ATOM      2  C   UNL     1      -2.953   6.396   1.408  1.00  0.00     0.041 C 
ATOM      3  O   UNL     1      -2.534   6.806   0.294  1.00  0.00    -0.550 OA
ATOM      4  O   UNL     1      -2.048   5.951   2.363  1.00  0.00    -0.550 OA
ENDBRANCH   1   2
BRANCH   1   5
ATOM      5  C   UNL     1      -5.199   7.124   0.625  1.00  0.00     0.003 C 
ATOM      6  C   UNL     1      -6.467   6.384   0.209  1.00  0.00     0.004 C 
ENDBRANCH   1   5
TORSDOF 2
ENDMDL
MODEL 6
REMARK VINA RESULT:    -2.042     16.503     16.945
REMARK INTER + INTRA:          -2.319
REMARK INTER:                  -2.247
REMARK INTRA:                  -0.072
REMARK UNBOUND:                -0.038
REMARK SMILES CCCC(=O)[O-]
REMARK SMILES IDX 3 1 4 2 5 3 6 4 2 5 1 6
REMARK H PARENT
REMARK Flexibility Score: inf
ROOT
ATOM      1  C   UNL     1     -20.943 -11.703  -7.801  1.00  0.00     0.052 C 
ENDROOT
BRANCH   1   2
ATOM      2  C   UNL     1     -20.170 -10.438  -7.605  1.00  0.00     0.041 C 
ATOM      3  O   UNL     1     -20.751  -9.394  -7.208  1.00  0.00    -0.550 OA
ATOM      4  O   UNL     1     -18.815 -10.398  -7.908  1.00  0.00    -0.550 OA
ENDBRANCH   1   2
BRANCH   1   5
ATOM      5  C   UNL     1     -20.344 -12.832  -6.958  1.00  0.00     0.003 C 
ATOM      6  C   UNL     1     -20.451 -12.523  -5.467  1.00  0.00     0.004 C 
ENDBRANCH   1   5
TORSDOF 2
ENDMDL
MODEL 7
REMARK VINA RESULT:    -2.003     16.584     17.081
REMARK INTER + INTRA:          -2.275
REMARK INTER:                  -2.268
REMARK INTRA:                  -0.007
REMARK UNBOUND:                -0.038
REMARK SMILES CCCC(=O)[O-]
REMARK SMILES IDX 3 1 4 2 5 3 6 4 2 5 1 6
REMARK H PARENT
REMARK Flexibility Score: inf
ROOT
ATOM      1  C   UNL     1      -3.363   6.853   0.845  1.00  0.00     0.052 C 
ENDROOT
BRANCH   1   2
ATOM      2  C   UNL     1      -4.748   6.767   1.405  1.00  0.00     0.041 C 
ATOM      3  O   UNL     1      -5.735   6.622   0.637  1.00  0.00    -0.550 OA
ATOM      4  O   UNL     1      -4.952   6.894   2.773  1.00  0.00    -0.550 OA
ENDBRANCH   1   2
BRANCH   1   5
ATOM      5  C   UNL     1      -2.354   6.230   1.813  1.00  0.00     0.003 C 
ATOM      6  C   UNL     1      -1.032   5.929   1.113  1.00  0.00     0.004 C 
ENDBRANCH   1   5
TORSDOF 2
ENDMDL
MODEL 8
REMARK VINA RESULT:    -1.998     17.014     17.436
REMARK INTER + INTRA:          -2.270
REMARK INTER:                  -2.262
REMARK INTRA:                  -0.008
REMARK UNBOUND:                -0.038
REMARK SMILES CCCC(=O)[O-]
REMARK SMILES IDX 3 1 4 2 5 3 6 4 2 5 1 6
REMARK H PARENT
REMARK Flexibility Score: inf
ROOT
ATOM      1  C   UNL     1      -3.568   6.639   0.986  1.00  0.00     0.052 C 
ENDROOT
BRANCH   1   2
ATOM      2  C   UNL     1      -3.980   6.403   2.405  1.00  0.00     0.041 C 
ATOM      3  O   UNL     1      -5.045   6.907   2.848  1.00  0.00    -0.550 OA
ATOM      4  O   UNL     1      -3.162   5.666   3.252  1.00  0.00    -0.550 OA
ENDBRANCH   1   2
BRANCH   1   5
ATOM      5  C   UNL     1      -2.043   6.733   0.880  1.00  0.00     0.003 C 
ATOM      6  C   UNL     1      -1.604   6.949  -0.566  1.00  0.00     0.004 C 
ENDBRANCH   1   5
TORSDOF 2
ENDMDL
MODEL 9
REMARK VINA RESULT:    -1.229     16.314     16.845
REMARK INTER + INTRA:          -1.411
REMARK INTER:                  -1.401
REMARK INTRA:                  -0.009
REMARK UNBOUND:                -0.038
REMARK SMILES CCCC(=O)[O-]
REMARK SMILES IDX 3 1 4 2 5 3 6 4 2 5 1 6
REMARK H PARENT
REMARK Flexibility Score: inf
ROOT
ATOM      1  C   UNL     1     -14.387  -5.799 -11.378  1.00  0.00     0.052 C 
ENDROOT
BRANCH   1   2
ATOM      2  C   UNL     1     -14.264  -7.248 -11.732  1.00  0.00     0.041 C 
ATOM      3  O   UNL     1     -13.138  -7.811 -11.717  1.00  0.00    -0.550 OA
ATOM      4  O   UNL     1     -15.387  -7.964 -12.125  1.00  0.00    -0.550 OA
ENDBRANCH   1   2
BRANCH   1   5
ATOM      5  C   UNL     1     -15.714  -5.233 -11.891  1.00  0.00     0.003 C 
ATOM      6  C   UNL     1     -15.786  -3.724 -11.681  1.00  0.00     0.004 C 
ENDBRANCH   1   5
TORSDOF 2
ENDMDL
