MODEL 1
REMARK VINA RESULT:    -6.142      0.000      0.000
REMARK INTER + INTRA:          -6.321
REMARK INTER:                  -6.321
REMARK INTRA:                   0.000
REMARK UNBOUND:                 0.000
REMARK SMILES Cc1ccccc1O
REMARK SMILES IDX 1 1 2 2 3 3 4 4 5 5 6 6 7 7 8 8
REMARK H PARENT 8 9
REMARK Flexibility Score: inf
ROOT
ATOM      1  C   UNL     1     -12.745   4.573  -8.450  1.00  0.00     0.048 C 
ATOM      2  C   UNL     1     -12.636   3.182  -9.008  1.00  0.00    -0.009 A 
ATOM      3  C   UNL     1     -13.770   2.571  -9.574  1.00  0.00     0.007 A 
ATOM      4  C   UNL     1     -13.690   1.278 -10.098  1.00  0.00     0.001 A 
ATOM      5  C   UNL     1     -12.481   0.582 -10.062  1.00  0.00     0.004 A 
ATOM      6  C   UNL     1     -11.349   1.176  -9.502  1.00  0.00     0.046 A 
ATOM      7  C   UNL     1     -11.414   2.472  -8.974  1.00  0.00     0.118 A 
ENDROOT
BRANCH   7   8
ATOM      8  O   UNL     1     -10.254   3.022  -8.425  1.00  0.00    -0.508 OA
ATOM      9  H   UNL     1     -10.236   3.483  -7.525  1.00  0.00     0.293 HD
ENDBRANCH   7   8
TORSDOF 1
ENDMDL
MODEL 2
REMARK VINA RESULT:    -5.890      0.936      2.574
REMARK INTER + INTRA:          -6.062
REMARK INTER:                  -6.062
REMARK INTRA:                   0.000
REMARK UNBOUND:                 0.000
REMARK SMILES Cc1ccccc1O
REMARK SMILES IDX 1 1 2 2 3 3 4 4 5 5 6 6 7 7 8 8
REMARK H PARENT 8 9
REMARK Flexibility Score: inf
ROOT
ATOM      1  C   UNL     1     -10.995   0.672  -9.615  1.00  0.00     0.048 C 
ATOM      2  C   UNL     1     -11.840   1.853  -9.229  1.00  0.00    -0.009 A 
ATOM      3  C   UNL     1     -13.228   1.816  -9.451  1.00  0.00     0.007 A 
ATOM      4  C   UNL     1     -14.032   2.904  -9.099  1.00  0.00     0.001 A 
ATOM      5  C   UNL     1     -13.460   4.038  -8.524  1.00  0.00     0.004 A 
ATOM      6  C   UNL     1     -12.083   4.090  -8.299  1.00  0.00     0.046 A 
ATOM      7  C   UNL     1     -11.265   3.007  -8.646  1.00  0.00     0.118 A 
ENDROOT
BRANCH   7   8
ATOM      8  O   UNL     1      -9.895   3.107  -8.401  1.00  0.00    -0.508 OA
ATOM      9  H   UNL     1      -9.440   3.979  -8.164  1.00  0.00     0.293 HD
ENDBRANCH   7   8
TORSDOF 1
ENDMDL
MODEL 3
REMARK VINA RESULT:    -5.889      1.073      2.767
REMARK INTER + INTRA:          -6.062
REMARK INTER:                  -6.062
REMARK INTRA:                   0.000
REMARK UNBOUND:                 0.000
REMARK SMILES Cc1ccccc1O
REMARK SMILES IDX 1 1 2 2 3 3 4 4 5 5 6 6 7 7 8 8
REMARK H PARENT 8 9
REMARK Flexibility Score: inf
ROOT
ATOM      1  C   UNL     1     -10.571  -0.452 -10.180  1.00  0.00     0.048 C 
ATOM      2  C   UNL     1     -11.777   0.427  -9.998  1.00  0.00    -0.009 A 
ATOM      3  C   UNL     1     -13.017   0.023 -10.525  1.00  0.00     0.007 A 
ATOM      4  C   UNL     1     -14.150   0.825 -10.367  1.00  0.00     0.001 A 
ATOM      5  C   UNL     1     -14.058   2.037  -9.683  1.00  0.00     0.004 A 
ATOM      6  C   UNL     1     -12.834   2.452  -9.156  1.00  0.00     0.046 A 
ATOM      7  C   UNL     1     -11.690   1.658  -9.306  1.00  0.00     0.118 A 
ENDROOT
BRANCH   7   8
ATOM      8  O   UNL     1     -10.489   2.116  -8.761  1.00  0.00    -0.508 OA
ATOM      9  H   UNL     1      -9.730   2.476  -9.324  1.00  0.00     0.293 HD
ENDBRANCH   7   8
TORSDOF 1
ENDMDL
MODEL 4
REMARK VINA RESULT:    -5.662      1.557      2.337
REMARK INTER + INTRA:          -5.827
REMARK INTER:                  -5.827
REMARK INTRA:                   0.000
REMARK UNBOUND:                 0.000
REMARK SMILES Cc1ccccc1O
REMARK SMILES IDX 1 1 2 2 3 3 4 4 5 5 6 6 7 7 8 8
REMARK H PARENT 8 9
REMARK Flexibility Score: inf
ROOT
ATOM      1  C   UNL     1     -10.794   3.910  -8.258  1.00  0.00     0.048 C 
ATOM      2  C   UNL     1     -11.897   3.060  -8.823  1.00  0.00    -0.009 A 
ATOM      3  C   UNL     1     -11.591   1.807  -9.383  1.00  0.00     0.007 A 
ATOM      4  C   UNL     1     -12.602   1.001  -9.914  1.00  0.00     0.001 A 
ATOM      5  C   UNL     1     -13.927   1.437  -9.892  1.00  0.00     0.004 A 
ATOM      6  C   UNL     1     -14.245   2.679  -9.340  1.00  0.00     0.046 A 
ATOM      7  C   UNL     1     -13.242   3.497  -8.804  1.00  0.00     0.118 A 
ENDROOT
BRANCH   7   8
ATOM      8  O   UNL     1     -13.611   4.730  -8.264  1.00  0.00    -0.508 OA
ATOM      9  H   UNL     1     -13.329   5.615  -8.666  1.00  0.00     0.293 HD
ENDBRANCH   7   8
TORSDOF 1
ENDMDL
MODEL 5
REMARK VINA RESULT:    -5.147      1.829      3.547
REMARK INTER + INTRA:          -5.297
REMARK INTER:                  -5.297
REMARK INTRA:                   0.000
REMARK UNBOUND:                 0.000
REMARK SMILES Cc1ccccc1O
REMARK SMILES IDX 1 1 2 2 3 3 4 4 5 5 6 6 7 7 8 8
REMARK H PARENT 8 9
REMARK Flexibility Score: inf
ROOT
ATOM      1  C   UNL     1     -11.601   0.547 -10.065  1.00  0.00     0.048 C 
ATOM      2  C   UNL     1     -11.932   1.845  -9.385  1.00  0.00    -0.009 A 
ATOM      3  C   UNL     1     -10.906   2.593  -8.780  1.00  0.00     0.007 A 
ATOM      4  C   UNL     1     -11.194   3.803  -8.142  1.00  0.00     0.001 A 
ATOM      5  C   UNL     1     -12.505   4.278  -8.100  1.00  0.00     0.004 A 
ATOM      6  C   UNL     1     -13.533   3.544  -8.695  1.00  0.00     0.046 A 
ATOM      7  C   UNL     1     -13.260   2.330  -9.339  1.00  0.00     0.118 A 
ENDROOT
BRANCH   7   8
ATOM      8  O   UNL     1     -14.322   1.635  -9.919  1.00  0.00    -0.508 OA
ATOM      9  H   UNL     1     -14.985   2.067 -10.550  1.00  0.00     0.293 HD
ENDBRANCH   7   8
TORSDOF 1
ENDMDL
MODEL 6
REMARK VINA RESULT:    -4.851      2.976      4.308
REMARK INTER + INTRA:          -4.993
REMARK INTER:                  -4.993
REMARK INTRA:                   0.000
REMARK UNBOUND:                 0.000
REMARK SMILES Cc1ccccc1O
REMARK SMILES IDX 1 1 2 2 3 3 4 4 5 5 6 6 7 7 8 8
REMARK H PARENT 8 9
REMARK Flexibility Score: inf
ROOT
ATOM      1  C   UNL     1     -10.160  -1.200 -10.310  1.00  0.00     0.048 C 
ATOM      2  C   UNL     1     -11.545  -0.618 -10.299  1.00  0.00    -0.009 A 
ATOM      3  C   UNL     1     -11.737   0.711  -9.881  1.00  0.00     0.007 A 
ATOM      4  C   UNL     1     -13.017   1.271  -9.864  1.00  0.00     0.001 A 
ATOM      5  C   UNL     1     -14.118   0.512 -10.262  1.00  0.00     0.004 A 
ATOM      6  C   UNL     1     -13.942  -0.810 -10.677  1.00  0.00     0.046 A 
ATOM      7  C   UNL     1     -12.665  -1.384 -10.700  1.00  0.00     0.118 A 
ENDROOT
BRANCH   7   8
ATOM      8  O   UNL     1     -12.541  -2.708 -11.124  1.00  0.00    -0.508 OA
ATOM      9  H   UNL     1     -11.651  -3.135 -11.344  1.00  0.00     0.293 HD
ENDBRANCH   7   8
TORSDOF 1
ENDMDL
MODEL 7
REMARK VINA RESULT:    -4.648     15.829     16.895
REMARK INTER + INTRA:          -4.784
REMARK INTER:                  -4.784
REMARK INTRA:                   0.000
REMARK UNBOUND:                 0.000
REMARK SMILES Cc1ccccc1O
REMARK SMILES IDX 1 1 2 2 3 3 4 4 5 5 6 6 7 7 8 8
REMARK H PARENT 8 9
REMARK Flexibility Score: inf
ROOT
ATOM      1  C   UNL     1     -10.253   4.246   9.125  1.00  0.00     0.048 C 
ATOM      2  C   UNL     1     -10.909   4.858   7.919  1.00  0.00    -0.009 A 
ATOM      3  C   UNL     1     -12.138   4.347   7.464  1.00  0.00     0.007 A 
ATOM      4  C   UNL     1     -12.765   4.901   6.344  1.00  0.00     0.001 A 
ATOM      5  C   UNL     1     -12.173   5.969   5.669  1.00  0.00     0.004 A 
ATOM      6  C   UNL     1     -10.953   6.485   6.109  1.00  0.00     0.046 A 
ATOM      7  C   UNL     1     -10.314   5.940   7.230  1.00  0.00     0.118 A 
ENDROOT
BRANCH   7   8
ATOM      8  O   UNL     1      -9.096   6.491   7.631  1.00  0.00    -0.508 OA
ATOM      9  H   UNL     1      -8.239   5.955   7.685  1.00  0.00     0.293 HD
ENDBRANCH   7   8
TORSDOF 1
ENDMDL
MODEL 8
REMARK VINA RESULT:    -4.589      2.134      3.457
REMARK INTER + INTRA:          -4.723
REMARK INTER:                  -4.723
REMARK INTRA:                   0.000
REMARK UNBOUND:                 0.000
REMARK SMILES Cc1ccccc1O
REMARK SMILES IDX 1 1 2 2 3 3 4 4 5 5 6 6 7 7 8 8
REMARK H PARENT 8 9
REMARK Flexibility Score: inf
ROOT
ATOM      1  C   UNL     1     -14.310  -0.998 -11.125  1.00  0.00     0.048 C 
ATOM      2  C   UNL     1     -13.425   0.030 -10.476  1.00  0.00    -0.009 A 
ATOM      3  C   UNL     1     -13.991   1.218  -9.978  1.00  0.00     0.007 A 
ATOM      4  C   UNL     1     -13.185   2.185  -9.372  1.00  0.00     0.001 A 
ATOM      5  C   UNL     1     -11.810   1.979  -9.257  1.00  0.00     0.004 A 
ATOM      6  C   UNL     1     -11.236   0.805  -9.748  1.00  0.00     0.046 A 
ATOM      7  C   UNL     1     -12.031  -0.174 -10.358  1.00  0.00     0.118 A 
ENDROOT
BRANCH   7   8
ATOM      8  O   UNL     1     -11.409  -1.330 -10.833  1.00  0.00    -0.508 OA
ATOM      9  H   UNL     1     -11.857  -2.237 -10.829  1.00  0.00     0.293 HD
ENDBRANCH   7   8
TORSDOF 1
ENDMDL
MODEL 9
REMARK VINA RESULT:    -4.585     15.855     16.930
REMARK INTER + INTRA:          -4.719
REMARK INTER:                  -4.719
REMARK INTRA:                   0.000
REMARK UNBOUND:                 0.000
REMARK SMILES Cc1ccccc1O
REMARK SMILES IDX 1 1 2 2 3 3 4 4 5 5 6 6 7 7 8 8
REMARK H PARENT 8 9
REMARK Flexibility Score: inf
ROOT
ATOM      1  C   UNL     1      -9.147   6.524   5.772  1.00  0.00     0.048 C 
ATOM      2  C   UNL     1      -9.890   5.679   6.769  1.00  0.00    -0.009 A 
ATOM      3  C   UNL     1      -9.831   6.005   8.136  1.00  0.00     0.007 A 
ATOM      4  C   UNL     1     -10.515   5.233   9.079  1.00  0.00     0.001 A 
ATOM      5  C   UNL     1     -11.263   4.129   8.669  1.00  0.00     0.004 A 
ATOM      6  C   UNL     1     -11.329   3.793   7.315  1.00  0.00     0.046 A 
ATOM      7  C   UNL     1     -10.649   4.559   6.359  1.00  0.00     0.118 A 
ENDROOT
BRANCH   7   8
ATOM      8  O   UNL     1     -10.747   4.182   5.019  1.00  0.00    -0.508 OA
ATOM      9  H   UNL     1     -10.149   3.483   4.598  1.00  0.00     0.293 HD
ENDBRANCH   7   8
TORSDOF 1
ENDMDL
