MODEL 1
REMARK VINA RESULT:    -1.011      0.000      0.000
REMARK INTER + INTRA:          -9.377
REMARK INTER:                  -2.665
REMARK INTRA:                  -6.712
REMARK UNBOUND:                -6.712
REMARK SMILES CCCCCCCCCCCCCCCCCCCCCCCCCCCCCC(=O)[O-]
REMARK SMILES IDX 16 1 17 2 18 3 19 4 20 5 21 6 22 7 23 8 24 9 25 10 26 11
REMARK SMILES IDX 27 12 28 13 29 14 30 15 31 16 32 17 15 18 14 19 13 20 12 21
REMARK SMILES IDX 11 22 10 23 9 24 8 25 7 26 6 27 5 28 4 29 3 30 2 31 1 32
REMARK H PARENT
REMARK Flexibility Score: inf
ROOT
ATOM      1  C   UNL     1     141.190  38.982 -13.142  1.00  0.00     0.000 C 
ENDROOT
BRANCH   1   2
ATOM      2  C   UNL     1     141.766  37.614 -12.736  1.00  0.00     0.000 C 
BRANCH   2   3
ATOM      3  C   UNL     1     143.026  37.228 -13.535  1.00  0.00     0.000 C 
BRANCH   3   4
ATOM      4  C   UNL     1     144.370  37.632 -12.896  1.00  0.00     0.000 C 
BRANCH   4   5
ATOM      5  C   UNL     1     144.451  37.296 -11.397  1.00  0.00     0.000 C 
BRANCH   5   6
ATOM      6  C   UNL     1     144.377  38.545 -10.504  1.00  0.00     0.000 C 
BRANCH   6   7
ATOM      7  C   UNL     1     143.354  38.406  -9.363  1.00  0.00     0.000 C 
BRANCH   7   8
ATOM      8  C   UNL     1     142.971  39.767  -8.757  1.00  0.00     0.000 C 
BRANCH   8   9
ATOM      9  C   UNL     1     144.194  40.670  -8.512  1.00  0.00     0.000 C 
BRANCH   9  10
ATOM     10  C   UNL     1     143.975  42.106  -9.011  1.00  0.00     0.000 C 
BRANCH  10  11
ATOM     11  C   UNL     1     142.738  42.770  -8.380  1.00  0.00     0.000 C 
BRANCH  11  12
ATOM     12  C   UNL     1     142.780  42.773  -6.843  1.00  0.00     0.000 C 
BRANCH  12  13
ATOM     13  C   UNL     1     143.959  43.554  -6.229  1.00  0.00     0.006 C 
BRANCH  13  14
ATOM     14  C   UNL     1     144.942  42.693  -5.417  1.00  0.00     0.053 C 
BRANCH  14  15
ATOM     15  C   UNL     1     146.351  42.846  -5.898  1.00  0.00     0.041 C 
ATOM     16  O   UNL     1     146.600  43.526  -6.929  1.00  0.00    -0.550 OA
ATOM     17  O   UNL     1     147.395  42.250  -5.197  1.00  0.00    -0.550 OA
ENDBRANCH  14  15
ENDBRANCH  13  14
ENDBRANCH  12  13
ENDBRANCH  11  12
ENDBRANCH  10  11
ENDBRANCH   9  10
ENDBRANCH   8   9
ENDBRANCH   7   8
ENDBRANCH   6   7
ENDBRANCH   5   6
ENDBRANCH   4   5
ENDBRANCH   3   4
ENDBRANCH   2   3
ENDBRANCH   1   2
BRANCH   1  18
ATOM     18  C   UNL     1     141.000  39.925 -11.936  1.00  0.00     0.000 C 
BRANCH  18  19
ATOM     19  C   UNL     1     141.910  41.164 -11.954  1.00  0.00     0.000 C 
BRANCH  19  20
ATOM     20  C   UNL     1     142.913  41.162 -13.120  1.00  0.00     0.000 C 
BRANCH  20  21
ATOM     21  C   UNL     1     144.332  41.545 -12.672  1.00  0.00     0.000 C 
BRANCH  21  22
ATOM     22  C   UNL     1     145.416  40.953 -13.592  1.00  0.00     0.000 C 
BRANCH  22  23
ATOM     23  C   UNL     1     146.765  40.751 -12.870  1.00  0.00     0.000 C 
BRANCH  23  24
ATOM     24  C   UNL     1     146.796  41.291 -11.430  1.00  0.00    -0.000 C 
BRANCH  24  25
ATOM     25  C   UNL     1     147.535  40.361 -10.449  1.00  0.00    -0.000 C 
BRANCH  25  26
ATOM     26  C   UNL     1     147.739  40.995  -9.059  1.00  0.00    -0.000 C 
BRANCH  26  27
ATOM     27  C   UNL     1     147.731  40.005  -7.873  1.00  0.00    -0.000 C 
BRANCH  27  28
ATOM     28  C   UNL     1     147.268  38.574  -8.209  1.00  0.00    -0.000 C 
BRANCH  28  29
ATOM     29  C   UNL     1     146.363  37.924  -7.146  1.00  0.00    -0.000 C 
BRANCH  29  30
ATOM     30  C   UNL     1     146.209  38.806  -5.896  1.00  0.00    -0.000 C 
BRANCH  30  31
ATOM     31  C   UNL     1     144.739  38.999  -5.490  1.00  0.00    -0.003 C 
ATOM     32  C   UNL     1     144.374  38.220  -4.222  1.00  0.00     0.004 C 
ENDBRANCH  30  31
ENDBRANCH  29  30
ENDBRANCH  28  29
ENDBRANCH  27  28
ENDBRANCH  26  27
ENDBRANCH  25  26
ENDBRANCH  24  25
ENDBRANCH  23  24
ENDBRANCH  22  23
ENDBRANCH  21  22
ENDBRANCH  20  21
ENDBRANCH  19  20
ENDBRANCH  18  19
ENDBRANCH   1  18
TORSDOF 28
ENDMDL
MODEL 2
REMARK VINA RESULT:    -0.968      1.464      3.778
REMARK INTER + INTRA:          -9.265
REMARK INTER:                  -2.608
REMARK INTRA:                  -6.656
REMARK UNBOUND:                -6.712
REMARK SMILES CCCCCCCCCCCCCCCCCCCCCCCCCCCCCC(=O)[O-]
REMARK SMILES IDX 16 1 17 2 18 3 19 4 20 5 21 6 22 7 23 8 24 9 25 10 26 11
REMARK SMILES IDX 27 12 28 13 29 14 30 15 31 16 32 17 15 18 14 19 13 20 12 21
REMARK SMILES IDX 11 22 10 23 9 24 8 25 7 26 6 27 5 28 4 29 3 30 2 31 1 32
REMARK H PARENT
REMARK Flexibility Score: inf
ROOT
ATOM      1  C   UNL     1     143.372  40.561 -13.592  1.00  0.00     0.000 C 
ENDROOT
BRANCH   1   2
ATOM      2  C   UNL     1     142.259  40.499 -12.530  1.00  0.00     0.000 C 
BRANCH   2   3
ATOM      3  C   UNL     1     141.189  39.433 -12.838  1.00  0.00     0.000 C 
BRANCH   3   4
ATOM      4  C   UNL     1     141.689  38.190 -13.602  1.00  0.00     0.000 C 
BRANCH   4   5
ATOM      5  C   UNL     1     142.320  37.129 -12.683  1.00  0.00     0.000 C 
BRANCH   5   6
ATOM      6  C   UNL     1     141.491  36.876 -11.414  1.00  0.00     0.000 C 
BRANCH   6   7
ATOM      7  C   UNL     1     142.314  37.021 -10.122  1.00  0.00     0.000 C 
BRANCH   7   8
ATOM      8  C   UNL     1     143.757  37.478 -10.401  1.00  0.00     0.000 C 
BRANCH   8   9
ATOM      9  C   UNL     1     144.128  38.762  -9.636  1.00  0.00     0.000 C 
BRANCH   9  10
ATOM     10  C   UNL     1     142.893  39.538  -9.154  1.00  0.00     0.000 C 
BRANCH  10  11
ATOM     11  C   UNL     1     143.153  41.050  -9.038  1.00  0.00     0.000 C 
BRANCH  11  12
ATOM     12  C   UNL     1     144.537  41.462  -9.568  1.00  0.00     0.000 C 
BRANCH  12  13
ATOM     13  C   UNL     1     144.631  42.917 -10.070  1.00  0.00     0.006 C 
BRANCH  13  14
ATOM     14  C   UNL     1     145.331  43.883  -9.100  1.00  0.00     0.053 C 
BRANCH  14  15
ATOM     15  C   UNL     1     146.802  43.980  -9.368  1.00  0.00     0.041 C 
ATOM     16  O   UNL     1     147.257  44.914 -10.080  1.00  0.00    -0.550 OA
ATOM     17  O   UNL     1     147.674  43.046  -8.816  1.00  0.00    -0.550 OA
ENDBRANCH  14  15
ENDBRANCH  13  14
ENDBRANCH  12  13
ENDBRANCH  11  12
ENDBRANCH  10  11
ENDBRANCH   9  10
ENDBRANCH   8   9
ENDBRANCH   7   8
ENDBRANCH   6   7
ENDBRANCH   5   6
ENDBRANCH   4   5
ENDBRANCH   3   4
ENDBRANCH   2   3
ENDBRANCH   1   2
BRANCH   1  18
ATOM     18  C   UNL     1     144.760  40.217 -13.012  1.00  0.00     0.000 C 
BRANCH  18  19
ATOM     19  C   UNL     1     145.839  41.278 -13.287  1.00  0.00     0.000 C 
BRANCH  19  20
ATOM     20  C   UNL     1     147.064  41.148 -12.366  1.00  0.00     0.000 C 
BRANCH  20  21
ATOM     21  C   UNL     1     147.189  39.745 -11.751  1.00  0.00     0.000 C 
BRANCH  21  22
ATOM     22  C   UNL     1     147.756  39.781 -10.320  1.00  0.00     0.000 C 
BRANCH  22  23
ATOM     23  C   UNL     1     147.813  38.384  -9.667  1.00  0.00     0.000 C 
BRANCH  23  24
ATOM     24  C   UNL     1     147.520  38.382  -8.157  1.00  0.00    -0.000 C 
BRANCH  24  25
ATOM     25  C   UNL     1     147.266  39.789  -7.585  1.00  0.00    -0.000 C 
BRANCH  25  26
ATOM     26  C   UNL     1     146.504  39.765  -6.246  1.00  0.00    -0.000 C 
BRANCH  26  27
ATOM     27  C   UNL     1     145.267  40.687  -6.171  1.00  0.00    -0.000 C 
BRANCH  27  28
ATOM     28  C   UNL     1     145.569  42.179  -5.924  1.00  0.00    -0.000 C 
BRANCH  28  29
ATOM     29  C   UNL     1     144.327  43.055  -5.678  1.00  0.00    -0.000 C 
BRANCH  29  30
ATOM     30  C   UNL     1     143.031  42.227  -5.633  1.00  0.00    -0.000 C 
BRANCH  30  31
ATOM     31  C   UNL     1     141.800  43.039  -6.066  1.00  0.00    -0.003 C 
ATOM     32  C   UNL     1     142.139  44.102  -7.117  1.00  0.00     0.004 C 
ENDBRANCH  30  31
ENDBRANCH  29  30
ENDBRANCH  28  29
ENDBRANCH  27  28
ENDBRANCH  26  27
ENDBRANCH  25  26
ENDBRANCH  24  25
ENDBRANCH  23  24
ENDBRANCH  22  23
ENDBRANCH  21  22
ENDBRANCH  20  21
ENDBRANCH  19  20
ENDBRANCH  18  19
ENDBRANCH   1  18
TORSDOF 28
ENDMDL
MODEL 3
REMARK VINA RESULT:    -0.965      2.545      4.830
REMARK INTER + INTRA:          -9.257
REMARK INTER:                  -2.269
REMARK INTRA:                  -6.988
REMARK UNBOUND:                -6.712
REMARK SMILES CCCCCCCCCCCCCCCCCCCCCCCCCCCCCC(=O)[O-]
REMARK SMILES IDX 16 1 17 2 18 3 19 4 20 5 21 6 22 7 23 8 24 9 25 10 26 11
REMARK SMILES IDX 27 12 28 13 29 14 30 15 31 16 32 17 15 18 14 19 13 20 12 21
REMARK SMILES IDX 11 22 10 23 9 24 8 25 7 26 6 27 5 28 4 29 3 30 2 31 1 32
REMARK H PARENT
REMARK Flexibility Score: inf
ROOT
ATOM      1  C   UNL     1     143.850  40.709  -8.812  1.00  0.00     0.000 C 
ENDROOT
BRANCH   1   2
ATOM      2  C   UNL     1     143.519  40.842 -10.310  1.00  0.00     0.000 C 
BRANCH   2   3
ATOM      3  C   UNL     1     144.457  40.015 -11.211  1.00  0.00     0.000 C 
BRANCH   3   4
ATOM      4  C   UNL     1     143.758  39.108 -12.245  1.00  0.00     0.000 C 
BRANCH   4   5
ATOM      5  C   UNL     1     142.223  39.145 -12.141  1.00  0.00     0.000 C 
BRANCH   5   6
ATOM      6  C   UNL     1     141.597  37.741 -12.120  1.00  0.00     0.000 C 
BRANCH   6   7
ATOM      7  C   UNL     1     142.106  36.875 -10.954  1.00  0.00     0.000 C 
BRANCH   7   8
ATOM      8  C   UNL     1     141.590  37.372  -9.593  1.00  0.00     0.000 C 
BRANCH   8   9
ATOM      9  C   UNL     1     140.062  37.235  -9.455  1.00  0.00     0.000 C 
BRANCH   9  10
ATOM     10  C   UNL     1     139.415  38.477  -8.823  1.00  0.00     0.000 C 
BRANCH  10  11
ATOM     11  C   UNL     1     140.300  39.730  -8.941  1.00  0.00     0.000 C 
BRANCH  11  12
ATOM     12  C   UNL     1     139.759  40.751  -9.956  1.00  0.00     0.000 C 
BRANCH  12  13
ATOM     13  C   UNL     1     139.718  42.207  -9.451  1.00  0.00     0.006 C 
BRANCH  13  14
ATOM     14  C   UNL     1     139.936  42.364  -7.937  1.00  0.00     0.053 C 
BRANCH  14  15
ATOM     15  C   UNL     1     141.194  43.115  -7.625  1.00  0.00     0.041 C 
ATOM     16  O   UNL     1     141.571  43.254  -6.432  1.00  0.00    -0.550 OA
ATOM     17  O   UNL     1     141.961  43.648  -8.657  1.00  0.00    -0.550 OA
ENDBRANCH  14  15
ENDBRANCH  13  14
ENDBRANCH  12  13
ENDBRANCH  11  12
ENDBRANCH  10  11
ENDBRANCH   9  10
ENDBRANCH   8   9
ENDBRANCH   7   8
ENDBRANCH   6   7
ENDBRANCH   5   6
ENDBRANCH   4   5
ENDBRANCH   3   4
ENDBRANCH   2   3
ENDBRANCH   1   2
BRANCH   1  18
ATOM     18  C   UNL     1     145.046  41.589  -8.392  1.00  0.00     0.000 C 
BRANCH  18  19
ATOM     19  C   UNL     1     145.797  41.082  -7.150  1.00  0.00     0.000 C 
BRANCH  19  20
ATOM     20  C   UNL     1     147.186  40.508  -7.474  1.00  0.00     0.000 C 
BRANCH  20  21
ATOM     21  C   UNL     1     147.562  40.685  -8.954  1.00  0.00     0.000 C 
BRANCH  21  22
ATOM     22  C   UNL     1     147.770  39.338  -9.671  1.00  0.00     0.000 C 
BRANCH  22  23
ATOM     23  C   UNL     1     147.336  38.133  -8.811  1.00  0.00     0.000 C 
BRANCH  23  24
ATOM     24  C   UNL     1     146.090  37.400  -9.336  1.00  0.00    -0.000 C 
BRANCH  24  25
ATOM     25  C   UNL     1     145.025  37.158  -8.250  1.00  0.00    -0.000 C 
BRANCH  25  26
ATOM     26  C   UNL     1     145.578  37.317  -6.821  1.00  0.00    -0.000 C 
BRANCH  26  27
ATOM     27  C   UNL     1     144.530  37.220  -5.691  1.00  0.00    -0.000 C 
BRANCH  27  28
ATOM     28  C   UNL     1     143.907  38.560  -5.250  1.00  0.00    -0.000 C 
BRANCH  28  29
ATOM     29  C   UNL     1     142.599  38.930  -5.974  1.00  0.00    -0.000 C 
BRANCH  29  30
ATOM     30  C   UNL     1     141.541  37.819  -5.869  1.00  0.00    -0.000 C 
BRANCH  30  31
ATOM     31  C   UNL     1     140.363  38.213  -4.964  1.00  0.00    -0.003 C 
ATOM     32  C   UNL     1     139.850  39.628  -5.254  1.00  0.00     0.004 C 
ENDBRANCH  30  31
ENDBRANCH  29  30
ENDBRANCH  28  29
ENDBRANCH  27  28
ENDBRANCH  26  27
ENDBRANCH  25  26
ENDBRANCH  24  25
ENDBRANCH  23  24
ENDBRANCH  22  23
ENDBRANCH  21  22
ENDBRANCH  20  21
ENDBRANCH  19  20
ENDBRANCH  18  19
ENDBRANCH   1  18
TORSDOF 28
ENDMDL
MODEL 4
REMARK VINA RESULT:    -0.935      2.711      5.450
REMARK INTER + INTRA:          -9.176
REMARK INTER:                  -2.548
REMARK INTRA:                  -6.629
REMARK UNBOUND:                -6.712
REMARK SMILES CCCCCCCCCCCCCCCCCCCCCCCCCCCCCC(=O)[O-]
REMARK SMILES IDX 16 1 17 2 18 3 19 4 20 5 21 6 22 7 23 8 24 9 25 10 26 11
REMARK SMILES IDX 27 12 28 13 29 14 30 15 31 16 32 17 15 18 14 19 13 20 12 21
REMARK SMILES IDX 11 22 10 23 9 24 8 25 7 26 6 27 5 28 4 29 3 30 2 31 1 32
REMARK H PARENT
REMARK Flexibility Score: inf
ROOT
ATOM      1  C   UNL     1     144.618  41.824  -9.660  1.00  0.00     0.000 C 
ENDROOT
BRANCH   1   2
ATOM      2  C   UNL     1     144.087  41.207 -10.966  1.00  0.00     0.000 C 
BRANCH   2   3
ATOM      3  C   UNL     1     144.389  39.700 -11.088  1.00  0.00     0.000 C 
BRANCH   3   4
ATOM      4  C   UNL     1     143.505  38.773 -10.229  1.00  0.00     0.000 C 
BRANCH   4   5
ATOM      5  C   UNL     1     143.212  37.422 -10.904  1.00  0.00     0.000 C 
BRANCH   5   6
ATOM      6  C   UNL     1     141.894  37.428 -11.695  1.00  0.00     0.000 C 
BRANCH   6   7
ATOM      7  C   UNL     1     142.109  37.329 -13.216  1.00  0.00     0.000 C 
BRANCH   7   8
ATOM      8  C   UNL     1     142.148  38.711 -13.889  1.00  0.00     0.000 C 
BRANCH   8   9
ATOM      9  C   UNL     1     140.904  39.560 -13.568  1.00  0.00     0.000 C 
BRANCH   9  10
ATOM     10  C   UNL     1     141.237  41.050 -13.392  1.00  0.00     0.000 C 
BRANCH  10  11
ATOM     11  C   UNL     1     140.632  41.644 -12.107  1.00  0.00     0.000 C 
BRANCH  11  12
ATOM     12  C   UNL     1     140.064  40.571 -11.162  1.00  0.00     0.000 C 
BRANCH  12  13
ATOM     13  C   UNL     1     140.536  40.683  -9.698  1.00  0.00     0.006 C 
BRANCH  13  14
ATOM     14  C   UNL     1     139.553  40.107  -8.665  1.00  0.00     0.053 C 
BRANCH  14  15
ATOM     15  C   UNL     1     138.983  41.170  -7.778  1.00  0.00     0.041 C 
ATOM     16  O   UNL     1     139.306  41.222  -6.562  1.00  0.00    -0.550 OA
ATOM     17  O   UNL     1     138.106  42.116  -8.300  1.00  0.00    -0.550 OA
ENDBRANCH  14  15
ENDBRANCH  13  14
ENDBRANCH  12  13
ENDBRANCH  11  12
ENDBRANCH  10  11
ENDBRANCH   9  10
ENDBRANCH   8   9
ENDBRANCH   7   8
ENDBRANCH   6   7
ENDBRANCH   5   6
ENDBRANCH   4   5
ENDBRANCH   3   4
ENDBRANCH   2   3
ENDBRANCH   1   2
BRANCH   1  18
ATOM     18  C   UNL     1     146.062  42.349  -9.798  1.00  0.00     0.000 C 
BRANCH  18  19
ATOM     19  C   UNL     1     147.082  41.636  -8.895  1.00  0.00     0.000 C 
BRANCH  19  20
ATOM     20  C   UNL     1     147.665  40.362  -9.529  1.00  0.00     0.000 C 
BRANCH  20  21
ATOM     21  C   UNL     1     147.785  39.209  -8.520  1.00  0.00     0.000 C 
BRANCH  21  22
ATOM     22  C   UNL     1     146.919  37.997  -8.911  1.00  0.00     0.000 C 
BRANCH  22  23
ATOM     23  C   UNL     1     145.931  37.588  -7.797  1.00  0.00     0.000 C 
BRANCH  23  24
ATOM     24  C   UNL     1     146.554  37.529  -6.392  1.00  0.00    -0.000 C 
BRANCH  24  25
ATOM     25  C   UNL     1     145.711  38.249  -5.323  1.00  0.00    -0.000 C 
BRANCH  25  26
ATOM     26  C   UNL     1     146.004  39.759  -5.244  1.00  0.00    -0.000 C 
BRANCH  26  27
ATOM     27  C   UNL     1     145.131  40.652  -6.151  1.00  0.00    -0.000 C 
BRANCH  27  28
ATOM     28  C   UNL     1     143.627  40.669  -5.813  1.00  0.00    -0.000 C 
BRANCH  28  29
ATOM     29  C   UNL     1     142.732  39.926  -6.821  1.00  0.00    -0.000 C 
BRANCH  29  30
ATOM     30  C   UNL     1     142.036  38.706  -6.193  1.00  0.00    -0.000 C 
BRANCH  30  31
ATOM     31  C   UNL     1     142.381  37.395  -6.919  1.00  0.00    -0.003 C 
ATOM     32  C   UNL     1     141.236  36.901  -7.810  1.00  0.00     0.004 C 
ENDBRANCH  30  31
ENDBRANCH  29  30
ENDBRANCH  28  29
ENDBRANCH  27  28
ENDBRANCH  26  27
ENDBRANCH  25  26
ENDBRANCH  24  25
ENDBRANCH  23  24
ENDBRANCH  22  23
ENDBRANCH  21  22
ENDBRANCH  20  21
ENDBRANCH  19  20
ENDBRANCH  18  19
ENDBRANCH   1  18
TORSDOF 28
ENDMDL
MODEL 5
REMARK VINA RESULT:    -0.904      3.106      5.318
REMARK INTER + INTRA:          -9.095
REMARK INTER:                  -1.975
REMARK INTRA:                  -7.120
REMARK UNBOUND:                -6.712
REMARK SMILES CCCCCCCCCCCCCCCCCCCCCCCCCCCCCC(=O)[O-]
REMARK SMILES IDX 16 1 17 2 18 3 19 4 20 5 21 6 22 7 23 8 24 9 25 10 26 11
REMARK SMILES IDX 27 12 28 13 29 14 30 15 31 16 32 17 15 18 14 19 13 20 12 21
REMARK SMILES IDX 11 22 10 23 9 24 8 25 7 26 6 27 5 28 4 29 3 30 2 31 1 32
REMARK H PARENT
REMARK Flexibility Score: inf
ROOT
ATOM      1  C   UNL     1     141.310  40.930 -10.376  1.00  0.00     0.000 C 
ENDROOT
BRANCH   1   2
ATOM      2  C   UNL     1     140.633  40.014  -9.341  1.00  0.00     0.000 C 
BRANCH   2   3
ATOM      3  C   UNL     1     139.758  40.784  -8.334  1.00  0.00     0.000 C 
BRANCH   3   4
ATOM      4  C   UNL     1     140.347  42.114  -7.820  1.00  0.00     0.000 C 
BRANCH   4   5
ATOM      5  C   UNL     1     140.599  42.117  -6.303  1.00  0.00     0.000 C 
BRANCH   5   6
ATOM      6  C   UNL     1     142.057  42.450  -5.945  1.00  0.00     0.000 C 
BRANCH   6   7
ATOM      7  C   UNL     1     143.011  42.329  -7.146  1.00  0.00     0.000 C 
BRANCH   7   8
ATOM      8  C   UNL     1     144.453  42.011  -6.712  1.00  0.00     0.000 C 
BRANCH   8   9
ATOM      9  C   UNL     1     144.722  40.497  -6.622  1.00  0.00     0.000 C 
BRANCH   9  10
ATOM     10  C   UNL     1     143.904  39.692  -7.643  1.00  0.00     0.000 C 
BRANCH  10  11
ATOM     11  C   UNL     1     143.139  38.522  -6.999  1.00  0.00     0.000 C 
BRANCH  11  12
ATOM     12  C   UNL     1     143.023  38.653  -5.470  1.00  0.00     0.000 C 
BRANCH  12  13
ATOM     13  C   UNL     1     141.591  38.885  -4.948  1.00  0.00     0.006 C 
BRANCH  13  14
ATOM     14  C   UNL     1     140.489  38.223  -5.790  1.00  0.00     0.053 C 
BRANCH  14  15
ATOM     15  C   UNL     1     139.121  38.675  -5.381  1.00  0.00     0.041 C 
ATOM     16  O   UNL     1     138.978  39.478  -4.421  1.00  0.00    -0.550 OA
ATOM     17  O   UNL     1     138.001  38.222  -6.074  1.00  0.00    -0.550 OA
ENDBRANCH  14  15
ENDBRANCH  13  14
ENDBRANCH  12  13
ENDBRANCH  11  12
ENDBRANCH  10  11
ENDBRANCH   9  10
ENDBRANCH   8   9
ENDBRANCH   7   8
ENDBRANCH   6   7
ENDBRANCH   5   6
ENDBRANCH   4   5
ENDBRANCH   3   4
ENDBRANCH   2   3
ENDBRANCH   1   2
BRANCH   1  18
ATOM     18  C   UNL     1     140.794  40.685 -11.810  1.00  0.00     0.000 C 
BRANCH  18  19
ATOM     19  C   UNL     1     141.887  40.728 -12.890  1.00  0.00     0.000 C 
BRANCH  19  20
ATOM     20  C   UNL     1     141.869  39.502 -13.819  1.00  0.00     0.000 C 
BRANCH  20  21
ATOM     21  C   UNL     1     141.368  38.236 -13.107  1.00  0.00     0.000 C 
BRANCH  21  22
ATOM     22  C   UNL     1     142.523  37.349 -12.605  1.00  0.00     0.000 C 
BRANCH  22  23
ATOM     23  C   UNL     1     142.819  37.551 -11.104  1.00  0.00     0.000 C 
BRANCH  23  24
ATOM     24  C   UNL     1     144.229  38.089 -10.806  1.00  0.00    -0.000 C 
BRANCH  24  25
ATOM     25  C   UNL     1     145.020  38.455 -12.075  1.00  0.00    -0.000 C 
BRANCH  25  26
ATOM     26  C   UNL     1     145.556  39.899 -12.053  1.00  0.00    -0.000 C 
BRANCH  26  27
ATOM     27  C   UNL     1     144.989  40.799 -10.934  1.00  0.00    -0.000 C 
BRANCH  27  28
ATOM     28  C   UNL     1     146.040  41.534 -10.079  1.00  0.00    -0.000 C 
BRANCH  28  29
ATOM     29  C   UNL     1     147.435  40.881 -10.073  1.00  0.00    -0.000 C 
BRANCH  29  30
ATOM     30  C   UNL     1     147.745  40.186  -8.736  1.00  0.00    -0.000 C 
BRANCH  30  31
ATOM     31  C   UNL     1     147.468  38.674  -8.782  1.00  0.00    -0.003 C 
ATOM     32  C   UNL     1     148.107  37.999 -10.000  1.00  0.00     0.004 C 
ENDBRANCH  30  31
ENDBRANCH  29  30
ENDBRANCH  28  29
ENDBRANCH  27  28
ENDBRANCH  26  27
ENDBRANCH  25  26
ENDBRANCH  24  25
ENDBRANCH  23  24
ENDBRANCH  22  23
ENDBRANCH  21  22
ENDBRANCH  20  21
ENDBRANCH  19  20
ENDBRANCH  18  19
ENDBRANCH   1  18
TORSDOF 28
ENDMDL
MODEL 6
REMARK VINA RESULT:    -0.900      1.929      5.805
REMARK INTER + INTRA:          -9.085
REMARK INTER:                  -2.544
REMARK INTRA:                  -6.541
REMARK UNBOUND:                -6.712
REMARK SMILES CCCCCCCCCCCCCCCCCCCCCCCCCCCCCC(=O)[O-]
REMARK SMILES IDX 16 1 17 2 18 3 19 4 20 5 21 6 22 7 23 8 24 9 25 10 26 11
REMARK SMILES IDX 27 12 28 13 29 14 30 15 31 16 32 17 15 18 14 19 13 20 12 21
REMARK SMILES IDX 11 22 10 23 9 24 8 25 7 26 6 27 5 28 4 29 3 30 2 31 1 32
REMARK H PARENT
REMARK Flexibility Score: inf
ROOT
ATOM      1  C   UNL     1     142.592  40.879  -9.857  1.00  0.00     0.000 C 
ENDROOT
BRANCH   1   2
ATOM      2  C   UNL     1     143.858  41.507  -9.245  1.00  0.00     0.000 C 
BRANCH   2   3
ATOM      3  C   UNL     1     145.045  41.550 -10.227  1.00  0.00     0.000 C 
BRANCH   3   4
ATOM      4  C   UNL     1     144.685  41.366 -11.715  1.00  0.00     0.000 C 
BRANCH   4   5
ATOM      5  C   UNL     1     145.328  40.117 -12.343  1.00  0.00     0.000 C 
BRANCH   5   6
ATOM      6  C   UNL     1     145.975  39.195 -11.297  1.00  0.00     0.000 C 
BRANCH   6   7
ATOM      7  C   UNL     1     145.665  37.707 -11.537  1.00  0.00     0.000 C 
BRANCH   7   8
ATOM      8  C   UNL     1     145.240  36.986 -10.246  1.00  0.00     0.000 C 
BRANCH   8   9
ATOM      9  C   UNL     1     144.595  37.940  -9.223  1.00  0.00     0.000 C 
BRANCH   9  10
ATOM     10  C   UNL     1     145.135  37.730  -7.801  1.00  0.00     0.000 C 
BRANCH  10  11
ATOM     11  C   UNL     1     145.982  38.917  -7.309  1.00  0.00     0.000 C 
BRANCH  11  12
ATOM     12  C   UNL     1     147.388  38.948  -7.933  1.00  0.00     0.000 C 
BRANCH  12  13
ATOM     13  C   UNL     1     147.909  40.356  -8.284  1.00  0.00     0.006 C 
BRANCH  13  14
ATOM     14  C   UNL     1     148.074  41.296  -7.078  1.00  0.00     0.053 C 
BRANCH  14  15
ATOM     15  C   UNL     1     147.294  42.563  -7.243  1.00  0.00     0.041 C 
ATOM     16  O   UNL     1     146.127  42.656  -6.777  1.00  0.00    -0.550 OA
ATOM     17  O   UNL     1     147.863  43.652  -7.897  1.00  0.00    -0.550 OA
ENDBRANCH  14  15
ENDBRANCH  13  14
ENDBRANCH  12  13
ENDBRANCH  11  12
ENDBRANCH  10  11
ENDBRANCH   9  10
ENDBRANCH   8   9
ENDBRANCH   7   8
ENDBRANCH   6   7
ENDBRANCH   5   6
ENDBRANCH   4   5
ENDBRANCH   3   4
ENDBRANCH   2   3
ENDBRANCH   1   2
BRANCH   1  18
ATOM     18  C   UNL     1     141.492  40.625  -8.804  1.00  0.00     0.000 C 
BRANCH  18  19
ATOM     19  C   UNL     1     140.292  39.818  -9.328  1.00  0.00     0.000 C 
BRANCH  19  20
ATOM     20  C   UNL     1     140.179  38.421  -8.694  1.00  0.00     0.000 C 
BRANCH  20  21
ATOM     21  C   UNL     1     140.081  37.306  -9.747  1.00  0.00     0.000 C 
BRANCH  21  22
ATOM     22  C   UNL     1     141.462  36.877 -10.276  1.00  0.00     0.000 C 
BRANCH  22  23
ATOM     23  C   UNL     1     141.534  36.875 -11.817  1.00  0.00     0.000 C 
BRANCH  23  24
ATOM     24  C   UNL     1     142.092  38.175 -12.424  1.00  0.00    -0.000 C 
BRANCH  24  25
ATOM     25  C   UNL     1     141.001  39.087 -13.013  1.00  0.00    -0.000 C 
BRANCH  25  26
ATOM     26  C   UNL     1     141.514  40.502 -13.344  1.00  0.00    -0.000 C 
BRANCH  26  27
ATOM     27  C   UNL     1     140.611  41.662 -12.870  1.00  0.00    -0.000 C 
BRANCH  27  28
ATOM     28  C   UNL     1     141.339  42.990 -12.578  1.00  0.00    -0.000 C 
BRANCH  28  29
ATOM     29  C   UNL     1     140.708  43.836 -11.457  1.00  0.00    -0.000 C 
BRANCH  29  30
ATOM     30  C   UNL     1     141.731  44.221 -10.374  1.00  0.00    -0.000 C 
BRANCH  30  31
ATOM     31  C   UNL     1     142.857  45.115 -10.921  1.00  0.00    -0.003 C 
ATOM     32  C   UNL     1     143.911  45.445  -9.859  1.00  0.00     0.004 C 
ENDBRANCH  30  31
ENDBRANCH  29  30
ENDBRANCH  28  29
ENDBRANCH  27  28
ENDBRANCH  26  27
ENDBRANCH  25  26
ENDBRANCH  24  25
ENDBRANCH  23  24
ENDBRANCH  22  23
ENDBRANCH  21  22
ENDBRANCH  20  21
ENDBRANCH  19  20
ENDBRANCH  18  19
ENDBRANCH   1  18
TORSDOF 28
ENDMDL
MODEL 7
REMARK VINA RESULT:    -0.899      2.538      5.014
REMARK INTER + INTRA:          -9.083
REMARK INTER:                  -2.675
REMARK INTRA:                  -6.407
REMARK UNBOUND:                -6.712
REMARK SMILES CCCCCCCCCCCCCCCCCCCCCCCCCCCCCC(=O)[O-]
REMARK SMILES IDX 16 1 17 2 18 3 19 4 20 5 21 6 22 7 23 8 24 9 25 10 26 11
REMARK SMILES IDX 27 12 28 13 29 14 30 15 31 16 32 17 15 18 14 19 13 20 12 21
REMARK SMILES IDX 11 22 10 23 9 24 8 25 7 26 6 27 5 28 4 29 3 30 2 31 1 32
REMARK H PARENT
REMARK Flexibility Score: inf
ROOT
ATOM      1  C   UNL     1     142.547  39.360  -9.912  1.00  0.00     0.000 C 
ENDROOT
BRANCH   1   2
ATOM      2  C   UNL     1     141.650  38.129 -10.133  1.00  0.00     0.000 C 
BRANCH   2   3
ATOM      3  C   UNL     1     141.395  37.828 -11.623  1.00  0.00     0.000 C 
BRANCH   3   4
ATOM      4  C   UNL     1     142.428  36.906 -12.303  1.00  0.00     0.000 C 
BRANCH   4   5
ATOM      5  C   UNL     1     142.702  37.283 -13.769  1.00  0.00     0.000 C 
BRANCH   5   6
ATOM      6  C   UNL     1     144.203  37.365 -14.089  1.00  0.00     0.000 C 
BRANCH   6   7
ATOM      7  C   UNL     1     145.008  38.103 -13.003  1.00  0.00     0.000 C 
BRANCH   7   8
ATOM      8  C   UNL     1     145.381  39.533 -13.429  1.00  0.00     0.000 C 
BRANCH   8   9
ATOM      9  C   UNL     1     144.462  40.596 -12.799  1.00  0.00     0.000 C 
BRANCH   9  10
ATOM     10  C   UNL     1     143.567  41.289 -13.837  1.00  0.00     0.000 C 
BRANCH  10  11
ATOM     11  C   UNL     1     142.096  40.846 -13.740  1.00  0.00     0.000 C 
BRANCH  11  12
ATOM     12  C   UNL     1     141.338  41.536 -12.593  1.00  0.00     0.000 C 
BRANCH  12  13
ATOM     13  C   UNL     1     139.893  41.041 -12.382  1.00  0.00     0.006 C 
BRANCH  13  14
ATOM     14  C   UNL     1     139.110  41.799 -11.297  1.00  0.00     0.053 C 
BRANCH  14  15
ATOM     15  C   UNL     1     139.400  41.274  -9.925  1.00  0.00     0.041 C 
ATOM     16  O   UNL     1     138.885  40.192  -9.537  1.00  0.00    -0.550 OA
ATOM     17  O   UNL     1     140.256  41.973  -9.078  1.00  0.00    -0.550 OA
ENDBRANCH  14  15
ENDBRANCH  13  14
ENDBRANCH  12  13
ENDBRANCH  11  12
ENDBRANCH  10  11
ENDBRANCH   9  10
ENDBRANCH   8   9
ENDBRANCH   7   8
ENDBRANCH   6   7
ENDBRANCH   5   6
ENDBRANCH   4   5
ENDBRANCH   3   4
ENDBRANCH   2   3
ENDBRANCH   1   2
BRANCH   1  18
ATOM     18  C   UNL     1     143.995  38.977  -9.540  1.00  0.00     0.000 C 
BRANCH  18  19
ATOM     19  C   UNL     1     144.102  37.877  -8.471  1.00  0.00     0.000 C 
BRANCH  19  20
ATOM     20  C   UNL     1     145.494  37.224  -8.412  1.00  0.00     0.000 C 
BRANCH  20  21
ATOM     21  C   UNL     1     146.221  37.273  -9.765  1.00  0.00     0.000 C 
BRANCH  21  22
ATOM     22  C   UNL     1     147.611  37.928  -9.660  1.00  0.00     0.000 C 
BRANCH  22  23
ATOM     23  C   UNL     1     147.755  39.167 -10.569  1.00  0.00     0.000 C 
BRANCH  23  24
ATOM     24  C   UNL     1     147.360  40.493  -9.895  1.00  0.00    -0.000 C 
BRANCH  24  25
ATOM     25  C   UNL     1     147.710  40.540  -8.397  1.00  0.00    -0.000 C 
BRANCH  25  26
ATOM     26  C   UNL     1     146.496  40.868  -7.506  1.00  0.00    -0.000 C 
BRANCH  26  27
ATOM     27  C   UNL     1     146.336  39.981  -6.253  1.00  0.00    -0.000 C 
BRANCH  27  28
ATOM     28  C   UNL     1     145.053  40.221  -5.431  1.00  0.00    -0.000 C 
BRANCH  28  29
ATOM     29  C   UNL     1     144.185  41.394  -5.923  1.00  0.00    -0.000 C 
BRANCH  29  30
ATOM     30  C   UNL     1     142.698  41.201  -5.578  1.00  0.00    -0.000 C 
BRANCH  30  31
ATOM     31  C   UNL     1     142.000  40.209  -6.522  1.00  0.00    -0.003 C 
ATOM     32  C   UNL     1     140.603  39.817  -6.030  1.00  0.00     0.004 C 
ENDBRANCH  30  31
ENDBRANCH  29  30
ENDBRANCH  28  29
ENDBRANCH  27  28
ENDBRANCH  26  27
ENDBRANCH  25  26
ENDBRANCH  24  25
ENDBRANCH  23  24
ENDBRANCH  22  23
ENDBRANCH  21  22
ENDBRANCH  20  21
ENDBRANCH  19  20
ENDBRANCH  18  19
ENDBRANCH   1  18
TORSDOF 28
ENDMDL
MODEL 8
REMARK VINA RESULT:    -0.878      2.880      6.293
REMARK INTER + INTRA:          -9.026
REMARK INTER:                  -2.517
REMARK INTRA:                  -6.508
REMARK UNBOUND:                -6.712
REMARK SMILES CCCCCCCCCCCCCCCCCCCCCCCCCCCCCC(=O)[O-]
REMARK SMILES IDX 16 1 17 2 18 3 19 4 20 5 21 6 22 7 23 8 24 9 25 10 26 11
REMARK SMILES IDX 27 12 28 13 29 14 30 15 31 16 32 17 15 18 14 19 13 20 12 21
REMARK SMILES IDX 11 22 10 23 9 24 8 25 7 26 6 27 5 28 4 29 3 30 2 31 1 32
REMARK H PARENT
REMARK Flexibility Score: inf
ROOT
ATOM      1  C   UNL     1     145.927  41.678  -8.828  1.00  0.00     0.000 C 
ENDROOT
BRANCH   1   2
ATOM      2  C   UNL     1     147.058  40.785  -8.285  1.00  0.00     0.000 C 
BRANCH   2   3
ATOM      3  C   UNL     1     147.767  39.972  -9.386  1.00  0.00     0.000 C 
BRANCH   3   4
ATOM      4  C   UNL     1     147.633  38.439  -9.272  1.00  0.00     0.000 C 
BRANCH   4   5
ATOM      5  C   UNL     1     146.818  37.994  -8.045  1.00  0.00     0.000 C 
BRANCH   5   6
ATOM      6  C   UNL     1     145.516  37.271  -8.429  1.00  0.00     0.000 C 
BRANCH   6   7
ATOM      7  C   UNL     1     144.633  36.943  -7.213  1.00  0.00     0.000 C 
BRANCH   7   8
ATOM      8  C   UNL     1     145.124  37.641  -5.933  1.00  0.00     0.000 C 
BRANCH   8   9
ATOM      9  C   UNL     1     144.075  38.604  -5.345  1.00  0.00     0.000 C 
BRANCH   9  10
ATOM     10  C   UNL     1     144.008  39.936  -6.106  1.00  0.00     0.000 C 
BRANCH  10  11
ATOM     11  C   UNL     1     142.655  40.149  -6.809  1.00  0.00     0.000 C 
BRANCH  11  12
ATOM     12  C   UNL     1     142.729  39.921  -8.329  1.00  0.00     0.000 C 
BRANCH  12  13
ATOM     13  C   UNL     1     141.525  39.167  -8.929  1.00  0.00     0.006 C 
BRANCH  13  14
ATOM     14  C   UNL     1     141.221  37.815  -8.261  1.00  0.00     0.053 C 
BRANCH  14  15
ATOM     15  C   UNL     1     139.784  37.697  -7.860  1.00  0.00     0.041 C 
ATOM     16  O   UNL     1     139.358  38.300  -6.839  1.00  0.00    -0.550 OA
ATOM     17  O   UNL     1     138.907  36.934  -8.625  1.00  0.00    -0.550 OA
ENDBRANCH  14  15
ENDBRANCH  13  14
ENDBRANCH  12  13
ENDBRANCH  11  12
ENDBRANCH  10  11
ENDBRANCH   9  10
ENDBRANCH   8   9
ENDBRANCH   7   8
ENDBRANCH   6   7
ENDBRANCH   5   6
ENDBRANCH   4   5
ENDBRANCH   3   4
ENDBRANCH   2   3
ENDBRANCH   1   2
BRANCH   1  18
ATOM     18  C   UNL     1     146.156  42.092 -10.298  1.00  0.00     0.000 C 
BRANCH  18  19
ATOM     19  C   UNL     1     145.044  41.644 -11.260  1.00  0.00     0.000 C 
BRANCH  19  20
ATOM     20  C   UNL     1     144.752  40.136 -11.188  1.00  0.00     0.000 C 
BRANCH  20  21
ATOM     21  C   UNL     1     145.318  39.371 -12.395  1.00  0.00     0.000 C 
BRANCH  21  22
ATOM     22  C   UNL     1     144.889  37.893 -12.406  1.00  0.00     0.000 C 
BRANCH  22  23
ATOM     23  C   UNL     1     143.847  37.567 -11.315  1.00  0.00     0.000 C 
BRANCH  23  24
ATOM     24  C   UNL     1     142.578  36.875 -11.842  1.00  0.00    -0.000 C 
BRANCH  24  25
ATOM     25  C   UNL     1     141.896  37.647 -12.987  1.00  0.00    -0.000 C 
BRANCH  25  26
ATOM     26  C   UNL     1     141.235  38.958 -12.517  1.00  0.00    -0.000 C 
BRANCH  26  27
ATOM     27  C   UNL     1     141.042  40.031 -13.611  1.00  0.00    -0.000 C 
BRANCH  27  28
ATOM     28  C   UNL     1     142.245  40.969 -13.837  1.00  0.00    -0.000 C 
BRANCH  28  29
ATOM     29  C   UNL     1     142.036  42.413 -13.345  1.00  0.00    -0.000 C 
BRANCH  29  30
ATOM     30  C   UNL     1     140.948  42.507 -12.262  1.00  0.00    -0.000 C 
BRANCH  30  31
ATOM     31  C   UNL     1     141.523  42.396 -10.841  1.00  0.00    -0.003 C 
ATOM     32  C   UNL     1     140.512  42.812  -9.766  1.00  0.00     0.004 C 
ENDBRANCH  30  31
ENDBRANCH  29  30
ENDBRANCH  28  29
ENDBRANCH  27  28
ENDBRANCH  26  27
ENDBRANCH  25  26
ENDBRANCH  24  25
ENDBRANCH  23  24
ENDBRANCH  22  23
ENDBRANCH  21  22
ENDBRANCH  20  21
ENDBRANCH  19  20
ENDBRANCH  18  19
ENDBRANCH   1  18
TORSDOF 28
ENDMDL
MODEL 9
REMARK VINA RESULT:    -0.872      1.618      4.788
REMARK INTER + INTRA:          -9.011
REMARK INTER:                  -2.679
REMARK INTRA:                  -6.332
REMARK UNBOUND:                -6.712
REMARK SMILES CCCCCCCCCCCCCCCCCCCCCCCCCCCCCC(=O)[O-]
REMARK SMILES IDX 16 1 17 2 18 3 19 4 20 5 21 6 22 7 23 8 24 9 25 10 26 11
REMARK SMILES IDX 27 12 28 13 29 14 30 15 31 16 32 17 15 18 14 19 13 20 12 21
REMARK SMILES IDX 11 22 10 23 9 24 8 25 7 26 6 27 5 28 4 29 3 30 2 31 1 32
REMARK H PARENT
REMARK Flexibility Score: inf
ROOT
ATOM      1  C   UNL     1     142.416  41.167 -13.298  1.00  0.00     0.000 C 
ENDROOT
BRANCH   1   2
ATOM      2  C   UNL     1     142.990  41.190 -11.870  1.00  0.00     0.000 C 
BRANCH   2   3
ATOM      3  C   UNL     1     144.357  41.896 -11.779  1.00  0.00     0.000 C 
BRANCH   3   4
ATOM      4  C   UNL     1     145.484  41.082 -11.112  1.00  0.00     0.000 C 
BRANCH   4   5
ATOM      5  C   UNL     1     146.568  40.625 -12.104  1.00  0.00     0.000 C 
BRANCH   5   6
ATOM      6  C   UNL     1     146.579  39.102 -12.311  1.00  0.00     0.000 C 
BRANCH   6   7
ATOM      7  C   UNL     1     145.444  38.387 -11.555  1.00  0.00     0.000 C 
BRANCH   7   8
ATOM      8  C   UNL     1     145.955  37.183 -10.745  1.00  0.00     0.000 C 
BRANCH   8   9
ATOM      9  C   UNL     1     146.259  37.543  -9.279  1.00  0.00     0.000 C 
BRANCH   9  10
ATOM     10  C   UNL     1     147.691  38.066  -9.087  1.00  0.00     0.000 C 
BRANCH  10  11
ATOM     11  C   UNL     1     147.740  39.368  -8.268  1.00  0.00     0.000 C 
BRANCH  11  12
ATOM     12  C   UNL     1     146.357  39.805  -7.756  1.00  0.00     0.000 C 
BRANCH  12  13
ATOM     13  C   UNL     1     146.111  39.548  -6.256  1.00  0.00     0.006 C 
BRANCH  13  14
ATOM     14  C   UNL     1     146.064  40.818  -5.390  1.00  0.00     0.053 C 
BRANCH  14  15
ATOM     15  C   UNL     1     147.434  41.316  -5.047  1.00  0.00     0.041 C 
ATOM     16  O   UNL     1     148.124  41.921  -5.910  1.00  0.00    -0.550 OA
ATOM     17  O   UNL     1     147.945  41.126  -3.766  1.00  0.00    -0.550 OA
ENDBRANCH  14  15
ENDBRANCH  13  14
ENDBRANCH  12  13
ENDBRANCH  11  12
ENDBRANCH  10  11
ENDBRANCH   9  10
ENDBRANCH   8   9
ENDBRANCH   7   8
ENDBRANCH   6   7
ENDBRANCH   5   6
ENDBRANCH   4   5
ENDBRANCH   3   4
ENDBRANCH   2   3
ENDBRANCH   1   2
BRANCH   1  18
ATOM     18  C   UNL     1     142.366  39.743 -13.892  1.00  0.00     0.000 C 
BRANCH  18  19
ATOM     19  C   UNL     1     141.387  38.796 -13.179  1.00  0.00     0.000 C 
BRANCH  19  20
ATOM     20  C   UNL     1     142.062  37.527 -12.631  1.00  0.00     0.000 C 
BRANCH  20  21
ATOM     21  C   UNL     1     141.367  36.992 -11.370  1.00  0.00     0.000 C 
BRANCH  21  22
ATOM     22  C   UNL     1     142.168  37.288 -10.089  1.00  0.00     0.000 C 
BRANCH  22  23
ATOM     23  C   UNL     1     141.900  38.703  -9.533  1.00  0.00     0.000 C 
BRANCH  23  24
ATOM     24  C   UNL     1     142.997  39.229  -8.591  1.00  0.00    -0.000 C 
BRANCH  24  25
ATOM     25  C   UNL     1     142.459  39.665  -7.216  1.00  0.00    -0.000 C 
BRANCH  25  26
ATOM     26  C   UNL     1     142.531  41.188  -6.998  1.00  0.00    -0.000 C 
BRANCH  26  27
ATOM     27  C   UNL     1     143.289  41.978  -8.087  1.00  0.00    -0.000 C 
BRANCH  27  28
ATOM     28  C   UNL     1     144.200  43.110  -7.571  1.00  0.00    -0.000 C 
BRANCH  28  29
ATOM     29  C   UNL     1     145.605  43.143  -8.200  1.00  0.00    -0.000 C 
BRANCH  29  30
ATOM     30  C   UNL     1     145.743  44.255  -9.254  1.00  0.00    -0.000 C 
BRANCH  30  31
ATOM     31  C   UNL     1     147.208  44.516  -9.643  1.00  0.00    -0.003 C 
ATOM     32  C   UNL     1     148.103  43.295  -9.406  1.00  0.00     0.004 C 
ENDBRANCH  30  31
ENDBRANCH  29  30
ENDBRANCH  28  29
ENDBRANCH  27  28
ENDBRANCH  26  27
ENDBRANCH  25  26
ENDBRANCH  24  25
ENDBRANCH  23  24
ENDBRANCH  22  23
ENDBRANCH  21  22
ENDBRANCH  20  21
ENDBRANCH  19  20
ENDBRANCH  18  19
ENDBRANCH   1  18
TORSDOF 28
ENDMDL
