MODEL 1
REMARK VINA RESULT:    -3.897      0.000      0.000
REMARK INTER + INTRA:          -4.142
REMARK INTER:                  -4.125
REMARK INTRA:                  -0.017
REMARK UNBOUND:                -0.017
REMARK SMILES O=C([O-])c1cccnc1
REMARK SMILES IDX 4 1 5 2 9 3 6 4 8 5 7 6 2 7 1 8 3 9
REMARK H PARENT
REMARK Flexibility Score: inf
ROOT
ATOM      1  C   UNL     1      -2.803  37.147  17.359  1.00  0.00     0.016 A 
ATOM      2  C   UNL     1      -3.915  36.642  18.055  1.00  0.00     0.013 A 
ATOM      3  C   UNL     1      -1.769  37.746  18.097  1.00  0.00     0.120 A 
ATOM      4  C   UNL     1      -3.974  36.741  19.447  1.00  0.00     0.021 A 
ATOM      5  N   UNL     1      -1.852  37.830  19.451  1.00  0.00    -0.264 NA
ATOM      6  C   UNL     1      -2.922  37.345  20.135  1.00  0.00     0.111 A 
ENDROOT
BRANCH   1   7
ATOM      7  C   UNL     1      -2.721  37.051  15.885  1.00  0.00     0.073 C 
ATOM      8  O   UNL     1      -1.804  36.384  15.337  1.00  0.00    -0.545 OA
ATOM      9  O   UNL     1      -3.658  37.695  15.085  1.00  0.00    -0.545 OA
ENDBRANCH   1   7
TORSDOF 1
ENDMDL
MODEL 2
REMARK VINA RESULT:    -3.831      0.879      1.622
REMARK INTER + INTRA:          -4.072
REMARK INTER:                  -4.053
REMARK INTRA:                  -0.019
REMARK UNBOUND:                -0.017
REMARK SMILES O=C([O-])c1cccnc1
REMARK SMILES IDX 4 1 5 2 9 3 6 4 8 5 7 6 2 7 1 8 3 9
REMARK H PARENT
REMARK Flexibility Score: inf
ROOT
ATOM      1  C   UNL     1      -2.681  37.159  17.186  1.00  0.00     0.016 A 
ATOM      2  C   UNL     1      -1.553  37.715  17.814  1.00  0.00     0.013 A 
ATOM      3  C   UNL     1      -3.770  36.776  17.987  1.00  0.00     0.120 A 
ATOM      4  C   UNL     1      -1.531  37.875  19.201  1.00  0.00     0.021 A 
ATOM      5  N   UNL     1      -3.722  36.942  19.336  1.00  0.00    -0.264 NA
ATOM      6  C   UNL     1      -2.637  37.479  19.953  1.00  0.00     0.111 A 
ENDROOT
BRANCH   1   7
ATOM      7  C   UNL     1      -2.725  36.981  15.719  1.00  0.00     0.073 C 
ATOM      8  O   UNL     1      -1.814  36.350  15.122  1.00  0.00    -0.545 OA
ATOM      9  O   UNL     1      -3.777  37.509  14.977  1.00  0.00    -0.545 OA
ENDBRANCH   1   7
TORSDOF 1
ENDMDL
MODEL 3
REMARK VINA RESULT:    -3.788      1.285      1.769
REMARK INTER + INTRA:          -4.027
REMARK INTER:                  -4.011
REMARK INTRA:                  -0.016
REMARK UNBOUND:                -0.017
REMARK SMILES O=C([O-])c1cccnc1
REMARK SMILES IDX 4 1 5 2 9 3 6 4 8 5 7 6 2 7 1 8 3 9
REMARK H PARENT
REMARK Flexibility Score: inf
ROOT
ATOM      1  C   UNL     1      -3.257  36.762  17.460  1.00  0.00     0.016 A 
ATOM      2  C   UNL     1      -2.655  37.568  18.442  1.00  0.00     0.013 A 
ATOM      3  C   UNL     1      -4.222  35.825  17.865  1.00  0.00     0.120 A 
ATOM      4  C   UNL     1      -3.018  37.427  19.783  1.00  0.00     0.021 A 
ATOM      5  N   UNL     1      -4.556  35.708  19.178  1.00  0.00    -0.264 NA
ATOM      6  C   UNL     1      -3.981  36.481  20.135  1.00  0.00     0.111 A 
ENDROOT
BRANCH   1   7
ATOM      7  C   UNL     1      -2.888  36.896  16.034  1.00  0.00     0.073 C 
ATOM      8  O   UNL     1      -1.805  36.417  15.605  1.00  0.00    -0.545 OA
ATOM      9  O   UNL     1      -3.734  37.552  15.147  1.00  0.00    -0.545 OA
ENDBRANCH   1   7
TORSDOF 1
ENDMDL
MODEL 4
REMARK VINA RESULT:    -3.755      0.922      1.468
REMARK INTER + INTRA:          -3.992
REMARK INTER:                  -3.976
REMARK INTRA:                  -0.016
REMARK UNBOUND:                -0.017
REMARK SMILES O=C([O-])c1cccnc1
REMARK SMILES IDX 4 1 5 2 9 3 6 4 8 5 7 6 2 7 1 8 3 9
REMARK H PARENT
REMARK Flexibility Score: inf
ROOT
ATOM      1  C   UNL     1      -3.301  36.764  17.551  1.00  0.00     0.016 A 
ATOM      2  C   UNL     1      -4.266  35.797  17.880  1.00  0.00     0.013 A 
ATOM      3  C   UNL     1      -2.752  37.538  18.586  1.00  0.00     0.120 A 
ATOM      4  C   UNL     1      -4.658  35.622  19.209  1.00  0.00     0.021 A 
ATOM      5  N   UNL     1      -3.151  37.348  19.872  1.00  0.00    -0.264 NA
ATOM      6  C   UNL     1      -4.082  36.415  20.202  1.00  0.00     0.111 A 
ENDROOT
BRANCH   1   7
ATOM      7  C   UNL     1      -2.872  36.965  16.150  1.00  0.00     0.073 C 
ATOM      8  O   UNL     1      -3.560  37.668  15.364  1.00  0.00    -0.545 OA
ATOM      9  O   UNL     1      -1.700  36.380  15.683  1.00  0.00    -0.545 OA
ENDBRANCH   1   7
TORSDOF 1
ENDMDL
MODEL 5
REMARK VINA RESULT:    -3.709      2.839      3.723
REMARK INTER + INTRA:          -3.944
REMARK INTER:                  -3.927
REMARK INTRA:                  -0.017
REMARK UNBOUND:                -0.017
REMARK SMILES O=C([O-])c1cccnc1
REMARK SMILES IDX 4 1 5 2 9 3 6 4 8 5 7 6 2 7 1 8 3 9
REMARK H PARENT
REMARK Flexibility Score: inf
ROOT
ATOM      1  C   UNL     1      -3.623  36.743  18.497  1.00  0.00     0.016 A 
ATOM      2  C   UNL     1      -4.017  35.986  17.381  1.00  0.00     0.013 A 
ATOM      3  C   UNL     1      -2.447  37.505  18.406  1.00  0.00     0.120 A 
ATOM      4  C   UNL     1      -3.246  36.000  16.217  1.00  0.00     0.021 A 
ATOM      5  N   UNL     1      -1.714  37.501  17.260  1.00  0.00    -0.264 NA
ATOM      6  C   UNL     1      -2.085  36.773  16.175  1.00  0.00     0.111 A 
ENDROOT
BRANCH   1   7
ATOM      7  C   UNL     1      -4.427  36.742  19.739  1.00  0.00     0.073 C 
ATOM      8  O   UNL     1      -5.124  37.742  20.052  1.00  0.00    -0.545 OA
ATOM      9  O   UNL     1      -4.424  35.633  20.578  1.00  0.00    -0.545 OA
ENDBRANCH   1   7
TORSDOF 1
ENDMDL
MODEL 6
REMARK VINA RESULT:    -3.529      2.850      3.597
REMARK INTER + INTRA:          -3.753
REMARK INTER:                  -3.735
REMARK INTRA:                  -0.018
REMARK UNBOUND:                -0.017
REMARK SMILES O=C([O-])c1cccnc1
REMARK SMILES IDX 4 1 5 2 9 3 6 4 8 5 7 6 2 7 1 8 3 9
REMARK H PARENT
REMARK Flexibility Score: inf
ROOT
ATOM      1  C   UNL     1      -3.476  37.149  19.090  1.00  0.00     0.016 A 
ATOM      2  C   UNL     1      -3.628  36.774  17.744  1.00  0.00     0.013 A 
ATOM      3  C   UNL     1      -2.247  37.696  19.496  1.00  0.00     0.120 A 
ATOM      4  C   UNL     1      -2.573  36.946  16.845  1.00  0.00     0.021 A 
ATOM      5  N   UNL     1      -1.236  37.853  18.600  1.00  0.00    -0.264 NA
ATOM      6  C   UNL     1      -1.372  37.493  17.297  1.00  0.00     0.111 A 
ENDROOT
BRANCH   1   7
ATOM      7  C   UNL     1      -4.580  36.976  20.058  1.00  0.00     0.073 C 
ATOM      8  O   UNL     1      -5.041  35.830  20.306  1.00  0.00    -0.545 OA
ATOM      9  O   UNL     1      -5.125  38.077  20.709  1.00  0.00    -0.545 OA
ENDBRANCH   1   7
TORSDOF 1
ENDMDL
MODEL 7
REMARK VINA RESULT:    -3.367      2.711      3.952
REMARK INTER + INTRA:          -3.582
REMARK INTER:                  -3.563
REMARK INTRA:                  -0.019
REMARK UNBOUND:                -0.017
REMARK SMILES O=C([O-])c1cccnc1
REMARK SMILES IDX 4 1 5 2 9 3 6 4 8 5 7 6 2 7 1 8 3 9
REMARK H PARENT
REMARK Flexibility Score: inf
ROOT
ATOM      1  C   UNL     1      -2.657  37.225  16.734  1.00  0.00     0.016 A 
ATOM      2  C   UNL     1      -3.654  37.798  15.926  1.00  0.00     0.013 A 
ATOM      3  C   UNL     1      -1.727  36.359  16.136  1.00  0.00     0.120 A 
ATOM      4  C   UNL     1      -3.704  37.503  14.562  1.00  0.00     0.021 A 
ATOM      5  N   UNL     1      -1.799  36.089  14.805  1.00  0.00    -0.264 NA
ATOM      6  C   UNL     1      -2.758  36.638  14.014  1.00  0.00     0.111 A 
ENDROOT
BRANCH   1   7
ATOM      7  C   UNL     1      -2.586  37.524  18.181  1.00  0.00     0.073 C 
ATOM      8  O   UNL     1      -3.608  37.416  18.909  1.00  0.00    -0.545 OA
ATOM      9  O   UNL     1      -1.387  37.928  18.758  1.00  0.00    -0.545 OA
ENDBRANCH   1   7
TORSDOF 1
ENDMDL
MODEL 8
REMARK VINA RESULT:    -3.262      3.049      3.896
REMARK INTER + INTRA:          -3.470
REMARK INTER:                  -3.453
REMARK INTRA:                  -0.017
REMARK UNBOUND:                -0.017
REMARK SMILES O=C([O-])c1cccnc1
REMARK SMILES IDX 4 1 5 2 9 3 6 4 8 5 7 6 2 7 1 8 3 9
REMARK H PARENT
REMARK Flexibility Score: inf
ROOT
ATOM      1  C   UNL     1      -3.628  36.737  18.528  1.00  0.00     0.016 A 
ATOM      2  C   UNL     1      -2.454  37.505  18.448  1.00  0.00     0.013 A 
ATOM      3  C   UNL     1      -4.010  35.982  17.407  1.00  0.00     0.120 A 
ATOM      4  C   UNL     1      -1.697  37.507  17.275  1.00  0.00     0.021 A 
ATOM      5  N   UNL     1      -3.254  36.002  16.276  1.00  0.00    -0.264 NA
ATOM      6  C   UNL     1      -2.118  36.741  16.188  1.00  0.00     0.111 A 
ENDROOT
BRANCH   1   7
ATOM      7  C   UNL     1      -4.444  36.720  19.762  1.00  0.00     0.073 C 
ATOM      8  O   UNL     1      -4.530  35.675  20.459  1.00  0.00    -0.545 OA
ATOM      9  O   UNL     1      -5.125  37.861  20.171  1.00  0.00    -0.545 OA
ENDBRANCH   1   7
TORSDOF 1
ENDMDL
MODEL 9
REMARK VINA RESULT:    -2.013      2.563      3.207
REMARK INTER + INTRA:          -2.148
REMARK INTER:                  -2.129
REMARK INTRA:                  -0.019
REMARK UNBOUND:                -0.017
REMARK SMILES O=C([O-])c1cccnc1
REMARK SMILES IDX 4 1 5 2 9 3 6 4 8 5 7 6 2 7 1 8 3 9
REMARK H PARENT
REMARK Flexibility Score: inf
ROOT
ATOM      1  C   UNL     1      -4.166  36.846  19.744  1.00  0.00     0.016 A 
ATOM      2  C   UNL     1      -4.617  38.054  20.301  1.00  0.00     0.013 A 
ATOM      3  C   UNL     1      -4.211  35.687  20.536  1.00  0.00     0.120 A 
ATOM      4  C   UNL     1      -5.094  38.086  21.613  1.00  0.00     0.021 A 
ATOM      5  N   UNL     1      -4.680  35.745  21.811  1.00  0.00    -0.264 NA
ATOM      6  C   UNL     1      -5.118  36.908  22.360  1.00  0.00     0.111 A 
ENDROOT
BRANCH   1   7
ATOM      7  C   UNL     1      -3.658  36.791  18.356  1.00  0.00     0.073 C 
ATOM      8  O   UNL     1      -2.758  37.583  17.971  1.00  0.00    -0.545 OA
ATOM      9  O   UNL     1      -4.166  35.860  17.456  1.00  0.00    -0.545 OA
ENDBRANCH   1   7
TORSDOF 1
ENDMDL
