MODEL 1
REMARK VINA RESULT:    -4.120      0.000      0.000
REMARK INTER + INTRA:          -6.441
REMARK INTER:                  -6.048
REMARK INTRA:                  -0.394
REMARK UNBOUND:                -0.394
REMARK SMILES O=C([O-])CCCCCCCC(=O)[O-]
REMARK SMILES IDX 7 1 6 2 5 3 4 4 2 5 1 6 3 7 8 8 9 9 10 10 11 11 12 12 13 13
REMARK H PARENT
REMARK Flexibility Score: inf
ROOT
ATOM      1  C   UNL     1      15.708  28.721  55.424  1.00  0.00     0.000 C 
ENDROOT
BRANCH   1   2
ATOM      2  C   UNL     1      15.863  27.214  55.185  1.00  0.00     0.000 C 
BRANCH   2   3
ATOM      3  C   UNL     1      16.818  26.939  54.013  1.00  0.00     0.006 C 
BRANCH   3   4
ATOM      4  C   UNL     1      16.855  25.454  53.631  1.00  0.00     0.053 C 
BRANCH   4   5
ATOM      5  C   UNL     1      15.708  25.081  52.743  1.00  0.00     0.041 C 
ATOM      6  O   UNL     1      15.365  23.875  52.621  1.00  0.00    -0.550 OA
ATOM      7  O   UNL     1      15.038  26.062  52.024  1.00  0.00    -0.550 OA
ENDBRANCH   4   5
ENDBRANCH   3   4
ENDBRANCH   2   3
ENDBRANCH   1   2
BRANCH   1   8
ATOM      8  C   UNL     1      16.870  29.500  54.797  1.00  0.00     0.000 C 
BRANCH   8   9
ATOM      9  C   UNL     1      17.255  30.707  55.661  1.00  0.00     0.006 C 
BRANCH   9  10
ATOM     10  C   UNL     1      16.475  30.710  56.978  1.00  0.00     0.053 C 
BRANCH  10  11
ATOM     11  C   UNL     1      15.750  32.007  57.155  1.00  0.00     0.041 C 
ATOM     12  O   UNL     1      16.387  33.057  57.432  1.00  0.00    -0.550 OA
ATOM     13  O   UNL     1      14.375  32.068  56.963  1.00  0.00    -0.550 OA
ENDBRANCH  10  11
ENDBRANCH   9  10
ENDBRANCH   8   9
ENDBRANCH   1   8
TORSDOF 8
ENDMDL
MODEL 2
REMARK VINA RESULT:    -4.119      1.120      6.878
REMARK INTER + INTRA:          -6.439
REMARK INTER:                  -6.066
REMARK INTRA:                  -0.373
REMARK UNBOUND:                -0.394
REMARK SMILES O=C([O-])CCCCCCCC(=O)[O-]
REMARK SMILES IDX 7 1 6 2 5 3 4 4 2 5 1 6 3 7 8 8 9 9 10 10 11 11 12 12 13 13
REMARK H PARENT
REMARK Flexibility Score: inf
ROOT
ATOM      1  C   UNL     1      16.785  28.421  54.411  1.00  0.00     0.000 C 
ENDROOT
BRANCH   1   2
ATOM      2  C   UNL     1      16.321  29.836  54.778  1.00  0.00     0.000 C 
BRANCH   2   3
ATOM      3  C   UNL     1      15.891  29.908  56.251  1.00  0.00     0.006 C 
BRANCH   3   4
ATOM      4  C   UNL     1      16.569  31.065  56.997  1.00  0.00     0.053 C 
BRANCH   4   5
ATOM      5  C   UNL     1      15.630  32.214  57.209  1.00  0.00     0.041 C 
ATOM      6  O   UNL     1      14.400  32.081  56.972  1.00  0.00    -0.550 OA
ATOM      7  O   UNL     1      16.119  33.441  57.637  1.00  0.00    -0.550 OA
ENDBRANCH   4   5
ENDBRANCH   3   4
ENDBRANCH   2   3
ENDBRANCH   1   2
BRANCH   1   8
ATOM      8  C   UNL     1      16.068  27.368  55.265  1.00  0.00     0.000 C 
BRANCH   8   9
ATOM      9  C   UNL     1      15.515  26.235  54.394  1.00  0.00     0.006 C 
BRANCH   9  10
ATOM     10  C   UNL     1      15.217  26.728  52.975  1.00  0.00     0.053 C 
BRANCH  10  11
ATOM     11  C   UNL     1      14.418  25.711  52.224  1.00  0.00     0.041 C 
ATOM     12  O   UNL     1      13.560  26.078  51.379  1.00  0.00    -0.550 OA
ATOM     13  O   UNL     1      14.656  24.356  52.420  1.00  0.00    -0.550 OA
ENDBRANCH  10  11
ENDBRANCH   9  10
ENDBRANCH   8   9
ENDBRANCH   1   8
TORSDOF 8
ENDMDL
MODEL 3
REMARK VINA RESULT:    -3.918      1.878      3.127
REMARK INTER + INTRA:          -6.144
REMARK INTER:                  -5.727
REMARK INTRA:                  -0.417
REMARK UNBOUND:                -0.394
REMARK SMILES O=C([O-])CCCCCCCC(=O)[O-]
REMARK SMILES IDX 7 1 6 2 5 3 4 4 2 5 1 6 3 7 8 8 9 9 10 10 11 11 12 12 13 13
REMARK H PARENT
REMARK Flexibility Score: inf
ROOT
ATOM      1  C   UNL     1      16.484  25.721  53.837  1.00  0.00     0.000 C 
ENDROOT
BRANCH   1   2
ATOM      2  C   UNL     1      15.613  24.486  53.582  1.00  0.00     0.000 C 
BRANCH   2   3
ATOM      3  C   UNL     1      15.414  24.255  52.076  1.00  0.00     0.006 C 
BRANCH   3   4
ATOM      4  C   UNL     1      13.934  24.279  51.675  1.00  0.00     0.053 C 
BRANCH   4   5
ATOM      5  C   UNL     1      13.376  25.670  51.695  1.00  0.00     0.041 C 
ATOM      6  O   UNL     1      12.179  25.868  52.031  1.00  0.00    -0.550 OA
ATOM      7  O   UNL     1      14.170  26.742  51.312  1.00  0.00    -0.550 OA
ENDBRANCH   4   5
ENDBRANCH   3   4
ENDBRANCH   2   3
ENDBRANCH   1   2
BRANCH   1   8
ATOM      8  C   UNL     1      15.797  26.687  54.811  1.00  0.00     0.000 C 
BRANCH   8   9
ATOM      9  C   UNL     1      16.004  28.144  54.380  1.00  0.00     0.006 C 
BRANCH   9  10
ATOM     10  C   UNL     1      15.784  29.101  55.555  1.00  0.00     0.053 C 
BRANCH  10  11
ATOM     11  C   UNL     1      16.449  30.415  55.291  1.00  0.00     0.041 C 
ATOM     12  O   UNL     1      16.156  31.077  54.261  1.00  0.00    -0.550 OA
ATOM     13  O   UNL     1      17.355  30.933  56.208  1.00  0.00    -0.550 OA
ENDBRANCH  10  11
ENDBRANCH   9  10
ENDBRANCH   8   9
ENDBRANCH   1   8
TORSDOF 8
ENDMDL
MODEL 4
REMARK VINA RESULT:    -3.903      1.988      6.694
REMARK INTER + INTRA:          -6.122
REMARK INTER:                  -5.541
REMARK INTRA:                  -0.581
REMARK UNBOUND:                -0.394
REMARK SMILES O=C([O-])CCCCCCCC(=O)[O-]
REMARK SMILES IDX 7 1 6 2 5 3 4 4 2 5 1 6 3 7 8 8 9 9 10 10 11 11 12 12 13 13
REMARK H PARENT
REMARK Flexibility Score: inf
ROOT
ATOM      1  C   UNL     1      17.137  25.289  53.455  1.00  0.00     0.000 C 
ENDROOT
BRANCH   1   2
ATOM      2  C   UNL     1      17.101  26.822  53.482  1.00  0.00     0.000 C 
BRANCH   2   3
ATOM      3  C   UNL     1      15.794  27.330  54.109  1.00  0.00     0.006 C 
BRANCH   3   4
ATOM      4  C   UNL     1      16.018  27.958  55.491  1.00  0.00     0.053 C 
BRANCH   4   5
ATOM      5  C   UNL     1      15.914  29.452  55.445  1.00  0.00     0.041 C 
ATOM      6  O   UNL     1      15.608  30.100  56.481  1.00  0.00    -0.550 OA
ATOM      7  O   UNL     1      16.124  30.127  54.249  1.00  0.00    -0.550 OA
ENDBRANCH   4   5
ENDBRANCH   3   4
ENDBRANCH   2   3
ENDBRANCH   1   2
BRANCH   1   8
ATOM      8  C   UNL     1      15.723  24.704  53.556  1.00  0.00     0.000 C 
BRANCH   8   9
ATOM      9  C   UNL     1      15.365  23.906  52.297  1.00  0.00     0.006 C 
BRANCH   9  10
ATOM     10  C   UNL     1      14.042  24.387  51.698  1.00  0.00     0.053 C 
BRANCH  10  11
ATOM     11  C   UNL     1      14.290  25.402  50.627  1.00  0.00     0.041 C 
ATOM     12  O   UNL     1      14.444  25.037  49.432  1.00  0.00    -0.550 OA
ATOM     13  O   UNL     1      14.300  26.756  50.940  1.00  0.00    -0.550 OA
ENDBRANCH  10  11
ENDBRANCH   9  10
ENDBRANCH   8   9
ENDBRANCH   1   8
TORSDOF 8
ENDMDL
MODEL 5
REMARK VINA RESULT:    -3.896      2.483      6.442
REMARK INTER + INTRA:          -6.112
REMARK INTER:                  -5.552
REMARK INTRA:                  -0.560
REMARK UNBOUND:                -0.394
REMARK SMILES O=C([O-])CCCCCCCC(=O)[O-]
REMARK SMILES IDX 7 1 6 2 5 3 4 4 2 5 1 6 3 7 8 8 9 9 10 10 11 11 12 12 13 13
REMARK H PARENT
REMARK Flexibility Score: inf
ROOT
ATOM      1  C   UNL     1      16.909  26.061  53.700  1.00  0.00     0.000 C 
ENDROOT
BRANCH   1   2
ATOM      2  C   UNL     1      15.710  26.484  54.556  1.00  0.00     0.000 C 
BRANCH   2   3
ATOM      3  C   UNL     1      15.975  27.832  55.244  1.00  0.00     0.006 C 
BRANCH   3   4
ATOM      4  C   UNL     1      16.902  28.733  54.418  1.00  0.00     0.053 C 
BRANCH   4   5
ATOM      5  C   UNL     1      16.134  29.769  53.655  1.00  0.00     0.041 C 
ATOM      6  O   UNL     1      16.137  30.970  54.036  1.00  0.00    -0.550 OA
ATOM      7  O   UNL     1      15.388  29.402  52.543  1.00  0.00    -0.550 OA
ENDBRANCH   4   5
ENDBRANCH   3   4
ENDBRANCH   2   3
ENDBRANCH   1   2
BRANCH   1   8
ATOM      8  C   UNL     1      16.457  25.237  52.488  1.00  0.00     0.000 C 
BRANCH   8   9
ATOM      9  C   UNL     1      15.373  24.226  52.882  1.00  0.00     0.006 C 
BRANCH   9  10
ATOM     10  C   UNL     1      14.456  23.914  51.697  1.00  0.00     0.053 C 
BRANCH  10  11
ATOM     11  C   UNL     1      13.755  25.153  51.237  1.00  0.00     0.041 C 
ATOM     12  O   UNL     1      13.008  25.789  52.026  1.00  0.00    -0.550 OA
ATOM     13  O   UNL     1      13.966  25.636  49.951  1.00  0.00    -0.550 OA
ENDBRANCH  10  11
ENDBRANCH   9  10
ENDBRANCH   8   9
ENDBRANCH   1   8
TORSDOF 8
ENDMDL
MODEL 6
REMARK VINA RESULT:    -3.866      1.277      6.688
REMARK INTER + INTRA:          -6.068
REMARK INTER:                  -5.703
REMARK INTRA:                  -0.365
REMARK UNBOUND:                -0.394
REMARK SMILES O=C([O-])CCCCCCCC(=O)[O-]
REMARK SMILES IDX 7 1 6 2 5 3 4 4 2 5 1 6 3 7 8 8 9 9 10 10 11 11 12 12 13 13
REMARK H PARENT
REMARK Flexibility Score: inf
ROOT
ATOM      1  C   UNL     1      15.724  26.725  54.770  1.00  0.00     0.000 C 
ENDROOT
BRANCH   1   2
ATOM      2  C   UNL     1      16.050  28.031  55.504  1.00  0.00     0.000 C 
BRANCH   2   3
ATOM      3  C   UNL     1      15.975  29.232  54.548  1.00  0.00     0.006 C 
BRANCH   3   4
ATOM      4  C   UNL     1      16.551  30.509  55.174  1.00  0.00     0.053 C 
BRANCH   4   5
ATOM      5  C   UNL     1      16.054  30.714  56.573  1.00  0.00     0.041 C 
ATOM      6  O   UNL     1      16.845  30.616  57.548  1.00  0.00    -0.550 OA
ATOM      7  O   UNL     1      14.711  30.980  56.801  1.00  0.00    -0.550 OA
ENDBRANCH   4   5
ENDBRANCH   3   4
ENDBRANCH   2   3
ENDBRANCH   1   2
BRANCH   1   8
ATOM      8  C   UNL     1      16.959  26.179  54.044  1.00  0.00     0.000 C 
BRANCH   8   9
ATOM      9  C   UNL     1      16.563  25.446  52.757  1.00  0.00     0.006 C 
BRANCH   9  10
ATOM     10  C   UNL     1      15.360  24.531  52.994  1.00  0.00     0.053 C 
BRANCH  10  11
ATOM     11  C   UNL     1      14.297  24.787  51.972  1.00  0.00     0.041 C 
ATOM     12  O   UNL     1      13.949  23.875  51.177  1.00  0.00    -0.550 OA
ATOM     13  O   UNL     1      13.655  26.019  51.930  1.00  0.00    -0.550 OA
ENDBRANCH  10  11
ENDBRANCH   9  10
ENDBRANCH   8   9
ENDBRANCH   1   8
TORSDOF 8
ENDMDL
MODEL 7
REMARK VINA RESULT:    -3.864      2.781      4.557
REMARK INTER + INTRA:          -6.065
REMARK INTER:                  -5.674
REMARK INTRA:                  -0.391
REMARK UNBOUND:                -0.394
REMARK SMILES O=C([O-])CCCCCCCC(=O)[O-]
REMARK SMILES IDX 7 1 6 2 5 3 4 4 2 5 1 6 3 7 8 8 9 9 10 10 11 11 12 12 13 13
REMARK H PARENT
REMARK Flexibility Score: inf
ROOT
ATOM      1  C   UNL     1      15.372  24.159  52.959  1.00  0.00     0.000 C 
ENDROOT
BRANCH   1   2
ATOM      2  C   UNL     1      15.631  24.062  51.451  1.00  0.00     0.000 C 
BRANCH   2   3
ATOM      3  C   UNL     1      14.327  24.240  50.657  1.00  0.00     0.006 C 
BRANCH   3   4
ATOM      4  C   UNL     1      14.007  25.716  50.391  1.00  0.00     0.053 C 
BRANCH   4   5
ATOM      5  C   UNL     1      14.170  26.067  48.944  1.00  0.00     0.041 C 
ATOM      6  O   UNL     1      14.552  27.219  48.609  1.00  0.00    -0.550 OA
ATOM      7  O   UNL     1      13.869  25.131  47.963  1.00  0.00    -0.550 OA
ENDBRANCH   4   5
ENDBRANCH   3   4
ENDBRANCH   2   3
ENDBRANCH   1   2
BRANCH   1   8
ATOM      8  C   UNL     1      16.226  25.264  53.594  1.00  0.00     0.000 C 
BRANCH   8   9
ATOM      9  C   UNL     1      15.375  26.495  53.929  1.00  0.00     0.006 C 
BRANCH   9  10
ATOM     10  C   UNL     1      15.882  27.183  55.199  1.00  0.00     0.053 C 
BRANCH  10  11
ATOM     11  C   UNL     1      15.847  28.670  55.039  1.00  0.00     0.041 C 
ATOM     12  O   UNL     1      15.939  29.418  56.048  1.00  0.00    -0.550 OA
ATOM     13  O   UNL     1      15.764  29.231  53.771  1.00  0.00    -0.550 OA
ENDBRANCH  10  11
ENDBRANCH   9  10
ENDBRANCH   8   9
ENDBRANCH   1   8
TORSDOF 8
ENDMDL
MODEL 8
REMARK VINA RESULT:    -3.829      3.218      4.209
REMARK INTER + INTRA:          -6.013
REMARK INTER:                  -5.351
REMARK INTRA:                  -0.662
REMARK UNBOUND:                -0.394
REMARK SMILES O=C([O-])CCCCCCCC(=O)[O-]
REMARK SMILES IDX 7 1 6 2 5 3 4 4 2 5 1 6 3 7 8 8 9 9 10 10 11 11 12 12 13 13
REMARK H PARENT
REMARK Flexibility Score: inf
ROOT
ATOM      1  C   UNL     1      16.108  28.472  55.122  1.00  0.00     0.000 C 
ENDROOT
BRANCH   1   2
ATOM      2  C   UNL     1      15.707  26.995  55.214  1.00  0.00     0.000 C 
BRANCH   2   3
ATOM      3  C   UNL     1      16.559  26.133  54.270  1.00  0.00     0.006 C 
BRANCH   3   4
ATOM      4  C   UNL     1      15.737  25.034  53.586  1.00  0.00     0.053 C 
BRANCH   4   5
ATOM      5  C   UNL     1      15.237  25.469  52.243  1.00  0.00     0.041 C 
ATOM      6  O   UNL     1      15.820  25.086  51.194  1.00  0.00    -0.550 OA
ATOM      7  O   UNL     1      14.146  26.324  52.151  1.00  0.00    -0.550 OA
ENDBRANCH   4   5
ENDBRANCH   3   4
ENDBRANCH   2   3
ENDBRANCH   1   2
BRANCH   1   8
ATOM      8  C   UNL     1      16.762  28.781  53.769  1.00  0.00     0.000 C 
BRANCH   8   9
ATOM      9  C   UNL     1      15.762  29.442  52.812  1.00  0.00     0.006 C 
BRANCH   9  10
ATOM     10  C   UNL     1      16.141  29.176  51.353  1.00  0.00     0.053 C 
BRANCH  10  11
ATOM     11  C   UNL     1      15.092  29.716  50.433  1.00  0.00     0.041 C 
ATOM     12  O   UNL     1      14.253  30.555  50.852  1.00  0.00    -0.550 OA
ATOM     13  O   UNL     1      15.072  29.331  49.098  1.00  0.00    -0.550 OA
ENDBRANCH  10  11
ENDBRANCH   9  10
ENDBRANCH   8   9
ENDBRANCH   1   8
TORSDOF 8
ENDMDL
MODEL 9
REMARK VINA RESULT:    -3.823      3.028      5.808
REMARK INTER + INTRA:          -6.004
REMARK INTER:                  -5.333
REMARK INTRA:                  -0.671
REMARK UNBOUND:                -0.394
REMARK SMILES O=C([O-])CCCCCCCC(=O)[O-]
REMARK SMILES IDX 7 1 6 2 5 3 4 4 2 5 1 6 3 7 8 8 9 9 10 10 11 11 12 12 13 13
REMARK H PARENT
REMARK Flexibility Score: inf
ROOT
ATOM      1  C   UNL     1      16.157  28.721  54.909  1.00  0.00     0.000 C 
ENDROOT
BRANCH   1   2
ATOM      2  C   UNL     1      16.993  28.859  53.632  1.00  0.00     0.000 C 
BRANCH   2   3
ATOM      3  C   UNL     1      16.426  29.959  52.720  1.00  0.00     0.006 C 
BRANCH   3   4
ATOM      4  C   UNL     1      15.246  29.462  51.876  1.00  0.00     0.053 C 
BRANCH   4   5
ATOM      5  C   UNL     1      14.844  30.466  50.839  1.00  0.00     0.041 C 
ATOM      6  O   UNL     1      14.942  30.188  49.614  1.00  0.00    -0.550 OA
ATOM      7  O   UNL     1      14.393  31.721  51.225  1.00  0.00    -0.550 OA
ENDBRANCH   4   5
ENDBRANCH   3   4
ENDBRANCH   2   3
ENDBRANCH   1   2
BRANCH   1   8
ATOM      8  C   UNL     1      15.809  27.252  55.182  1.00  0.00     0.000 C 
BRANCH   8   9
ATOM      9  C   UNL     1      16.678  26.313  54.337  1.00  0.00     0.006 C 
BRANCH   9  10
ATOM     10  C   UNL     1      15.831  25.217  53.686  1.00  0.00     0.053 C 
BRANCH  10  11
ATOM     11  C   UNL     1      15.171  25.731  52.447  1.00  0.00     0.041 C 
ATOM     12  O   UNL     1      13.934  25.967  52.439  1.00  0.00    -0.550 OA
ATOM     13  O   UNL     1      15.929  25.999  51.314  1.00  0.00    -0.550 OA
ENDBRANCH  10  11
ENDBRANCH   9  10
ENDBRANCH   8   9
ENDBRANCH   1   8
TORSDOF 8
ENDMDL
