MODEL 1
REMARK VINA RESULT:    -6.090      0.000      0.000
REMARK INTER + INTRA:          -6.681
REMARK INTER:                  -7.158
REMARK INTRA:                   0.477
REMARK UNBOUND:                 0.477
REMARK SMILES O=c1c(O)c(-c2ccc(O)cc2)oc2cc(O)cc(O)c12
REMARK SMILES IDX 5 1 3 2 2 3 1 4 21 5 19 6 18 7 16 8 15 9 14 10 13 11 6 12
REMARK SMILES IDX 7 13 8 14 9 15 12 16 11 17 10 18 4 20 20 22 17 24
REMARK H PARENT 10 19 4 21 20 23 17 25
REMARK Flexibility Score: inf
ROOT
ATOM      1  C   UNL     1       3.701   9.035  -1.965  1.00  0.00     0.180 A 
ATOM      2  C   UNL     1       2.493   9.457  -1.382  1.00  0.00     0.208 A 
ATOM      3  C   UNL     1       2.256   9.179  -0.026  1.00  0.00     0.238 A 
ATOM      4  O   UNL     1       1.207   9.624   0.506  1.00  0.00    -0.285 OA
ATOM      5  C   UNL     1       3.204   8.434   0.716  1.00  0.00     0.111 A 
ATOM      6  C   UNL     1       3.048   8.055   2.084  1.00  0.00     0.134 A 
ATOM      7  C   UNL     1       4.099   7.409   2.746  1.00  0.00     0.093 A 
ATOM      8  C   UNL     1       5.274   7.071   2.076  1.00  0.00     0.123 A 
ATOM      9  C   UNL     1       5.415   7.387   0.724  1.00  0.00     0.094 A 
ATOM     10  C   UNL     1       4.400   8.066   0.046  1.00  0.00     0.146 A 
ATOM     11  O   UNL     1       4.585   8.366  -1.233  1.00  0.00    -0.452 OA
ENDROOT
BRANCH   1  12
ATOM     12  C   UNL     1       4.029   9.304  -3.382  1.00  0.00     0.021 A 
ATOM     13  C   UNL     1       3.060   9.788  -4.282  1.00  0.00     0.016 A 
ATOM     14  C   UNL     1       3.401  10.057  -5.610  1.00  0.00     0.047 A 
ATOM     15  C   UNL     1       4.715   9.861  -6.054  1.00  0.00     0.115 A 
ATOM     16  C   UNL     1       5.350   9.130  -3.831  1.00  0.00     0.016 A 
ATOM     17  C   UNL     1       5.687   9.400  -5.161  1.00  0.00     0.047 A 
BRANCH  15  18
ATOM     18  O   UNL     1       5.067  10.125  -7.376  1.00  0.00    -0.508 OA
ATOM     19  H   UNL     1       4.601  10.848  -7.912  1.00  0.00     0.293 HD
ENDBRANCH  15  18
ENDBRANCH   1  12
BRANCH   2  20
ATOM     20  O   UNL     1       1.537  10.125  -2.152  1.00  0.00    -0.502 OA
ATOM     21  H   UNL     1       0.578  10.243  -1.847  1.00  0.00     0.293 HD
ENDBRANCH   2  20
BRANCH   6  22
ATOM     22  O   UNL     1       1.882   8.264   2.827  1.00  0.00    -0.507 OA
ATOM     23  H   UNL     1       0.948   8.270   2.446  1.00  0.00     0.293 HD
ENDBRANCH   6  22
BRANCH   8  24
ATOM     24  O   UNL     1       6.292   6.413   2.762  1.00  0.00    -0.508 OA
ATOM     25  H   UNL     1       7.084   6.007   2.275  1.00  0.00     0.293 HD
ENDBRANCH   8  24
TORSDOF 5
ENDMDL
MODEL 2
REMARK VINA RESULT:    -5.119      1.824      7.109
REMARK INTER + INTRA:          -5.540
REMARK INTER:                  -5.251
REMARK INTRA:                  -0.289
REMARK UNBOUND:                 0.477
REMARK SMILES O=c1c(O)c(-c2ccc(O)cc2)oc2cc(O)cc(O)c12
REMARK SMILES IDX 5 1 3 2 2 3 1 4 21 5 19 6 18 7 16 8 15 9 14 10 13 11 6 12
REMARK SMILES IDX 7 13 8 14 9 15 12 16 11 17 10 18 4 20 20 22 17 24
REMARK H PARENT 10 19 4 21 20 23 17 25
REMARK Flexibility Score: inf
ROOT
ATOM      1  C   UNL     1       3.659   9.288  -0.203  1.00  0.00     0.180 A 
ATOM      2  C   UNL     1       4.949   9.417  -0.746  1.00  0.00     0.208 A 
ATOM      3  C   UNL     1       5.088   9.671  -2.120  1.00  0.00     0.238 A 
ATOM      4  O   UNL     1       6.242   9.859  -2.584  1.00  0.00    -0.285 OA
ATOM      5  C   UNL     1       3.939   9.736  -2.945  1.00  0.00     0.111 A 
ATOM      6  C   UNL     1       3.964   9.943  -4.358  1.00  0.00     0.134 A 
ATOM      7  C   UNL     1       2.759  10.095  -5.055  1.00  0.00     0.093 A 
ATOM      8  C   UNL     1       1.531   9.985  -4.404  1.00  0.00     0.123 A 
ATOM      9  C   UNL     1       1.494   9.728  -3.033  1.00  0.00     0.094 A 
ATOM     10  C   UNL     1       2.680   9.609  -2.303  1.00  0.00     0.146 A 
ATOM     11  O   UNL     1       2.598   9.387  -0.997  1.00  0.00    -0.452 OA
ENDROOT
BRANCH   1  12
ATOM     12  C   UNL     1       3.431   9.036   1.237  1.00  0.00     0.021 A 
ATOM     13  C   UNL     1       3.399   7.729   1.758  1.00  0.00     0.016 A 
ATOM     14  C   UNL     1       3.207   7.518   3.127  1.00  0.00     0.047 A 
ATOM     15  C   UNL     1       3.057   8.608   3.994  1.00  0.00     0.115 A 
ATOM     16  C   UNL     1       3.300  10.125   2.117  1.00  0.00     0.016 A 
ATOM     17  C   UNL     1       3.107   9.910   3.485  1.00  0.00     0.047 A 
BRANCH  15  18
ATOM     18  O   UNL     1       2.863   8.411   5.359  1.00  0.00    -0.508 OA
ATOM     19  H   UNL     1       3.536   7.901   5.920  1.00  0.00     0.293 HD
ENDBRANCH  15  18
ENDBRANCH   1  12
BRANCH   2  20
ATOM     20  O   UNL     1       6.073   9.274   0.072  1.00  0.00    -0.502 OA
ATOM     21  H   UNL     1       7.013   9.458  -0.258  1.00  0.00     0.293 HD
ENDBRANCH   2  20
BRANCH   6  22
ATOM     22  O   UNL     1       5.133   9.981  -5.123  1.00  0.00    -0.507 OA
ATOM     23  H   UNL     1       5.799   9.227  -5.198  1.00  0.00     0.293 HD
ENDBRANCH   6  22
BRANCH   8  24
ATOM     24  O   UNL     1       0.352  10.125  -5.132  1.00  0.00    -0.508 OA
ATOM     25  H   UNL     1      -0.546   9.856  -4.745  1.00  0.00     0.293 HD
ENDBRANCH   8  24
TORSDOF 5
ENDMDL
MODEL 3
REMARK VINA RESULT:    -5.059      1.831      7.083
REMARK INTER + INTRA:          -5.470
REMARK INTER:                  -5.177
REMARK INTRA:                  -0.293
REMARK UNBOUND:                 0.477
REMARK SMILES O=c1c(O)c(-c2ccc(O)cc2)oc2cc(O)cc(O)c12
REMARK SMILES IDX 5 1 3 2 2 3 1 4 21 5 19 6 18 7 16 8 15 9 14 10 13 11 6 12
REMARK SMILES IDX 7 13 8 14 9 15 12 16 11 17 10 18 4 20 20 22 17 24
REMARK H PARENT 10 19 4 21 20 23 17 25
REMARK Flexibility Score: inf
ROOT
ATOM      1  C   UNL     1       3.706   9.334  -0.159  1.00  0.00     0.180 A 
ATOM      2  C   UNL     1       4.993   9.518  -0.693  1.00  0.00     0.208 A 
ATOM      3  C   UNL     1       5.130   9.782  -2.065  1.00  0.00     0.238 A 
ATOM      4  O   UNL     1       6.279  10.019  -2.521  1.00  0.00    -0.285 OA
ATOM      5  C   UNL     1       3.985   9.804  -2.897  1.00  0.00     0.111 A 
ATOM      6  C   UNL     1       4.010  10.017  -4.309  1.00  0.00     0.134 A 
ATOM      7  C   UNL     1       2.804  10.122  -5.013  1.00  0.00     0.093 A 
ATOM      8  C   UNL     1       1.578   9.960  -4.370  1.00  0.00     0.123 A 
ATOM      9  C   UNL     1       1.543   9.696  -3.001  1.00  0.00     0.094 A 
ATOM     10  C   UNL     1       2.727   9.623  -2.263  1.00  0.00     0.146 A 
ATOM     11  O   UNL     1       2.647   9.392  -0.959  1.00  0.00    -0.452 OA
ENDROOT
BRANCH   1  12
ATOM     12  C   UNL     1       3.479   9.067   1.279  1.00  0.00     0.021 A 
ATOM     13  C   UNL     1       3.228  10.111   2.190  1.00  0.00     0.016 A 
ATOM     14  C   UNL     1       2.993   9.830   3.539  1.00  0.00     0.047 A 
ATOM     15  C   UNL     1       2.992   8.505   3.993  1.00  0.00     0.115 A 
ATOM     16  C   UNL     1       3.456   7.739   1.740  1.00  0.00     0.016 A 
ATOM     17  C   UNL     1       3.221   7.462   3.090  1.00  0.00     0.047 A 
BRANCH  15  18
ATOM     18  O   UNL     1       2.760   8.213   5.336  1.00  0.00    -0.508 OA
ATOM     19  H   UNL     1       1.828   8.250   5.731  1.00  0.00     0.293 HD
ENDBRANCH  15  18
ENDBRANCH   1  12
BRANCH   2  20
ATOM     20  O   UNL     1       6.117   9.417   0.132  1.00  0.00    -0.502 OA
ATOM     21  H   UNL     1       6.550   8.529   0.354  1.00  0.00     0.293 HD
ENDBRANCH   2  20
BRANCH   6  22
ATOM     22  O   UNL     1       5.181  10.105  -5.067  1.00  0.00    -0.507 OA
ATOM     23  H   UNL     1       5.216  10.290  -6.057  1.00  0.00     0.293 HD
ENDBRANCH   6  22
BRANCH   8  24
ATOM     24  O   UNL     1       0.398  10.054  -5.106  1.00  0.00    -0.508 OA
ATOM     25  H   UNL     1      -0.336  10.705  -4.850  1.00  0.00     0.293 HD
ENDBRANCH   8  24
TORSDOF 5
ENDMDL
MODEL 4
REMARK VINA RESULT:    -3.992      1.657      2.866
REMARK INTER + INTRA:          -4.216
REMARK INTER:                  -4.583
REMARK INTRA:                   0.367
REMARK UNBOUND:                 0.477
REMARK SMILES O=c1c(O)c(-c2ccc(O)cc2)oc2cc(O)cc(O)c12
REMARK SMILES IDX 5 1 3 2 2 3 1 4 21 5 19 6 18 7 16 8 15 9 14 10 13 11 6 12
REMARK SMILES IDX 7 13 8 14 9 15 12 16 11 17 10 18 4 20 20 22 17 24
REMARK H PARENT 10 19 4 21 20 23 17 25
REMARK Flexibility Score: inf
ROOT
ATOM      1  C   UNL     1       4.271   9.497  -1.962  1.00  0.00     0.180 A 
ATOM      2  C   UNL     1       5.582   9.735  -1.513  1.00  0.00     0.208 A 
ATOM      3  C   UNL     1       5.869   9.596  -0.146  1.00  0.00     0.238 A 
ATOM      4  O   UNL     1       7.059   9.737   0.237  1.00  0.00    -0.285 OA
ATOM      5  C   UNL     1       4.832   9.278   0.764  1.00  0.00     0.111 A 
ATOM      6  C   UNL     1       5.000   9.156   2.177  1.00  0.00     0.134 A 
ATOM      7  C   UNL     1       3.923   8.733   2.966  1.00  0.00     0.093 A 
ATOM      8  C   UNL     1       2.671   8.488   2.405  1.00  0.00     0.123 A 
ATOM      9  C   UNL     1       2.481   8.657   1.033  1.00  0.00     0.094 A 
ATOM     10  C   UNL     1       3.545   9.041   0.214  1.00  0.00     0.146 A 
ATOM     11  O   UNL     1       3.326   9.168  -1.089  1.00  0.00    -0.452 OA
ENDROOT
BRANCH   1  12
ATOM     12  C   UNL     1       3.894   9.608  -3.389  1.00  0.00     0.021 A 
ATOM     13  C   UNL     1       2.601  10.004  -3.779  1.00  0.00     0.016 A 
ATOM     14  C   UNL     1       2.277  10.125  -5.134  1.00  0.00     0.047 A 
ATOM     15  C   UNL     1       3.243   9.866  -6.115  1.00  0.00     0.115 A 
ATOM     16  C   UNL     1       4.863   9.371  -4.380  1.00  0.00     0.016 A 
ATOM     17  C   UNL     1       4.535   9.491  -5.734  1.00  0.00     0.047 A 
BRANCH  15  18
ATOM     18  O   UNL     1       2.931   9.982  -7.467  1.00  0.00    -0.508 OA
ATOM     19  H   UNL     1       3.641  10.206  -8.156  1.00  0.00     0.293 HD
ENDBRANCH  15  18
ENDBRANCH   1  12
BRANCH   2  20
ATOM     20  O   UNL     1       6.575  10.123  -2.417  1.00  0.00    -0.502 OA
ATOM     21  H   UNL     1       6.873   9.533  -3.184  1.00  0.00     0.293 HD
ENDBRANCH   2  20
BRANCH   6  22
ATOM     22  O   UNL     1       6.184   9.462   2.855  1.00  0.00    -0.507 OA
ATOM     23  H   UNL     1       6.759   8.794   3.343  1.00  0.00     0.293 HD
ENDBRANCH   6  22
BRANCH   8  24
ATOM     24  O   UNL     1       1.618   8.085   3.224  1.00  0.00    -0.508 OA
ATOM     25  H   UNL     1       1.593   7.160   3.639  1.00  0.00     0.293 HD
ENDBRANCH   8  24
TORSDOF 5
ENDMDL
