MODEL 1
REMARK VINA RESULT:    -6.765      0.000      0.000
REMARK INTER + INTRA:          -8.523
REMARK INTER:                  -8.149
REMARK INTRA:                  -0.373
REMARK UNBOUND:                -0.373
REMARK SMILES Oc1cc(O)c2c(c1)O[C@@H](c1ccc(O)c(O)c1)[C@H](O)C2
REMARK SMILES IDX 21 1 19 2 10 3 9 4 7 5 8 6 2 7 3 8 4 9 6 10 20 11 11 13
REMARK SMILES IDX 18 14 12 15 16 16 13 17 14 18 17 19 15 21 5 23 1 25
REMARK H PARENT 20 12 17 20 15 22 5 24 1 26
REMARK Flexibility Score: inf
ROOT
ATOM      1  C   UNL     1      -8.176 -17.939  -7.495  1.00  0.00     0.079 C 
ATOM      2  C   UNL     1      -9.683 -18.221  -7.346  1.00  0.00     0.164 C 
ATOM      3  C   UNL     1     -10.019 -19.625  -7.887  1.00  0.00     0.232 C 
ATOM      4  O   UNL     1      -9.226 -20.602  -7.214  1.00  0.00    -0.482 OA
ATOM      5  C   UNL     1      -7.888 -20.374  -6.870  1.00  0.00     0.131 A 
ATOM      6  C   UNL     1      -7.123 -21.438  -6.386  1.00  0.00     0.093 A 
ATOM      7  C   UNL     1      -5.783 -21.246  -6.048  1.00  0.00     0.122 A 
ATOM      8  C   UNL     1      -5.200 -19.983  -6.204  1.00  0.00     0.092 A 
ATOM      9  C   UNL     1      -5.951 -18.905  -6.689  1.00  0.00     0.126 A 
ATOM     10  C   UNL     1      -7.322 -19.085  -6.991  1.00  0.00     0.039 A 
ENDROOT
BRANCH   2  11
ATOM     11  O   UNL     1     -10.439 -17.227  -7.992  1.00  0.00    -0.389 OA
ATOM     12  H   UNL     1      -9.827 -16.729  -8.595  1.00  0.00     0.211 HD
ENDBRANCH   2  11
BRANCH   3  13
ATOM     13  C   UNL     1     -11.484 -19.944  -7.704  1.00  0.00    -0.001 A 
ATOM     14  C   UNL     1     -12.046 -20.011  -6.418  1.00  0.00     0.057 A 
ATOM     15  C   UNL     1     -12.312 -20.130  -8.820  1.00  0.00     0.012 A 
ATOM     16  C   UNL     1     -13.409 -20.278  -6.241  1.00  0.00     0.157 A 
ATOM     17  C   UNL     1     -13.672 -20.398  -8.654  1.00  0.00     0.050 A 
ATOM     18  C   UNL     1     -14.233 -20.477  -7.374  1.00  0.00     0.157 A 
BRANCH  16  19
ATOM     19  O   UNL     1     -13.898 -20.334  -4.934  1.00  0.00    -0.504 OA
ATOM     20  H   UNL     1     -14.825 -20.652  -4.691  1.00  0.00     0.293 HD
ENDBRANCH  16  19
BRANCH  18  21
ATOM     21  O   UNL     1     -15.598 -20.751  -7.276  1.00  0.00    -0.504 OA
ATOM     22  H   UNL     1     -16.259 -20.603  -8.025  1.00  0.00     0.293 HD
ENDBRANCH  18  21
ENDBRANCH   3  13
BRANCH   9  23
ATOM     23  O   UNL     1      -5.303 -17.680  -6.865  1.00  0.00    -0.507 OA
ATOM     24  H   UNL     1      -4.333 -17.525  -6.625  1.00  0.00     0.293 HD
ENDBRANCH   9  23
BRANCH   7  25
ATOM     25  O   UNL     1      -5.036 -22.317  -5.564  1.00  0.00    -0.508 OA
ATOM     26  H   UNL     1      -4.926 -23.171  -6.100  1.00  0.00     0.293 HD
ENDBRANCH   7  25
TORSDOF 6
ENDMDL
MODEL 2
REMARK VINA RESULT:    -6.619     12.736     13.996
REMARK INTER + INTRA:          -8.346
REMARK INTER:                  -8.216
REMARK INTRA:                  -0.130
REMARK UNBOUND:                -0.373
REMARK SMILES Oc1cc(O)c2c(c1)O[C@@H](c1ccc(O)c(O)c1)[C@H](O)C2
REMARK SMILES IDX 21 1 19 2 10 3 9 4 7 5 8 6 2 7 3 8 4 9 6 10 20 11 11 13
REMARK SMILES IDX 18 14 12 15 16 16 13 17 14 18 17 19 15 21 5 23 1 25
REMARK H PARENT 20 12 17 20 15 22 5 24 1 26
REMARK Flexibility Score: inf
ROOT
ATOM      1  C   UNL     1     -11.990  -8.387 -17.346  1.00  0.00     0.079 C 
ATOM      2  C   UNL     1     -13.352  -8.590 -16.655  1.00  0.00     0.164 C 
ATOM      3  C   UNL     1     -13.935  -9.969 -17.020  1.00  0.00     0.232 C 
ATOM      4  O   UNL     1     -13.004 -10.992 -16.671  1.00  0.00    -0.482 OA
ATOM      5  C   UNL     1     -11.623 -10.839 -16.841  1.00  0.00     0.131 A 
ATOM      6  C   UNL     1     -10.791 -11.947 -16.657  1.00  0.00     0.093 A 
ATOM      7  C   UNL     1      -9.412 -11.829 -16.833  1.00  0.00     0.122 A 
ATOM      8  C   UNL     1      -8.861 -10.598 -17.204  1.00  0.00     0.092 A 
ATOM      9  C   UNL     1      -9.679  -9.478 -17.395  1.00  0.00     0.126 A 
ATOM     10  C   UNL     1     -11.073  -9.581 -17.175  1.00  0.00     0.039 A 
ENDROOT
BRANCH   2  11
ATOM     11  O   UNL     1     -14.237  -7.551 -16.993  1.00  0.00    -0.389 OA
ATOM     12  H   UNL     1     -13.700  -6.812 -17.381  1.00  0.00     0.211 HD
ENDBRANCH   2  11
BRANCH   3  13
ATOM     13  C   UNL     1     -15.248 -10.211 -16.313  1.00  0.00    -0.001 A 
ATOM     14  C   UNL     1     -15.505  -9.623 -15.063  1.00  0.00     0.057 A 
ATOM     15  C   UNL     1     -16.245 -10.987 -16.919  1.00  0.00     0.012 A 
ATOM     16  C   UNL     1     -16.730  -9.820 -14.413  1.00  0.00     0.157 A 
ATOM     17  C   UNL     1     -17.469 -11.190 -16.279  1.00  0.00     0.050 A 
ATOM     18  C   UNL     1     -17.724 -10.616 -15.028  1.00  0.00     0.157 A 
BRANCH  16  19
ATOM     19  O   UNL     1     -16.914  -9.208 -13.171  1.00  0.00    -0.504 OA
ATOM     20  H   UNL     1     -16.395  -9.450 -12.340  1.00  0.00     0.293 HD
ENDBRANCH  16  19
BRANCH  18  21
ATOM     21  O   UNL     1     -18.967 -10.859 -14.440  1.00  0.00    -0.504 OA
ATOM     22  H   UNL     1     -19.568 -10.137 -14.069  1.00  0.00     0.293 HD
ENDBRANCH  18  21
ENDBRANCH   3  13
BRANCH   9  23
ATOM     23  O   UNL     1      -9.075  -8.288 -17.809  1.00  0.00    -0.507 OA
ATOM     24  H   UNL     1      -8.734  -7.584 -17.167  1.00  0.00     0.293 HD
ENDBRANCH   9  23
BRANCH   7  25
ATOM     25  O   UNL     1      -8.598 -12.944 -16.642  1.00  0.00    -0.508 OA
ATOM     26  H   UNL     1      -8.068 -13.349 -17.405  1.00  0.00     0.293 HD
ENDBRANCH   7  25
TORSDOF 6
ENDMDL
MODEL 3
REMARK VINA RESULT:    -6.540      2.275      3.828
REMARK INTER + INTRA:          -8.251
REMARK INTER:                  -7.914
REMARK INTRA:                  -0.337
REMARK UNBOUND:                -0.373
REMARK SMILES Oc1cc(O)c2c(c1)O[C@@H](c1ccc(O)c(O)c1)[C@H](O)C2
REMARK SMILES IDX 21 1 19 2 10 3 9 4 7 5 8 6 2 7 3 8 4 9 6 10 20 11 11 13
REMARK SMILES IDX 18 14 12 15 16 16 13 17 14 18 17 19 15 21 5 23 1 25
REMARK H PARENT 20 12 17 20 15 22 5 24 1 26
REMARK Flexibility Score: inf
ROOT
ATOM      1  C   UNL     1      -6.157 -20.130  -9.346  1.00  0.00     0.079 C 
ATOM      2  C   UNL     1      -7.628 -20.010  -8.902  1.00  0.00     0.164 C 
ATOM      3  C   UNL     1      -7.709 -19.796  -7.378  1.00  0.00     0.232 C 
ATOM      4  O   UNL     1      -6.948 -18.646  -7.013  1.00  0.00    -0.482 OA
ATOM      5  C   UNL     1      -5.725 -18.333  -7.619  1.00  0.00     0.131 A 
ATOM      6  C   UNL     1      -4.948 -17.303  -7.083  1.00  0.00     0.093 A 
ATOM      7  C   UNL     1      -3.718 -16.977  -7.655  1.00  0.00     0.122 A 
ATOM      8  C   UNL     1      -3.257 -17.692  -8.766  1.00  0.00     0.092 A 
ATOM      9  C   UNL     1      -4.021 -18.728  -9.316  1.00  0.00     0.126 A 
ATOM     10  C   UNL     1      -5.288 -19.033  -8.766  1.00  0.00     0.039 A 
ENDROOT
BRANCH   2  11
ATOM     11  O   UNL     1      -8.359 -21.144  -9.302  1.00  0.00    -0.389 OA
ATOM     12  H   UNL     1      -8.324 -21.190 -10.293  1.00  0.00     0.211 HD
ENDBRANCH   2  11
BRANCH   3  13
ATOM     13  C   UNL     1      -9.140 -19.625  -6.926  1.00  0.00    -0.001 A 
ATOM     14  C   UNL     1      -9.980 -18.689  -7.553  1.00  0.00     0.057 A 
ATOM     15  C   UNL     1      -9.662 -20.434  -5.907  1.00  0.00     0.012 A 
ATOM     16  C   UNL     1     -11.316 -18.543  -7.159  1.00  0.00     0.157 A 
ATOM     17  C   UNL     1     -10.992 -20.296  -5.507  1.00  0.00     0.050 A 
ATOM     18  C   UNL     1     -11.828 -19.356  -6.120  1.00  0.00     0.157 A 
BRANCH  16  19
ATOM     19  O   UNL     1     -12.091 -17.590  -7.823  1.00  0.00    -0.504 OA
ATOM     20  H   UNL     1     -13.001 -17.777  -8.217  1.00  0.00     0.293 HD
ENDBRANCH  16  19
BRANCH  18  21
ATOM     21  O   UNL     1     -13.147 -19.266  -5.672  1.00  0.00    -0.504 OA
ATOM     22  H   UNL     1     -13.726 -18.445  -5.779  1.00  0.00     0.293 HD
ENDBRANCH  18  21
ENDBRANCH   3  13
BRANCH   9  23
ATOM     23  O   UNL     1      -3.487 -19.435 -10.397  1.00  0.00    -0.507 OA
ATOM     24  H   UNL     1      -2.577 -19.239 -10.794  1.00  0.00     0.293 HD
ENDBRANCH   9  23
BRANCH   7  25
ATOM     25  O   UNL     1      -2.958 -15.945  -7.109  1.00  0.00    -0.508 OA
ATOM     26  H   UNL     1      -2.218 -15.496  -7.636  1.00  0.00     0.293 HD
ENDBRANCH   7  25
TORSDOF 6
ENDMDL
MODEL 4
REMARK VINA RESULT:    -6.536      1.709      6.837
REMARK INTER + INTRA:          -8.246
REMARK INTER:                  -7.878
REMARK INTRA:                  -0.369
REMARK UNBOUND:                -0.373
REMARK SMILES Oc1cc(O)c2c(c1)O[C@@H](c1ccc(O)c(O)c1)[C@H](O)C2
REMARK SMILES IDX 21 1 19 2 10 3 9 4 7 5 8 6 2 7 3 8 4 9 6 10 20 11 11 13
REMARK SMILES IDX 18 14 12 15 16 16 13 17 14 18 17 19 15 21 5 23 1 25
REMARK H PARENT 20 12 17 20 15 22 5 24 1 26
REMARK Flexibility Score: inf
ROOT
ATOM      1  C   UNL     1      -9.479 -18.437  -7.669  1.00  0.00     0.079 C 
ATOM      2  C   UNL     1      -8.188 -19.275  -7.740  1.00  0.00     0.164 C 
ATOM      3  C   UNL     1      -7.804 -19.783  -6.336  1.00  0.00     0.232 C 
ATOM      4  O   UNL     1      -8.889 -20.524  -5.780  1.00  0.00    -0.482 OA
ATOM      5  C   UNL     1     -10.224 -20.145  -5.958  1.00  0.00     0.131 A 
ATOM      6  C   UNL     1     -11.218 -20.805  -5.230  1.00  0.00     0.093 A 
ATOM      7  C   UNL     1     -12.557 -20.440  -5.374  1.00  0.00     0.122 A 
ATOM      8  C   UNL     1     -12.905 -19.402  -6.245  1.00  0.00     0.092 A 
ATOM      9  C   UNL     1     -11.923 -18.728  -6.981  1.00  0.00     0.126 A 
ATOM     10  C   UNL     1     -10.569 -19.123  -6.871  1.00  0.00     0.039 A 
ENDROOT
BRANCH   2  11
ATOM     11  O   UNL     1      -7.146 -18.530  -8.321  1.00  0.00    -0.389 OA
ATOM     12  H   UNL     1      -7.555 -17.881  -8.951  1.00  0.00     0.211 HD
ENDBRANCH   2  11
BRANCH   3  13
ATOM     13  C   UNL     1      -6.568 -20.651  -6.390  1.00  0.00    -0.001 A 
ATOM     14  C   UNL     1      -5.371 -20.226  -5.791  1.00  0.00     0.057 A 
ATOM     15  C   UNL     1      -6.617 -21.914  -6.996  1.00  0.00     0.012 A 
ATOM     16  C   UNL     1      -4.229 -21.037  -5.811  1.00  0.00     0.157 A 
ATOM     17  C   UNL     1      -5.484 -22.729  -7.022  1.00  0.00     0.050 A 
ATOM     18  C   UNL     1      -4.286 -22.304  -6.438  1.00  0.00     0.157 A 
BRANCH  16  19
ATOM     19  O   UNL     1      -3.072 -20.549  -5.200  1.00  0.00    -0.504 OA
ATOM     20  H   UNL     1      -2.258 -21.112  -5.000  1.00  0.00     0.293 HD
ENDBRANCH  16  19
BRANCH  18  21
ATOM     21  O   UNL     1      -3.188 -23.166  -6.500  1.00  0.00    -0.504 OA
ATOM     22  H   UNL     1      -2.980 -23.759  -7.291  1.00  0.00     0.293 HD
ENDBRANCH  18  21
ENDBRANCH   3  13
BRANCH   9  23
ATOM     23  O   UNL     1     -12.327 -17.670  -7.800  1.00  0.00    -0.507 OA
ATOM     24  H   UNL     1     -13.267 -17.297  -7.802  1.00  0.00     0.293 HD
ENDBRANCH   9  23
BRANCH   7  25
ATOM     25  O   UNL     1     -13.534 -21.111  -4.643  1.00  0.00    -0.508 OA
ATOM     26  H   UNL     1     -13.389 -22.058  -4.309  1.00  0.00     0.293 HD
ENDBRANCH   7  25
TORSDOF 6
ENDMDL
MODEL 5
REMARK VINA RESULT:    -6.420      1.449      1.827
REMARK INTER + INTRA:          -8.107
REMARK INTER:                  -8.385
REMARK INTRA:                   0.278
REMARK UNBOUND:                -0.373
REMARK SMILES Oc1cc(O)c2c(c1)O[C@@H](c1ccc(O)c(O)c1)[C@H](O)C2
REMARK SMILES IDX 21 1 19 2 10 3 9 4 7 5 8 6 2 7 3 8 4 9 6 10 20 11 11 13
REMARK SMILES IDX 18 14 12 15 16 16 13 17 14 18 17 19 15 21 5 23 1 25
REMARK H PARENT 20 12 17 20 15 22 5 24 1 26
REMARK Flexibility Score: inf
ROOT
ATOM      1  C   UNL     1      -6.992 -18.293  -7.895  1.00  0.00     0.079 C 
ATOM      2  C   UNL     1      -8.456 -18.416  -7.431  1.00  0.00     0.164 C 
ATOM      3  C   UNL     1      -8.803 -19.891  -7.148  1.00  0.00     0.232 C 
ATOM      4  O   UNL     1      -7.894 -20.423  -6.186  1.00  0.00    -0.482 OA
ATOM      5  C   UNL     1      -6.533 -20.095  -6.180  1.00  0.00     0.131 A 
ATOM      6  C   UNL     1      -5.671 -20.796  -5.333  1.00  0.00     0.093 A 
ATOM      7  C   UNL     1      -4.308 -20.503  -5.314  1.00  0.00     0.122 A 
ATOM      8  C   UNL     1      -3.799 -19.506  -6.155  1.00  0.00     0.092 A 
ATOM      9  C   UNL     1      -4.647 -18.794  -7.011  1.00  0.00     0.126 A 
ATOM     10  C   UNL     1      -6.037 -19.058  -7.002  1.00  0.00     0.039 A 
ENDROOT
BRANCH   2  11
ATOM     11  O   UNL     1      -9.326 -17.856  -8.384  1.00  0.00    -0.389 OA
ATOM     12  H   UNL     1      -9.840 -17.136  -7.934  1.00  0.00     0.211 HD
ENDBRANCH   2  11
BRANCH   3  13
ATOM     13  C   UNL     1     -10.220 -20.031  -6.641  1.00  0.00    -0.001 A 
ATOM     14  C   UNL     1     -10.486 -20.714  -5.443  1.00  0.00     0.057 A 
ATOM     15  C   UNL     1     -11.282 -19.436  -7.337  1.00  0.00     0.012 A 
ATOM     16  C   UNL     1     -11.793 -20.824  -4.952  1.00  0.00     0.157 A 
ATOM     17  C   UNL     1     -12.588 -19.540  -6.856  1.00  0.00     0.050 A 
ATOM     18  C   UNL     1     -12.858 -20.231  -5.669  1.00  0.00     0.157 A 
BRANCH  16  19
ATOM     19  O   UNL     1     -11.984 -21.521  -3.757  1.00  0.00    -0.504 OA
ATOM     20  H   UNL     1     -12.689 -22.231  -3.624  1.00  0.00     0.293 HD
ENDBRANCH  16  19
BRANCH  18  21
ATOM     21  O   UNL     1     -14.187 -20.301  -5.244  1.00  0.00    -0.504 OA
ATOM     22  H   UNL     1     -14.938 -19.759  -5.645  1.00  0.00     0.293 HD
ENDBRANCH  18  21
ENDBRANCH   3  13
BRANCH   9  23
ATOM     23  O   UNL     1      -4.075 -17.842  -7.860  1.00  0.00    -0.507 OA
ATOM     24  H   UNL     1      -3.837 -16.905  -7.563  1.00  0.00     0.293 HD
ENDBRANCH   9  23
BRANCH   7  25
ATOM     25  O   UNL     1      -3.464 -21.210  -4.461  1.00  0.00    -0.508 OA
ATOM     26  H   UNL     1      -2.476 -21.317  -4.661  1.00  0.00     0.293 HD
ENDBRANCH   7  25
TORSDOF 6
ENDMDL
MODEL 6
REMARK VINA RESULT:    -6.341     13.702     15.895
REMARK INTER + INTRA:          -8.011
REMARK INTER:                  -7.638
REMARK INTRA:                  -0.373
REMARK UNBOUND:                -0.373
REMARK SMILES Oc1cc(O)c2c(c1)O[C@@H](c1ccc(O)c(O)c1)[C@H](O)C2
REMARK SMILES IDX 21 1 19 2 10 3 9 4 7 5 8 6 2 7 3 8 4 9 6 10 20 11 11 13
REMARK SMILES IDX 18 14 12 15 16 16 13 17 14 18 17 19 15 21 5 23 1 25
REMARK H PARENT 20 12 17 20 15 22 5 24 1 26
REMARK Flexibility Score: inf
ROOT
ATOM      1  C   UNL     1     -14.937  -9.643 -14.383  1.00  0.00     0.079 C 
ATOM      2  C   UNL     1     -13.720  -9.006 -15.081  1.00  0.00     0.164 C 
ATOM      3  C   UNL     1     -13.062 -10.021 -16.037  1.00  0.00     0.232 C 
ATOM      4  O   UNL     1     -14.028 -10.493 -16.975  1.00  0.00    -0.482 OA
ATOM      5  C   UNL     1     -15.357 -10.749 -16.619  1.00  0.00     0.131 A 
ATOM      6  C   UNL     1     -16.194 -11.386 -17.539  1.00  0.00     0.093 A 
ATOM      7  C   UNL     1     -17.519 -11.669 -17.208  1.00  0.00     0.122 A 
ATOM      8  C   UNL     1     -18.010 -11.320 -15.945  1.00  0.00     0.092 A 
ATOM      9  C   UNL     1     -17.186 -10.682 -15.010  1.00  0.00     0.126 A 
ATOM     10  C   UNL     1     -15.854 -10.355 -15.356  1.00  0.00     0.039 A 
ENDROOT
BRANCH   2  11
ATOM     11  O   UNL     1     -12.802  -8.523 -14.132  1.00  0.00    -0.389 OA
ATOM     12  H   UNL     1     -12.060  -9.181 -14.069  1.00  0.00     0.211 HD
ENDBRANCH   2  11
BRANCH   3  13
ATOM     13  C   UNL     1     -11.897  -9.402 -16.772  1.00  0.00    -0.001 A 
ATOM     14  C   UNL     1     -10.594  -9.894 -16.589  1.00  0.00     0.057 A 
ATOM     15  C   UNL     1     -12.110  -8.359 -17.685  1.00  0.00     0.012 A 
ATOM     16  C   UNL     1      -9.512  -9.345 -17.288  1.00  0.00     0.157 A 
ATOM     17  C   UNL     1     -11.038  -7.804 -18.386  1.00  0.00     0.050 A 
ATOM     18  C   UNL     1      -9.737  -8.284 -18.196  1.00  0.00     0.157 A 
BRANCH  16  19
ATOM     19  O   UNL     1      -8.244  -9.880 -17.053  1.00  0.00    -0.504 OA
ATOM     20  H   UNL     1      -7.615  -9.550 -16.336  1.00  0.00     0.293 HD
ENDBRANCH  16  19
BRANCH  18  21
ATOM     21  O   UNL     1      -8.708  -7.683 -18.926  1.00  0.00    -0.504 OA
ATOM     22  H   UNL     1      -8.826  -6.855 -19.492  1.00  0.00     0.293 HD
ENDBRANCH  18  21
ENDBRANCH   3  13
BRANCH   9  23
ATOM     23  O   UNL     1     -17.720 -10.399 -13.749  1.00  0.00    -0.507 OA
ATOM     24  H   UNL     1     -18.003  -9.472 -13.461  1.00  0.00     0.293 HD
ENDBRANCH   9  23
BRANCH   7  25
ATOM     25  O   UNL     1     -18.340 -12.301 -18.139  1.00  0.00    -0.508 OA
ATOM     26  H   UNL     1     -19.156 -11.841 -18.526  1.00  0.00     0.293 HD
ENDBRANCH   7  25
TORSDOF 6
ENDMDL
MODEL 7
REMARK VINA RESULT:    -6.293     11.876     13.352
REMARK INTER + INTRA:          -7.954
REMARK INTER:                  -7.665
REMARK INTRA:                  -0.289
REMARK UNBOUND:                -0.373
REMARK SMILES Oc1cc(O)c2c(c1)O[C@@H](c1ccc(O)c(O)c1)[C@H](O)C2
REMARK SMILES IDX 21 1 19 2 10 3 9 4 7 5 8 6 2 7 3 8 4 9 6 10 20 11 11 13
REMARK SMILES IDX 18 14 12 15 16 16 13 17 14 18 17 19 15 21 5 23 1 25
REMARK H PARENT 20 12 17 20 15 22 5 24 1 26
REMARK Flexibility Score: inf
ROOT
ATOM      1  C   UNL     1     -10.301 -10.185 -18.174  1.00  0.00     0.079 C 
ATOM      2  C   UNL     1     -11.415  -9.561 -17.311  1.00  0.00     0.164 C 
ATOM      3  C   UNL     1     -12.395 -10.652 -16.836  1.00  0.00     0.232 C 
ATOM      4  O   UNL     1     -11.680 -11.665 -16.130  1.00  0.00    -0.482 OA
ATOM      5  C   UNL     1     -10.412 -12.102 -16.527  1.00  0.00     0.131 A 
ATOM      6  C   UNL     1      -9.856 -13.223 -15.906  1.00  0.00     0.093 A 
ATOM      7  C   UNL     1      -8.600 -13.693 -16.290  1.00  0.00     0.122 A 
ATOM      8  C   UNL     1      -7.896 -13.042 -17.310  1.00  0.00     0.092 A 
ATOM      9  C   UNL     1      -8.437 -11.918 -17.945  1.00  0.00     0.126 A 
ATOM     10  C   UNL     1      -9.692 -11.413 -17.529  1.00  0.00     0.039 A 
ENDROOT
BRANCH   2  11
ATOM     11  O   UNL     1     -12.081  -8.546 -18.022  1.00  0.00    -0.389 OA
ATOM     12  H   UNL     1     -11.406  -7.862 -18.273  1.00  0.00     0.211 HD
ENDBRANCH   2  11
BRANCH   3  13
ATOM     13  C   UNL     1     -13.468 -10.071 -15.945  1.00  0.00    -0.001 A 
ATOM     14  C   UNL     1     -13.137  -9.155 -14.932  1.00  0.00     0.057 A 
ATOM     15  C   UNL     1     -14.815 -10.401 -16.152  1.00  0.00     0.012 A 
ATOM     16  C   UNL     1     -14.129  -8.590 -14.121  1.00  0.00     0.157 A 
ATOM     17  C   UNL     1     -15.810  -9.844 -15.348  1.00  0.00     0.050 A 
ATOM     18  C   UNL     1     -15.483  -8.941 -14.329  1.00  0.00     0.157 A 
BRANCH  16  19
ATOM     19  O   UNL     1     -13.727  -7.691 -13.130  1.00  0.00    -0.504 OA
ATOM     20  H   UNL     1     -14.349  -7.043 -12.669  1.00  0.00     0.293 HD
ENDBRANCH  16  19
BRANCH  18  21
ATOM     21  O   UNL     1     -16.526  -8.422 -13.558  1.00  0.00    -0.504 OA
ATOM     22  H   UNL     1     -16.435  -8.164 -12.586  1.00  0.00     0.293 HD
ENDBRANCH  18  21
ENDBRANCH   3  13
BRANCH   9  23
ATOM     23  O   UNL     1      -7.708 -11.339 -18.987  1.00  0.00    -0.507 OA
ATOM     24  H   UNL     1      -7.971 -11.420 -19.961  1.00  0.00     0.293 HD
ENDBRANCH   9  23
BRANCH   7  25
ATOM     25  O   UNL     1      -8.061 -14.810 -15.656  1.00  0.00    -0.508 OA
ATOM     26  H   UNL     1      -7.344 -14.721 -14.944  1.00  0.00     0.293 HD
ENDBRANCH   7  25
TORSDOF 6
ENDMDL
MODEL 8
REMARK VINA RESULT:    -6.260      2.389      7.485
REMARK INTER + INTRA:          -7.914
REMARK INTER:                  -7.596
REMARK INTRA:                  -0.317
REMARK UNBOUND:                -0.373
REMARK SMILES Oc1cc(O)c2c(c1)O[C@@H](c1ccc(O)c(O)c1)[C@H](O)C2
REMARK SMILES IDX 21 1 19 2 10 3 9 4 7 5 8 6 2 7 3 8 4 9 6 10 20 11 11 13
REMARK SMILES IDX 18 14 12 15 16 16 13 17 14 18 17 19 15 21 5 23 1 25
REMARK H PARENT 20 12 17 20 15 22 5 24 1 26
REMARK Flexibility Score: inf
ROOT
ATOM      1  C   UNL     1      -7.839 -20.788  -6.000  1.00  0.00     0.079 C 
ATOM      2  C   UNL     1      -6.555 -20.068  -6.453  1.00  0.00     0.164 C 
ATOM      3  C   UNL     1      -6.698 -19.587  -7.911  1.00  0.00     0.232 C 
ATOM      4  O   UNL     1      -7.848 -18.751  -8.030  1.00  0.00    -0.482 OA
ATOM      5  C   UNL     1      -9.039 -19.012  -7.343  1.00  0.00     0.131 A 
ATOM      6  C   UNL     1     -10.177 -18.263  -7.653  1.00  0.00     0.093 A 
ATOM      7  C   UNL     1     -11.384 -18.509  -6.996  1.00  0.00     0.122 A 
ATOM      8  C   UNL     1     -11.456 -19.517  -6.029  1.00  0.00     0.092 A 
ATOM      9  C   UNL     1     -10.326 -20.279  -5.706  1.00  0.00     0.126 A 
ATOM     10  C   UNL     1      -9.091 -20.004  -6.338  1.00  0.00     0.039 A 
ENDROOT
BRANCH   2  11
ATOM     11  O   UNL     1      -5.436 -20.905  -6.295  1.00  0.00    -0.389 OA
ATOM     12  H   UNL     1      -5.313 -21.406  -7.143  1.00  0.00     0.211 HD
ENDBRANCH   2  11
BRANCH   3  13
ATOM     13  C   UNL     1      -5.470 -18.832  -8.360  1.00  0.00    -0.001 A 
ATOM     14  C   UNL     1      -5.250 -17.510  -7.938  1.00  0.00     0.057 A 
ATOM     15  C   UNL     1      -4.508 -19.460  -9.164  1.00  0.00     0.012 A 
ATOM     16  C   UNL     1      -4.099 -16.813  -8.327  1.00  0.00     0.157 A 
ATOM     17  C   UNL     1      -3.358 -18.774  -9.557  1.00  0.00     0.050 A 
ATOM     18  C   UNL     1      -3.142 -17.452  -9.150  1.00  0.00     0.157 A 
BRANCH  16  19
ATOM     19  O   UNL     1      -3.948 -15.500  -7.875  1.00  0.00    -0.504 OA
ATOM     20  H   UNL     1      -3.076 -14.993  -7.893  1.00  0.00     0.293 HD
ENDBRANCH  16  19
BRANCH  18  21
ATOM     21  O   UNL     1      -1.974 -16.820  -9.580  1.00  0.00    -0.504 OA
ATOM     22  H   UNL     1      -1.955 -15.927 -10.051  1.00  0.00     0.293 HD
ENDBRANCH  18  21
ENDBRANCH   3  13
BRANCH   9  23
ATOM     23  O   UNL     1     -10.472 -21.302  -4.765  1.00  0.00    -0.507 OA
ATOM     24  H   UNL     1      -9.711 -21.641  -4.191  1.00  0.00     0.293 HD
ENDBRANCH   9  23
BRANCH   7  25
ATOM     25  O   UNL     1     -12.507 -17.750  -7.316  1.00  0.00    -0.508 OA
ATOM     26  H   UNL     1     -12.892 -17.743  -8.254  1.00  0.00     0.293 HD
ENDBRANCH   7  25
TORSDOF 6
ENDMDL
MODEL 9
REMARK VINA RESULT:    -6.130     11.455     14.099
REMARK INTER + INTRA:          -7.757
REMARK INTER:                  -7.397
REMARK INTRA:                  -0.360
REMARK UNBOUND:                -0.373
REMARK SMILES Oc1cc(O)c2c(c1)O[C@@H](c1ccc(O)c(O)c1)[C@H](O)C2
REMARK SMILES IDX 21 1 19 2 10 3 9 4 7 5 8 6 2 7 3 8 4 9 6 10 20 11 11 13
REMARK SMILES IDX 18 14 12 15 16 16 13 17 14 18 17 19 15 21 5 23 1 25
REMARK H PARENT 20 12 17 20 15 22 5 24 1 26
REMARK Flexibility Score: inf
ROOT
ATOM      1  C   UNL     1     -12.775  -8.739 -15.090  1.00  0.00     0.079 C 
ATOM      2  C   UNL     1     -11.858  -9.650 -15.929  1.00  0.00     0.164 C 
ATOM      3  C   UNL     1     -11.855 -11.079 -15.352  1.00  0.00     0.232 C 
ATOM      4  O   UNL     1     -13.190 -11.577 -15.295  1.00  0.00    -0.482 OA
ATOM      5  C   UNL     1     -14.277 -10.770 -14.942  1.00  0.00     0.131 A 
ATOM      6  C   UNL     1     -15.521 -11.366 -14.723  1.00  0.00     0.093 A 
ATOM      7  C   UNL     1     -16.621 -10.590 -14.355  1.00  0.00     0.122 A 
ATOM      8  C   UNL     1     -16.474  -9.207 -14.196  1.00  0.00     0.092 A 
ATOM      9  C   UNL     1     -15.234  -8.592 -14.410  1.00  0.00     0.126 A 
ATOM     10  C   UNL     1     -14.127  -9.369 -14.825  1.00  0.00     0.039 A 
ENDROOT
BRANCH   2  11
ATOM     11  O   UNL     1     -10.557  -9.117 -15.993  1.00  0.00    -0.389 OA
ATOM     12  H   UNL     1     -10.245  -8.974 -15.061  1.00  0.00     0.211 HD
ENDBRANCH   2  11
BRANCH   3  13
ATOM     13  C   UNL     1     -11.001 -12.003 -16.189  1.00  0.00    -0.001 A 
ATOM     14  C   UNL     1      -9.972 -12.755 -15.599  1.00  0.00     0.057 A 
ATOM     15  C   UNL     1     -11.260 -12.158 -17.558  1.00  0.00     0.012 A 
ATOM     16  C   UNL     1      -9.195 -13.635 -16.363  1.00  0.00     0.157 A 
ATOM     17  C   UNL     1     -10.491 -13.031 -18.328  1.00  0.00     0.050 A 
ATOM     18  C   UNL     1      -9.456 -13.773 -17.747  1.00  0.00     0.157 A 
BRANCH  16  19
ATOM     19  O   UNL     1      -8.185 -14.347 -15.711  1.00  0.00    -0.504 OA
ATOM     20  H   UNL     1      -7.208 -14.097 -15.741  1.00  0.00     0.293 HD
ENDBRANCH  16  19
BRANCH  18  21
ATOM     21  O   UNL     1      -8.721 -14.627 -18.572  1.00  0.00    -0.504 OA
ATOM     22  H   UNL     1      -8.671 -14.537 -19.577  1.00  0.00     0.293 HD
ENDBRANCH  18  21
ENDBRANCH   3  13
BRANCH   9  23
ATOM     23  O   UNL     1     -15.139  -7.215 -14.191  1.00  0.00    -0.507 OA
ATOM     24  H   UNL     1     -14.284  -6.756 -13.905  1.00  0.00     0.293 HD
ENDBRANCH   9  23
BRANCH   7  25
ATOM     25  O   UNL     1     -17.854 -11.202 -14.145  1.00  0.00    -0.508 OA
ATOM     26  H   UNL     1     -18.691 -10.658 -13.965  1.00  0.00     0.293 HD
ENDBRANCH   7  25
TORSDOF 6
ENDMDL
