MODEL 1
REMARK VINA RESULT:    -3.625      0.000      0.000
REMARK INTER + INTRA:          -5.423
REMARK INTER:                  -4.896
REMARK INTRA:                  -0.526
REMARK UNBOUND:                -0.526
REMARK SMILES O=C[C@@H](O)[C@@H](O)[C@H](O)CO
REMARK SMILES IDX 7 1 9 2 10 3 5 5 3 6 2 7 1 8 4 9 6 11 8 13
REMARK H PARENT 10 4 4 10 6 12 8 14
REMARK Flexibility Score: inf
ROOT
ATOM      1  C   UNL     1     -27.587 -12.724  21.175  1.00  0.00     0.171 C 
ENDROOT
BRANCH   1   2
ATOM      2  C   UNL     1     -26.697 -12.178  20.035  1.00  0.00     0.190 C 
BRANCH   2   3
ATOM      3  O   UNL     1     -25.653 -13.073  19.762  1.00  0.00    -0.394 OA
ATOM      4  H   UNL     1     -25.851 -13.904  20.269  1.00  0.00     0.210 HD
ENDBRANCH   2   3
ENDBRANCH   1   2
BRANCH   1   5
ATOM      5  C   UNL     1     -29.095 -12.850  20.812  1.00  0.00     0.181 C 
BRANCH   5   6
ATOM      6  C   UNL     1     -29.915 -13.809  21.718  1.00  0.00     0.209 C 
BRANCH   6   7
ATOM      7  C   UNL     1     -30.731 -13.029  22.715  1.00  0.00     0.258 C 
ATOM      8  O   UNL     1     -30.185 -12.322  23.548  1.00  0.00    -0.300 OA
ENDBRANCH   6   7
BRANCH   6   9
ATOM      9  O   UNL     1     -30.781 -14.584  20.931  1.00  0.00    -0.383 OA
ATOM     10  H   UNL     1     -30.214 -15.208  20.406  1.00  0.00     0.211 HD
ENDBRANCH   6   9
ENDBRANCH   5   6
BRANCH   5  11
ATOM     11  O   UNL     1     -29.684 -11.572  20.768  1.00  0.00    -0.387 OA
ATOM     12  H   UNL     1     -30.586 -11.638  21.176  1.00  0.00     0.211 HD
ENDBRANCH   5  11
ENDBRANCH   1   5
BRANCH   1  13
ATOM     13  O   UNL     1     -27.417 -11.986  22.362  1.00  0.00    -0.388 OA
ATOM     14  H   UNL     1     -27.331 -12.621  23.118  1.00  0.00     0.211 HD
ENDBRANCH   1  13
TORSDOF 8
ENDMDL
MODEL 2
REMARK VINA RESULT:    -3.595      2.870      5.611
REMARK INTER + INTRA:          -5.382
REMARK INTER:                  -5.299
REMARK INTRA:                  -0.083
REMARK UNBOUND:                -0.526
REMARK SMILES O=C[C@@H](O)[C@@H](O)[C@H](O)CO
REMARK SMILES IDX 7 1 9 2 10 3 5 5 3 6 2 7 1 8 4 9 6 11 8 13
REMARK H PARENT 10 4 4 10 6 12 8 14
REMARK Flexibility Score: inf
ROOT
ATOM      1  C   UNL     1     -26.229 -12.105  19.826  1.00  0.00     0.171 C 
ENDROOT
BRANCH   1   2
ATOM      2  C   UNL     1     -27.602 -12.303  20.509  1.00  0.00     0.190 C 
BRANCH   2   3
ATOM      3  O   UNL     1     -27.561 -13.410  21.370  1.00  0.00    -0.394 OA
ATOM      4  H   UNL     1     -27.938 -14.177  20.865  1.00  0.00     0.210 HD
ENDBRANCH   2   3
ENDBRANCH   1   2
BRANCH   1   5
ATOM      5  C   UNL     1     -26.307 -11.572  18.365  1.00  0.00     0.181 C 
BRANCH   5   6
ATOM      6  C   UNL     1     -26.118 -10.038  18.212  1.00  0.00     0.209 C 
BRANCH   6   7
ATOM      7  C   UNL     1     -24.910  -9.734  17.364  1.00  0.00     0.258 C 
ATOM      8  O   UNL     1     -24.158  -8.820  17.661  1.00  0.00    -0.300 OA
ENDBRANCH   6   7
BRANCH   6   9
ATOM      9  O   UNL     1     -27.252  -9.477  17.603  1.00  0.00    -0.383 OA
ATOM     10  H   UNL     1     -27.409  -8.599  18.040  1.00  0.00     0.211 HD
ENDBRANCH   6   9
ENDBRANCH   5   6
BRANCH   5  11
ATOM     11  O   UNL     1     -25.399 -12.276  17.551  1.00  0.00    -0.387 OA
ATOM     12  H   UNL     1     -24.538 -12.340  18.040  1.00  0.00     0.211 HD
ENDBRANCH   5  11
ENDBRANCH   1   5
BRANCH   1  13
ATOM     13  O   UNL     1     -25.446 -13.273  19.893  1.00  0.00    -0.388 OA
ATOM     14  H   UNL     1     -25.605 -13.709  20.769  1.00  0.00     0.211 HD
ENDBRANCH   1  13
TORSDOF 8
ENDMDL
MODEL 3
REMARK VINA RESULT:    -3.590      2.921      5.404
REMARK INTER + INTRA:          -5.375
REMARK INTER:                  -4.782
REMARK INTRA:                  -0.594
REMARK UNBOUND:                -0.526
REMARK SMILES O=C[C@@H](O)[C@@H](O)[C@H](O)CO
REMARK SMILES IDX 7 1 9 2 10 3 5 5 3 6 2 7 1 8 4 9 6 11 8 13
REMARK H PARENT 10 4 4 10 6 12 8 14
REMARK Flexibility Score: inf
ROOT
ATOM      1  C   UNL     1     -26.222 -11.944  19.496  1.00  0.00     0.171 C 
ENDROOT
BRANCH   1   2
ATOM      2  C   UNL     1     -27.638 -11.965  20.116  1.00  0.00     0.190 C 
BRANCH   2   3
ATOM      3  O   UNL     1     -28.130 -10.659  20.247  1.00  0.00    -0.394 OA
ATOM      4  H   UNL     1     -27.489 -10.064  19.778  1.00  0.00     0.210 HD
ENDBRANCH   2   3
ENDBRANCH   1   2
BRANCH   1   5
ATOM      5  C   UNL     1     -26.186 -11.578  17.983  1.00  0.00     0.181 C 
BRANCH   5   6
ATOM      6  C   UNL     1     -25.923 -10.079  17.672  1.00  0.00     0.209 C 
BRANCH   6   7
ATOM      7  C   UNL     1     -27.140  -9.445  17.050  1.00  0.00     0.258 C 
ATOM      8  O   UNL     1     -28.017  -8.966  17.751  1.00  0.00    -0.300 OA
ENDBRANCH   6   7
BRANCH   6   9
ATOM      9  O   UNL     1     -25.611  -9.395  18.858  1.00  0.00    -0.383 OA
ATOM     10  H   UNL     1     -25.804 -10.015  19.609  1.00  0.00     0.211 HD
ENDBRANCH   6   9
ENDBRANCH   5   6
BRANCH   5  11
ATOM     11  O   UNL     1     -25.260 -12.401  17.314  1.00  0.00    -0.387 OA
ATOM     12  H   UNL     1     -24.903 -13.054  17.971  1.00  0.00     0.211 HD
ENDBRANCH   5  11
ENDBRANCH   1   5
BRANCH   1  13
ATOM     13  O   UNL     1     -25.535 -13.149  19.737  1.00  0.00    -0.388 OA
ATOM     14  H   UNL     1     -26.192 -13.891  19.742  1.00  0.00     0.211 HD
ENDBRANCH   1  13
TORSDOF 8
ENDMDL
MODEL 4
REMARK VINA RESULT:    -3.555      3.673      4.428
REMARK INTER + INTRA:          -5.328
REMARK INTER:                  -4.837
REMARK INTRA:                  -0.491
REMARK UNBOUND:                -0.526
REMARK SMILES O=C[C@@H](O)[C@@H](O)[C@H](O)CO
REMARK SMILES IDX 7 1 9 2 10 3 5 5 3 6 2 7 1 8 4 9 6 11 8 13
REMARK H PARENT 10 4 4 10 6 12 8 14
REMARK Flexibility Score: inf
ROOT
ATOM      1  C   UNL     1     -26.174 -12.667  20.323  1.00  0.00     0.171 C 
ENDROOT
BRANCH   1   2
ATOM      2  C   UNL     1     -26.377 -11.653  19.175  1.00  0.00     0.190 C 
BRANCH   2   3
ATOM      3  O   UNL     1     -25.736 -12.101  18.011  1.00  0.00    -0.394 OA
ATOM      4  H   UNL     1     -25.526 -11.294  17.473  1.00  0.00     0.210 HD
ENDBRANCH   2   3
ENDBRANCH   1   2
BRANCH   1   5
ATOM      5  C   UNL     1     -25.982 -12.022  21.727  1.00  0.00     0.181 C 
BRANCH   5   6
ATOM      6  C   UNL     1     -24.820 -12.613  22.572  1.00  0.00     0.209 C 
BRANCH   6   7
ATOM      7  C   UNL     1     -24.542 -11.746  23.772  1.00  0.00     0.258 C 
ATOM      8  O   UNL     1     -23.906 -10.711  23.656  1.00  0.00    -0.300 OA
ENDBRANCH   6   7
BRANCH   6   9
ATOM      9  O   UNL     1     -25.160 -13.902  23.013  1.00  0.00    -0.383 OA
ATOM     10  H   UNL     1     -25.569 -13.801  23.912  1.00  0.00     0.211 HD
ENDBRANCH   6   9
ENDBRANCH   5   6
BRANCH   5  11
ATOM     11  O   UNL     1     -25.851 -10.626  21.597  1.00  0.00    -0.387 OA
ATOM     12  H   UNL     1     -24.887 -10.403  21.666  1.00  0.00     0.211 HD
ENDBRANCH   5  11
ENDBRANCH   1   5
BRANCH   1  13
ATOM     13  O   UNL     1     -25.130 -13.568  20.038  1.00  0.00    -0.388 OA
ATOM     14  H   UNL     1     -24.471 -13.112  19.454  1.00  0.00     0.211 HD
ENDBRANCH   1  13
TORSDOF 8
ENDMDL
MODEL 5
REMARK VINA RESULT:    -3.555      2.313      4.976
REMARK INTER + INTRA:          -5.328
REMARK INTER:                  -4.675
REMARK INTRA:                  -0.653
REMARK UNBOUND:                -0.526
REMARK SMILES O=C[C@@H](O)[C@@H](O)[C@H](O)CO
REMARK SMILES IDX 7 1 9 2 10 3 5 5 3 6 2 7 1 8 4 9 6 11 8 13
REMARK H PARENT 10 4 4 10 6 12 8 14
REMARK Flexibility Score: inf
ROOT
ATOM      1  C   UNL     1     -26.210 -12.386  20.504  1.00  0.00     0.171 C 
ENDROOT
BRANCH   1   2
ATOM      2  C   UNL     1     -27.617 -12.885  20.904  1.00  0.00     0.190 C 
BRANCH   2   3
ATOM      3  O   UNL     1     -28.006 -12.315  22.124  1.00  0.00    -0.394 OA
ATOM      4  H   UNL     1     -28.979 -12.489  22.222  1.00  0.00     0.210 HD
ENDBRANCH   2   3
ENDBRANCH   1   2
BRANCH   1   5
ATOM      5  C   UNL     1     -26.209 -11.152  19.554  1.00  0.00     0.181 C 
BRANCH   5   6
ATOM      6  C   UNL     1     -26.427 -11.476  18.051  1.00  0.00     0.209 C 
BRANCH   6   7
ATOM      7  C   UNL     1     -26.573 -10.208  17.250  1.00  0.00     0.258 C 
ATOM      8  O   UNL     1     -25.861  -9.243  17.480  1.00  0.00    -0.300 OA
ENDBRANCH   6   7
BRANCH   6   9
ATOM      9  O   UNL     1     -25.332 -12.201  17.556  1.00  0.00    -0.383 OA
ATOM     10  H   UNL     1     -24.699 -11.541  17.169  1.00  0.00     0.211 HD
ENDBRANCH   6   9
ENDBRANCH   5   6
BRANCH   5  11
ATOM     11  O   UNL     1     -27.144 -10.201  20.005  1.00  0.00    -0.387 OA
ATOM     12  H   UNL     1     -26.752  -9.737  20.789  1.00  0.00     0.211 HD
ENDBRANCH   5  11
ENDBRANCH   1   5
BRANCH   1  13
ATOM     13  O   UNL     1     -25.424 -13.427  19.974  1.00  0.00    -0.388 OA
ATOM     14  H   UNL     1     -25.461 -13.377  18.985  1.00  0.00     0.211 HD
ENDBRANCH   1  13
TORSDOF 8
ENDMDL
MODEL 6
REMARK VINA RESULT:    -3.531      1.608      4.016
REMARK INTER + INTRA:          -5.296
REMARK INTER:                  -4.596
REMARK INTRA:                  -0.699
REMARK UNBOUND:                -0.526
REMARK SMILES O=C[C@@H](O)[C@@H](O)[C@H](O)CO
REMARK SMILES IDX 7 1 9 2 10 3 5 5 3 6 2 7 1 8 4 9 6 11 8 13
REMARK H PARENT 10 4 4 10 6 12 8 14
REMARK Flexibility Score: inf
ROOT
ATOM      1  C   UNL     1     -28.445 -12.060  21.817  1.00  0.00     0.171 C 
ENDROOT
BRANCH   1   2
ATOM      2  C   UNL     1     -29.911 -12.523  21.977  1.00  0.00     0.190 C 
BRANCH   2   3
ATOM      3  O   UNL     1     -30.245 -13.434  20.964  1.00  0.00    -0.394 OA
ATOM      4  H   UNL     1     -30.176 -12.942  20.105  1.00  0.00     0.210 HD
ENDBRANCH   2   3
ENDBRANCH   1   2
BRANCH   1   5
ATOM      5  C   UNL     1     -27.534 -13.056  21.042  1.00  0.00     0.181 C 
BRANCH   5   6
ATOM      6  C   UNL     1     -26.075 -12.576  20.813  1.00  0.00     0.209 C 
BRANCH   6   7
ATOM      7  C   UNL     1     -25.138 -13.243  21.786  1.00  0.00     0.258 C 
ATOM      8  O   UNL     1     -25.119 -12.906  22.959  1.00  0.00    -0.300 OA
ENDBRANCH   6   7
BRANCH   6   9
ATOM      9  O   UNL     1     -25.670 -12.890  19.506  1.00  0.00    -0.383 OA
ATOM     10  H   UNL     1     -26.344 -13.520  19.138  1.00  0.00     0.211 HD
ENDBRANCH   6   9
ENDBRANCH   5   6
BRANCH   5  11
ATOM     11  O   UNL     1     -27.557 -14.315  21.673  1.00  0.00    -0.387 OA
ATOM     12  H   UNL     1     -26.811 -14.342  22.326  1.00  0.00     0.211 HD
ENDBRANCH   5  11
ENDBRANCH   1   5
BRANCH   1  13
ATOM     13  O   UNL     1     -27.873 -11.719  23.058  1.00  0.00    -0.388 OA
ATOM     14  H   UNL     1     -27.259 -10.953  22.922  1.00  0.00     0.211 HD
ENDBRANCH   1  13
TORSDOF 8
ENDMDL
MODEL 7
REMARK VINA RESULT:    -3.517      1.052      4.135
REMARK INTER + INTRA:          -5.276
REMARK INTER:                  -4.772
REMARK INTRA:                  -0.504
REMARK UNBOUND:                -0.526
REMARK SMILES O=C[C@@H](O)[C@@H](O)[C@H](O)CO
REMARK SMILES IDX 7 1 9 2 10 3 5 5 3 6 2 7 1 8 4 9 6 11 8 13
REMARK H PARENT 10 4 4 10 6 12 8 14
REMARK Flexibility Score: inf
ROOT
ATOM      1  C   UNL     1     -29.137 -12.846  20.798  1.00  0.00     0.171 C 
ENDROOT
BRANCH   1   2
ATOM      2  C   UNL     1     -29.979 -13.730  21.746  1.00  0.00     0.190 C 
BRANCH   2   3
ATOM      3  O   UNL     1     -30.828 -14.565  21.006  1.00  0.00    -0.394 OA
ATOM      4  H   UNL     1     -31.475 -13.973  20.541  1.00  0.00     0.210 HD
ENDBRANCH   2   3
ENDBRANCH   1   2
BRANCH   1   5
ATOM      5  C   UNL     1     -27.609 -12.852  21.097  1.00  0.00     0.181 C 
BRANCH   5   6
ATOM      6  C   UNL     1     -26.707 -12.344  19.940  1.00  0.00     0.209 C 
BRANCH   6   7
ATOM      7  C   UNL     1     -26.266 -10.926  20.193  1.00  0.00     0.258 C 
ATOM      8  O   UNL     1     -27.061 -10.004  20.107  1.00  0.00    -0.300 OA
ENDBRANCH   6   7
BRANCH   6   9
ATOM      9  O   UNL     1     -25.570 -13.159  19.829  1.00  0.00    -0.383 OA
ATOM     10  H   UNL     1     -25.787 -14.020  20.275  1.00  0.00     0.211 HD
ENDBRANCH   6   9
ENDBRANCH   5   6
BRANCH   5  11
ATOM     11  O   UNL     1     -27.353 -12.140  22.285  1.00  0.00    -0.387 OA
ATOM     12  H   UNL     1     -27.163 -11.198  22.041  1.00  0.00     0.211 HD
ENDBRANCH   5  11
ENDBRANCH   1   5
BRANCH   1  13
ATOM     13  O   UNL     1     -29.633 -11.530  20.743  1.00  0.00    -0.388 OA
ATOM     14  H   UNL     1     -29.334 -11.047  21.555  1.00  0.00     0.211 HD
ENDBRANCH   1  13
TORSDOF 8
ENDMDL
MODEL 8
REMARK VINA RESULT:    -3.457     10.342     11.157
REMARK INTER + INTRA:          -5.196
REMARK INTER:                  -4.541
REMARK INTRA:                  -0.654
REMARK UNBOUND:                -0.526
REMARK SMILES O=C[C@@H](O)[C@@H](O)[C@H](O)CO
REMARK SMILES IDX 7 1 9 2 10 3 5 5 3 6 2 7 1 8 4 9 6 11 8 13
REMARK H PARENT 10 4 4 10 6 12 8 14
REMARK Flexibility Score: inf
ROOT
ATOM      1  C   UNL     1     -21.408 -14.596  30.028  1.00  0.00     0.171 C 
ENDROOT
BRANCH   1   2
ATOM      2  C   UNL     1     -21.501 -15.611  28.866  1.00  0.00     0.190 C 
BRANCH   2   3
ATOM      3  O   UNL     1     -22.176 -15.043  27.777  1.00  0.00    -0.394 OA
ATOM      4  H   UNL     1     -23.048 -15.512  27.706  1.00  0.00     0.210 HD
ENDBRANCH   2   3
ENDBRANCH   1   2
BRANCH   1   5
ATOM      5  C   UNL     1     -22.762 -14.301  30.737  1.00  0.00     0.181 C 
BRANCH   5   6
ATOM      6  C   UNL     1     -22.902 -12.871  31.325  1.00  0.00     0.209 C 
BRANCH   6   7
ATOM      7  C   UNL     1     -24.284 -12.659  31.885  1.00  0.00     0.258 C 
ATOM      8  O   UNL     1     -25.227 -12.438  31.142  1.00  0.00    -0.300 OA
ENDBRANCH   6   7
BRANCH   6   9
ATOM      9  O   UNL     1     -21.964 -12.685  32.353  1.00  0.00    -0.383 OA
ATOM     10  H   UNL     1     -21.513 -11.817  32.180  1.00  0.00     0.211 HD
ENDBRANCH   6   9
ENDBRANCH   5   6
BRANCH   5  11
ATOM     11  O   UNL     1     -23.830 -14.595  29.868  1.00  0.00    -0.387 OA
ATOM     12  H   UNL     1     -23.475 -15.149  29.126  1.00  0.00     0.211 HD
ENDBRANCH   5  11
ENDBRANCH   1   5
BRANCH   1  13
ATOM     13  O   UNL     1     -20.784 -13.401  29.621  1.00  0.00    -0.388 OA
ATOM     14  H   UNL     1     -19.822 -13.584  29.469  1.00  0.00     0.211 HD
ENDBRANCH   1  13
TORSDOF 8
ENDMDL
MODEL 9
REMARK VINA RESULT:    -3.445      1.741      4.786
REMARK INTER + INTRA:          -5.179
REMARK INTER:                  -4.662
REMARK INTRA:                  -0.517
REMARK UNBOUND:                -0.526
REMARK SMILES O=C[C@@H](O)[C@@H](O)[C@H](O)CO
REMARK SMILES IDX 7 1 9 2 10 3 5 5 3 6 2 7 1 8 4 9 6 11 8 13
REMARK H PARENT 10 4 4 10 6 12 8 14
REMARK Flexibility Score: inf
ROOT
ATOM      1  C   UNL     1     -27.392 -12.424  21.077  1.00  0.00     0.171 C 
ENDROOT
BRANCH   1   2
ATOM      2  C   UNL     1     -28.883 -12.828  21.007  1.00  0.00     0.190 C 
BRANCH   2   3
ATOM      3  O   UNL     1     -29.668 -11.726  20.640  1.00  0.00    -0.394 OA
ATOM      4  H   UNL     1     -30.505 -11.784  21.169  1.00  0.00     0.210 HD
ENDBRANCH   2   3
ENDBRANCH   1   2
BRANCH   1   5
ATOM      5  C   UNL     1     -26.692 -12.299  19.692  1.00  0.00     0.181 C 
BRANCH   5   6
ATOM      6  C   UNL     1     -26.380 -10.847  19.238  1.00  0.00     0.209 C 
BRANCH   6   7
ATOM      7  C   UNL     1     -25.876 -10.831  17.819  1.00  0.00     0.258 C 
ATOM      8  O   UNL     1     -25.760 -11.871  17.189  1.00  0.00    -0.300 OA
ENDBRANCH   6   7
BRANCH   6   9
ATOM      9  O   UNL     1     -27.543 -10.064  19.315  1.00  0.00    -0.383 OA
ATOM     10  H   UNL     1     -28.108 -10.309  18.536  1.00  0.00     0.211 HD
ENDBRANCH   6   9
ENDBRANCH   5   6
BRANCH   5  11
ATOM     11  O   UNL     1     -25.530 -13.095  19.671  1.00  0.00    -0.387 OA
ATOM     12  H   UNL     1     -24.748 -12.488  19.608  1.00  0.00     0.211 HD
ENDBRANCH   5  11
ENDBRANCH   1   5
BRANCH   1  13
ATOM     13  O   UNL     1     -26.666 -13.275  21.932  1.00  0.00    -0.388 OA
ATOM     14  H   UNL     1     -25.733 -13.330  21.602  1.00  0.00     0.211 HD
ENDBRANCH   1  13
TORSDOF 8
ENDMDL
