MODEL 1
REMARK VINA RESULT:    -3.271      0.000      0.000
REMARK INTER + INTRA:          -3.962
REMARK INTER:                  -3.749
REMARK INTRA:                  -0.214
REMARK UNBOUND:                -0.214
REMARK SMILES CC=Cc1ccc(O)c(OC)c1
REMARK SMILES IDX 4 1 12 2 9 3 7 4 6 5 5 6 3 7 1 8 2 9 10 10 11 11 8 12
REMARK H PARENT 8 13
REMARK Flexibility Score: inf
ROOT
ATOM      1  C   UNL     1     134.424 141.898 142.276  1.00  0.00    -0.022 A 
ATOM      2  C   UNL     1     133.809 143.047 141.757  1.00  0.00     0.058 A 
ATOM      3  C   UNL     1     132.758 142.939 140.825  1.00  0.00     0.161 A 
ATOM      4  C   UNL     1     132.344 141.667 140.401  1.00  0.00     0.157 A 
ATOM      5  C   UNL     1     132.977 140.520 140.897  1.00  0.00     0.051 A 
ATOM      6  C   UNL     1     134.017 140.634 141.822  1.00  0.00     0.012 A 
ENDROOT
BRANCH   1   7
ATOM      7  C   UNL     1     135.541 142.048 143.231  1.00  0.00     0.003 C 
ATOM      8  C   UNL     1     137.328 142.037 141.469  1.00  0.00     0.035 C 
ATOM      9  C   UNL     1     136.832 142.132 142.880  1.00  0.00    -0.030 C 
ENDBRANCH   1   7
BRANCH   3  10
ATOM     10  O   UNL     1     132.106 144.064 140.297  1.00  0.00    -0.493 OA
ATOM     11  C   UNL     1     132.520 144.760 139.126  1.00  0.00     0.278 C 
ENDBRANCH   3  10
BRANCH   4  12
ATOM     12  O   UNL     1     131.303 141.552 139.481  1.00  0.00    -0.504 OA
ATOM     13  H   UNL     1     130.386 141.938 139.668  1.00  0.00     0.293 HD
ENDBRANCH   4  12
TORSDOF 3
ENDMDL
MODEL 2
REMARK VINA RESULT:    -3.222      9.110     10.553
REMARK INTER + INTRA:          -3.906
REMARK INTER:                  -3.686
REMARK INTRA:                  -0.220
REMARK UNBOUND:                -0.214
REMARK SMILES CC=Cc1ccc(O)c(OC)c1
REMARK SMILES IDX 4 1 12 2 9 3 7 4 6 5 5 6 3 7 1 8 2 9 10 10 11 11 8 12
REMARK H PARENT 8 13
REMARK Flexibility Score: inf
ROOT
ATOM      1  C   UNL     1     139.689 134.478 142.236  1.00  0.00    -0.022 A 
ATOM      2  C   UNL     1     138.550 133.830 141.734  1.00  0.00     0.058 A 
ATOM      3  C   UNL     1     138.676 132.733 140.858  1.00  0.00     0.161 A 
ATOM      4  C   UNL     1     139.955 132.307 140.472  1.00  0.00     0.157 A 
ATOM      5  C   UNL     1     141.093 132.972 140.949  1.00  0.00     0.051 A 
ATOM      6  C   UNL     1     140.961 134.057 141.818  1.00  0.00     0.012 A 
ENDROOT
BRANCH   1   7
ATOM      7  C   UNL     1     139.520 135.641 143.131  1.00  0.00     0.003 C 
ATOM      8  C   UNL     1     139.519 137.334 141.278  1.00  0.00     0.035 C 
ATOM      9  C   UNL     1     139.422 136.911 142.713  1.00  0.00    -0.030 C 
ENDBRANCH   1   7
BRANCH   3  10
ATOM     10  O   UNL     1     137.562 132.048 140.351  1.00  0.00    -0.493 OA
ATOM     11  C   UNL     1     136.860 132.414 139.167  1.00  0.00     0.278 C 
ENDBRANCH   3  10
BRANCH   4  12
ATOM     12  O   UNL     1     140.088 131.222 139.608  1.00  0.00    -0.504 OA
ATOM     13  H   UNL     1     139.986 131.326 138.605  1.00  0.00     0.293 HD
ENDBRANCH   4  12
TORSDOF 3
ENDMDL
MODEL 3
REMARK VINA RESULT:    -3.217      9.089     10.457
REMARK INTER + INTRA:          -3.901
REMARK INTER:                  -3.683
REMARK INTRA:                  -0.218
REMARK UNBOUND:                -0.214
REMARK SMILES CC=Cc1ccc(O)c(OC)c1
REMARK SMILES IDX 4 1 12 2 9 3 7 4 6 5 5 6 3 7 1 8 2 9 10 10 11 11 8 12
REMARK H PARENT 8 13
REMARK Flexibility Score: inf
ROOT
ATOM      1  C   UNL     1     141.852 147.122 142.245  1.00  0.00    -0.022 A 
ATOM      2  C   UNL     1     142.984 147.776 141.734  1.00  0.00     0.058 A 
ATOM      3  C   UNL     1     142.848 148.817 140.794  1.00  0.00     0.161 A 
ATOM      4  C   UNL     1     141.568 149.182 140.355  1.00  0.00     0.157 A 
ATOM      5  C   UNL     1     140.438 148.510 140.842  1.00  0.00     0.051 A 
ATOM      6  C   UNL     1     140.580 147.480 141.774  1.00  0.00     0.012 A 
ENDROOT
BRANCH   1   7
ATOM      7  C   UNL     1     142.032 146.017 143.208  1.00  0.00     0.003 C 
ATOM      8  C   UNL     1     142.150 144.226 141.454  1.00  0.00     0.035 C 
ATOM      9  C   UNL     1     142.187 144.730 142.865  1.00  0.00    -0.030 C 
ENDBRANCH   1   7
BRANCH   3  10
ATOM     10  O   UNL     1     143.955 149.506 140.276  1.00  0.00    -0.493 OA
ATOM     11  C   UNL     1     144.689 149.102 139.124  1.00  0.00     0.278 C 
ENDBRANCH   3  10
BRANCH   4  12
ATOM     12  O   UNL     1     141.425 150.212 139.427  1.00  0.00    -0.504 OA
ATOM     13  H   UNL     1     141.582 150.061 138.438  1.00  0.00     0.293 HD
ENDBRANCH   4  12
TORSDOF 3
ENDMDL
MODEL 4
REMARK VINA RESULT:    -3.160     12.765     14.921
REMARK INTER + INTRA:          -3.835
REMARK INTER:                  -3.583
REMARK INTRA:                  -0.252
REMARK UNBOUND:                -0.214
REMARK SMILES CC=Cc1ccc(O)c(OC)c1
REMARK SMILES IDX 4 1 12 2 9 3 7 4 6 5 5 6 3 7 1 8 2 9 10 10 11 11 8 12
REMARK H PARENT 8 13
REMARK Flexibility Score: inf
ROOT
ATOM      1  C   UNL     1     146.620 139.684 141.526  1.00  0.00    -0.022 A 
ATOM      2  C   UNL     1     147.434 138.575 141.254  1.00  0.00     0.058 A 
ATOM      3  C   UNL     1     148.782 138.748 140.881  1.00  0.00     0.161 A 
ATOM      4  C   UNL     1     149.299 140.046 140.762  1.00  0.00     0.157 A 
ATOM      5  C   UNL     1     148.479 141.156 141.004  1.00  0.00     0.051 A 
ATOM      6  C   UNL     1     147.144 140.977 141.375  1.00  0.00     0.012 A 
ENDROOT
BRANCH   1   7
ATOM      7  C   UNL     1     145.204 139.467 141.887  1.00  0.00     0.003 C 
ATOM      8  C   UNL     1     145.590 139.630 144.361  1.00  0.00     0.035 C 
ATOM      9  C   UNL     1     144.734 139.463 143.143  1.00  0.00    -0.030 C 
ENDBRANCH   1   7
BRANCH   3  10
ATOM     10  O   UNL     1     149.632 137.663 140.620  1.00  0.00    -0.493 OA
ATOM     11  C   UNL     1     149.673 136.948 139.389  1.00  0.00     0.278 C 
ENDBRANCH   3  10
BRANCH   4  12
ATOM     12  O   UNL     1     150.632 140.225 140.396  1.00  0.00    -0.504 OA
ATOM     13  H   UNL     1     151.275 140.750 140.977  1.00  0.00     0.293 HD
ENDBRANCH   4  12
TORSDOF 3
ENDMDL
MODEL 5
REMARK VINA RESULT:    -3.149      8.879      9.954
REMARK INTER + INTRA:          -3.822
REMARK INTER:                  -3.611
REMARK INTRA:                  -0.212
REMARK UNBOUND:                -0.214
REMARK SMILES CC=Cc1ccc(O)c(OC)c1
REMARK SMILES IDX 4 1 12 2 9 3 7 4 6 5 5 6 3 7 1 8 2 9 10 10 11 11 8 12
REMARK H PARENT 8 13
REMARK Flexibility Score: inf
ROOT
ATOM      1  C   UNL     1     141.599 145.675 142.903  1.00  0.00    -0.022 A 
ATOM      2  C   UNL     1     141.913 144.456 142.283  1.00  0.00     0.058 A 
ATOM      3  C   UNL     1     142.483 143.401 143.023  1.00  0.00     0.161 A 
ATOM      4  C   UNL     1     142.755 143.588 144.386  1.00  0.00     0.157 A 
ATOM      5  C   UNL     1     142.469 144.814 144.999  1.00  0.00     0.051 A 
ATOM      6  C   UNL     1     141.903 145.856 144.260  1.00  0.00     0.012 A 
ENDROOT
BRANCH   1   7
ATOM      7  C   UNL     1     141.028 146.769 142.091  1.00  0.00     0.003 C 
ATOM      8  C   UNL     1     143.235 147.875 141.645  1.00  0.00     0.035 C 
ATOM      9  C   UNL     1     141.749 147.739 141.510  1.00  0.00    -0.030 C 
ENDBRANCH   1   7
BRANCH   3  10
ATOM     10  O   UNL     1     142.794 142.162 142.443  1.00  0.00    -0.493 OA
ATOM     11  C   UNL     1     143.250 141.990 141.105  1.00  0.00     0.278 C 
ENDBRANCH   3  10
BRANCH   4  12
ATOM     12  O   UNL     1     143.316 142.548 145.125  1.00  0.00    -0.504 OA
ATOM     13  H   UNL     1     143.802 141.781 144.677  1.00  0.00     0.293 HD
ENDBRANCH   4  12
TORSDOF 3
ENDMDL
MODEL 6
REMARK VINA RESULT:    -3.137      9.479     11.755
REMARK INTER + INTRA:          -3.809
REMARK INTER:                  -3.604
REMARK INTRA:                  -0.205
REMARK UNBOUND:                -0.214
REMARK SMILES CC=Cc1ccc(O)c(OC)c1
REMARK SMILES IDX 4 1 12 2 9 3 7 4 6 5 5 6 3 7 1 8 2 9 10 10 11 11 8 12
REMARK H PARENT 8 13
REMARK Flexibility Score: inf
ROOT
ATOM      1  C   UNL     1     145.648 140.052 142.730  1.00  0.00    -0.022 A 
ATOM      2  C   UNL     1     144.431 139.660 142.153  1.00  0.00     0.058 A 
ATOM      3  C   UNL     1     143.395 139.134 142.950  1.00  0.00     0.161 A 
ATOM      4  C   UNL     1     143.600 138.983 144.329  1.00  0.00     0.157 A 
ATOM      5  C   UNL     1     144.826 139.347 144.902  1.00  0.00     0.051 A 
ATOM      6  C   UNL     1     145.848 139.869 144.107  1.00  0.00     0.012 A 
ENDROOT
BRANCH   1   7
ATOM      7  C   UNL     1     146.722 140.575 141.861  1.00  0.00     0.003 C 
ATOM      8  C   UNL     1     147.907 138.374 141.643  1.00  0.00     0.035 C 
ATOM      9  C   UNL     1     147.718 139.833 141.356  1.00  0.00    -0.030 C 
ENDBRANCH   1   7
BRANCH   3  10
ATOM     10  O   UNL     1     142.158 138.749 142.412  1.00  0.00    -0.493 OA
ATOM     11  C   UNL     1     141.979 138.208 141.107  1.00  0.00     0.278 C 
ENDBRANCH   3  10
BRANCH   4  12
ATOM     12  O   UNL     1     142.580 138.465 145.125  1.00  0.00    -0.504 OA
ATOM     13  H   UNL     1     142.729 138.245 146.102  1.00  0.00     0.293 HD
ENDBRANCH   4  12
TORSDOF 3
ENDMDL
MODEL 7
REMARK VINA RESULT:    -3.105      3.677      5.711
REMARK INTER + INTRA:          -3.773
REMARK INTER:                  -3.570
REMARK INTRA:                  -0.203
REMARK UNBOUND:                -0.214
REMARK SMILES CC=Cc1ccc(O)c(OC)c1
REMARK SMILES IDX 4 1 12 2 9 3 7 4 6 5 5 6 3 7 1 8 2 9 10 10 11 11 8 12
REMARK H PARENT 8 13
REMARK Flexibility Score: inf
ROOT
ATOM      1  C   UNL     1     135.963 141.533 142.735  1.00  0.00    -0.022 A 
ATOM      2  C   UNL     1     137.229 141.778 142.180  1.00  0.00     0.058 A 
ATOM      3  C   UNL     1     138.275 142.284 142.977  1.00  0.00     0.161 A 
ATOM      4  C   UNL     1     138.034 142.562 144.330  1.00  0.00     0.157 A 
ATOM      5  C   UNL     1     136.763 142.345 144.878  1.00  0.00     0.051 A 
ATOM      6  C   UNL     1     135.731 141.843 144.083  1.00  0.00     0.012 A 
ENDROOT
BRANCH   1   7
ATOM      7  C   UNL     1     134.881 141.028 141.864  1.00  0.00     0.003 C 
ATOM      8  C   UNL     1     133.811 143.274 141.536  1.00  0.00     0.035 C 
ATOM      9  C   UNL     1     133.934 141.797 141.310  1.00  0.00    -0.030 C 
ENDBRANCH   1   7
BRANCH   3  10
ATOM     10  O   UNL     1     139.559 142.523 142.463  1.00  0.00    -0.493 OA
ATOM     11  C   UNL     1     139.931 143.689 141.734  1.00  0.00     0.278 C 
ENDBRANCH   3  10
BRANCH   4  12
ATOM     12  O   UNL     1     139.065 143.060 145.125  1.00  0.00    -0.504 OA
ATOM     13  H   UNL     1     138.897 143.388 146.068  1.00  0.00     0.293 HD
ENDBRANCH   4  12
TORSDOF 3
ENDMDL
MODEL 8
REMARK VINA RESULT:    -3.086      6.962      8.574
REMARK INTER + INTRA:          -3.751
REMARK INTER:                  -3.529
REMARK INTRA:                  -0.222
REMARK UNBOUND:                -0.214
REMARK SMILES CC=Cc1ccc(O)c(OC)c1
REMARK SMILES IDX 4 1 12 2 9 3 7 4 6 5 5 6 3 7 1 8 2 9 10 10 11 11 8 12
REMARK H PARENT 8 13
REMARK Flexibility Score: inf
ROOT
ATOM      1  C   UNL     1     140.074 135.919 142.737  1.00  0.00    -0.022 A 
ATOM      2  C   UNL     1     139.635 137.114 142.148  1.00  0.00     0.058 A 
ATOM      3  C   UNL     1     139.123 138.159 142.942  1.00  0.00     0.161 A 
ATOM      4  C   UNL     1     139.034 137.986 144.330  1.00  0.00     0.157 A 
ATOM      5  C   UNL     1     139.445 136.781 144.917  1.00  0.00     0.051 A 
ATOM      6  C   UNL     1     139.953 135.750 144.124  1.00  0.00     0.012 A 
ENDROOT
BRANCH   1   7
ATOM      7  C   UNL     1     140.580 134.833 141.872  1.00  0.00     0.003 C 
ATOM      8  C   UNL     1     138.363 133.676 141.666  1.00  0.00     0.035 C 
ATOM      9  C   UNL     1     139.824 133.845 141.374  1.00  0.00    -0.030 C 
ENDBRANCH   1   7
BRANCH   3  10
ATOM     10  O   UNL     1     138.692 139.376 142.391  1.00  0.00    -0.493 OA
ATOM     11  C   UNL     1     139.542 140.488 142.128  1.00  0.00     0.278 C 
ENDBRANCH   3  10
BRANCH   4  12
ATOM     12  O   UNL     1     138.530 139.016 145.123  1.00  0.00    -0.504 OA
ATOM     13  H   UNL     1     137.724 139.559 144.837  1.00  0.00     0.293 HD
ENDBRANCH   4  12
TORSDOF 3
ENDMDL
MODEL 9
REMARK VINA RESULT:    -3.073      8.897      9.837
REMARK INTER + INTRA:          -3.736
REMARK INTER:                  -3.481
REMARK INTRA:                  -0.255
REMARK UNBOUND:                -0.214
REMARK SMILES CC=Cc1ccc(O)c(OC)c1
REMARK SMILES IDX 4 1 12 2 9 3 7 4 6 5 5 6 3 7 1 8 2 9 10 10 11 11 8 12
REMARK H PARENT 8 13
REMARK Flexibility Score: inf
ROOT
ATOM      1  C   UNL     1     141.081 147.246 141.216  1.00  0.00    -0.022 A 
ATOM      2  C   UNL     1     141.487 146.870 142.506  1.00  0.00     0.058 A 
ATOM      3  C   UNL     1     142.055 145.602 142.739  1.00  0.00     0.161 A 
ATOM      4  C   UNL     1     142.193 144.705 141.670  1.00  0.00     0.157 A 
ATOM      5  C   UNL     1     141.761 145.068 140.387  1.00  0.00     0.051 A 
ATOM      6  C   UNL     1     141.200 146.327 140.163  1.00  0.00     0.012 A 
ENDROOT
BRANCH   1   7
ATOM      7  C   UNL     1     140.464 148.572 141.013  1.00  0.00     0.003 C 
ATOM      8  C   UNL     1     142.629 149.738 140.513  1.00  0.00     0.035 C 
ATOM      9  C   UNL     1     141.141 149.681 140.680  1.00  0.00    -0.030 C 
ENDBRANCH   1   7
BRANCH   3  10
ATOM     10  O   UNL     1     142.490 145.198 144.011  1.00  0.00    -0.493 OA
ATOM     11  C   UNL     1     141.631 144.980 145.125  1.00  0.00     0.278 C 
ENDBRANCH   3  10
BRANCH   4  12
ATOM     12  O   UNL     1     142.757 143.450 141.892  1.00  0.00    -0.504 OA
ATOM     13  H   UNL     1     143.616 143.167 141.437  1.00  0.00     0.293 HD
ENDBRANCH   4  12
TORSDOF 3
ENDMDL
