MODEL 1
REMARK VINA RESULT:    -5.907      0.000      0.000
REMARK INTER + INTRA:          -6.412
REMARK INTER:                  -6.252
REMARK INTRA:                  -0.160
REMARK UNBOUND:                -0.160
REMARK SMILES C=C(C)[C@H]1CC=C(C)CC1
REMARK SMILES IDX 8 1 7 2 6 3 5 4 4 5 10 6 9 7 2 8 1 9 3 10
REMARK H PARENT
REMARK Flexibility Score: inf
ROOT
ATOM      1  C   UNL     1      20.460  28.980  28.616  1.00  0.00     0.039 C 
ATOM      2  C   UNL     1      19.385  29.419  27.662  1.00  0.00    -0.077 C 
ATOM      3  C   UNL     1      19.321  30.697  27.256  1.00  0.00    -0.027 C 
ATOM      4  C   UNL     1      18.268  31.105  26.264  1.00  0.00     0.035 C 
ATOM      5  C   UNL     1      18.199  30.086  25.102  1.00  0.00     0.018 C 
ATOM      6  C   UNL     1      18.270  28.596  25.572  1.00  0.00     0.013 C 
ATOM      7  C   UNL     1      18.387  28.433  27.099  1.00  0.00     0.031 C 
ENDROOT
BRANCH   5   8
ATOM      8  C   UNL     1      16.968  30.344  24.243  1.00  0.00    -0.077 C 
ATOM      9  C   UNL     1      16.013  29.410  24.125  1.00  0.00     0.008 C 
ATOM     10  C   UNL     1      16.817  31.640  23.486  1.00  0.00     0.039 C 
ENDBRANCH   5   8
TORSDOF 1
ENDMDL
MODEL 2
REMARK VINA RESULT:    -5.725      1.236      4.776
REMARK INTER + INTRA:          -6.219
REMARK INTER:                  -6.057
REMARK INTRA:                  -0.163
REMARK UNBOUND:                -0.160
REMARK SMILES C=C(C)[C@H]1CC=C(C)CC1
REMARK SMILES IDX 8 1 7 2 6 3 5 4 4 5 10 6 9 7 2 8 1 9 3 10
REMARK H PARENT
REMARK Flexibility Score: inf
ROOT
ATOM      1  C   UNL     1      15.067  31.091  22.122  1.00  0.00     0.039 C 
ATOM      2  C   UNL     1      15.860  30.696  23.337  1.00  0.00    -0.077 C 
ATOM      3  C   UNL     1      15.706  29.476  23.876  1.00  0.00    -0.027 C 
ATOM      4  C   UNL     1      16.543  29.082  25.062  1.00  0.00     0.035 C 
ATOM      5  C   UNL     1      18.022  29.472  24.830  1.00  0.00     0.018 C 
ATOM      6  C   UNL     1      18.203  30.895  24.205  1.00  0.00     0.013 C 
ATOM      7  C   UNL     1      16.876  31.632  23.948  1.00  0.00     0.031 C 
ENDROOT
BRANCH   5   8
ATOM      8  C   UNL     1      18.817  29.322  26.120  1.00  0.00    -0.077 C 
ATOM      9  C   UNL     1      19.040  30.384  26.910  1.00  0.00     0.008 C 
ATOM     10  C   UNL     1      19.393  27.986  26.517  1.00  0.00     0.039 C 
ENDBRANCH   5   8
TORSDOF 1
ENDMDL
MODEL 3
REMARK VINA RESULT:    -5.241      8.132      9.876
REMARK INTER + INTRA:          -5.707
REMARK INTER:                  -5.549
REMARK INTRA:                  -0.158
REMARK UNBOUND:                -0.160
REMARK SMILES C=C(C)[C@H]1CC=C(C)CC1
REMARK SMILES IDX 8 1 7 2 6 3 5 4 4 5 10 6 9 7 2 8 1 9 3 10
REMARK H PARENT
REMARK Flexibility Score: inf
ROOT
ATOM      1  C   UNL     1      12.066  33.867  19.952  1.00  0.00     0.039 C 
ATOM      2  C   UNL     1      11.329  33.455  21.196  1.00  0.00    -0.077 C 
ATOM      3  C   UNL     1      12.008  33.043  22.278  1.00  0.00    -0.027 C 
ATOM      4  C   UNL     1      11.255  32.681  23.528  1.00  0.00     0.035 C 
ATOM      5  C   UNL     1      10.185  33.754  23.843  1.00  0.00     0.018 C 
ATOM      6  C   UNL     1       9.391  34.233  22.583  1.00  0.00     0.013 C 
ATOM      7  C   UNL     1       9.823  33.539  21.277  1.00  0.00     0.031 C 
ENDROOT
BRANCH   5   8
ATOM      8  C   UNL     1       9.251  33.265  24.941  1.00  0.00    -0.077 C 
ATOM      9  C   UNL     1       7.921  33.372  24.801  1.00  0.00     0.008 C 
ATOM     10  C   UNL     1       9.803  32.680  26.217  1.00  0.00     0.039 C 
ENDBRANCH   5   8
TORSDOF 1
ENDMDL
MODEL 4
REMARK VINA RESULT:    -5.203     10.225     11.252
REMARK INTER + INTRA:          -5.666
REMARK INTER:                  -5.503
REMARK INTRA:                  -0.163
REMARK UNBOUND:                -0.160
REMARK SMILES C=C(C)[C@H]1CC=C(C)CC1
REMARK SMILES IDX 8 1 7 2 6 3 5 4 4 5 10 6 9 7 2 8 1 9 3 10
REMARK H PARENT
REMARK Flexibility Score: inf
ROOT
ATOM      1  C   UNL     1       5.876  29.290  24.595  1.00  0.00     0.039 C 
ATOM      2  C   UNL     1       6.892  30.356  24.290  1.00  0.00    -0.077 C 
ATOM      3  C   UNL     1       7.225  30.626  23.018  1.00  0.00    -0.027 C 
ATOM      4  C   UNL     1       8.207  31.728  22.731  1.00  0.00     0.035 C 
ATOM      5  C   UNL     1       7.859  32.988  23.559  1.00  0.00     0.018 C 
ATOM      6  C   UNL     1       7.472  32.675  25.042  1.00  0.00     0.013 C 
ATOM      7  C   UNL     1       7.521  31.176  25.392  1.00  0.00     0.031 C 
ENDROOT
BRANCH   5   8
ATOM      8  C   UNL     1       8.990  34.005  23.478  1.00  0.00    -0.077 C 
ATOM      9  C   UNL     1       9.539  34.319  22.295  1.00  0.00     0.008 C 
ATOM     10  C   UNL     1       9.532  34.653  24.727  1.00  0.00     0.039 C 
ENDBRANCH   5   8
TORSDOF 1
ENDMDL
MODEL 5
REMARK VINA RESULT:    -5.158      1.693      3.335
REMARK INTER + INTRA:          -5.619
REMARK INTER:                  -5.459
REMARK INTRA:                  -0.161
REMARK UNBOUND:                -0.160
REMARK SMILES C=C(C)[C@H]1CC=C(C)CC1
REMARK SMILES IDX 8 1 7 2 6 3 5 4 4 5 10 6 9 7 2 8 1 9 3 10
REMARK H PARENT
REMARK Flexibility Score: inf
ROOT
ATOM      1  C   UNL     1      18.971  30.547  26.300  1.00  0.00     0.039 C 
ATOM      2  C   UNL     1      18.032  30.289  25.155  1.00  0.00    -0.077 C 
ATOM      3  C   UNL     1      17.148  29.280  25.220  1.00  0.00    -0.027 C 
ATOM      4  C   UNL     1      16.184  29.068  24.085  1.00  0.00     0.035 C 
ATOM      5  C   UNL     1      15.553  30.414  23.657  1.00  0.00     0.018 C 
ATOM      6  C   UNL     1      16.581  31.590  23.578  1.00  0.00     0.013 C 
ATOM      7  C   UNL     1      18.022  31.179  23.934  1.00  0.00     0.031 C 
ENDROOT
BRANCH   5   8
ATOM      8  C   UNL     1      14.789  30.249  22.350  1.00  0.00    -0.077 C 
ATOM      9  C   UNL     1      14.455  29.027  21.907  1.00  0.00     0.008 C 
ATOM     10  C   UNL     1      14.421  31.451  21.517  1.00  0.00     0.039 C 
ENDBRANCH   5   8
TORSDOF 1
ENDMDL
MODEL 6
REMARK VINA RESULT:    -5.120      7.390      9.523
REMARK INTER + INTRA:          -5.579
REMARK INTER:                  -5.416
REMARK INTRA:                  -0.163
REMARK UNBOUND:                -0.160
REMARK SMILES C=C(C)[C@H]1CC=C(C)CC1
REMARK SMILES IDX 8 1 7 2 6 3 5 4 4 5 10 6 9 7 2 8 1 9 3 10
REMARK H PARENT
REMARK Flexibility Score: inf
ROOT
ATOM      1  C   UNL     1       7.769  33.200  24.511  1.00  0.00     0.039 C 
ATOM      2  C   UNL     1       9.080  33.427  23.811  1.00  0.00    -0.077 C 
ATOM      3  C   UNL     1      10.189  32.798  24.232  1.00  0.00    -0.027 C 
ATOM      4  C   UNL     1      11.480  33.001  23.489  1.00  0.00     0.035 C 
ATOM      5  C   UNL     1      11.248  32.885  21.964  1.00  0.00     0.018 C 
ATOM      6  C   UNL     1       9.958  33.619  21.470  1.00  0.00     0.013 C 
ATOM      7  C   UNL     1       9.175  34.320  22.596  1.00  0.00     0.031 C 
ENDROOT
BRANCH   5   8
ATOM      8  C   UNL     1      12.482  33.349  21.203  1.00  0.00    -0.077 C 
ATOM      9  C   UNL     1      13.699  33.264  21.762  1.00  0.00     0.008 C 
ATOM     10  C   UNL     1      12.357  33.938  19.820  1.00  0.00     0.039 C 
ENDBRANCH   5   8
TORSDOF 1
ENDMDL
MODEL 7
REMARK VINA RESULT:    -5.072     10.117     11.013
REMARK INTER + INTRA:          -5.528
REMARK INTER:                  -5.365
REMARK INTRA:                  -0.163
REMARK UNBOUND:                -0.160
REMARK SMILES C=C(C)[C@H]1CC=C(C)CC1
REMARK SMILES IDX 8 1 7 2 6 3 5 4 4 5 10 6 9 7 2 8 1 9 3 10
REMARK H PARENT
REMARK Flexibility Score: inf
ROOT
ATOM      1  C   UNL     1       6.503  28.804  24.233  1.00  0.00     0.039 C 
ATOM      2  C   UNL     1       6.964  30.233  24.151  1.00  0.00    -0.077 C 
ATOM      3  C   UNL     1       7.251  30.915  25.271  1.00  0.00    -0.027 C 
ATOM      4  C   UNL     1       7.757  32.328  25.166  1.00  0.00     0.035 C 
ATOM      5  C   UNL     1       8.858  32.427  24.084  1.00  0.00     0.018 C 
ATOM      6  C   UNL     1       8.524  31.635  22.777  1.00  0.00     0.013 C 
ATOM      7  C   UNL     1       7.161  30.918  22.818  1.00  0.00     0.031 C 
ENDROOT
BRANCH   5   8
ATOM      8  C   UNL     1       9.181  33.885  23.788  1.00  0.00    -0.077 C 
ATOM      9  C   UNL     1       9.406  34.749  24.789  1.00  0.00     0.008 C 
ATOM     10  C   UNL     1       9.224  34.390  22.367  1.00  0.00     0.039 C 
ENDBRANCH   5   8
TORSDOF 1
ENDMDL
MODEL 8
REMARK VINA RESULT:    -4.970      9.013     10.669
REMARK INTER + INTRA:          -5.420
REMARK INTER:                  -5.256
REMARK INTRA:                  -0.164
REMARK UNBOUND:                -0.160
REMARK SMILES C=C(C)[C@H]1CC=C(C)CC1
REMARK SMILES IDX 8 1 7 2 6 3 5 4 4 5 10 6 9 7 2 8 1 9 3 10
REMARK H PARENT
REMARK Flexibility Score: inf
ROOT
ATOM      1  C   UNL     1       9.930  32.643  26.488  1.00  0.00     0.039 C 
ATOM      2  C   UNL     1       9.315  33.123  25.203  1.00  0.00    -0.077 C 
ATOM      3  C   UNL     1      10.036  33.865  24.346  1.00  0.00    -0.027 C 
ATOM      4  C   UNL     1       9.420  34.295  23.043  1.00  0.00     0.035 C 
ATOM      5  C   UNL     1       8.696  33.104  22.371  1.00  0.00     0.018 C 
ATOM      6  C   UNL     1       7.854  32.241  23.367  1.00  0.00     0.013 C 
ATOM      7  C   UNL     1       7.903  32.747  24.820  1.00  0.00     0.031 C 
ENDROOT
BRANCH   5   8
ATOM      8  C   UNL     1       7.853  33.589  21.200  1.00  0.00    -0.077 C 
ATOM      9  C   UNL     1       8.397  34.351  20.238  1.00  0.00     0.008 C 
ATOM     10  C   UNL     1       6.386  33.249  21.114  1.00  0.00     0.039 C 
ENDBRANCH   5   8
TORSDOF 1
ENDMDL
MODEL 9
REMARK VINA RESULT:    -4.958      8.539     10.488
REMARK INTER + INTRA:          -5.407
REMARK INTER:                  -5.248
REMARK INTRA:                  -0.159
REMARK UNBOUND:                -0.160
REMARK SMILES C=C(C)[C@H]1CC=C(C)CC1
REMARK SMILES IDX 8 1 7 2 6 3 5 4 4 5 10 6 9 7 2 8 1 9 3 10
REMARK H PARENT
REMARK Flexibility Score: inf
ROOT
ATOM      1  C   UNL     1      10.391  32.742  26.142  1.00  0.00     0.039 C 
ATOM      2  C   UNL     1       9.684  32.790  24.816  1.00  0.00    -0.077 C 
ATOM      3  C   UNL     1       8.375  33.085  24.758  1.00  0.00    -0.027 C 
ATOM      4  C   UNL     1       7.697  33.176  23.419  1.00  0.00     0.035 C 
ATOM      5  C   UNL     1       8.559  34.001  22.434  1.00  0.00     0.018 C 
ATOM      6  C   UNL     1      10.083  33.658  22.498  1.00  0.00     0.013 C 
ATOM      7  C   UNL     1      10.429  32.560  23.521  1.00  0.00     0.031 C 
ENDROOT
BRANCH   5   8
ATOM      8  C   UNL     1       8.014  33.873  21.018  1.00  0.00    -0.077 C 
ATOM      9  C   UNL     1       6.901  33.164  20.779  1.00  0.00     0.008 C 
ATOM     10  C   UNL     1       8.732  34.516  19.857  1.00  0.00     0.039 C 
ENDBRANCH   5   8
TORSDOF 1
ENDMDL
