MODEL 1
REMARK VINA RESULT:    -3.728      0.000      0.000
REMARK INTER + INTRA:          -3.728
REMARK INTER:                  -3.728
REMARK INTRA:                   0.000
REMARK UNBOUND:                 0.000
REMARK SMILES CC1=CC[C@H]2[C@@H](C1)C2(C)C
REMARK SMILES IDX 1 1 2 2 3 3 4 4 5 5 6 6 7 7 8 8 9 9 10 10
REMARK H PARENT
REMARK Flexibility Score: inf
ROOT
ATOM      1  C   UNL     1      19.249  62.805  13.858  1.00  0.00     0.039 C 
ATOM      2  C   UNL     1      20.495  63.045  14.667  1.00  0.00    -0.077 C 
ATOM      3  C   UNL     1      21.697  62.927  14.078  1.00  0.00    -0.028 C 
ATOM      4  C   UNL     1      22.973  63.149  14.839  1.00  0.00     0.031 C 
ATOM      5  C   UNL     1      22.843  64.302  15.857  1.00  0.00     0.003 C 
ATOM      6  C   UNL     1      21.465  64.441  16.545  1.00  0.00     0.003 C 
ATOM      7  C   UNL     1      20.395  63.408  16.130  1.00  0.00     0.034 C 
ATOM      8  C   UNL     1      22.695  64.006  17.358  1.00  0.00    -0.029 C 
ATOM      9  C   UNL     1      22.811  62.561  17.881  1.00  0.00     0.012 C 
ATOM     10  C   UNL     1      23.265  65.089  18.280  1.00  0.00     0.012 C 
ENDROOT
TORSDOF 0
ENDMDL
MODEL 2
REMARK VINA RESULT:    -3.723      1.486      2.774
REMARK INTER + INTRA:          -3.723
REMARK INTER:                  -3.723
REMARK INTRA:                   0.000
REMARK UNBOUND:                 0.000
REMARK SMILES CC1=CC[C@H]2[C@@H](C1)C2(C)C
REMARK SMILES IDX 1 1 2 2 3 3 4 4 5 5 6 6 7 7 8 8 9 9 10 10
REMARK H PARENT
REMARK Flexibility Score: inf
ROOT
ATOM      1  C   UNL     1      22.254  62.909  14.172  1.00  0.00     0.039 C 
ATOM      2  C   UNL     1      21.864  63.265  15.581  1.00  0.00    -0.077 C 
ATOM      3  C   UNL     1      20.568  63.453  15.881  1.00  0.00    -0.028 C 
ATOM      4  C   UNL     1      20.125  63.816  17.270  1.00  0.00     0.031 C 
ATOM      5  C   UNL     1      20.954  63.087  18.348  1.00  0.00     0.003 C 
ATOM      6  C   UNL     1      22.450  62.871  18.015  1.00  0.00     0.003 C 
ATOM      7  C   UNL     1      22.923  63.414  16.649  1.00  0.00     0.034 C 
ATOM      8  C   UNL     1      22.039  63.837  19.138  1.00  0.00    -0.029 C 
ATOM      9  C   UNL     1      22.218  65.357  18.962  1.00  0.00     0.012 C 
ATOM     10  C   UNL     1      22.277  63.305  20.555  1.00  0.00     0.012 C 
ENDROOT
TORSDOF 0
ENDMDL
MODEL 3
REMARK VINA RESULT:    -3.670      1.606      4.090
REMARK INTER + INTRA:          -3.670
REMARK INTER:                  -3.670
REMARK INTRA:                   0.000
REMARK UNBOUND:                 0.000
REMARK SMILES CC1=CC[C@H]2[C@@H](C1)C2(C)C
REMARK SMILES IDX 1 1 2 2 3 3 4 4 5 5 6 6 7 7 8 8 9 9 10 10
REMARK H PARENT
REMARK Flexibility Score: inf
ROOT
ATOM      1  C   UNL     1      21.757  63.115  18.810  1.00  0.00     0.039 C 
ATOM      2  C   UNL     1      21.059  63.494  17.532  1.00  0.00    -0.077 C 
ATOM      3  C   UNL     1      19.881  64.137  17.588  1.00  0.00    -0.028 C 
ATOM      4  C   UNL     1      19.139  64.533  16.343  1.00  0.00     0.031 C 
ATOM      5  C   UNL     1      20.096  64.999  15.226  1.00  0.00     0.003 C 
ATOM      6  C   UNL     1      21.452  64.260  15.149  1.00  0.00     0.003 C 
ATOM      7  C   UNL     1      21.676  63.147  16.197  1.00  0.00     0.034 C 
ATOM      8  C   UNL     1      20.409  64.082  14.033  1.00  0.00    -0.029 C 
ATOM      9  C   UNL     1      19.669  62.741  13.867  1.00  0.00     0.012 C 
ATOM     10  C   UNL     1      20.738  64.820  12.731  1.00  0.00     0.012 C 
ENDROOT
TORSDOF 0
ENDMDL
MODEL 4
REMARK VINA RESULT:    -3.621      1.650      3.302
REMARK INTER + INTRA:          -3.621
REMARK INTER:                  -3.621
REMARK INTRA:                   0.000
REMARK UNBOUND:                 0.000
REMARK SMILES CC1=CC[C@H]2[C@@H](C1)C2(C)C
REMARK SMILES IDX 1 1 2 2 3 3 4 4 5 5 6 6 7 7 8 8 9 9 10 10
REMARK H PARENT
REMARK Flexibility Score: inf
ROOT
ATOM      1  C   UNL     1      17.660  64.615  14.996  1.00  0.00     0.039 C 
ATOM      2  C   UNL     1      19.148  64.388  15.008  1.00  0.00    -0.077 C 
ATOM      3  C   UNL     1      19.857  64.713  16.103  1.00  0.00    -0.028 C 
ATOM      4  C   UNL     1      21.344  64.513  16.165  1.00  0.00     0.031 C 
ATOM      5  C   UNL     1      21.782  63.216  15.453  1.00  0.00     0.003 C 
ATOM      6  C   UNL     1      20.976  62.838  14.187  1.00  0.00     0.003 C 
ATOM      7  C   UNL     1      19.838  63.807  13.796  1.00  0.00     0.034 C 
ATOM      8  C   UNL     1      22.446  63.273  14.067  1.00  0.00    -0.029 C 
ATOM      9  C   UNL     1      22.807  64.630  13.432  1.00  0.00     0.012 C 
ATOM     10  C   UNL     1      23.427  62.130  13.784  1.00  0.00     0.012 C 
ENDROOT
TORSDOF 0
ENDMDL
MODEL 5
REMARK VINA RESULT:    -3.610      1.556      3.781
REMARK INTER + INTRA:          -3.610
REMARK INTER:                  -3.610
REMARK INTRA:                   0.000
REMARK UNBOUND:                 0.000
REMARK SMILES CC1=CC[C@H]2[C@@H](C1)C2(C)C
REMARK SMILES IDX 1 1 2 2 3 3 4 4 5 5 6 6 7 7 8 8 9 9 10 10
REMARK H PARENT
REMARK Flexibility Score: inf
ROOT
ATOM      1  C   UNL     1      23.479  62.585  16.880  1.00  0.00     0.039 C 
ATOM      2  C   UNL     1      22.364  63.123  16.026  1.00  0.00    -0.077 C 
ATOM      3  C   UNL     1      22.367  62.878  14.704  1.00  0.00    -0.028 C 
ATOM      4  C   UNL     1      21.281  63.397  13.805  1.00  0.00     0.031 C 
ATOM      5  C   UNL     1      19.897  63.348  14.484  1.00  0.00     0.003 C 
ATOM      6  C   UNL     1      19.883  63.635  16.004  1.00  0.00     0.003 C 
ATOM      7  C   UNL     1      21.253  63.937  16.648  1.00  0.00     0.034 C 
ATOM      8  C   UNL     1      19.245  64.632  15.023  1.00  0.00    -0.029 C 
ATOM      9  C   UNL     1      19.902  66.003  14.769  1.00  0.00     0.012 C 
ATOM     10  C   UNL     1      17.713  64.622  15.010  1.00  0.00     0.012 C 
ENDROOT
TORSDOF 0
ENDMDL
MODEL 6
REMARK VINA RESULT:    -3.593      1.590      3.963
REMARK INTER + INTRA:          -3.593
REMARK INTER:                  -3.593
REMARK INTRA:                   0.000
REMARK UNBOUND:                 0.000
REMARK SMILES CC1=CC[C@H]2[C@@H](C1)C2(C)C
REMARK SMILES IDX 1 1 2 2 3 3 4 4 5 5 6 6 7 7 8 8 9 9 10 10
REMARK H PARENT
REMARK Flexibility Score: inf
ROOT
ATOM      1  C   UNL     1      24.842  61.430  16.148  1.00  0.00     0.039 C 
ATOM      2  C   UNL     1      23.599  62.205  15.805  1.00  0.00    -0.077 C 
ATOM      3  C   UNL     1      22.864  62.746  16.791  1.00  0.00    -0.028 C 
ATOM      4  C   UNL     1      21.611  63.523  16.504  1.00  0.00     0.031 C 
ATOM      5  C   UNL     1      21.746  64.384  15.231  1.00  0.00     0.003 C 
ATOM      6  C   UNL     1      22.585  63.767  14.087  1.00  0.00     0.003 C 
ATOM      7  C   UNL     1      23.179  62.369  14.363  1.00  0.00     0.034 C 
ATOM      8  C   UNL     1      21.068  63.952  13.921  1.00  0.00    -0.029 C 
ATOM      9  C   UNL     1      20.133  62.727  13.895  1.00  0.00     0.012 C 
ATOM     10  C   UNL     1      20.664  65.109  13.001  1.00  0.00     0.012 C 
ENDROOT
TORSDOF 0
ENDMDL
MODEL 7
REMARK VINA RESULT:    -3.556      1.798      2.804
REMARK INTER + INTRA:          -3.556
REMARK INTER:                  -3.556
REMARK INTRA:                   0.000
REMARK UNBOUND:                 0.000
REMARK SMILES CC1=CC[C@H]2[C@@H](C1)C2(C)C
REMARK SMILES IDX 1 1 2 2 3 3 4 4 5 5 6 6 7 7 8 8 9 9 10 10
REMARK H PARENT
REMARK Flexibility Score: inf
ROOT
ATOM      1  C   UNL     1      19.796  62.725  13.805  1.00  0.00     0.039 C 
ATOM      2  C   UNL     1      19.877  63.535  15.071  1.00  0.00    -0.077 C 
ATOM      3  C   UNL     1      18.938  64.462  15.323  1.00  0.00    -0.028 C 
ATOM      4  C   UNL     1      18.975  65.302  16.568  1.00  0.00     0.031 C 
ATOM      5  C   UNL     1      19.457  64.497  17.793  1.00  0.00     0.003 C 
ATOM      6  C   UNL     1      20.544  63.432  17.512  1.00  0.00     0.003 C 
ATOM      7  C   UNL     1      21.010  63.311  16.045  1.00  0.00     0.034 C 
ATOM      8  C   UNL     1      20.883  64.684  18.338  1.00  0.00    -0.029 C 
ATOM      9  C   UNL     1      21.801  65.775  17.756  1.00  0.00     0.012 C 
ATOM     10  C   UNL     1      21.026  64.435  19.844  1.00  0.00     0.012 C 
ENDROOT
TORSDOF 0
ENDMDL
MODEL 8
REMARK VINA RESULT:    -3.536      1.095      2.343
REMARK INTER + INTRA:          -3.536
REMARK INTER:                  -3.536
REMARK INTRA:                   0.000
REMARK UNBOUND:                 0.000
REMARK SMILES CC1=CC[C@H]2[C@@H](C1)C2(C)C
REMARK SMILES IDX 1 1 2 2 3 3 4 4 5 5 6 6 7 7 8 8 9 9 10 10
REMARK H PARENT
REMARK Flexibility Score: inf
ROOT
ATOM      1  C   UNL     1      19.343  62.742  13.855  1.00  0.00     0.039 C 
ATOM      2  C   UNL     1      20.460  63.165  14.770  1.00  0.00    -0.077 C 
ATOM      3  C   UNL     1      20.180  63.515  16.036  1.00  0.00    -0.028 C 
ATOM      4  C   UNL     1      21.255  63.951  16.990  1.00  0.00     0.031 C 
ATOM      5  C   UNL     1      22.556  63.144  16.799  1.00  0.00     0.003 C 
ATOM      6  C   UNL     1      22.891  62.741  15.343  1.00  0.00     0.003 C 
ATOM      7  C   UNL     1      21.884  63.200  14.266  1.00  0.00     0.034 C 
ATOM      8  C   UNL     1      23.765  63.768  16.083  1.00  0.00    -0.029 C 
ATOM      9  C   UNL     1      23.742  65.252  15.667  1.00  0.00     0.012 C 
ATOM     10  C   UNL     1      25.125  63.234  16.544  1.00  0.00     0.012 C 
ENDROOT
TORSDOF 0
ENDMDL
MODEL 9
REMARK VINA RESULT:    -3.513      2.112      3.747
REMARK INTER + INTRA:          -3.513
REMARK INTER:                  -3.513
REMARK INTRA:                   0.000
REMARK UNBOUND:                 0.000
REMARK SMILES CC1=CC[C@H]2[C@@H](C1)C2(C)C
REMARK SMILES IDX 1 1 2 2 3 3 4 4 5 5 6 6 7 7 8 8 9 9 10 10
REMARK H PARENT
REMARK Flexibility Score: inf
ROOT
ATOM      1  C   UNL     1      16.469  65.110  16.059  1.00  0.00     0.039 C 
ATOM      2  C   UNL     1      17.945  64.827  15.978  1.00  0.00    -0.077 C 
ATOM      3  C   UNL     1      18.689  64.877  17.096  1.00  0.00    -0.028 C 
ATOM      4  C   UNL     1      20.167  64.610  17.071  1.00  0.00     0.031 C 
ATOM      5  C   UNL     1      20.532  63.482  16.083  1.00  0.00     0.003 C 
ATOM      6  C   UNL     1      19.685  63.420  14.790  1.00  0.00     0.003 C 
ATOM      7  C   UNL     1      18.585  64.495  14.650  1.00  0.00     0.034 C 
ATOM      8  C   UNL     1      21.170  63.812  14.723  1.00  0.00    -0.029 C 
ATOM      9  C   UNL     1      21.580  65.259  14.386  1.00  0.00     0.012 C 
ATOM     10  C   UNL     1      22.093  62.719  14.172  1.00  0.00     0.012 C 
ENDROOT
TORSDOF 0
ENDMDL
