MODEL 1
REMARK VINA RESULT:    -4.166      0.000      0.000
REMARK INTER + INTRA:          -5.796
REMARK INTER:                  -5.384
REMARK INTRA:                  -0.412
REMARK UNBOUND:                -0.412
REMARK SMILES CCCCCCC(=O)[O-]
REMARK SMILES IDX 5 1 6 2 7 3 8 4 9 5 4 6 3 7 2 8 1 9
REMARK H PARENT
REMARK Flexibility Score: inf
ROOT
ATOM      1  C   UNL     1      13.250  -0.285  26.057  1.00  0.00     0.006 C 
ENDROOT
BRANCH   1   2
ATOM      2  C   UNL     1      12.620   0.310  27.322  1.00  0.00     0.053 C 
BRANCH   2   3
ATOM      3  C   UNL     1      13.682   0.665  28.316  1.00  0.00     0.041 C 
ATOM      4  O   UNL     1      14.731   1.249  27.940  1.00  0.00    -0.550 OA
ATOM      5  O   UNL     1      13.533   0.306  29.649  1.00  0.00    -0.550 OA
ENDBRANCH   2   3
ENDBRANCH   1   2
BRANCH   1   6
ATOM      6  C   UNL     1      13.866  -1.672  26.299  1.00  0.00     0.000 C 
BRANCH   6   7
ATOM      7  C   UNL     1      15.360  -1.727  25.945  1.00  0.00    -0.000 C 
BRANCH   7   8
ATOM      8  C   UNL     1      16.165  -2.392  27.066  1.00  0.00    -0.003 C 
ATOM      9  C   UNL     1      15.285  -2.688  28.277  1.00  0.00     0.004 C 
ENDBRANCH   7   8
ENDBRANCH   6   7
ENDBRANCH   1   6
TORSDOF 5
ENDMDL
MODEL 2
REMARK VINA RESULT:    -4.157      2.032      2.991
REMARK INTER + INTRA:          -5.784
REMARK INTER:                  -5.559
REMARK INTRA:                  -0.224
REMARK UNBOUND:                -0.412
REMARK SMILES CCCCCCC(=O)[O-]
REMARK SMILES IDX 5 1 6 2 7 3 8 4 9 5 4 6 3 7 2 8 1 9
REMARK H PARENT
REMARK Flexibility Score: inf
ROOT
ATOM      1  C   UNL     1      14.701  -0.876  26.283  1.00  0.00     0.006 C 
ENDROOT
BRANCH   1   2
ATOM      2  C   UNL     1      13.208  -1.150  26.058  1.00  0.00     0.053 C 
BRANCH   2   3
ATOM      3  C   UNL     1      12.478   0.130  25.796  1.00  0.00     0.041 C 
ATOM      4  O   UNL     1      13.070   1.098  25.251  1.00  0.00    -0.550 OA
ATOM      5  O   UNL     1      11.156   0.270  26.199  1.00  0.00    -0.550 OA
ENDBRANCH   2   3
ENDBRANCH   1   2
BRANCH   1   6
ATOM      6  C   UNL     1      15.317  -1.798  27.348  1.00  0.00     0.000 C 
BRANCH   6   7
ATOM      7  C   UNL     1      15.064  -1.300  28.779  1.00  0.00    -0.000 C 
BRANCH   7   8
ATOM      8  C   UNL     1      14.766   0.204  28.792  1.00  0.00    -0.003 C 
ATOM      9  C   UNL     1      13.484   0.505  29.562  1.00  0.00     0.004 C 
ENDBRANCH   7   8
ENDBRANCH   6   7
ENDBRANCH   1   6
TORSDOF 5
ENDMDL
MODEL 3
REMARK VINA RESULT:    -4.135      1.978      3.709
REMARK INTER + INTRA:          -5.755
REMARK INTER:                  -5.484
REMARK INTRA:                  -0.272
REMARK UNBOUND:                -0.412
REMARK SMILES CCCCCCC(=O)[O-]
REMARK SMILES IDX 5 1 6 2 7 3 8 4 9 5 4 6 3 7 2 8 1 9
REMARK H PARENT
REMARK Flexibility Score: inf
ROOT
ATOM      1  C   UNL     1      14.883  -1.506  26.053  1.00  0.00     0.006 C 
ENDROOT
BRANCH   1   2
ATOM      2  C   UNL     1      15.945  -2.230  26.891  1.00  0.00     0.053 C 
BRANCH   2   3
ATOM      3  C   UNL     1      15.433  -2.481  28.276  1.00  0.00     0.041 C 
ATOM      4  O   UNL     1      15.137  -1.516  29.027  1.00  0.00    -0.550 OA
ATOM      5  O   UNL     1      15.330  -3.781  28.753  1.00  0.00    -0.550 OA
ENDBRANCH   2   3
ENDBRANCH   1   2
BRANCH   1   6
ATOM      6  C   UNL     1      15.127   0.009  25.969  1.00  0.00     0.000 C 
BRANCH   6   7
ATOM      7  C   UNL     1      13.832   0.825  26.095  1.00  0.00    -0.000 C 
BRANCH   7   8
ATOM      8  C   UNL     1      12.750   0.026  26.831  1.00  0.00    -0.003 C 
ATOM      9  C   UNL     1      11.371   0.280  26.229  1.00  0.00     0.004 C 
ENDBRANCH   7   8
ENDBRANCH   6   7
ENDBRANCH   1   6
TORSDOF 5
ENDMDL
MODEL 4
REMARK VINA RESULT:    -4.132      2.385      2.861
REMARK INTER + INTRA:          -5.752
REMARK INTER:                  -5.544
REMARK INTRA:                  -0.208
REMARK UNBOUND:                -0.412
REMARK SMILES CCCCCCC(=O)[O-]
REMARK SMILES IDX 5 1 6 2 7 3 8 4 9 5 4 6 3 7 2 8 1 9
REMARK H PARENT
REMARK Flexibility Score: inf
ROOT
ATOM      1  C   UNL     1      12.836  -0.141  26.909  1.00  0.00     0.006 C 
ENDROOT
BRANCH   1   2
ATOM      2  C   UNL     1      11.650   0.282  26.032  1.00  0.00     0.053 C 
BRANCH   2   3
ATOM      3  C   UNL     1      12.138   0.926  24.772  1.00  0.00     0.041 C 
ATOM      4  O   UNL     1      13.112   1.723  24.804  1.00  0.00    -0.550 OA
ATOM      5  O   UNL     1      11.484   0.685  23.571  1.00  0.00    -0.550 OA
ENDBRANCH   2   3
ENDBRANCH   1   2
BRANCH   1   6
ATOM      6  C   UNL     1      13.642  -1.297  26.297  1.00  0.00     0.000 C 
BRANCH   6   7
ATOM      7  C   UNL     1      15.144  -0.988  26.206  1.00  0.00    -0.000 C 
BRANCH   7   8
ATOM      8  C   UNL     1      15.979  -2.180  26.687  1.00  0.00    -0.003 C 
ATOM      9  C   UNL     1      15.456  -2.720  28.015  1.00  0.00     0.004 C 
ENDBRANCH   7   8
ENDBRANCH   6   7
ENDBRANCH   1   6
TORSDOF 5
ENDMDL
MODEL 5
REMARK VINA RESULT:    -4.110      2.217      3.316
REMARK INTER + INTRA:          -5.724
REMARK INTER:                  -5.424
REMARK INTRA:                  -0.300
REMARK UNBOUND:                -0.412
REMARK SMILES CCCCCCC(=O)[O-]
REMARK SMILES IDX 5 1 6 2 7 3 8 4 9 5 4 6 3 7 2 8 1 9
REMARK H PARENT
REMARK Flexibility Score: inf
ROOT
ATOM      1  C   UNL     1      15.145   0.655  26.371  1.00  0.00     0.006 C 
ENDROOT
BRANCH   1   2
ATOM      2  C   UNL     1      14.752   1.333  27.689  1.00  0.00     0.053 C 
BRANCH   2   3
ATOM      3  C   UNL     1      14.335   0.308  28.698  1.00  0.00     0.041 C 
ATOM      4  O   UNL     1      14.803  -0.860  28.645  1.00  0.00    -0.550 OA
ATOM      5  O   UNL     1      13.392   0.629  29.666  1.00  0.00    -0.550 OA
ENDBRANCH   2   3
ENDBRANCH   1   2
BRANCH   1   6
ATOM      6  C   UNL     1      14.740   1.480  25.138  1.00  0.00     0.000 C 
BRANCH   6   7
ATOM      7  C   UNL     1      13.222   1.688  25.039  1.00  0.00    -0.000 C 
BRANCH   7   8
ATOM      8  C   UNL     1      12.478   0.350  25.122  1.00  0.00    -0.003 C 
ATOM      9  C   UNL     1      11.397   0.385  26.198  1.00  0.00     0.004 C 
ENDBRANCH   7   8
ENDBRANCH   6   7
ENDBRANCH   1   6
TORSDOF 5
ENDMDL
MODEL 6
REMARK VINA RESULT:    -4.099      2.150      3.005
REMARK INTER + INTRA:          -5.710
REMARK INTER:                  -5.449
REMARK INTRA:                  -0.260
REMARK UNBOUND:                -0.412
REMARK SMILES CCCCCCC(=O)[O-]
REMARK SMILES IDX 5 1 6 2 7 3 8 4 9 5 4 6 3 7 2 8 1 9
REMARK H PARENT
REMARK Flexibility Score: inf
ROOT
ATOM      1  C   UNL     1      13.803   0.559  27.812  1.00  0.00     0.006 C 
ENDROOT
BRANCH   1   2
ATOM      2  C   UNL     1      14.752   1.596  27.198  1.00  0.00     0.053 C 
BRANCH   2   3
ATOM      3  C   UNL     1      14.666   1.561  25.704  1.00  0.00     0.041 C 
ATOM      4  O   UNL     1      13.550   1.428  25.136  1.00  0.00    -0.550 OA
ATOM      5  O   UNL     1      15.824   1.625  24.940  1.00  0.00    -0.550 OA
ENDBRANCH   2   3
ENDBRANCH   1   2
BRANCH   1   6
ATOM      6  C   UNL     1      14.429  -0.184  29.003  1.00  0.00     0.000 C 
BRANCH   6   7
ATOM      7  C   UNL     1      15.181  -1.455  28.579  1.00  0.00    -0.000 C 
BRANCH   7   8
ATOM      8  C   UNL     1      14.763  -1.895  27.171  1.00  0.00    -0.003 C 
ATOM      9  C   UNL     1      15.981  -2.125  26.281  1.00  0.00     0.004 C 
ENDBRANCH   7   8
ENDBRANCH   6   7
ENDBRANCH   1   6
TORSDOF 5
ENDMDL
MODEL 7
REMARK VINA RESULT:    -4.091      2.270      3.615
REMARK INTER + INTRA:          -5.698
REMARK INTER:                  -5.413
REMARK INTRA:                  -0.286
REMARK UNBOUND:                -0.412
REMARK SMILES CCCCCCC(=O)[O-]
REMARK SMILES IDX 5 1 6 2 7 3 8 4 9 5 4 6 3 7 2 8 1 9
REMARK H PARENT
REMARK Flexibility Score: inf
ROOT
ATOM      1  C   UNL     1      13.660  -1.454  26.246  1.00  0.00     0.006 C 
ENDROOT
BRANCH   1   2
ATOM      2  C   UNL     1      15.138  -1.492  26.652  1.00  0.00     0.053 C 
BRANCH   2   3
ATOM      3  C   UNL     1      15.280  -1.979  28.061  1.00  0.00     0.041 C 
ATOM      4  O   UNL     1      15.480  -3.200  28.292  1.00  0.00    -0.550 OA
ATOM      5  O   UNL     1      15.141  -1.092  29.120  1.00  0.00    -0.550 OA
ENDBRANCH   2   3
ENDBRANCH   1   2
BRANCH   1   6
ATOM      6  C   UNL     1      13.075  -0.033  26.274  1.00  0.00     0.000 C 
BRANCH   6   7
ATOM      7  C   UNL     1      14.152   1.047  26.452  1.00  0.00    -0.000 C 
BRANCH   7   8
ATOM      8  C   UNL     1      14.352   1.840  25.156  1.00  0.00    -0.003 C 
ATOM      9  C   UNL     1      15.822   1.867  24.746  1.00  0.00     0.004 C 
ENDBRANCH   7   8
ENDBRANCH   6   7
ENDBRANCH   1   6
TORSDOF 5
ENDMDL
MODEL 8
REMARK VINA RESULT:    -4.054      1.587      3.357
REMARK INTER + INTRA:          -5.651
REMARK INTER:                  -5.336
REMARK INTRA:                  -0.314
REMARK UNBOUND:                -0.412
REMARK SMILES CCCCCCC(=O)[O-]
REMARK SMILES IDX 5 1 6 2 7 3 8 4 9 5 4 6 3 7 2 8 1 9
REMARK H PARENT
REMARK Flexibility Score: inf
ROOT
ATOM      1  C   UNL     1      14.459  -1.071  27.097  1.00  0.00     0.006 C 
ENDROOT
BRANCH   1   2
ATOM      2  C   UNL     1      14.611   0.255  27.852  1.00  0.00     0.053 C 
BRANCH   2   3
ATOM      3  C   UNL     1      14.396   0.048  29.319  1.00  0.00     0.041 C 
ATOM      4  O   UNL     1      13.320   0.414  29.860  1.00  0.00    -0.550 OA
ATOM      5  O   UNL     1      15.405  -0.505  30.097  1.00  0.00    -0.550 OA
ENDBRANCH   2   3
ENDBRANCH   1   2
BRANCH   1   6
ATOM      6  C   UNL     1      13.365  -1.017  26.019  1.00  0.00     0.000 C 
BRANCH   6   7
ATOM      7  C   UNL     1      12.002  -0.586  26.581  1.00  0.00    -0.000 C 
BRANCH   7   8
ATOM      8  C   UNL     1      11.449   0.621  25.816  1.00  0.00    -0.003 C 
ATOM      9  C   UNL     1      12.454   1.128  24.785  1.00  0.00     0.004 C 
ENDBRANCH   7   8
ENDBRANCH   6   7
ENDBRANCH   1   6
TORSDOF 5
ENDMDL
MODEL 9
REMARK VINA RESULT:    -3.990      2.378      2.650
REMARK INTER + INTRA:          -5.568
REMARK INTER:                  -5.322
REMARK INTRA:                  -0.246
REMARK UNBOUND:                -0.412
REMARK SMILES CCCCCCC(=O)[O-]
REMARK SMILES IDX 5 1 6 2 7 3 8 4 9 5 4 6 3 7 2 8 1 9
REMARK H PARENT
REMARK Flexibility Score: inf
ROOT
ATOM      1  C   UNL     1      13.246   0.245  26.266  1.00  0.00     0.006 C 
ENDROOT
BRANCH   1   2
ATOM      2  C   UNL     1      14.452   1.166  26.488  1.00  0.00     0.053 C 
BRANCH   2   3
ATOM      3  C   UNL     1      14.759   1.933  25.239  1.00  0.00     0.041 C 
ATOM      4  O   UNL     1      15.880   1.811  24.680  1.00  0.00    -0.550 OA
ATOM      5  O   UNL     1      13.825   2.820  24.721  1.00  0.00    -0.550 OA
ENDBRANCH   2   3
ENDBRANCH   1   2
BRANCH   1   6
ATOM      6  C   UNL     1      13.632  -1.242  26.252  1.00  0.00     0.000 C 
BRANCH   6   7
ATOM      7  C   UNL     1      15.151  -1.460  26.329  1.00  0.00    -0.000 C 
BRANCH   7   8
ATOM      8  C   UNL     1      15.526  -2.278  27.570  1.00  0.00    -0.003 C 
ATOM      9  C   UNL     1      15.203  -1.515  28.852  1.00  0.00     0.004 C 
ENDBRANCH   7   8
ENDBRANCH   6   7
ENDBRANCH   1   6
TORSDOF 5
ENDMDL
