MODEL 1
REMARK VINA RESULT:    -3.166      0.000      0.000
REMARK INTER + INTRA:          -4.346
REMARK INTER:                  -4.461
REMARK INTRA:                   0.115
REMARK UNBOUND:                 0.115
REMARK SMILES CC1=CCC(=C(C)C)C(=O)CC(C)=CCC1
REMARK SMILES IDX 12 1 14 2 13 3 15 4 16 5 2 6 1 7 3 8 11 10 9 11 10 12 5 13
REMARK SMILES IDX 6 14 7 15 8 16 4 17
REMARK H PARENT
REMARK Flexibility Score: 60.00
ROOT
ATOM      1  C   UNL     1     171.600 169.728 173.111  1.00  0.00    -0.070 C 
ATOM      2  C   UNL     1     171.262 168.425 173.226  1.00  0.00    -0.027 C 
ATOM      3  C   UNL     1     170.650 170.641 172.377  1.00  0.00     0.039 C 
ENDROOT
BRANCH   2   4
ATOM      4  C   UNL     1     172.123 167.340 173.835  1.00  0.00     0.032 C 
BRANCH   4   5
ATOM      5  C   UNL     1     173.265 166.834 172.929  1.00  0.00     0.034 C 
BRANCH   5   6
ATOM      6  C   UNL     1     174.605 166.767 173.640  1.00  0.00    -0.077 C 
ATOM      7  C   UNL     1     174.742 165.800 174.790  1.00  0.00     0.039 C 
ATOM      8  C   UNL     1     175.663 167.565 173.353  1.00  0.00    -0.023 CG0
ATOM      9  G   UNL     1     175.762 168.587 172.239  1.00  0.00     0.000 G0
ENDBRANCH   5   6
ENDBRANCH   4   5
ENDBRANCH   2   4
BRANCH   1  10
ATOM     10  C   UNL     1     172.919 170.291 173.597  1.00  0.00     0.111 C 
BRANCH  10  11
ATOM     11  C   UNL     1     173.929 170.381 172.484  1.00  0.00     0.163 C 
ATOM     12  O   UNL     1     173.526 170.737 171.343  1.00  0.00    -0.294 OA
BRANCH  11  13
ATOM     13  C   UNL     1     175.362 170.006 172.669  1.00  0.00    -0.002 C 
ATOM     14  C   UNL     1     176.267 170.916 173.140  1.00  0.00    -0.069 C 
ATOM     15  C   UNL     1     175.826 172.276 173.636  1.00  0.00     0.039 C 
ATOM     16  C   UNL     1     177.750 170.619 173.191  1.00  0.00     0.039 C 
BRANCH  13  17
ATOM     17  C   UNL     1     175.781 168.614 172.226  1.00  0.00     0.066 CG0
ATOM     18  G   UNL     1     175.663 167.594 173.341  1.00  0.00     0.000 G0
ENDBRANCH  13  17
ENDBRANCH  11  13
ENDBRANCH  10  11
ENDBRANCH   1  10
TORSDOF 0
ENDMDL
MODEL 2
REMARK VINA RESULT:    -3.140      2.681      4.438
REMARK INTER + INTRA:          -4.310
REMARK INTER:                  -4.836
REMARK INTRA:                   0.526
REMARK UNBOUND:                 0.115
REMARK SMILES CC1=CCC(=C(C)C)C(=O)CC(C)=CCC1
REMARK SMILES IDX 12 1 14 2 13 3 15 4 16 5 2 6 1 7 3 8 11 10 9 11 10 12 5 13
REMARK SMILES IDX 6 14 7 15 8 16 4 17
REMARK H PARENT
REMARK Flexibility Score: 60.00
ROOT
ATOM      1  C   UNL     1     176.226 168.298 169.923  1.00  0.00    -0.070 C 
ATOM      2  C   UNL     1     175.327 168.269 168.915  1.00  0.00    -0.027 C 
ATOM      3  C   UNL     1     177.658 168.625 169.583  1.00  0.00     0.039 C 
ENDROOT
BRANCH   2   4
ATOM      4  C   UNL     1     173.873 167.868 169.039  1.00  0.00     0.032 C 
BRANCH   4   5
ATOM      5  C   UNL     1     172.866 169.025 168.868  1.00  0.00     0.034 C 
BRANCH   5   6
ATOM      6  C   UNL     1     172.420 169.628 170.188  1.00  0.00    -0.077 C 
ATOM      7  C   UNL     1     171.044 169.273 170.692  1.00  0.00     0.039 C 
ATOM      8  C   UNL     1     173.149 170.517 170.906  1.00  0.00    -0.023 CG0
ATOM      9  G   UNL     1     174.553 171.004 170.607  1.00  0.00     0.000 G0
ENDBRANCH   5   6
ENDBRANCH   4   5
ENDBRANCH   2   4
BRANCH   1  10
ATOM     10  C   UNL     1     175.886 167.929 171.352  1.00  0.00     0.111 C 
BRANCH  10  11
ATOM     11  C   UNL     1     175.430 169.128 172.142  1.00  0.00     0.163 C 
ATOM     12  O   UNL     1     174.848 168.928 173.242  1.00  0.00    -0.294 OA
BRANCH  11  13
ATOM     13  C   UNL     1     175.586 170.525 171.640  1.00  0.00    -0.002 C 
ATOM     14  C   UNL     1     176.560 171.343 172.142  1.00  0.00    -0.069 C 
ATOM     15  C   UNL     1     177.606 170.819 173.102  1.00  0.00     0.039 C 
ATOM     16  C   UNL     1     176.646 172.808 171.771  1.00  0.00     0.039 C 
BRANCH  13  17
ATOM     17  C   UNL     1     174.566 171.019 170.627  1.00  0.00     0.066 CG0
ATOM     18  G   UNL     1     173.169 170.514 170.923  1.00  0.00     0.000 G0
ENDBRANCH  13  17
ENDBRANCH  11  13
ENDBRANCH  10  11
ENDBRANCH   1  10
TORSDOF 0
ENDMDL
MODEL 3
REMARK VINA RESULT:    -3.009      3.613      5.610
REMARK INTER + INTRA:          -4.125
REMARK INTER:                  -4.302
REMARK INTRA:                   0.177
REMARK UNBOUND:                 0.115
REMARK SMILES CC1=CCC(=C(C)C)C(=O)CC(C)=CCC1
REMARK SMILES IDX 12 1 14 2 13 3 15 4 16 5 2 6 1 7 3 8 11 10 9 11 10 12 5 13
REMARK SMILES IDX 6 14 7 15 8 16 4 17
REMARK H PARENT
REMARK Flexibility Score: 60.00
ROOT
ATOM      1  C   UNL     1     175.929 170.211 171.463  1.00  0.00    -0.070 C 
ATOM      2  C   UNL     1     174.880 171.008 171.166  1.00  0.00    -0.027 C 
ATOM      3  C   UNL     1     176.646 170.445 172.769  1.00  0.00     0.039 C 
ENDROOT
BRANCH   2   4
ATOM      4  C   UNL     1     174.100 170.995 169.869  1.00  0.00     0.032 C 
BRANCH   4   5
ATOM      5  C   UNL     1     173.005 169.911 169.783  1.00  0.00     0.034 C 
BRANCH   5   6
ATOM      6  C   UNL     1     173.059 169.109 168.495  1.00  0.00    -0.077 C 
ATOM      7  C   UNL     1     172.628 169.796 167.223  1.00  0.00     0.039 C 
ATOM      8  C   UNL     1     173.403 167.800 168.423  1.00  0.00    -0.023 CG0
ATOM      9  G   UNL     1     173.884 166.917 169.558  1.00  0.00     0.000 G0
ENDBRANCH   5   6
ENDBRANCH   4   5
ENDBRANCH   2   4
BRANCH   1  10
ATOM     10  C   UNL     1     176.474 169.165 170.513  1.00  0.00     0.111 C 
BRANCH  10  11
ATOM     11  C   UNL     1     175.924 167.797 170.818  1.00  0.00     0.163 C 
ATOM     12  O   UNL     1     175.986 167.384 172.008  1.00  0.00    -0.294 OA
BRANCH  11  13
ATOM     13  C   UNL     1     175.374 166.900 169.760  1.00  0.00    -0.002 C 
ATOM     14  C   UNL     1     176.208 166.188 168.944  1.00  0.00    -0.069 C 
ATOM     15  C   UNL     1     177.702 166.160 169.183  1.00  0.00     0.039 C 
ATOM     16  C   UNL     1     175.691 165.395 167.763  1.00  0.00     0.039 C 
BRANCH  13  17
ATOM     17  C   UNL     1     173.866 166.889 169.571  1.00  0.00     0.066 CG0
ATOM     18  G   UNL     1     173.420 167.786 168.433  1.00  0.00     0.000 G0
ENDBRANCH  13  17
ENDBRANCH  11  13
ENDBRANCH  10  11
ENDBRANCH   1  10
TORSDOF 0
ENDMDL
MODEL 4
REMARK VINA RESULT:    -2.933      2.687      5.054
REMARK INTER + INTRA:          -4.019
REMARK INTER:                  -4.144
REMARK INTRA:                   0.125
REMARK UNBOUND:                 0.115
REMARK SMILES CC1=CCC(=C(C)C)C(=O)CC(C)=CCC1
REMARK SMILES IDX 12 1 14 2 13 3 15 4 16 5 2 6 1 7 3 8 11 10 9 11 10 12 5 13
REMARK SMILES IDX 6 14 7 15 8 16 4 17
REMARK H PARENT
REMARK Flexibility Score: 60.00
ROOT
ATOM      1  C   UNL     1     176.250 169.810 172.277  1.00  0.00    -0.070 C 
ATOM      2  C   UNL     1     176.513 170.000 170.966  1.00  0.00    -0.027 C 
ATOM      3  C   UNL     1     177.180 170.441 173.283  1.00  0.00     0.039 C 
ENDROOT
BRANCH   2   4
ATOM      4  C   UNL     1     175.760 169.372 169.814  1.00  0.00     0.032 C 
BRANCH   4   5
ATOM      5  C   UNL     1     176.231 167.954 169.428  1.00  0.00     0.034 C 
BRANCH   5   6
ATOM      6  C   UNL     1     175.087 166.968 169.271  1.00  0.00    -0.077 C 
ATOM      7  C   UNL     1     174.187 167.124 168.070  1.00  0.00     0.039 C 
ATOM      8  C   UNL     1     174.782 166.002 170.172  1.00  0.00    -0.023 CG0
ATOM      9  G   UNL     1     175.548 165.651 171.431  1.00  0.00     0.000 G0
ENDBRANCH   5   6
ENDBRANCH   4   5
ENDBRANCH   2   4
BRANCH   1  10
ATOM     10  C   UNL     1     175.130 168.924 172.781  1.00  0.00     0.111 C 
BRANCH  10  11
ATOM     11  C   UNL     1     175.631 167.555 173.160  1.00  0.00     0.163 C 
ATOM     12  O   UNL     1     176.676 167.479 173.863  1.00  0.00    -0.294 OA
BRANCH  11  13
ATOM     13  C   UNL     1     174.976 166.301 172.684  1.00  0.00    -0.002 C 
ATOM     14  C   UNL     1     173.958 165.731 173.397  1.00  0.00    -0.069 C 
ATOM     15  C   UNL     1     173.356 166.427 174.598  1.00  0.00     0.039 C 
ATOM     16  C   UNL     1     173.379 164.382 173.029  1.00  0.00     0.039 C 
BRANCH  13  17
ATOM     17  C   UNL     1     175.549 165.646 171.439  1.00  0.00     0.066 CG0
ATOM     18  G   UNL     1     174.778 166.012 170.187  1.00  0.00     0.000 G0
ENDBRANCH  13  17
ENDBRANCH  11  13
ENDBRANCH  10  11
ENDBRANCH   1  10
TORSDOF 0
ENDMDL
MODEL 5
REMARK VINA RESULT:    -2.900      2.265      4.866
REMARK INTER + INTRA:          -3.972
REMARK INTER:                  -4.656
REMARK INTRA:                   0.684
REMARK UNBOUND:                 0.115
REMARK SMILES CC1=CCC(=C(C)C)C(=O)CC(C)=CCC1
REMARK SMILES IDX 12 1 14 2 13 3 15 4 16 5 2 6 1 7 3 8 11 10 9 11 10 12 5 13
REMARK SMILES IDX 6 14 7 15 8 16 4 17
REMARK H PARENT
REMARK Flexibility Score: 60.00
ROOT
ATOM      1  C   UNL     1     175.666 168.879 169.806  1.00  0.00    -0.070 C 
ATOM      2  C   UNL     1     176.894 169.045 170.343  1.00  0.00    -0.027 C 
ATOM      3  C   UNL     1     175.400 167.614 169.029  1.00  0.00     0.039 C 
ENDROOT
BRANCH   2   4
ATOM      4  C   UNL     1     177.382 170.281 171.068  1.00  0.00     0.032 C 
BRANCH   4   5
ATOM      5  C   UNL     1     177.147 170.272 172.593  1.00  0.00     0.034 C 
BRANCH   5   6
ATOM      6  C   UNL     1     176.132 171.306 173.047  1.00  0.00    -0.077 C 
ATOM      7  C   UNL     1     176.635 172.695 173.352  1.00  0.00     0.039 C 
ATOM      8  C   UNL     1     174.819 171.045 173.261  1.00  0.00    -0.023 CG0
ATOM      9  G   UNL     1     174.092 169.740 173.008  1.00  0.00     0.000 G0
ENDBRANCH   5   6
ENDBRANCH   4   5
ENDBRANCH   2   4
BRANCH   1  10
ATOM     10  C   UNL     1     174.582 169.935 169.867  1.00  0.00     0.111 C 
BRANCH  10  11
ATOM     11  C   UNL     1     173.350 169.428 170.569  1.00  0.00     0.163 C 
ATOM     12  O   UNL     1     172.565 168.680 169.924  1.00  0.00    -0.294 OA
BRANCH  11  13
ATOM     13  C   UNL     1     173.001 169.827 171.964  1.00  0.00    -0.002 C 
ATOM     14  C   UNL     1     171.770 170.347 172.255  1.00  0.00    -0.069 C 
ATOM     15  C   UNL     1     170.672 170.390 171.215  1.00  0.00     0.039 C 
ATOM     16  C   UNL     1     171.439 170.907 173.621  1.00  0.00     0.039 C 
BRANCH  13  17
ATOM     17  C   UNL     1     174.095 169.720 173.013  1.00  0.00     0.066 CG0
ATOM     18  G   UNL     1     174.799 171.041 173.250  1.00  0.00     0.000 G0
ENDBRANCH  13  17
ENDBRANCH  11  13
ENDBRANCH  10  11
ENDBRANCH   1  10
TORSDOF 0
ENDMDL
MODEL 6
REMARK VINA RESULT:    -2.877      2.614      4.738
REMARK INTER + INTRA:          -3.939
REMARK INTER:                  -4.157
REMARK INTRA:                   0.217
REMARK UNBOUND:                 0.115
REMARK SMILES CC1=CCC(=C(C)C)C(=O)CC(C)=CCC1
REMARK SMILES IDX 12 1 14 2 13 3 15 4 16 5 2 6 1 7 3 8 11 10 9 11 10 12 5 13
REMARK SMILES IDX 6 14 7 15 8 16 4 17
REMARK H PARENT
REMARK Flexibility Score: 60.00
ROOT
ATOM      1  C   UNL     1     176.080 171.009 172.265  1.00  0.00    -0.070 C 
ATOM      2  C   UNL     1     175.453 171.178 173.449  1.00  0.00    -0.027 C 
ATOM      3  C   UNL     1     177.587 171.081 172.247  1.00  0.00     0.039 C 
ENDROOT
BRANCH   2   4
ATOM      4  C   UNL     1     173.955 171.238 173.654  1.00  0.00     0.032 C 
BRANCH   4   5
ATOM      5  C   UNL     1     173.267 169.864 173.806  1.00  0.00     0.034 C 
BRANCH   5   6
ATOM      6  C   UNL     1     172.097 169.675 172.856  1.00  0.00    -0.077 C 
ATOM      7  C   UNL     1     170.813 170.401 173.171  1.00  0.00     0.039 C 
ATOM      8  C   UNL     1     172.110 168.844 171.785  1.00  0.00    -0.023 CG0
ATOM      9  G   UNL     1     173.282 168.034 171.269  1.00  0.00     0.000 G0
ENDBRANCH   5   6
ENDBRANCH   4   5
ENDBRANCH   2   4
BRANCH   1  10
ATOM     10  C   UNL     1     175.346 170.846 170.950  1.00  0.00     0.111 C 
BRANCH  10  11
ATOM     11  C   UNL     1     175.316 169.407 170.505  1.00  0.00     0.163 C 
ATOM     12  O   UNL     1     176.415 168.799 170.387  1.00  0.00    -0.294 OA
BRANCH  11  13
ATOM     13  C   UNL     1     174.049 168.707 170.142  1.00  0.00    -0.002 C 
ATOM     14  C   UNL     1     173.560 168.764 168.867  1.00  0.00    -0.069 C 
ATOM     15  C   UNL     1     174.357 169.400 167.749  1.00  0.00     0.039 C 
ATOM     16  C   UNL     1     172.203 168.201 168.503  1.00  0.00     0.039 C 
BRANCH  13  17
ATOM     17  C   UNL     1     173.289 168.017 171.263  1.00  0.00     0.066 CG0
ATOM     18  G   UNL     1     172.121 168.844 171.762  1.00  0.00     0.000 G0
ENDBRANCH  13  17
ENDBRANCH  11  13
ENDBRANCH  10  11
ENDBRANCH   1  10
TORSDOF 0
ENDMDL
MODEL 7
REMARK VINA RESULT:    -2.852      2.383      2.986
REMARK INTER + INTRA:          -3.904
REMARK INTER:                  -4.569
REMARK INTRA:                   0.665
REMARK UNBOUND:                 0.115
REMARK SMILES CC1=CCC(=C(C)C)C(=O)CC(C)=CCC1
REMARK SMILES IDX 12 1 14 2 13 3 15 4 16 5 2 6 1 7 3 8 11 10 9 11 10 12 5 13
REMARK SMILES IDX 6 14 7 15 8 16 4 17
REMARK H PARENT
REMARK Flexibility Score: 60.00
ROOT
ATOM      1  C   UNL     1     173.054 169.615 170.268  1.00  0.00    -0.070 C 
ATOM      2  C   UNL     1     173.581 168.729 169.396  1.00  0.00    -0.027 C 
ATOM      3  C   UNL     1     171.613 169.434 170.675  1.00  0.00     0.039 C 
ENDROOT
BRANCH   2   4
ATOM      4  C   UNL     1     174.968 168.799 168.795  1.00  0.00     0.032 C 
BRANCH   4   5
ATOM      5  C   UNL     1     175.811 167.516 168.961  1.00  0.00     0.034 C 
BRANCH   5   6
ATOM      6  C   UNL     1     176.200 167.240 170.403  1.00  0.00    -0.077 C 
ATOM      7  C   UNL     1     176.038 165.831 170.916  1.00  0.00     0.039 C 
ATOM      8  C   UNL     1     176.617 168.189 171.276  1.00  0.00    -0.023 CG0
ATOM      9  G   UNL     1     176.870 169.655 170.983  1.00  0.00     0.000 G0
ENDBRANCH   5   6
ENDBRANCH   4   5
ENDBRANCH   2   4
BRANCH   1  10
ATOM     10  C   UNL     1     173.806 170.826 170.780  1.00  0.00     0.111 C 
BRANCH  10  11
ATOM     11  C   UNL     1     174.658 170.487 171.975  1.00  0.00     0.163 C 
ATOM     12  O   UNL     1     174.077 170.166 173.047  1.00  0.00    -0.294 OA
BRANCH  11  13
ATOM     13  C   UNL     1     176.148 170.579 171.949  1.00  0.00    -0.002 C 
ATOM     14  C   UNL     1     176.803 171.517 172.697  1.00  0.00    -0.069 C 
ATOM     15  C   UNL     1     176.062 172.384 173.691  1.00  0.00     0.039 C 
ATOM     16  C   UNL     1     178.295 171.741 172.574  1.00  0.00     0.039 C 
BRANCH  13  17
ATOM     17  C   UNL     1     176.886 169.658 170.992  1.00  0.00     0.066 CG0
ATOM     18  G   UNL     1     176.602 168.194 171.266  1.00  0.00     0.000 G0
ENDBRANCH  13  17
ENDBRANCH  11  13
ENDBRANCH  10  11
ENDBRANCH   1  10
TORSDOF 0
ENDMDL
MODEL 8
REMARK VINA RESULT:    -2.755      1.960      2.673
REMARK INTER + INTRA:          -3.768
REMARK INTER:                  -4.226
REMARK INTRA:                   0.458
REMARK UNBOUND:                 0.115
REMARK SMILES CC1=CCC(=C(C)C)C(=O)CC(C)=CCC1
REMARK SMILES IDX 12 1 14 2 13 3 15 4 16 5 2 6 1 7 3 8 11 10 9 11 10 12 5 13
REMARK SMILES IDX 6 14 7 15 8 16 4 17
REMARK H PARENT
REMARK Flexibility Score: 60.00
ROOT
ATOM      1  C   UNL     1     174.009 167.968 169.652  1.00  0.00    -0.070 C 
ATOM      2  C   UNL     1     174.094 166.715 170.149  1.00  0.00    -0.027 C 
ATOM      3  C   UNL     1     172.816 168.307 168.793  1.00  0.00     0.039 C 
ENDROOT
BRANCH   2   4
ATOM      4  C   UNL     1     175.254 166.158 170.945  1.00  0.00     0.032 C 
BRANCH   4   5
ATOM      5  C   UNL     1     174.909 165.743 172.391  1.00  0.00     0.034 C 
BRANCH   5   6
ATOM      6  C   UNL     1     174.101 166.791 173.135  1.00  0.00    -0.077 C 
ATOM      7  C   UNL     1     172.702 166.425 173.562  1.00  0.00     0.039 C 
ATOM      8  C   UNL     1     174.530 168.054 173.380  1.00  0.00    -0.023 CG0
ATOM      9  G   UNL     1     175.893 168.635 173.063  1.00  0.00     0.000 G0
ENDBRANCH   5   6
ENDBRANCH   4   5
ENDBRANCH   2   4
BRANCH   1  10
ATOM     10  C   UNL     1     175.091 169.011 169.835  1.00  0.00     0.111 C 
BRANCH  10  11
ATOM     11  C   UNL     1     174.844 169.860 171.055  1.00  0.00     0.163 C 
ATOM     12  O   UNL     1     173.823 170.600 171.067  1.00  0.00    -0.294 OA
BRANCH  11  13
ATOM     13  C   UNL     1     175.791 169.899 172.208  1.00  0.00    -0.002 C 
ATOM     14  C   UNL     1     176.589 170.989 172.421  1.00  0.00    -0.069 C 
ATOM     15  C   UNL     1     176.430 172.249 171.597  1.00  0.00     0.039 C 
ATOM     16  C   UNL     1     177.668 170.999 173.481  1.00  0.00     0.039 C 
BRANCH  13  17
ATOM     17  C   UNL     1     175.895 168.650 173.067  1.00  0.00     0.066 CG0
ATOM     18  G   UNL     1     174.539 168.052 173.383  1.00  0.00     0.000 G0
ENDBRANCH  13  17
ENDBRANCH  11  13
ENDBRANCH  10  11
ENDBRANCH   1  10
TORSDOF 0
ENDMDL
MODEL 9
REMARK VINA RESULT:    -2.741      2.724      4.427
REMARK INTER + INTRA:          -3.748
REMARK INTER:                  -3.990
REMARK INTRA:                   0.242
REMARK UNBOUND:                 0.115
REMARK SMILES CC1=CCC(=C(C)C)C(=O)CC(C)=CCC1
REMARK SMILES IDX 12 1 14 2 13 3 15 4 16 5 2 6 1 7 3 8 11 10 9 11 10 12 5 13
REMARK SMILES IDX 6 14 7 15 8 16 4 17
REMARK H PARENT
REMARK Flexibility Score: 60.00
ROOT
ATOM      1  C   UNL     1     176.500 170.415 171.877  1.00  0.00    -0.070 C 
ATOM      2  C   UNL     1     176.557 169.677 173.007  1.00  0.00    -0.027 C 
ATOM      3  C   UNL     1     176.873 171.873 171.966  1.00  0.00     0.039 C 
ENDROOT
BRANCH   2   4
ATOM      4  C   UNL     1     176.131 168.232 173.141  1.00  0.00     0.032 C 
BRANCH   4   5
ATOM      5  C   UNL     1     174.605 168.010 173.214  1.00  0.00     0.034 C 
BRANCH   5   6
ATOM      6  C   UNL     1     174.097 167.015 172.186  1.00  0.00    -0.077 C 
ATOM      7  C   UNL     1     174.551 165.582 172.312  1.00  0.00     0.039 C 
ATOM      8  C   UNL     1     173.319 167.343 171.125  1.00  0.00    -0.023 CG0
ATOM      9  G   UNL     1     172.731 168.703 170.808  1.00  0.00     0.000 G0
ENDBRANCH   5   6
ENDBRANCH   4   5
ENDBRANCH   2   4
BRANCH   1  10
ATOM     10  C   UNL     1     175.996 169.873 170.555  1.00  0.00     0.111 C 
BRANCH  10  11
ATOM     11  C   UNL     1     174.607 170.369 170.246  1.00  0.00     0.163 C 
ATOM     12  O   UNL     1     174.348 171.584 170.462  1.00  0.00    -0.294 OA
BRANCH  11  13
ATOM     13  C   UNL     1     173.524 169.464 169.758  1.00  0.00    -0.002 C 
ATOM     14  C   UNL     1     173.215 169.399 168.427  1.00  0.00    -0.069 C 
ATOM     15  C   UNL     1     174.056 170.113 167.391  1.00  0.00     0.039 C 
ATOM     16  C   UNL     1     172.024 168.616 167.919  1.00  0.00     0.039 C 
BRANCH  13  17
ATOM     17  C   UNL     1     172.728 168.703 170.805  1.00  0.00     0.066 CG0
ATOM     18  G   UNL     1     173.334 167.350 171.118  1.00  0.00     0.000 G0
ENDBRANCH  13  17
ENDBRANCH  11  13
ENDBRANCH  10  11
ENDBRANCH   1  10
TORSDOF 0
ENDMDL
