MODEL 1
REMARK VINA RESULT:    -5.197      0.000      0.000
REMARK INTER + INTRA:          -8.067
REMARK INTER:                  -7.476
REMARK INTRA:                  -0.591
REMARK UNBOUND:                -0.591
REMARK SMILES O=C(CO)[C@H](O)[C@H](O)[C@H](O)CO
REMARK SMILES IDX 7 1 9 2 11 3 12 4 10 6 5 8 2 9 1 10 3 11 4 12 6 14 8 16
REMARK H PARENT 12 5 10 7 4 13 6 15 8 17
REMARK Flexibility Score: inf
ROOT
ATOM      1  C   UNL     1       7.025   5.231  19.417  1.00  0.00     0.181 C 
ENDROOT
BRANCH   1   2
ATOM      2  C   UNL     1       6.522   6.489  18.665  1.00  0.00     0.171 C 
BRANCH   2   3
ATOM      3  C   UNL     1       7.390   6.782  17.431  1.00  0.00     0.190 C 
BRANCH   3   4
ATOM      4  O   UNL     1       7.032   8.019  16.880  1.00  0.00    -0.394 OA
ATOM      5  H   UNL     1       6.598   7.818  16.010  1.00  0.00     0.210 HD
ENDBRANCH   3   4
ENDBRANCH   2   3
BRANCH   2   6
ATOM      6  O   UNL     1       5.194   6.295  18.250  1.00  0.00    -0.388 OA
ATOM      7  H   UNL     1       4.716   5.850  18.997  1.00  0.00     0.211 HD
ENDBRANCH   2   6
ENDBRANCH   1   2
BRANCH   1   8
ATOM      8  C   UNL     1       7.872   5.561  20.672  1.00  0.00     0.214 C 
BRANCH   8   9
ATOM      9  C   UNL     1       7.890   4.423  21.671  1.00  0.00     0.189 C 
ATOM     10  O   UNL     1       8.301   3.322  21.338  1.00  0.00    -0.294 OA
BRANCH   9  11
ATOM     11  C   UNL     1       7.433   4.638  23.088  1.00  0.00     0.234 C 
BRANCH  11  12
ATOM     12  O   UNL     1       6.055   4.890  23.118  1.00  0.00    -0.388 OA
ATOM     13  H   UNL     1       5.882   5.602  22.447  1.00  0.00     0.211 HD
ENDBRANCH  11  12
ENDBRANCH   9  11
ENDBRANCH   8   9
BRANCH   8  14
ATOM     14  O   UNL     1       7.402   6.743  21.272  1.00  0.00    -0.382 OA
ATOM     15  H   UNL     1       6.769   7.160  20.631  1.00  0.00     0.211 HD
ENDBRANCH   8  14
ENDBRANCH   1   8
BRANCH   1  16
ATOM     16  O   UNL     1       7.806   4.454  18.542  1.00  0.00    -0.387 OA
ATOM     17  H   UNL     1       7.893   3.554  18.952  1.00  0.00     0.211 HD
ENDBRANCH   1  16
TORSDOF 10
ENDMDL
MODEL 2
REMARK VINA RESULT:    -5.059      0.507      4.906
REMARK INTER + INTRA:          -7.868
REMARK INTER:                  -7.174
REMARK INTRA:                  -0.694
REMARK UNBOUND:                -0.591
REMARK SMILES O=C(CO)[C@H](O)[C@H](O)[C@H](O)CO
REMARK SMILES IDX 7 1 9 2 11 3 12 4 10 6 5 8 2 9 1 10 3 11 4 12 6 14 8 16
REMARK H PARENT 12 5 10 7 4 13 6 15 8 17
REMARK Flexibility Score: inf
ROOT
ATOM      1  C   UNL     1       7.185   5.453  20.729  1.00  0.00     0.181 C 
ENDROOT
BRANCH   1   2
ATOM      2  C   UNL     1       7.858   4.431  21.680  1.00  0.00     0.171 C 
BRANCH   2   3
ATOM      3  C   UNL     1       7.438   4.672  23.139  1.00  0.00     0.190 C 
BRANCH   3   4
ATOM      4  O   UNL     1       6.060   4.918  23.203  1.00  0.00    -0.394 OA
ATOM      5  H   UNL     1       5.872   5.616  22.523  1.00  0.00     0.210 HD
ENDBRANCH   3   4
ENDBRANCH   2   3
BRANCH   2   6
ATOM      6  O   UNL     1       7.490   3.126  21.312  1.00  0.00    -0.388 OA
ATOM      7  H   UNL     1       6.505   3.060  21.413  1.00  0.00     0.211 HD
ENDBRANCH   2   6
ENDBRANCH   1   2
BRANCH   1   8
ATOM      8  C   UNL     1       7.745   5.409  19.284  1.00  0.00     0.214 C 
BRANCH   8   9
ATOM      9  C   UNL     1       6.997   6.335  18.349  1.00  0.00     0.189 C 
ATOM     10  O   UNL     1       5.813   6.572  18.537  1.00  0.00    -0.294 OA
BRANCH   9  11
ATOM     11  C   UNL     1       7.703   6.998  17.198  1.00  0.00     0.234 C 
BRANCH  11  12
ATOM     12  O   UNL     1       7.023   8.163  16.820  1.00  0.00    -0.388 OA
ATOM     13  H   UNL     1       6.592   7.969  15.947  1.00  0.00     0.211 HD
ENDBRANCH  11  12
ENDBRANCH   9  11
ENDBRANCH   8   9
BRANCH   8  14
ATOM     14  O   UNL     1       7.725   4.090  18.800  1.00  0.00    -0.382 OA
ATOM     15  H   UNL     1       6.810   3.924  18.450  1.00  0.00     0.211 HD
ENDBRANCH   8  14
ENDBRANCH   1   8
BRANCH   1  16
ATOM     16  O   UNL     1       7.369   6.750  21.241  1.00  0.00    -0.387 OA
ATOM     17  H   UNL     1       7.279   6.688  22.228  1.00  0.00     0.211 HD
ENDBRANCH   1  16
TORSDOF 10
ENDMDL
MODEL 3
REMARK VINA RESULT:    -4.994      1.135      4.593
REMARK INTER + INTRA:          -7.775
REMARK INTER:                  -6.989
REMARK INTRA:                  -0.786
REMARK UNBOUND:                -0.591
REMARK SMILES O=C(CO)[C@H](O)[C@H](O)[C@H](O)CO
REMARK SMILES IDX 7 1 9 2 11 3 12 4 10 6 5 8 2 9 1 10 3 11 4 12 6 14 8 16
REMARK H PARENT 12 5 10 7 4 13 6 15 8 17
REMARK Flexibility Score: inf
ROOT
ATOM      1  C   UNL     1       6.960   4.735  19.772  1.00  0.00     0.181 C 
ENDROOT
BRANCH   1   2
ATOM      2  C   UNL     1       6.856   5.688  20.990  1.00  0.00     0.171 C 
BRANCH   2   3
ATOM      3  C   UNL     1       7.192   4.954  22.298  1.00  0.00     0.190 C 
BRANCH   3   4
ATOM      4  O   UNL     1       6.011   4.642  22.985  1.00  0.00    -0.394 OA
ATOM      5  H   UNL     1       5.971   3.651  23.031  1.00  0.00     0.210 HD
ENDBRANCH   3   4
ENDBRANCH   2   3
BRANCH   2   6
ATOM      6  O   UNL     1       7.749   6.761  20.831  1.00  0.00    -0.388 OA
ATOM      7  H   UNL     1       7.203   7.584  20.729  1.00  0.00     0.211 HD
ENDBRANCH   2   6
ENDBRANCH   1   2
BRANCH   1   8
ATOM      8  C   UNL     1       6.290   5.298  18.493  1.00  0.00     0.214 C 
BRANCH   8   9
ATOM      9  C   UNL     1       7.303   5.712  17.447  1.00  0.00     0.189 C 
ATOM     10  O   UNL     1       7.680   4.910  16.606  1.00  0.00    -0.294 OA
BRANCH   9  11
ATOM     11  C   UNL     1       7.836   7.119  17.410  1.00  0.00     0.234 C 
BRANCH  11  12
ATOM     12  O   UNL     1       6.903   7.973  16.807  1.00  0.00    -0.388 OA
ATOM     13  H   UNL     1       6.288   8.273  17.526  1.00  0.00     0.211 HD
ENDBRANCH  11  12
ENDBRANCH   9  11
ENDBRANCH   8   9
BRANCH   8  14
ATOM     14  O   UNL     1       5.448   6.374  18.824  1.00  0.00    -0.382 OA
ATOM     15  H   UNL     1       5.946   7.207  18.612  1.00  0.00     0.211 HD
ENDBRANCH   8  14
ENDBRANCH   1   8
BRANCH   1  16
ATOM     16  O   UNL     1       6.350   3.509  20.094  1.00  0.00    -0.387 OA
ATOM     17  H   UNL     1       5.461   3.501  19.651  1.00  0.00     0.211 HD
ENDBRANCH   1  16
TORSDOF 10
ENDMDL
MODEL 4
REMARK VINA RESULT:    -4.873     15.762     17.222
REMARK INTER + INTRA:          -7.601
REMARK INTER:                  -6.741
REMARK INTRA:                  -0.860
REMARK UNBOUND:                -0.591
REMARK SMILES O=C(CO)[C@H](O)[C@H](O)[C@H](O)CO
REMARK SMILES IDX 7 1 9 2 11 3 12 4 10 6 5 8 2 9 1 10 3 11 4 12 6 14 8 16
REMARK H PARENT 12 5 10 7 4 13 6 15 8 17
REMARK Flexibility Score: inf
ROOT
ATOM      1  C   UNL     1      13.842  -2.645   6.424  1.00  0.00     0.181 C 
ENDROOT
BRANCH   1   2
ATOM      2  C   UNL     1      12.406  -2.278   6.876  1.00  0.00     0.171 C 
BRANCH   2   3
ATOM      3  C   UNL     1      11.529  -3.533   7.010  1.00  0.00     0.190 C 
BRANCH   3   4
ATOM      4  O   UNL     1      10.720  -3.672   5.875  1.00  0.00    -0.394 OA
ATOM      5  H   UNL     1      10.515  -4.640   5.798  1.00  0.00     0.210 HD
ENDBRANCH   3   4
ENDBRANCH   2   3
BRANCH   2   6
ATOM      6  O   UNL     1      12.453  -1.623   8.119  1.00  0.00    -0.388 OA
ATOM      7  H   UNL     1      12.458  -0.647   7.935  1.00  0.00     0.211 HD
ENDBRANCH   2   6
ENDBRANCH   1   2
BRANCH   1   8
ATOM      8  C   UNL     1      14.433  -3.862   7.181  1.00  0.00     0.214 C 
BRANCH   8   9
ATOM      9  C   UNL     1      15.478  -3.456   8.198  1.00  0.00     0.189 C 
ATOM     10  O   UNL     1      15.202  -2.647   9.071  1.00  0.00    -0.294 OA
BRANCH   9  11
ATOM     11  C   UNL     1      16.855  -4.061   8.168  1.00  0.00     0.234 C 
BRANCH  11  12
ATOM     12  O   UNL     1      16.799  -5.407   8.551  1.00  0.00    -0.388 OA
ATOM     13  H   UNL     1      15.975  -5.513   9.096  1.00  0.00     0.211 HD
ENDBRANCH  11  12
ENDBRANCH   9  11
ENDBRANCH   8   9
BRANCH   8  14
ATOM     14  O   UNL     1      14.964  -4.787   6.264  1.00  0.00    -0.382 OA
ATOM     15  H   UNL     1      14.461  -5.635   6.385  1.00  0.00     0.211 HD
ENDBRANCH   8  14
ENDBRANCH   1   8
BRANCH   1  16
ATOM     16  O   UNL     1      14.686  -1.539   6.629  1.00  0.00    -0.387 OA
ATOM     17  H   UNL     1      15.618  -1.857   6.502  1.00  0.00     0.211 HD
ENDBRANCH   1  16
TORSDOF 10
ENDMDL
MODEL 5
REMARK VINA RESULT:    -4.849      1.663      4.199
REMARK INTER + INTRA:          -7.567
REMARK INTER:                  -6.543
REMARK INTRA:                  -1.023
REMARK UNBOUND:                -0.591
REMARK SMILES O=C(CO)[C@H](O)[C@H](O)[C@H](O)CO
REMARK SMILES IDX 7 1 9 2 11 3 12 4 10 6 5 8 2 9 1 10 3 11 4 12 6 14 8 16
REMARK H PARENT 12 5 10 7 4 13 6 15 8 17
REMARK Flexibility Score: inf
ROOT
ATOM      1  C   UNL     1       7.746   4.063  20.457  1.00  0.00     0.181 C 
ENDROOT
BRANCH   1   2
ATOM      2  C   UNL     1       8.084   5.386  21.191  1.00  0.00     0.171 C 
BRANCH   2   3
ATOM      3  C   UNL     1       6.982   5.760  22.194  1.00  0.00     0.190 C 
BRANCH   3   4
ATOM      4  O   UNL     1       6.141   6.733  21.637  1.00  0.00    -0.394 OA
ATOM      5  H   UNL     1       6.292   7.562  22.162  1.00  0.00     0.210 HD
ENDBRANCH   3   4
ENDBRANCH   2   3
BRANCH   2   6
ATOM      6  O   UNL     1       9.299   5.246  21.884  1.00  0.00    -0.388 OA
ATOM      7  H   UNL     1       9.341   4.312  22.215  1.00  0.00     0.211 HD
ENDBRANCH   2   6
ENDBRANCH   1   2
BRANCH   1   8
ATOM      8  C   UNL     1       8.041   4.111  18.936  1.00  0.00     0.214 C 
BRANCH   8   9
ATOM      9  C   UNL     1       6.823   4.496  18.124  1.00  0.00     0.189 C 
ATOM     10  O   UNL     1       6.116   3.631  17.631  1.00  0.00    -0.294 OA
BRANCH   9  11
ATOM     11  C   UNL     1       6.450   5.942  17.939  1.00  0.00     0.234 C 
BRANCH  11  12
ATOM     12  O   UNL     1       5.403   6.285  18.805  1.00  0.00    -0.388 OA
ATOM     13  H   UNL     1       5.696   6.028  19.719  1.00  0.00     0.211 HD
ENDBRANCH  11  12
ENDBRANCH   9  11
ENDBRANCH   8   9
BRANCH   8  14
ATOM     14  O   UNL     1       8.555   2.875  18.507  1.00  0.00    -0.382 OA
ATOM     15  H   UNL     1       8.891   2.405  19.316  1.00  0.00     0.211 HD
ENDBRANCH   8  14
ENDBRANCH   1   8
BRANCH   1  16
ATOM     16  O   UNL     1       6.381   3.773  20.638  1.00  0.00    -0.387 OA
ATOM     17  H   UNL     1       6.012   4.472  21.239  1.00  0.00     0.211 HD
ENDBRANCH   1  16
TORSDOF 10
ENDMDL
MODEL 6
REMARK VINA RESULT:    -4.799     15.415     17.215
REMARK INTER + INTRA:          -7.495
REMARK INTER:                  -6.217
REMARK INTRA:                  -1.278
REMARK UNBOUND:                -0.591
REMARK SMILES O=C(CO)[C@H](O)[C@H](O)[C@H](O)CO
REMARK SMILES IDX 7 1 9 2 11 3 12 4 10 6 5 8 2 9 1 10 3 11 4 12 6 14 8 16
REMARK H PARENT 12 5 10 7 4 13 6 15 8 17
REMARK Flexibility Score: inf
ROOT
ATOM      1  C   UNL     1      16.229  -2.403   7.982  1.00  0.00     0.181 C 
ENDROOT
BRANCH   1   2
ATOM      2  C   UNL     1      16.622  -3.902   7.956  1.00  0.00     0.171 C 
BRANCH   2   3
ATOM      3  C   UNL     1      16.552  -4.468   6.528  1.00  0.00     0.190 C 
BRANCH   3   4
ATOM      4  O   UNL     1      15.239  -4.859   6.235  1.00  0.00    -0.394 OA
ATOM      5  H   UNL     1      15.313  -5.655   5.647  1.00  0.00     0.210 HD
ENDBRANCH   3   4
ENDBRANCH   2   3
BRANCH   2   6
ATOM      6  O   UNL     1      17.931  -4.058   8.442  1.00  0.00    -0.388 OA
ATOM      7  H   UNL     1      18.502  -3.408   7.957  1.00  0.00     0.211 HD
ENDBRANCH   2   6
ENDBRANCH   1   2
BRANCH   1   8
ATOM      8  C   UNL     1      14.958  -2.115   8.821  1.00  0.00     0.214 C 
BRANCH   8   9
ATOM      9  C   UNL     1      13.710  -2.035   7.967  1.00  0.00     0.189 C 
ATOM     10  O   UNL     1      13.246  -3.047   7.462  1.00  0.00    -0.294 OA
BRANCH   9  11
ATOM     11  C   UNL     1      13.009  -0.721   7.754  1.00  0.00     0.234 C 
BRANCH  11  12
ATOM     12  O   UNL     1      13.754   0.088   6.887  1.00  0.00    -0.388 OA
ATOM     13  H   UNL     1      14.368   0.622   7.455  1.00  0.00     0.211 HD
ENDBRANCH  11  12
ENDBRANCH   9  11
ENDBRANCH   8   9
BRANCH   8  14
ATOM     14  O   UNL     1      15.129  -0.934   9.564  1.00  0.00    -0.382 OA
ATOM     15  H   UNL     1      15.966  -0.507   9.239  1.00  0.00     0.211 HD
ENDBRANCH   8  14
ENDBRANCH   1   8
BRANCH   1  16
ATOM     16  O   UNL     1      16.004  -1.963   6.665  1.00  0.00    -0.387 OA
ATOM     17  H   UNL     1      16.880  -1.982   6.199  1.00  0.00     0.211 HD
ENDBRANCH   1  16
TORSDOF 10
ENDMDL
MODEL 7
REMARK VINA RESULT:    -4.732      1.468      2.096
REMARK INTER + INTRA:          -7.398
REMARK INTER:                  -6.451
REMARK INTRA:                  -0.947
REMARK UNBOUND:                -0.591
REMARK SMILES O=C(CO)[C@H](O)[C@H](O)[C@H](O)CO
REMARK SMILES IDX 7 1 9 2 11 3 12 4 10 6 5 8 2 9 1 10 3 11 4 12 6 14 8 16
REMARK H PARENT 12 5 10 7 4 13 6 15 8 17
REMARK Flexibility Score: inf
ROOT
ATOM      1  C   UNL     1       6.882   4.846  19.806  1.00  0.00     0.181 C 
ENDROOT
BRANCH   1   2
ATOM      2  C   UNL     1       7.597   4.592  18.455  1.00  0.00     0.171 C 
BRANCH   2   3
ATOM      3  C   UNL     1       7.032   3.347  17.754  1.00  0.00     0.190 C 
BRANCH   3   4
ATOM      4  O   UNL     1       5.652   3.495  17.559  1.00  0.00    -0.394 OA
ATOM      5  H   UNL     1       5.539   4.300  16.989  1.00  0.00     0.210 HD
ENDBRANCH   3   4
ENDBRANCH   2   3
BRANCH   2   6
ATOM      6  O   UNL     1       7.426   5.703  17.611  1.00  0.00    -0.388 OA
ATOM      7  H   UNL     1       7.657   6.511  18.140  1.00  0.00     0.211 HD
ENDBRANCH   2   6
ENDBRANCH   1   2
BRANCH   1   8
ATOM      8  C   UNL     1       7.830   5.370  20.915  1.00  0.00     0.214 C 
BRANCH   8   9
ATOM      9  C   UNL     1       7.873   4.451  22.117  1.00  0.00     0.189 C 
ATOM     10  O   UNL     1       8.512   3.411  22.071  1.00  0.00    -0.294 OA
BRANCH   9  11
ATOM     11  C   UNL     1       7.158   4.818  23.389  1.00  0.00     0.234 C 
BRANCH  11  12
ATOM     12  O   UNL     1       5.777   4.883  23.165  1.00  0.00    -0.388 OA
ATOM     13  H   UNL     1       5.339   4.659  24.028  1.00  0.00     0.211 HD
ENDBRANCH  11  12
ENDBRANCH   9  11
ENDBRANCH   8   9
BRANCH   8  14
ATOM     14  O   UNL     1       7.453   6.670  21.295  1.00  0.00    -0.382 OA
ATOM     15  H   UNL     1       7.477   7.230  20.474  1.00  0.00     0.211 HD
ENDBRANCH   8  14
ENDBRANCH   1   8
BRANCH   1  16
ATOM     16  O   UNL     1       6.296   3.647  20.249  1.00  0.00    -0.387 OA
ATOM     17  H   UNL     1       7.001   3.139  20.729  1.00  0.00     0.211 HD
ENDBRANCH   1  16
TORSDOF 10
ENDMDL
MODEL 8
REMARK VINA RESULT:    -4.718      1.150      4.573
REMARK INTER + INTRA:          -7.378
REMARK INTER:                  -6.338
REMARK INTRA:                  -1.040
REMARK UNBOUND:                -0.591
REMARK SMILES O=C(CO)[C@H](O)[C@H](O)[C@H](O)CO
REMARK SMILES IDX 7 1 9 2 11 3 12 4 10 6 5 8 2 9 1 10 3 11 4 12 6 14 8 16
REMARK H PARENT 12 5 10 7 4 13 6 15 8 17
REMARK Flexibility Score: inf
ROOT
ATOM      1  C   UNL     1       7.231   5.463  20.807  1.00  0.00     0.181 C 
ENDROOT
BRANCH   1   2
ATOM      2  C   UNL     1       7.813   4.379  21.749  1.00  0.00     0.171 C 
BRANCH   2   3
ATOM      3  C   UNL     1       7.404   4.636  23.208  1.00  0.00     0.190 C 
BRANCH   3   4
ATOM      4  O   UNL     1       6.036   4.929  23.275  1.00  0.00    -0.394 OA
ATOM      5  H   UNL     1       5.951   5.720  23.868  1.00  0.00     0.210 HD
ENDBRANCH   3   4
ENDBRANCH   2   3
BRANCH   2   6
ATOM      6  O   UNL     1       7.343   3.113  21.363  1.00  0.00    -0.388 OA
ATOM      7  H   UNL     1       8.125   2.599  21.031  1.00  0.00     0.211 HD
ENDBRANCH   2   6
ENDBRANCH   1   2
BRANCH   1   8
ATOM      8  C   UNL     1       7.710   5.324  19.339  1.00  0.00     0.214 C 
BRANCH   8   9
ATOM      9  C   UNL     1       6.556   5.206  18.366  1.00  0.00     0.189 C 
ATOM     10  O   UNL     1       5.874   6.184  18.101  1.00  0.00    -0.294 OA
BRANCH   9  11
ATOM     11  C   UNL     1       6.252   3.896  17.691  1.00  0.00     0.234 C 
BRANCH  11  12
ATOM     12  O   UNL     1       6.019   2.901  18.650  1.00  0.00    -0.388 OA
ATOM     13  H   UNL     1       5.400   3.293  19.320  1.00  0.00     0.211 HD
ENDBRANCH  11  12
ENDBRANCH   9  11
ENDBRANCH   8   9
BRANCH   8  14
ATOM     14  O   UNL     1       8.577   4.224  19.219  1.00  0.00    -0.382 OA
ATOM     15  H   UNL     1       8.834   4.162  18.261  1.00  0.00     0.211 HD
ENDBRANCH   8  14
ENDBRANCH   1   8
BRANCH   1  16
ATOM     16  O   UNL     1       7.605   6.734  21.280  1.00  0.00    -0.387 OA
ATOM     17  H   UNL     1       7.790   6.640  22.251  1.00  0.00     0.211 HD
ENDBRANCH   1  16
TORSDOF 10
ENDMDL
MODEL 9
REMARK VINA RESULT:    -4.633      1.033      2.098
REMARK INTER + INTRA:          -7.255
REMARK INTER:                  -6.451
REMARK INTRA:                  -0.805
REMARK UNBOUND:                -0.591
REMARK SMILES O=C(CO)[C@H](O)[C@H](O)[C@H](O)CO
REMARK SMILES IDX 7 1 9 2 11 3 12 4 10 6 5 8 2 9 1 10 3 11 4 12 6 14 8 16
REMARK H PARENT 12 5 10 7 4 13 6 15 8 17
REMARK Flexibility Score: inf
ROOT
ATOM      1  C   UNL     1       7.447   5.529  20.101  1.00  0.00     0.181 C 
ENDROOT
BRANCH   1   2
ATOM      2  C   UNL     1       6.816   5.161  18.735  1.00  0.00     0.171 C 
BRANCH   2   3
ATOM      3  C   UNL     1       6.453   6.422  17.934  1.00  0.00     0.190 C 
BRANCH   3   4
ATOM      4  O   UNL     1       5.160   6.844  18.271  1.00  0.00    -0.394 OA
ATOM      5  H   UNL     1       4.538   6.278  17.743  1.00  0.00     0.210 HD
ENDBRANCH   3   4
ENDBRANCH   2   3
BRANCH   2   6
ATOM      6  O   UNL     1       7.722   4.393  17.985  1.00  0.00    -0.388 OA
ATOM      7  H   UNL     1       7.450   3.443  18.080  1.00  0.00     0.211 HD
ENDBRANCH   2   6
ENDBRANCH   1   2
BRANCH   1   8
ATOM      8  C   UNL     1       7.584   4.320  21.062  1.00  0.00     0.214 C 
BRANCH   8   9
ATOM      9  C   UNL     1       8.083   4.727  22.432  1.00  0.00     0.189 C 
ATOM     10  O   UNL     1       9.229   5.127  22.574  1.00  0.00    -0.294 OA
BRANCH   9  11
ATOM     11  C   UNL     1       7.171   4.675  23.627  1.00  0.00     0.234 C 
BRANCH  11  12
ATOM     12  O   UNL     1       5.850   4.929  23.238  1.00  0.00    -0.388 OA
ATOM     13  H   UNL     1       5.700   4.423  22.397  1.00  0.00     0.211 HD
ENDBRANCH  11  12
ENDBRANCH   9  11
ENDBRANCH   8   9
BRANCH   8  14
ATOM     14  O   UNL     1       8.426   3.348  20.494  1.00  0.00    -0.382 OA
ATOM     15  H   UNL     1       8.789   3.735  19.654  1.00  0.00     0.211 HD
ENDBRANCH   8  14
ENDBRANCH   1   8
BRANCH   1  16
ATOM     16  O   UNL     1       6.655   6.509  20.726  1.00  0.00    -0.387 OA
ATOM     17  H   UNL     1       5.868   6.043  21.112  1.00  0.00     0.211 HD
ENDBRANCH   1  16
TORSDOF 10
ENDMDL
