MODEL 1
REMARK VINA RESULT:    -2.541      0.000      0.000
REMARK INTER + INTRA:          -2.541
REMARK INTER:                  -2.541
REMARK INTRA:                   0.000
REMARK UNBOUND:                 0.000
REMARK SMILES O=C1CCCCC1
REMARK SMILES IDX 5 1 4 2 3 3 2 4 1 5 7 6 6 7
REMARK H PARENT
REMARK Flexibility Score: inf
ROOT
ATOM      1  C   UNL     1     121.855 107.920 118.194  1.00  0.00     0.001 C 
ATOM      2  C   UNL     1     122.149 106.875 117.108  1.00  0.00     0.008 C 
ATOM      3  C   UNL     1     122.116 107.498 115.707  1.00  0.00     0.075 C 
ATOM      4  C   UNL     1     120.850 108.287 115.513  1.00  0.00     0.132 C 
ATOM      5  O   UNL     1     120.226 108.204 114.466  1.00  0.00    -0.300 OA
ATOM      6  C   UNL     1     120.413 109.248 116.584  1.00  0.00     0.075 C 
ATOM      7  C   UNL     1     120.487 108.581 117.963  1.00  0.00     0.008 C 
ENDROOT
TORSDOF 0
ENDMDL
MODEL 2
REMARK VINA RESULT:    -2.537     13.359     14.075
REMARK INTER + INTRA:          -2.537
REMARK INTER:                  -2.537
REMARK INTRA:                   0.000
REMARK UNBOUND:                 0.000
REMARK SMILES O=C1CCCCC1
REMARK SMILES IDX 5 1 4 2 3 3 2 4 1 5 7 6 6 7
REMARK H PARENT
REMARK Flexibility Score: inf
ROOT
ATOM      1  C   UNL     1     125.511 122.391 118.144  1.00  0.00     0.001 C 
ATOM      2  C   UNL     1     126.424 122.568 116.923  1.00  0.00     0.008 C 
ATOM      3  C   UNL     1     125.657 122.349 115.613  1.00  0.00     0.075 C 
ATOM      4  C   UNL     1     124.895 121.053 115.662  1.00  0.00     0.132 C 
ATOM      5  O   UNL     1     124.887 120.305 114.696  1.00  0.00    -0.300 OA
ATOM      6  C   UNL     1     124.068 120.734 116.877  1.00  0.00     0.075 C 
ATOM      7  C   UNL     1     124.875 120.993 118.156  1.00  0.00     0.008 C 
ENDROOT
TORSDOF 0
ENDMDL
MODEL 3
REMARK VINA RESULT:    -2.513      0.998      2.205
REMARK INTER + INTRA:          -2.513
REMARK INTER:                  -2.513
REMARK INTRA:                   0.000
REMARK UNBOUND:                 0.000
REMARK SMILES O=C1CCCCC1
REMARK SMILES IDX 5 1 4 2 3 3 2 4 1 5 7 6 6 7
REMARK H PARENT
REMARK Flexibility Score: inf
ROOT
ATOM      1  C   UNL     1     120.515 108.649 118.004  1.00  0.00     0.001 C 
ATOM      2  C   UNL     1     120.396 109.321 116.628  1.00  0.00     0.008 C 
ATOM      3  C   UNL     1     120.629 108.317 115.492  1.00  0.00     0.075 C 
ATOM      4  C   UNL     1     121.901 107.549 115.723  1.00  0.00     0.132 C 
ATOM      5  O   UNL     1     122.674 107.343 114.800  1.00  0.00    -0.300 OA
ATOM      6  C   UNL     1     122.164 106.958 117.081  1.00  0.00     0.075 C 
ATOM      7  C   UNL     1     121.894 107.995 118.178  1.00  0.00     0.008 C 
ENDROOT
TORSDOF 0
ENDMDL
MODEL 4
REMARK VINA RESULT:    -2.456     18.522     19.822
REMARK INTER + INTRA:          -2.456
REMARK INTER:                  -2.456
REMARK INTRA:                   0.000
REMARK UNBOUND:                 0.000
REMARK SMILES O=C1CCCCC1
REMARK SMILES IDX 5 1 4 2 3 3 2 4 1 5 7 6 6 7
REMARK H PARENT
REMARK Flexibility Score: inf
ROOT
ATOM      1  C   UNL     1     110.759 125.804 117.788  1.00  0.00     0.001 C 
ATOM      2  C   UNL     1     110.543 126.561 116.469  1.00  0.00     0.008 C 
ATOM      3  C   UNL     1     110.854 125.675 115.257  1.00  0.00     0.075 C 
ATOM      4  C   UNL     1     112.204 125.030 115.411  1.00  0.00     0.132 C 
ATOM      5  O   UNL     1     112.974 124.976 114.465  1.00  0.00    -0.300 OA
ATOM      6  C   UNL     1     112.556 124.369 116.716  1.00  0.00     0.075 C 
ATOM      7  C   UNL     1     112.203 125.287 117.893  1.00  0.00     0.008 C 
ENDROOT
TORSDOF 0
ENDMDL
MODEL 5
REMARK VINA RESULT:    -2.424     13.024     13.717
REMARK INTER + INTRA:          -2.424
REMARK INTER:                  -2.424
REMARK INTRA:                   0.000
REMARK UNBOUND:                 0.000
REMARK SMILES O=C1CCCCC1
REMARK SMILES IDX 5 1 4 2 3 3 2 4 1 5 7 6 6 7
REMARK H PARENT
REMARK Flexibility Score: inf
ROOT
ATOM      1  C   UNL     1     107.929 111.229 118.272  1.00  0.00     0.001 C 
ATOM      2  C   UNL     1     106.879 110.878 117.208  1.00  0.00     0.008 C 
ATOM      3  C   UNL     1     107.485 110.888 115.799  1.00  0.00     0.075 C 
ATOM      4  C   UNL     1     108.237 112.168 115.560  1.00  0.00     0.132 C 
ATOM      5  O   UNL     1     108.126 112.760 114.497  1.00  0.00    -0.300 OA
ATOM      6  C   UNL     1     109.199 112.659 116.606  1.00  0.00     0.075 C 
ATOM      7  C   UNL     1     108.551 112.606 117.995  1.00  0.00     0.008 C 
ENDROOT
TORSDOF 0
ENDMDL
MODEL 6
REMARK VINA RESULT:    -2.393     13.731     14.418
REMARK INTER + INTRA:          -2.393
REMARK INTER:                  -2.393
REMARK INTRA:                   0.000
REMARK UNBOUND:                 0.000
REMARK SMILES O=C1CCCCC1
REMARK SMILES IDX 5 1 4 2 3 3 2 4 1 5 7 6 6 7
REMARK H PARENT
REMARK Flexibility Score: inf
ROOT
ATOM      1  C   UNL     1     124.876 120.830 118.209  1.00  0.00     0.001 C 
ATOM      2  C   UNL     1     124.059 120.703 116.915  1.00  0.00     0.008 C 
ATOM      3  C   UNL     1     124.922 120.980 115.678  1.00  0.00     0.075 C 
ATOM      4  C   UNL     1     125.670 122.275 115.839  1.00  0.00     0.132 C 
ATOM      5  O   UNL     1     125.747 123.063 114.909  1.00  0.00    -0.300 OA
ATOM      6  C   UNL     1     126.401 122.544 117.126  1.00  0.00     0.075 C 
ATOM      7  C   UNL     1     125.501 122.229 118.328  1.00  0.00     0.008 C 
ENDROOT
TORSDOF 0
ENDMDL
MODEL 7
REMARK VINA RESULT:    -2.377     13.103     13.774
REMARK INTER + INTRA:          -2.377
REMARK INTER:                  -2.377
REMARK INTRA:                   0.000
REMARK UNBOUND:                 0.000
REMARK SMILES O=C1CCCCC1
REMARK SMILES IDX 5 1 4 2 3 3 2 4 1 5 7 6 6 7
REMARK H PARENT
REMARK Flexibility Score: inf
ROOT
ATOM      1  C   UNL     1     108.441 112.300 117.724  1.00  0.00     0.001 C 
ATOM      2  C   UNL     1     109.073 112.485 116.336  1.00  0.00     0.008 C 
ATOM      3  C   UNL     1     108.071 112.172 115.218  1.00  0.00     0.075 C 
ATOM      4  C   UNL     1     107.421 110.837 115.454  1.00  0.00     0.132 C 
ATOM      5  O   UNL     1     107.265 110.055 114.529  1.00  0.00    -0.300 OA
ATOM      6  C   UNL     1     106.882 110.515 116.820  1.00  0.00     0.075 C 
ATOM      7  C   UNL     1     107.913 110.867 117.899  1.00  0.00     0.008 C 
ENDROOT
TORSDOF 0
ENDMDL
MODEL 8
REMARK VINA RESULT:    -2.356     18.810     19.954
REMARK INTER + INTRA:          -2.356
REMARK INTER:                  -2.356
REMARK INTRA:                   0.000
REMARK UNBOUND:                 0.000
REMARK SMILES O=C1CCCCC1
REMARK SMILES IDX 5 1 4 2 3 3 2 4 1 5 7 6 6 7
REMARK H PARENT
REMARK Flexibility Score: inf
ROOT
ATOM      1  C   UNL     1     112.640 124.862 117.549  1.00  0.00     0.001 C 
ATOM      2  C   UNL     1     112.519 124.230 116.155  1.00  0.00     0.008 C 
ATOM      3  C   UNL     1     112.035 125.251 115.117  1.00  0.00     0.075 C 
ATOM      4  C   UNL     1     110.802 125.957 115.611  1.00  0.00     0.132 C 
ATOM      5  O   UNL     1     109.860 126.152 114.859  1.00  0.00    -0.300 OA
ATOM      6  C   UNL     1     110.781 126.503 117.013  1.00  0.00     0.075 C 
ATOM      7  C   UNL     1     111.295 125.451 118.004  1.00  0.00     0.008 C 
ENDROOT
TORSDOF 0
ENDMDL
MODEL 9
REMARK VINA RESULT:    -2.305     13.199     13.911
REMARK INTER + INTRA:          -2.305
REMARK INTER:                  -2.305
REMARK INTRA:                   0.000
REMARK UNBOUND:                 0.000
REMARK SMILES O=C1CCCCC1
REMARK SMILES IDX 5 1 4 2 3 3 2 4 1 5 7 6 6 7
REMARK H PARENT
REMARK Flexibility Score: inf
ROOT
ATOM      1  C   UNL     1     124.533 120.827 119.039  1.00  0.00     0.001 C 
ATOM      2  C   UNL     1     125.814 121.629 118.766  1.00  0.00     0.008 C 
ATOM      3  C   UNL     1     125.665 122.518 117.524  1.00  0.00     0.075 C 
ATOM      4  C   UNL     1     125.151 121.713 116.362  1.00  0.00     0.132 C 
ATOM      5  O   UNL     1     125.636 121.857 115.250  1.00  0.00    -0.300 OA
ATOM      6  C   UNL     1     123.973 120.801 116.565  1.00  0.00     0.075 C 
ATOM      7  C   UNL     1     124.165 119.954 117.829  1.00  0.00     0.008 C 
ENDROOT
TORSDOF 0
ENDMDL
