MODEL 1
REMARK VINA RESULT:    -3.312      0.000      0.000
REMARK INTER + INTRA:          -4.663
REMARK INTER:                  -4.281
REMARK INTRA:                  -0.382
REMARK UNBOUND:                -0.382
REMARK SMILES C=CC(=O)CCCCC
REMARK SMILES IDX 6 1 7 2 8 3 9 4 5 5 3 6 4 7 2 8 1 9
REMARK H PARENT
REMARK Flexibility Score: inf
ROOT
ATOM      1  C   UNL     1       3.046  15.468  23.550  1.00  0.00     0.008 C 
ENDROOT
BRANCH   1   2
ATOM      2  C   UNL     1       3.757  14.143  23.865  1.00  0.00     0.000 C 
BRANCH   2   3
ATOM      3  C   UNL     1       2.782  13.040  24.306  1.00  0.00    -0.003 C 
ATOM      4  C   UNL     1       1.790  12.708  23.195  1.00  0.00     0.004 C 
ENDBRANCH   2   3
ENDBRANCH   1   2
BRANCH   1   5
ATOM      5  C   UNL     1       3.470  16.060  22.199  1.00  0.00     0.080 C 
BRANCH   5   6
ATOM      6  C   UNL     1       2.287  16.176  21.283  1.00  0.00     0.155 C 
ATOM      7  O   UNL     1       2.477  16.366  20.051  1.00  0.00    -0.295 OA
BRANCH   6   8
ATOM      8  C   UNL     1       0.920  16.023  21.817  1.00  0.00     0.039 C 
ATOM      9  C   UNL     1       0.124  17.064  22.054  1.00  0.00     0.012 C 
ENDBRANCH   6   8
ENDBRANCH   5   6
ENDBRANCH   1   5
TORSDOF 5
ENDMDL
MODEL 2
REMARK VINA RESULT:    -3.305      6.694      8.121
REMARK INTER + INTRA:          -4.653
REMARK INTER:                  -4.085
REMARK INTRA:                  -0.569
REMARK UNBOUND:                -0.382
REMARK SMILES C=CC(=O)CCCCC
REMARK SMILES IDX 6 1 7 2 8 3 9 4 5 5 3 6 4 7 2 8 1 9
REMARK H PARENT
REMARK Flexibility Score: inf
ROOT
ATOM      1  C   UNL     1       1.616   9.201  16.757  1.00  0.00     0.008 C 
ENDROOT
BRANCH   1   2
ATOM      2  C   UNL     1       1.770  10.681  16.375  1.00  0.00     0.000 C 
BRANCH   2   3
ATOM      3  C   UNL     1       1.800  11.607  17.601  1.00  0.00    -0.003 C 
ATOM      4  C   UNL     1       0.428  12.223  17.858  1.00  0.00     0.004 C 
ENDBRANCH   2   3
ENDBRANCH   1   2
BRANCH   1   5
ATOM      5  C   UNL     1       2.300   8.860  18.088  1.00  0.00     0.080 C 
BRANCH   5   6
ATOM      6  C   UNL     1       1.335   8.181  19.015  1.00  0.00     0.155 C 
ATOM      7  O   UNL     1       1.779   7.424  19.922  1.00  0.00    -0.295 OA
BRANCH   6   8
ATOM      8  C   UNL     1      -0.113   8.435  18.891  1.00  0.00     0.039 C 
ATOM      9  C   UNL     1      -0.777   9.216  19.742  1.00  0.00     0.012 C 
ENDBRANCH   6   8
ENDBRANCH   5   6
ENDBRANCH   1   5
TORSDOF 5
ENDMDL
MODEL 3
REMARK VINA RESULT:    -3.296      2.211      4.011
REMARK INTER + INTRA:          -4.641
REMARK INTER:                  -4.215
REMARK INTRA:                  -0.426
REMARK UNBOUND:                -0.382
REMARK SMILES C=CC(=O)CCCCC
REMARK SMILES IDX 6 1 7 2 8 3 9 4 5 5 3 6 4 7 2 8 1 9
REMARK H PARENT
REMARK Flexibility Score: inf
ROOT
ATOM      1  C   UNL     1       3.595  15.082  22.623  1.00  0.00     0.008 C 
ENDROOT
BRANCH   1   2
ATOM      2  C   UNL     1       2.589  16.227  22.814  1.00  0.00     0.000 C 
BRANCH   2   3
ATOM      3  C   UNL     1       1.691  16.434  21.585  1.00  0.00    -0.003 C 
ATOM      4  C   UNL     1       0.276  16.831  22.000  1.00  0.00     0.004 C 
ENDBRANCH   2   3
ENDBRANCH   1   2
BRANCH   1   5
ATOM      5  C   UNL     1       3.786  14.244  23.894  1.00  0.00     0.080 C 
BRANCH   5   6
ATOM      6  C   UNL     1       2.804  13.109  23.927  1.00  0.00     0.155 C 
ATOM      7  O   UNL     1       2.507  12.583  25.034  1.00  0.00    -0.295 OA
BRANCH   6   8
ATOM      8  C   UNL     1       2.163  12.650  22.680  1.00  0.00     0.039 C 
ATOM      9  C   UNL     1       0.843  12.661  22.509  1.00  0.00     0.012 C 
ENDBRANCH   6   8
ENDBRANCH   5   6
ENDBRANCH   1   5
TORSDOF 5
ENDMDL
MODEL 4
REMARK VINA RESULT:    -3.247      6.839      7.655
REMARK INTER + INTRA:          -4.578
REMARK INTER:                  -4.167
REMARK INTRA:                  -0.411
REMARK UNBOUND:                -0.382
REMARK SMILES C=CC(=O)CCCCC
REMARK SMILES IDX 6 1 7 2 8 3 9 4 5 5 3 6 4 7 2 8 1 9
REMARK H PARENT
REMARK Flexibility Score: inf
ROOT
ATOM      1  C   UNL     1       2.776   9.356  16.904  1.00  0.00     0.008 C 
ENDROOT
BRANCH   1   2
ATOM      2  C   UNL     1       2.177   8.764  18.189  1.00  0.00     0.000 C 
BRANCH   2   3
ATOM      3  C   UNL     1       0.647   8.891  18.239  1.00  0.00    -0.003 C 
ATOM      4  C   UNL     1       0.059   8.015  19.342  1.00  0.00     0.004 C 
ENDBRANCH   2   3
ENDBRANCH   1   2
BRANCH   1   5
ATOM      5  C   UNL     1       1.705   9.878  15.938  1.00  0.00     0.080 C 
BRANCH   5   6
ATOM      6  C   UNL     1       2.030  11.276  15.498  1.00  0.00     0.155 C 
ATOM      7  O   UNL     1       3.000  11.466  14.715  1.00  0.00    -0.295 OA
BRANCH   6   8
ATOM      8  C   UNL     1       1.191  12.405  15.944  1.00  0.00     0.039 C 
ATOM      9  C   UNL     1       0.684  12.477  17.173  1.00  0.00     0.012 C 
ENDBRANCH   6   8
ENDBRANCH   5   6
ENDBRANCH   1   5
TORSDOF 5
ENDMDL
MODEL 5
REMARK VINA RESULT:    -3.235      7.491      7.808
REMARK INTER + INTRA:          -4.563
REMARK INTER:                  -4.383
REMARK INTRA:                  -0.180
REMARK UNBOUND:                -0.382
REMARK SMILES C=CC(=O)CCCCC
REMARK SMILES IDX 6 1 7 2 8 3 9 4 5 5 3 6 4 7 2 8 1 9
REMARK H PARENT
REMARK Flexibility Score: inf
ROOT
ATOM      1  C   UNL     1       0.697   9.268  18.246  1.00  0.00     0.008 C 
ENDROOT
BRANCH   1   2
ATOM      2  C   UNL     1       0.031   8.081  18.956  1.00  0.00     0.000 C 
BRANCH   2   3
ATOM      3  C   UNL     1       0.304   8.069  20.468  1.00  0.00    -0.003 C 
ATOM      4  C   UNL     1       1.624   7.369  20.782  1.00  0.00     0.004 C 
ENDBRANCH   2   3
ENDBRANCH   1   2
BRANCH   1   5
ATOM      5  C   UNL     1       1.965   8.864  17.480  1.00  0.00     0.080 C 
BRANCH   5   6
ATOM      6  C   UNL     1       2.536  10.044  16.749  1.00  0.00     0.155 C 
ATOM      7  O   UNL     1       3.603  10.571  17.167  1.00  0.00    -0.295 OA
BRANCH   6   8
ATOM      8  C   UNL     1       1.875  10.548  15.530  1.00  0.00     0.039 C 
ATOM      9  C   UNL     1       1.515  11.822  15.387  1.00  0.00     0.012 C 
ENDBRANCH   6   8
ENDBRANCH   5   6
ENDBRANCH   1   5
TORSDOF 5
ENDMDL
MODEL 6
REMARK VINA RESULT:    -3.230      1.578      2.057
REMARK INTER + INTRA:          -4.557
REMARK INTER:                  -4.336
REMARK INTRA:                  -0.220
REMARK UNBOUND:                -0.382
REMARK SMILES C=CC(=O)CCCCC
REMARK SMILES IDX 6 1 7 2 8 3 9 4 5 5 3 6 4 7 2 8 1 9
REMARK H PARENT
REMARK Flexibility Score: inf
ROOT
ATOM      1  C   UNL     1       2.653  15.946  23.105  1.00  0.00     0.008 C 
ENDROOT
BRANCH   1   2
ATOM      2  C   UNL     1       3.427  14.789  23.755  1.00  0.00     0.000 C 
BRANCH   2   3
ATOM      3  C   UNL     1       2.821  13.416  23.426  1.00  0.00    -0.003 C 
ATOM      4  C   UNL     1       2.755  12.533  24.670  1.00  0.00     0.004 C 
ENDBRANCH   2   3
ENDBRANCH   1   2
BRANCH   1   5
ATOM      5  C   UNL     1       1.652  15.466  22.045  1.00  0.00     0.080 C 
BRANCH   5   6
ATOM      6  C   UNL     1       0.878  16.627  21.491  1.00  0.00     0.155 C 
ATOM      7  O   UNL     1      -0.009  17.173  22.203  1.00  0.00    -0.295 OA
BRANCH   6   8
ATOM      8  C   UNL     1       1.188  17.148  20.146  1.00  0.00     0.039 C 
ATOM      9  C   UNL     1       2.236  16.727  19.441  1.00  0.00     0.012 C 
ENDBRANCH   6   8
ENDBRANCH   5   6
ENDBRANCH   1   5
TORSDOF 5
ENDMDL
MODEL 7
REMARK VINA RESULT:    -3.171      7.649      8.506
REMARK INTER + INTRA:          -4.480
REMARK INTER:                  -4.183
REMARK INTRA:                  -0.297
REMARK UNBOUND:                -0.382
REMARK SMILES C=CC(=O)CCCCC
REMARK SMILES IDX 6 1 7 2 8 3 9 4 5 5 3 6 4 7 2 8 1 9
REMARK H PARENT
REMARK Flexibility Score: inf
ROOT
ATOM      1  C   UNL     1       0.662   9.120  18.183  1.00  0.00     0.008 C 
ENDROOT
BRANCH   1   2
ATOM      2  C   UNL     1       2.168   8.831  18.105  1.00  0.00     0.000 C 
BRANCH   2   3
ATOM      3  C   UNL     1       2.782   9.259  16.764  1.00  0.00    -0.003 C 
ATOM      4  C   UNL     1       1.829  10.163  15.987  1.00  0.00     0.004 C 
ENDBRANCH   2   3
ENDBRANCH   1   2
BRANCH   1   5
ATOM      5  C   UNL     1      -0.099   8.074  19.010  1.00  0.00     0.080 C 
BRANCH   5   6
ATOM      6  C   UNL     1      -0.118   8.463  20.460  1.00  0.00     0.155 C 
ATOM      7  O   UNL     1      -0.733   9.507  20.810  1.00  0.00    -0.295 OA
BRANCH   6   8
ATOM      8  C   UNL     1       0.539   7.605  21.464  1.00  0.00     0.039 C 
ATOM      9  C   UNL     1       1.790   7.169  21.324  1.00  0.00     0.012 C 
ENDBRANCH   6   8
ENDBRANCH   5   6
ENDBRANCH   1   5
TORSDOF 5
ENDMDL
MODEL 8
REMARK VINA RESULT:    -3.128      1.685      4.081
REMARK INTER + INTRA:          -4.425
REMARK INTER:                  -4.161
REMARK INTRA:                  -0.264
REMARK UNBOUND:                -0.382
REMARK SMILES C=CC(=O)CCCCC
REMARK SMILES IDX 6 1 7 2 8 3 9 4 5 5 3 6 4 7 2 8 1 9
REMARK H PARENT
REMARK Flexibility Score: inf
ROOT
ATOM      1  C   UNL     1       1.785  16.413  22.731  1.00  0.00     0.008 C 
ENDROOT
BRANCH   1   2
ATOM      2  C   UNL     1       0.600  16.740  21.809  1.00  0.00     0.000 C 
BRANCH   2   3
ATOM      3  C   UNL     1       1.048  17.221  20.421  1.00  0.00    -0.003 C 
ATOM      4  C   UNL     1       0.256  16.525  19.317  1.00  0.00     0.004 C 
ENDBRANCH   2   3
ENDBRANCH   1   2
BRANCH   1   5
ATOM      5  C   UNL     1       3.066  16.082  21.952  1.00  0.00     0.080 C 
BRANCH   5   6
ATOM      6  C   UNL     1       3.646  14.781  22.425  1.00  0.00     0.155 C 
ATOM      7  O   UNL     1       4.232  14.030  21.598  1.00  0.00    -0.295 OA
BRANCH   6   8
ATOM      8  C   UNL     1       3.568  14.412  23.851  1.00  0.00     0.039 C 
ATOM      9  C   UNL     1       3.084  13.241  24.261  1.00  0.00     0.012 C 
ENDBRANCH   6   8
ENDBRANCH   5   6
ENDBRANCH   1   5
TORSDOF 5
ENDMDL
MODEL 9
REMARK VINA RESULT:    -3.110      6.196      7.366
REMARK INTER + INTRA:          -4.401
REMARK INTER:                  -3.896
REMARK INTRA:                  -0.505
REMARK UNBOUND:                -0.382
REMARK SMILES C=CC(=O)CCCCC
REMARK SMILES IDX 6 1 7 2 8 3 9 4 5 5 3 6 4 7 2 8 1 9
REMARK H PARENT
REMARK Flexibility Score: inf
ROOT
ATOM      1  C   UNL     1       0.272  11.388  18.612  1.00  0.00     0.008 C 
ENDROOT
BRANCH   1   2
ATOM      2  C   UNL     1       0.290  10.455  19.832  1.00  0.00     0.000 C 
BRANCH   2   3
ATOM      3  C   UNL     1      -0.735   9.316  19.720  1.00  0.00    -0.003 C 
ATOM      4  C   UNL     1      -0.141   8.113  18.993  1.00  0.00     0.004 C 
ENDBRANCH   2   3
ENDBRANCH   1   2
BRANCH   1   5
ATOM      5  C   UNL     1       1.650  11.521  17.949  1.00  0.00     0.080 C 
BRANCH   5   6
ATOM      6  C   UNL     1       1.628  10.927  16.571  1.00  0.00     0.155 C 
ATOM      7  O   UNL     1       1.339  11.662  15.587  1.00  0.00    -0.295 OA
BRANCH   6   8
ATOM      8  C   UNL     1       1.987   9.510  16.371  1.00  0.00     0.039 C 
ATOM      9  C   UNL     1       2.942   8.908  17.076  1.00  0.00     0.012 C 
ENDBRANCH   6   8
ENDBRANCH   5   6
ENDBRANCH   1   5
TORSDOF 5
ENDMDL
