MODEL 1
REMARK VINA RESULT:    -4.008      0.000      0.000
REMARK INTER + INTRA:         -10.449
REMARK INTER:                  -7.523
REMARK INTRA:                  -2.926
REMARK UNBOUND:                -2.926
REMARK SMILES CCCCCCCCC=CCCCCCCCC(=O)[O-]
REMARK SMILES IDX 10 1 9 2 11 3 12 4 13 5 14 6 15 7 16 8 17 9 18 10 19 11
REMARK SMILES IDX 20 12 8 13 7 14 6 15 5 16 4 17 3 18 2 19 1 20
REMARK H PARENT
REMARK Flexibility Score: inf
ROOT
ATOM      1  C   UNL     1     147.767 141.154 138.697  1.00  0.00    -0.031 C 
ATOM      2  C   UNL     1     147.979 142.152 139.577  1.00  0.00    -0.031 C 
ENDROOT
BRANCH   1   3
ATOM      3  C   UNL     1     148.757 140.073 138.339  1.00  0.00     0.027 C 
BRANCH   3   4
ATOM      4  C   UNL     1     148.274 139.173 137.191  1.00  0.00     0.004 C 
BRANCH   4   5
ATOM      5  C   UNL     1     146.835 139.503 136.750  1.00  0.00     0.000 C 
BRANCH   5   6
ATOM      6  C   UNL     1     146.013 138.248 136.415  1.00  0.00     0.000 C 
BRANCH   6   7
ATOM      7  C   UNL     1     144.614 138.267 137.050  1.00  0.00     0.000 C 
BRANCH   7   8
ATOM      8  C   UNL     1     144.347 139.606 137.753  1.00  0.00     0.006 C 
BRANCH   8   9
ATOM      9  C   UNL     1     143.241 140.414 137.059  1.00  0.00     0.053 C 
BRANCH   9  10
ATOM     10  C   UNL     1     143.733 141.159 135.853  1.00  0.00     0.041 C 
ATOM     11  O   UNL     1     143.250 140.905 134.719  1.00  0.00    -0.550 OA
ATOM     12  O   UNL     1     144.664 142.184 135.984  1.00  0.00    -0.550 OA
ENDBRANCH   9  10
ENDBRANCH   8   9
ENDBRANCH   7   8
ENDBRANCH   6   7
ENDBRANCH   5   6
ENDBRANCH   4   5
ENDBRANCH   3   4
ENDBRANCH   1   3
BRANCH   2  13
ATOM     13  C   UNL     1     149.260 142.392 140.340  1.00  0.00     0.027 C 
BRANCH  13  14
ATOM     14  C   UNL     1     148.990 142.496 141.850  1.00  0.00     0.004 C 
BRANCH  14  15
ATOM     15  C   UNL     1     148.399 141.193 142.410  1.00  0.00     0.000 C 
BRANCH  15  16
ATOM     16  C   UNL     1     149.266 139.964 142.108  1.00  0.00     0.000 C 
BRANCH  16  17
ATOM     17  C   UNL     1     148.428 138.683 141.960  1.00  0.00    -0.000 C 
BRANCH  17  18
ATOM     18  C   UNL     1     146.920 138.970 141.889  1.00  0.00    -0.000 C 
BRANCH  18  19
ATOM     19  C   UNL     1     146.285 138.486 140.578  1.00  0.00    -0.003 C 
ATOM     20  C   UNL     1     146.991 137.240 140.051  1.00  0.00     0.004 C 
ENDBRANCH  18  19
ENDBRANCH  17  18
ENDBRANCH  16  17
ENDBRANCH  15  16
ENDBRANCH  14  15
ENDBRANCH  13  14
ENDBRANCH   2  13
TORSDOF 15
ENDMDL
MODEL 2
REMARK VINA RESULT:    -3.948      1.449      3.582
REMARK INTER + INTRA:         -10.336
REMARK INTER:                  -7.734
REMARK INTRA:                  -2.601
REMARK UNBOUND:                -2.926
REMARK SMILES CCCCCCCCC=CCCCCCCCC(=O)[O-]
REMARK SMILES IDX 10 1 9 2 11 3 12 4 13 5 14 6 15 7 16 8 17 9 18 10 19 11
REMARK SMILES IDX 20 12 8 13 7 14 6 15 5 16 4 17 3 18 2 19 1 20
REMARK H PARENT
REMARK Flexibility Score: inf
ROOT
ATOM      1  C   UNL     1     149.705 136.455 139.315  1.00  0.00    -0.031 C 
ATOM      2  C   UNL     1     148.563 136.032 139.891  1.00  0.00    -0.031 C 
ENDROOT
BRANCH   1   3
ATOM      3  C   UNL     1     150.086 137.895 139.075  1.00  0.00     0.027 C 
BRANCH   3   4
ATOM      4  C   UNL     1     149.295 138.543 137.928  1.00  0.00     0.004 C 
BRANCH   4   5
ATOM      5  C   UNL     1     149.265 140.080 138.029  1.00  0.00     0.000 C 
BRANCH   5   6
ATOM      6  C   UNL     1     147.899 140.674 137.643  1.00  0.00     0.000 C 
BRANCH   6   7
ATOM      7  C   UNL     1     146.756 140.162 138.534  1.00  0.00     0.000 C 
BRANCH   7   8
ATOM      8  C   UNL     1     145.711 139.401 137.706  1.00  0.00     0.006 C 
BRANCH   8   9
ATOM      9  C   UNL     1     144.491 140.272 137.371  1.00  0.00     0.053 C 
BRANCH   9  10
ATOM     10  C   UNL     1     144.314 140.485 135.897  1.00  0.00     0.041 C 
ATOM     11  O   UNL     1     144.900 139.729 135.079  1.00  0.00    -0.550 OA
ATOM     12  O   UNL     1     143.446 141.462 135.422  1.00  0.00    -0.550 OA
ENDBRANCH   9  10
ENDBRANCH   8   9
ENDBRANCH   7   8
ENDBRANCH   6   7
ENDBRANCH   5   6
ENDBRANCH   4   5
ENDBRANCH   3   4
ENDBRANCH   1   3
BRANCH   2  13
ATOM     13  C   UNL     1     147.440 136.919 140.373  1.00  0.00     0.027 C 
BRANCH  13  14
ATOM     14  C   UNL     1     147.710 137.425 141.798  1.00  0.00     0.004 C 
BRANCH  14  15
ATOM     15  C   UNL     1     147.689 138.960 141.869  1.00  0.00     0.000 C 
BRANCH  15  16
ATOM     16  C   UNL     1     149.078 139.567 142.105  1.00  0.00     0.000 C 
BRANCH  16  17
ATOM     17  C   UNL     1     149.057 141.104 142.061  1.00  0.00    -0.000 C 
BRANCH  17  18
ATOM     18  C   UNL     1     147.676 141.664 141.687  1.00  0.00    -0.000 C 
BRANCH  18  19
ATOM     19  C   UNL     1     147.756 143.035 140.999  1.00  0.00    -0.003 C 
ATOM     20  C   UNL     1     149.056 143.180 140.213  1.00  0.00     0.004 C 
ENDBRANCH  18  19
ENDBRANCH  17  18
ENDBRANCH  16  17
ENDBRANCH  15  16
ENDBRANCH  14  15
ENDBRANCH  13  14
ENDBRANCH   2  13
TORSDOF 15
ENDMDL
MODEL 3
REMARK VINA RESULT:    -3.945      2.637      5.655
REMARK INTER + INTRA:         -10.331
REMARK INTER:                  -7.611
REMARK INTRA:                  -2.720
REMARK UNBOUND:                -2.926
REMARK SMILES CCCCCCCCC=CCCCCCCCC(=O)[O-]
REMARK SMILES IDX 10 1 9 2 11 3 12 4 13 5 14 6 15 7 16 8 17 9 18 10 19 11
REMARK SMILES IDX 20 12 8 13 7 14 6 15 5 16 4 17 3 18 2 19 1 20
REMARK H PARENT
REMARK Flexibility Score: inf
ROOT
ATOM      1  C   UNL     1     147.969 142.184 139.678  1.00  0.00    -0.031 C 
ATOM      2  C   UNL     1     147.733 141.349 138.648  1.00  0.00    -0.031 C 
ENDROOT
BRANCH   1   3
ATOM      3  C   UNL     1     149.269 142.300 140.435  1.00  0.00     0.027 C 
BRANCH   3   4
ATOM      4  C   UNL     1     149.093 142.162 141.956  1.00  0.00     0.004 C 
BRANCH   4   5
ATOM      5  C   UNL     1     148.356 140.867 142.347  1.00  0.00     0.000 C 
BRANCH   5   6
ATOM      6  C   UNL     1     149.177 139.602 142.045  1.00  0.00     0.000 C 
BRANCH   6   7
ATOM      7  C   UNL     1     148.312 138.443 141.525  1.00  0.00     0.000 C 
BRANCH   7   8
ATOM      8  C   UNL     1     146.864 138.897 141.295  1.00  0.00     0.006 C 
BRANCH   8   9
ATOM      9  C   UNL     1     145.847 137.827 141.719  1.00  0.00     0.053 C 
BRANCH   9  10
ATOM     10  C   UNL     1     144.731 138.382 142.554  1.00  0.00     0.041 C 
ATOM     11  O   UNL     1     144.990 138.977 143.632  1.00  0.00    -0.550 OA
ATOM     12  O   UNL     1     143.414 138.316 142.110  1.00  0.00    -0.550 OA
ENDBRANCH   9  10
ENDBRANCH   8   9
ENDBRANCH   7   8
ENDBRANCH   6   7
ENDBRANCH   5   6
ENDBRANCH   4   5
ENDBRANCH   3   4
ENDBRANCH   1   3
BRANCH   2  13
ATOM     13  C   UNL     1     148.717 140.352 138.082  1.00  0.00     0.027 C 
BRANCH  13  14
ATOM     14  C   UNL     1     148.020 139.374 137.123  1.00  0.00     0.004 C 
BRANCH  14  15
ATOM     15  C   UNL     1     147.484 138.139 137.864  1.00  0.00     0.000 C 
BRANCH  15  16
ATOM     16  C   UNL     1     145.987 137.904 137.629  1.00  0.00     0.000 C 
BRANCH  16  17
ATOM     17  C   UNL     1     145.321 139.081 136.896  1.00  0.00    -0.000 C 
BRANCH  17  18
ATOM     18  C   UNL     1     144.019 139.536 137.574  1.00  0.00    -0.000 C 
BRANCH  18  19
ATOM     19  C   UNL     1     143.689 141.010 137.296  1.00  0.00    -0.003 C 
ATOM     20  C   UNL     1     144.760 141.658 136.422  1.00  0.00     0.004 C 
ENDBRANCH  18  19
ENDBRANCH  17  18
ENDBRANCH  16  17
ENDBRANCH  15  16
ENDBRANCH  14  15
ENDBRANCH  13  14
ENDBRANCH   2  13
TORSDOF 15
ENDMDL
MODEL 4
REMARK VINA RESULT:    -3.886      1.731      3.798
REMARK INTER + INTRA:         -10.219
REMARK INTER:                  -7.431
REMARK INTRA:                  -2.788
REMARK UNBOUND:                -2.926
REMARK SMILES CCCCCCCCC=CCCCCCCCC(=O)[O-]
REMARK SMILES IDX 10 1 9 2 11 3 12 4 13 5 14 6 15 7 16 8 17 9 18 10 19 11
REMARK SMILES IDX 20 12 8 13 7 14 6 15 5 16 4 17 3 18 2 19 1 20
REMARK H PARENT
REMARK Flexibility Score: inf
ROOT
ATOM      1  C   UNL     1     148.811 140.446 142.545  1.00  0.00    -0.031 C 
ATOM      2  C   UNL     1     149.439 139.358 142.059  1.00  0.00    -0.031 C 
ENDROOT
BRANCH   1   3
ATOM      3  C   UNL     1     147.823 141.301 141.790  1.00  0.00     0.027 C 
BRANCH   3   4
ATOM      4  C   UNL     1     148.448 142.587 141.227  1.00  0.00     0.004 C 
BRANCH   4   5
ATOM      5  C   UNL     1     148.456 142.612 139.687  1.00  0.00     0.000 C 
BRANCH   5   6
ATOM      6  C   UNL     1     147.438 141.637 139.072  1.00  0.00     0.000 C 
BRANCH   6   7
ATOM      7  C   UNL     1     147.944 140.993 137.772  1.00  0.00     0.000 C 
BRANCH   7   8
ATOM      8  C   UNL     1     146.772 140.546 136.887  1.00  0.00     0.006 C 
BRANCH   8   9
ATOM      9  C   UNL     1     145.433 141.135 137.355  1.00  0.00     0.053 C 
BRANCH   9  10
ATOM     10  C   UNL     1     144.260 140.267 137.008  1.00  0.00     0.041 C 
ATOM     11  O   UNL     1     144.340 139.019 137.149  1.00  0.00    -0.550 OA
ATOM     12  O   UNL     1     143.055 140.833 136.605  1.00  0.00    -0.550 OA
ENDBRANCH   9  10
ENDBRANCH   8   9
ENDBRANCH   7   8
ENDBRANCH   6   7
ENDBRANCH   5   6
ENDBRANCH   4   5
ENDBRANCH   3   4
ENDBRANCH   1   3
BRANCH   2  13
ATOM     13  C   UNL     1     149.295 138.814 140.657  1.00  0.00     0.027 C 
BRANCH  13  14
ATOM     14  C   UNL     1     148.270 137.669 140.613  1.00  0.00     0.004 C 
BRANCH  14  15
ATOM     15  C   UNL     1     147.140 137.959 139.614  1.00  0.00     0.000 C 
BRANCH  15  16
ATOM     16  C   UNL     1     145.852 138.443 140.293  1.00  0.00     0.000 C 
BRANCH  16  17
ATOM     17  C   UNL     1     145.638 137.789 141.669  1.00  0.00    -0.000 C 
BRANCH  17  18
ATOM     18  C   UNL     1     145.460 138.822 142.792  1.00  0.00    -0.000 C 
BRANCH  18  19
ATOM     19  C   UNL     1     144.071 138.757 143.444  1.00  0.00    -0.003 C 
ATOM     20  C   UNL     1     143.073 138.036 142.543  1.00  0.00     0.004 C 
ENDBRANCH  18  19
ENDBRANCH  17  18
ENDBRANCH  16  17
ENDBRANCH  15  16
ENDBRANCH  14  15
ENDBRANCH  13  14
ENDBRANCH   2  13
TORSDOF 15
ENDMDL
MODEL 5
REMARK VINA RESULT:    -3.881      1.373      3.084
REMARK INTER + INTRA:         -10.210
REMARK INTER:                  -7.524
REMARK INTRA:                  -2.686
REMARK UNBOUND:                -2.926
REMARK SMILES CCCCCCCCC=CCCCCCCCC(=O)[O-]
REMARK SMILES IDX 10 1 9 2 11 3 12 4 13 5 14 6 15 7 16 8 17 9 18 10 19 11
REMARK SMILES IDX 20 12 8 13 7 14 6 15 5 16 4 17 3 18 2 19 1 20
REMARK H PARENT
REMARK Flexibility Score: inf
ROOT
ATOM      1  C   UNL     1     149.945 138.695 140.994  1.00  0.00    -0.031 C 
ATOM      2  C   UNL     1     149.131 139.039 142.010  1.00  0.00    -0.031 C 
ENDROOT
BRANCH   1   3
ATOM      3  C   UNL     1     149.584 138.727 139.529  1.00  0.00     0.027 C 
BRANCH   3   4
ATOM      4  C   UNL     1     149.204 137.345 138.974  1.00  0.00     0.004 C 
BRANCH   4   5
ATOM      5  C   UNL     1     147.718 137.010 139.196  1.00  0.00     0.000 C 
BRANCH   5   6
ATOM      6  C   UNL     1     146.833 137.413 138.005  1.00  0.00     0.000 C 
BRANCH   6   7
ATOM      7  C   UNL     1     145.641 138.290 138.420  1.00  0.00     0.000 C 
BRANCH   7   8
ATOM      8  C   UNL     1     144.576 138.332 137.314  1.00  0.00     0.006 C 
BRANCH   8   9
ATOM      9  C   UNL     1     143.882 139.698 137.229  1.00  0.00     0.053 C 
BRANCH   9  10
ATOM     10  C   UNL     1     144.044 140.353 135.889  1.00  0.00     0.041 C 
ATOM     11  O   UNL     1     143.739 141.564 135.742  1.00  0.00    -0.550 OA
ATOM     12  O   UNL     1     144.603 139.655 134.823  1.00  0.00    -0.550 OA
ENDBRANCH   9  10
ENDBRANCH   8   9
ENDBRANCH   7   8
ENDBRANCH   6   7
ENDBRANCH   5   6
ENDBRANCH   4   5
ENDBRANCH   3   4
ENDBRANCH   1   3
BRANCH   2  13
ATOM     13  C   UNL     1     147.695 139.489 141.872  1.00  0.00     0.027 C 
BRANCH  13  14
ATOM     14  C   UNL     1     147.490 140.878 142.497  1.00  0.00     0.004 C 
BRANCH  14  15
ATOM     15  C   UNL     1     148.471 141.910 141.919  1.00  0.00     0.000 C 
BRANCH  15  16
ATOM     16  C   UNL     1     147.870 142.727 140.768  1.00  0.00     0.000 C 
BRANCH  16  17
ATOM     17  C   UNL     1     148.327 142.217 139.391  1.00  0.00    -0.000 C 
BRANCH  17  18
ATOM     18  C   UNL     1     147.228 141.431 138.659  1.00  0.00    -0.000 C 
BRANCH  18  19
ATOM     19  C   UNL     1     147.319 141.565 137.132  1.00  0.00    -0.003 C 
ATOM     20  C   UNL     1     148.215 140.483 136.537  1.00  0.00     0.004 C 
ENDBRANCH  18  19
ENDBRANCH  17  18
ENDBRANCH  16  17
ENDBRANCH  15  16
ENDBRANCH  14  15
ENDBRANCH  13  14
ENDBRANCH   2  13
TORSDOF 15
ENDMDL
MODEL 6
REMARK VINA RESULT:    -3.874      1.307      3.762
REMARK INTER + INTRA:         -10.196
REMARK INTER:                  -7.168
REMARK INTRA:                  -3.028
REMARK UNBOUND:                -2.926
REMARK SMILES CCCCCCCCC=CCCCCCCCC(=O)[O-]
REMARK SMILES IDX 10 1 9 2 11 3 12 4 13 5 14 6 15 7 16 8 17 9 18 10 19 11
REMARK SMILES IDX 20 12 8 13 7 14 6 15 5 16 4 17 3 18 2 19 1 20
REMARK H PARENT
REMARK Flexibility Score: inf
ROOT
ATOM      1  C   UNL     1     148.983 138.179 141.312  1.00  0.00    -0.031 C 
ATOM      2  C   UNL     1     149.644 138.256 140.141  1.00  0.00    -0.031 C 
ENDROOT
BRANCH   1   3
ATOM      3  C   UNL     1     147.674 137.463 141.536  1.00  0.00     0.027 C 
BRANCH   3   4
ATOM      4  C   UNL     1     146.450 138.348 141.257  1.00  0.00     0.004 C 
BRANCH   4   5
ATOM      5  C   UNL     1     145.539 137.764 140.161  1.00  0.00     0.000 C 
BRANCH   5   6
ATOM      6  C   UNL     1     145.420 138.685 138.935  1.00  0.00     0.000 C 
BRANCH   6   7
ATOM      7  C   UNL     1     145.699 137.953 137.613  1.00  0.00     0.000 C 
BRANCH   7   8
ATOM      8  C   UNL     1     145.427 138.866 136.409  1.00  0.00     0.006 C 
BRANCH   8   9
ATOM      9  C   UNL     1     143.924 139.052 136.151  1.00  0.00     0.053 C 
BRANCH   9  10
ATOM     10  C   UNL     1     143.483 140.480 136.279  1.00  0.00     0.041 C 
ATOM     11  O   UNL     1     143.375 141.198 135.251  1.00  0.00    -0.550 OA
ATOM     12  O   UNL     1     143.115 141.000 137.516  1.00  0.00    -0.550 OA
ENDBRANCH   9  10
ENDBRANCH   8   9
ENDBRANCH   7   8
ENDBRANCH   6   7
ENDBRANCH   5   6
ENDBRANCH   4   5
ENDBRANCH   3   4
ENDBRANCH   1   3
BRANCH   2  13
ATOM     13  C   UNL     1     149.180 137.667 138.829  1.00  0.00     0.027 C 
BRANCH  13  14
ATOM     14  C   UNL     1     149.271 138.703 137.697  1.00  0.00     0.004 C 
BRANCH  14  15
ATOM     15  C   UNL     1     149.423 140.130 138.247  1.00  0.00     0.000 C 
BRANCH  15  16
ATOM     16  C   UNL     1     148.102 140.910 138.261  1.00  0.00     0.000 C 
BRANCH  16  17
ATOM     17  C   UNL     1     147.914 141.712 139.559  1.00  0.00    -0.000 C 
BRANCH  17  18
ATOM     18  C   UNL     1     149.237 141.946 140.304  1.00  0.00    -0.000 C 
BRANCH  18  19
ATOM     19  C   UNL     1     149.059 142.001 141.829  1.00  0.00    -0.003 C 
ATOM     20  C   UNL     1     147.667 141.527 142.237  1.00  0.00     0.004 C 
ENDBRANCH  18  19
ENDBRANCH  17  18
ENDBRANCH  16  17
ENDBRANCH  15  16
ENDBRANCH  14  15
ENDBRANCH  13  14
ENDBRANCH   2  13
TORSDOF 15
ENDMDL
MODEL 7
REMARK VINA RESULT:    -3.829      3.026      5.054
REMARK INTER + INTRA:         -10.113
REMARK INTER:                  -7.404
REMARK INTRA:                  -2.710
REMARK UNBOUND:                -2.926
REMARK SMILES CCCCCCCCC=CCCCCCCCC(=O)[O-]
REMARK SMILES IDX 10 1 9 2 11 3 12 4 13 5 14 6 15 7 16 8 17 9 18 10 19 11
REMARK SMILES IDX 20 12 8 13 7 14 6 15 5 16 4 17 3 18 2 19 1 20
REMARK H PARENT
REMARK Flexibility Score: inf
ROOT
ATOM      1  C   UNL     1     149.417 139.384 142.129  1.00  0.00    -0.031 C 
ATOM      2  C   UNL     1     149.059 140.596 142.594  1.00  0.00    -0.031 C 
ENDROOT
BRANCH   1   3
ATOM      3  C   UNL     1     149.944 139.095 140.745  1.00  0.00     0.027 C 
BRANCH   3   4
ATOM      4  C   UNL     1     149.303 137.853 140.106  1.00  0.00     0.004 C 
BRANCH   4   5
ATOM      5  C   UNL     1     148.092 137.338 140.906  1.00  0.00     0.000 C 
BRANCH   5   6
ATOM      6  C   UNL     1     146.761 137.534 140.161  1.00  0.00     0.000 C 
BRANCH   6   7
ATOM      7  C   UNL     1     145.804 138.487 140.893  1.00  0.00     0.000 C 
BRANCH   7   8
ATOM      8  C   UNL     1     146.049 138.456 142.408  1.00  0.00     0.006 C 
BRANCH   8   9
ATOM      9  C   UNL     1     144.817 138.912 143.204  1.00  0.00     0.053 C 
BRANCH   9  10
ATOM     10  C   UNL     1     143.632 138.013 143.009  1.00  0.00     0.041 C 
ATOM     11  O   UNL     1     143.667 136.828 143.431  1.00  0.00    -0.550 OA
ATOM     12  O   UNL     1     142.461 138.499 142.437  1.00  0.00    -0.550 OA
ENDBRANCH   9  10
ENDBRANCH   8   9
ENDBRANCH   7   8
ENDBRANCH   6   7
ENDBRANCH   5   6
ENDBRANCH   4   5
ENDBRANCH   3   4
ENDBRANCH   1   3
BRANCH   2  13
ATOM     13  C   UNL     1     149.085 141.884 141.804  1.00  0.00     0.027 C 
BRANCH  13  14
ATOM     14  C   UNL     1     147.791 142.061 140.995  1.00  0.00     0.004 C 
BRANCH  14  15
ATOM     15  C   UNL     1     148.071 142.134 139.486  1.00  0.00     0.000 C 
BRANCH  15  16
ATOM     16  C   UNL     1     147.421 140.988 138.701  1.00  0.00     0.000 C 
BRANCH  16  17
ATOM     17  C   UNL     1     148.359 140.414 137.625  1.00  0.00    -0.000 C 
BRANCH  17  18
ATOM     18  C   UNL     1     147.711 140.385 136.233  1.00  0.00    -0.000 C 
BRANCH  18  19
ATOM     19  C   UNL     1     146.243 139.935 136.270  1.00  0.00    -0.003 C 
ATOM     20  C   UNL     1     146.134 138.413 136.258  1.00  0.00     0.004 C 
ENDBRANCH  18  19
ENDBRANCH  17  18
ENDBRANCH  16  17
ENDBRANCH  15  16
ENDBRANCH  14  15
ENDBRANCH  13  14
ENDBRANCH   2  13
TORSDOF 15
ENDMDL
MODEL 8
REMARK VINA RESULT:    -3.815      2.868      6.138
REMARK INTER + INTRA:         -10.086
REMARK INTER:                  -7.753
REMARK INTRA:                  -2.332
REMARK UNBOUND:                -2.926
REMARK SMILES CCCCCCCCC=CCCCCCCCC(=O)[O-]
REMARK SMILES IDX 10 1 9 2 11 3 12 4 13 5 14 6 15 7 16 8 17 9 18 10 19 11
REMARK SMILES IDX 20 12 8 13 7 14 6 15 5 16 4 17 3 18 2 19 1 20
REMARK H PARENT
REMARK Flexibility Score: inf
ROOT
ATOM      1  C   UNL     1     147.927 140.756 137.881  1.00  0.00    -0.031 C 
ATOM      2  C   UNL     1     146.935 139.899 137.575  1.00  0.00    -0.031 C 
ENDROOT
BRANCH   1   3
ATOM      3  C   UNL     1     149.230 140.390 138.548  1.00  0.00     0.027 C 
BRANCH   3   4
ATOM      4  C   UNL     1     149.582 141.312 139.726  1.00  0.00     0.004 C 
BRANCH   4   5
ATOM      5  C   UNL     1     148.654 142.538 139.811  1.00  0.00     0.000 C 
BRANCH   5   6
ATOM      6  C   UNL     1     147.869 142.599 141.132  1.00  0.00     0.000 C 
BRANCH   6   7
ATOM      7  C   UNL     1     148.385 141.597 142.176  1.00  0.00     0.000 C 
BRANCH   7   8
ATOM      8  C   UNL     1     147.281 140.612 142.586  1.00  0.00     0.006 C 
BRANCH   8   9
ATOM      9  C   UNL     1     147.127 139.462 141.579  1.00  0.00     0.053 C 
BRANCH   9  10
ATOM     10  C   UNL     1     148.219 138.440 141.689  1.00  0.00     0.041 C 
ATOM     11  O   UNL     1     148.113 137.341 141.085  1.00  0.00    -0.550 OA
ATOM     12  O   UNL     1     149.387 138.724 142.389  1.00  0.00    -0.550 OA
ENDBRANCH   9  10
ENDBRANCH   8   9
ENDBRANCH   7   8
ENDBRANCH   6   7
ENDBRANCH   5   6
ENDBRANCH   4   5
ENDBRANCH   3   4
ENDBRANCH   1   3
BRANCH   2  13
ATOM     13  C   UNL     1     146.930 138.418 137.873  1.00  0.00     0.027 C 
BRANCH  13  14
ATOM     14  C   UNL     1     145.497 137.862 137.879  1.00  0.00     0.004 C 
BRANCH  14  15
ATOM     15  C   UNL     1     144.662 138.460 139.022  1.00  0.00     0.000 C 
BRANCH  15  16
ATOM     16  C   UNL     1     143.178 138.612 138.662  1.00  0.00     0.000 C 
BRANCH  16  17
ATOM     17  C   UNL     1     142.977 139.238 137.272  1.00  0.00    -0.000 C 
BRANCH  17  18
ATOM     18  C   UNL     1     143.285 140.744 137.254  1.00  0.00    -0.000 C 
BRANCH  18  19
ATOM     19  C   UNL     1     143.726 141.243 135.871  1.00  0.00    -0.003 C 
ATOM     20  C   UNL     1     144.187 140.086 134.989  1.00  0.00     0.004 C 
ENDBRANCH  18  19
ENDBRANCH  17  18
ENDBRANCH  16  17
ENDBRANCH  15  16
ENDBRANCH  14  15
ENDBRANCH  13  14
ENDBRANCH   2  13
TORSDOF 15
ENDMDL
MODEL 9
REMARK VINA RESULT:    -3.771      2.002      4.585
REMARK INTER + INTRA:         -10.003
REMARK INTER:                  -6.900
REMARK INTRA:                  -3.103
REMARK UNBOUND:                -2.926
REMARK SMILES CCCCCCCCC=CCCCCCCCC(=O)[O-]
REMARK SMILES IDX 10 1 9 2 11 3 12 4 13 5 14 6 15 7 16 8 17 9 18 10 19 11
REMARK SMILES IDX 20 12 8 13 7 14 6 15 5 16 4 17 3 18 2 19 1 20
REMARK H PARENT
REMARK Flexibility Score: inf
ROOT
ATOM      1  C   UNL     1     146.847 137.249 137.312  1.00  0.00    -0.031 C 
ATOM      2  C   UNL     1     145.996 137.672 138.266  1.00  0.00    -0.031 C 
ENDROOT
BRANCH   1   3
ATOM      3  C   UNL     1     147.521 135.899 137.272  1.00  0.00     0.027 C 
BRANCH   3   4
ATOM      4  C   UNL     1     148.860 135.874 138.027  1.00  0.00     0.004 C 
BRANCH   4   5
ATOM      5  C   UNL     1     149.590 137.229 137.974  1.00  0.00     0.000 C 
BRANCH   5   6
ATOM      6  C   UNL     1     149.876 137.804 139.371  1.00  0.00     0.000 C 
BRANCH   6   7
ATOM      7  C   UNL     1     150.047 139.331 139.361  1.00  0.00     0.000 C 
BRANCH   7   8
ATOM      8  C   UNL     1     149.450 139.944 138.086  1.00  0.00     0.006 C 
BRANCH   8   9
ATOM      9  C   UNL     1     148.236 140.836 138.386  1.00  0.00     0.053 C 
BRANCH   9  10
ATOM     10  C   UNL     1     147.363 141.056 137.186  1.00  0.00     0.041 C 
ATOM     11  O   UNL     1     147.879 141.121 136.040  1.00  0.00    -0.550 OA
ATOM     12  O   UNL     1     145.980 141.111 137.316  1.00  0.00    -0.550 OA
ENDBRANCH   9  10
ENDBRANCH   8   9
ENDBRANCH   7   8
ENDBRANCH   6   7
ENDBRANCH   5   6
ENDBRANCH   4   5
ENDBRANCH   3   4
ENDBRANCH   1   3
BRANCH   2  13
ATOM     13  C   UNL     1     145.587 136.887 139.490  1.00  0.00     0.027 C 
BRANCH  13  14
ATOM     14  C   UNL     1     146.429 137.291 140.711  1.00  0.00     0.004 C 
BRANCH  14  15
ATOM     15  C   UNL     1     146.479 138.816 140.885  1.00  0.00     0.000 C 
BRANCH  15  16
ATOM     16  C   UNL     1     147.388 139.257 142.040  1.00  0.00     0.000 C 
BRANCH  16  17
ATOM     17  C   UNL     1     147.503 140.787 142.138  1.00  0.00    -0.000 C 
BRANCH  17  18
ATOM     18  C   UNL     1     148.952 141.258 142.340  1.00  0.00    -0.000 C 
BRANCH  18  19
ATOM     19  C   UNL     1     149.208 142.657 141.761  1.00  0.00    -0.003 C 
ATOM     20  C   UNL     1     147.986 143.173 141.008  1.00  0.00     0.004 C 
ENDBRANCH  18  19
ENDBRANCH  17  18
ENDBRANCH  16  17
ENDBRANCH  15  16
ENDBRANCH  14  15
ENDBRANCH  13  14
ENDBRANCH   2  13
TORSDOF 15
ENDMDL
