MODEL 1
REMARK VINA RESULT:    -4.888      0.000      0.000
REMARK INTER + INTRA:          -9.149
REMARK INTER:                  -7.745
REMARK INTRA:                  -1.404
REMARK UNBOUND:                -1.404
REMARK SMILES CCCCCCCCCCCC(=O)[O-]
REMARK SMILES IDX 7 1 8 2 9 3 10 4 11 5 12 6 13 7 14 8 6 9 5 10 4 11 3 12 2 13
REMARK SMILES IDX 1 14
REMARK H PARENT
REMARK Flexibility Score: inf
ROOT
ATOM      1  C   UNL     1      16.020  -5.183  34.948  1.00  0.00     0.000 C 
ENDROOT
BRANCH   1   2
ATOM      2  C   UNL     1      16.347  -4.699  33.527  1.00  0.00     0.000 C 
BRANCH   2   3
ATOM      3  C   UNL     1      16.380  -5.844  32.504  1.00  0.00     0.000 C 
BRANCH   3   4
ATOM      4  C   UNL     1      16.776  -7.192  33.135  1.00  0.00     0.006 C 
BRANCH   4   5
ATOM      5  C   UNL     1      15.666  -8.242  33.002  1.00  0.00     0.053 C 
BRANCH   5   6
ATOM      6  C   UNL     1      15.993  -9.268  31.961  1.00  0.00     0.041 C 
ATOM      7  O   UNL     1      15.093 -10.029  31.518  1.00  0.00    -0.550 OA
ATOM      8  O   UNL     1      17.284  -9.361  31.457  1.00  0.00    -0.550 OA
ENDBRANCH   5   6
ENDBRANCH   4   5
ENDBRANCH   3   4
ENDBRANCH   2   3
ENDBRANCH   1   2
BRANCH   1   9
ATOM      9  C   UNL     1      17.014  -4.613  35.966  1.00  0.00     0.000 C 
BRANCH   9  10
ATOM     10  C   UNL     1      18.094  -5.647  36.321  1.00  0.00    -0.000 C 
BRANCH  10  11
ATOM     11  C   UNL     1      19.421  -5.407  35.579  1.00  0.00    -0.000 C 
BRANCH  11  12
ATOM     12  C   UNL     1      19.670  -3.952  35.144  1.00  0.00    -0.000 C 
BRANCH  12  13
ATOM     13  C   UNL     1      20.033  -3.825  33.659  1.00  0.00    -0.003 C 
ATOM     14  C   UNL     1      19.994  -5.183  32.964  1.00  0.00     0.004 C 
ENDBRANCH  12  13
ENDBRANCH  11  12
ENDBRANCH  10  11
ENDBRANCH   9  10
ENDBRANCH   1   9
TORSDOF 10
ENDMDL
MODEL 2
REMARK VINA RESULT:    -4.876      1.860      3.369
REMARK INTER + INTRA:          -9.130
REMARK INTER:                  -7.619
REMARK INTRA:                  -1.510
REMARK UNBOUND:                -1.404
REMARK SMILES CCCCCCCCCCCC(=O)[O-]
REMARK SMILES IDX 7 1 8 2 9 3 10 4 11 5 12 6 13 7 14 8 6 9 5 10 4 11 3 12 2 13
REMARK SMILES IDX 1 14
REMARK H PARENT
REMARK Flexibility Score: inf
ROOT
ATOM      1  C   UNL     1      19.351  -6.734  35.332  1.00  0.00     0.000 C 
ENDROOT
BRANCH   1   2
ATOM      2  C   UNL     1      18.004  -6.701  36.070  1.00  0.00     0.000 C 
BRANCH   2   3
ATOM      3  C   UNL     1      17.407  -5.288  36.150  1.00  0.00     0.000 C 
BRANCH   3   4
ATOM      4  C   UNL     1      16.011  -5.197  35.507  1.00  0.00     0.006 C 
BRANCH   4   5
ATOM      5  C   UNL     1      16.086  -4.945  33.995  1.00  0.00     0.053 C 
BRANCH   5   6
ATOM      6  C   UNL     1      15.815  -6.191  33.210  1.00  0.00     0.041 C 
ATOM      7  O   UNL     1      16.122  -6.250  31.991  1.00  0.00    -0.550 OA
ATOM      8  O   UNL     1      15.255  -7.299  33.833  1.00  0.00    -0.550 OA
ENDBRANCH   5   6
ENDBRANCH   4   5
ENDBRANCH   3   4
ENDBRANCH   2   3
ENDBRANCH   1   2
BRANCH   1   9
ATOM      9  C   UNL     1      19.177  -7.232  33.893  1.00  0.00     0.000 C 
BRANCH   9  10
ATOM     10  C   UNL     1      19.874  -6.293  32.897  1.00  0.00    -0.000 C 
BRANCH  10  11
ATOM     11  C   UNL     1      19.478  -4.817  33.084  1.00  0.00    -0.000 C 
BRANCH  11  12
ATOM     12  C   UNL     1      20.628  -3.883  33.499  1.00  0.00    -0.000 C 
BRANCH  12  13
ATOM     13  C   UNL     1      20.266  -2.975  34.682  1.00  0.00    -0.003 C 
ATOM     14  C   UNL     1      18.837  -2.454  34.558  1.00  0.00     0.004 C 
ENDBRANCH  12  13
ENDBRANCH  11  12
ENDBRANCH  10  11
ENDBRANCH   9  10
ENDBRANCH   1   9
TORSDOF 10
ENDMDL
MODEL 3
REMARK VINA RESULT:    -4.829      0.903      1.629
REMARK INTER + INTRA:          -9.055
REMARK INTER:                  -7.492
REMARK INTRA:                  -1.564
REMARK UNBOUND:                -1.404
REMARK SMILES CCCCCCCCCCCC(=O)[O-]
REMARK SMILES IDX 7 1 8 2 9 3 10 4 11 5 12 6 13 7 14 8 6 9 5 10 4 11 3 12 2 13
REMARK SMILES IDX 1 14
REMARK H PARENT
REMARK Flexibility Score: inf
ROOT
ATOM      1  C   UNL     1      17.298  -4.870  35.964  1.00  0.00     0.000 C 
ENDROOT
BRANCH   1   2
ATOM      2  C   UNL     1      16.108  -5.239  35.065  1.00  0.00     0.000 C 
BRANCH   2   3
ATOM      3  C   UNL     1      16.321  -4.823  33.601  1.00  0.00     0.000 C 
BRANCH   3   4
ATOM      4  C   UNL     1      16.217  -6.010  32.626  1.00  0.00     0.006 C 
BRANCH   4   5
ATOM      5  C   UNL     1      15.666  -7.270  33.307  1.00  0.00     0.053 C 
BRANCH   5   6
ATOM      6  C   UNL     1      15.933  -8.501  32.496  1.00  0.00     0.041 C 
ATOM      7  O   UNL     1      15.043  -9.382  32.373  1.00  0.00    -0.550 OA
ATOM      8  O   UNL     1      17.152  -8.658  31.850  1.00  0.00    -0.550 OA
ENDBRANCH   5   6
ENDBRANCH   4   5
ENDBRANCH   3   4
ENDBRANCH   2   3
ENDBRANCH   1   2
BRANCH   1   9
ATOM      9  C   UNL     1      17.881  -6.114  36.643  1.00  0.00     0.000 C 
BRANCH   9  10
ATOM     10  C   UNL     1      18.421  -7.108  35.603  1.00  0.00    -0.000 C 
BRANCH  10  11
ATOM     11  C   UNL     1      19.657  -6.580  34.852  1.00  0.00    -0.000 C 
BRANCH  11  12
ATOM     12  C   UNL     1      19.564  -6.651  33.317  1.00  0.00    -0.000 C 
BRANCH  12  13
ATOM     13  C   UNL     1      20.164  -5.420  32.624  1.00  0.00    -0.003 C 
ATOM     14  C   UNL     1      20.014  -4.173  33.489  1.00  0.00     0.004 C 
ENDBRANCH  12  13
ENDBRANCH  11  12
ENDBRANCH  10  11
ENDBRANCH   9  10
ENDBRANCH   1   9
TORSDOF 10
ENDMDL
MODEL 4
REMARK VINA RESULT:    -4.814      1.318      2.383
REMARK INTER + INTRA:          -9.032
REMARK INTER:                  -7.639
REMARK INTRA:                  -1.393
REMARK UNBOUND:                -1.404
REMARK SMILES CCCCCCCCCCCC(=O)[O-]
REMARK SMILES IDX 7 1 8 2 9 3 10 4 11 5 12 6 13 7 14 8 6 9 5 10 4 11 3 12 2 13
REMARK SMILES IDX 1 14
REMARK H PARENT
REMARK Flexibility Score: inf
ROOT
ATOM      1  C   UNL     1      18.219  -6.176  36.506  1.00  0.00     0.000 C 
ENDROOT
BRANCH   1   2
ATOM      2  C   UNL     1      17.966  -7.211  35.399  1.00  0.00     0.000 C 
BRANCH   2   3
ATOM      3  C   UNL     1      19.202  -7.449  34.518  1.00  0.00     0.000 C 
BRANCH   3   4
ATOM      4  C   UNL     1      18.854  -7.538  33.021  1.00  0.00     0.006 C 
BRANCH   4   5
ATOM      5  C   UNL     1      17.344  -7.673  32.785  1.00  0.00     0.053 C 
BRANCH   5   6
ATOM      6  C   UNL     1      17.020  -8.844  31.909  1.00  0.00     0.041 C 
ATOM      7  O   UNL     1      15.833  -9.053  31.546  1.00  0.00    -0.550 OA
ATOM      8  O   UNL     1      18.035  -9.683  31.466  1.00  0.00    -0.550 OA
ENDBRANCH   5   6
ENDBRANCH   4   5
ENDBRANCH   3   4
ENDBRANCH   2   3
ENDBRANCH   1   2
BRANCH   1   9
ATOM      9  C   UNL     1      17.336  -4.938  36.314  1.00  0.00     0.000 C 
BRANCH   9  10
ATOM     10  C   UNL     1      16.271  -5.182  35.234  1.00  0.00    -0.000 C 
BRANCH  10  11
ATOM     11  C   UNL     1      16.335  -4.159  34.085  1.00  0.00    -0.000 C 
BRANCH  11  12
ATOM     12  C   UNL     1      17.691  -4.077  33.362  1.00  0.00    -0.000 C 
BRANCH  12  13
ATOM     13  C   UNL     1      18.563  -2.914  33.856  1.00  0.00    -0.003 C 
ATOM     14  C   UNL     1      19.982  -3.382  34.165  1.00  0.00     0.004 C 
ENDBRANCH  12  13
ENDBRANCH  11  12
ENDBRANCH  10  11
ENDBRANCH   9  10
ENDBRANCH   1   9
TORSDOF 10
ENDMDL
MODEL 5
REMARK VINA RESULT:    -4.814      1.290      2.172
REMARK INTER + INTRA:          -9.031
REMARK INTER:                  -7.687
REMARK INTRA:                  -1.344
REMARK UNBOUND:                -1.404
REMARK SMILES CCCCCCCCCCCC(=O)[O-]
REMARK SMILES IDX 7 1 8 2 9 3 10 4 11 5 12 6 13 7 14 8 6 9 5 10 4 11 3 12 2 13
REMARK SMILES IDX 1 14
REMARK H PARENT
REMARK Flexibility Score: inf
ROOT
ATOM      1  C   UNL     1      18.001  -4.654  32.932  1.00  0.00     0.000 C 
ENDROOT
BRANCH   1   2
ATOM      2  C   UNL     1      16.696  -5.333  32.491  1.00  0.00     0.000 C 
BRANCH   2   3
ATOM      3  C   UNL     1      15.912  -5.930  33.670  1.00  0.00     0.000 C 
BRANCH   3   4
ATOM      4  C   UNL     1      15.839  -7.467  33.615  1.00  0.00     0.006 C 
BRANCH   4   5
ATOM      5  C   UNL     1      16.617  -8.040  32.423  1.00  0.00     0.053 C 
BRANCH   5   6
ATOM      6  C   UNL     1      15.789  -9.006  31.632  1.00  0.00     0.041 C 
ATOM      7  O   UNL     1      15.053  -9.840  32.222  1.00  0.00    -0.550 OA
ATOM      8  O   UNL     1      15.804  -8.962  30.244  1.00  0.00    -0.550 OA
ENDBRANCH   5   6
ENDBRANCH   4   5
ENDBRANCH   3   4
ENDBRANCH   2   3
ENDBRANCH   1   2
BRANCH   1   9
ATOM      9  C   UNL     1      17.721  -3.490  33.888  1.00  0.00     0.000 C 
BRANCH   9  10
ATOM     10  C   UNL     1      18.473  -3.673  35.215  1.00  0.00    -0.000 C 
BRANCH  10  11
ATOM     11  C   UNL     1      17.604  -4.309  36.315  1.00  0.00    -0.000 C 
BRANCH  11  12
ATOM     12  C   UNL     1      18.139  -5.636  36.881  1.00  0.00    -0.000 C 
BRANCH  12  13
ATOM     13  C   UNL     1      19.434  -6.099  36.199  1.00  0.00    -0.003 C 
ATOM     14  C   UNL     1      19.196  -7.343  35.350  1.00  0.00     0.004 C 
ENDBRANCH  12  13
ENDBRANCH  11  12
ENDBRANCH  10  11
ENDBRANCH   9  10
ENDBRANCH   1   9
TORSDOF 10
ENDMDL
MODEL 6
REMARK VINA RESULT:    -4.805      1.185      2.178
REMARK INTER + INTRA:          -9.017
REMARK INTER:                  -7.679
REMARK INTRA:                  -1.338
REMARK UNBOUND:                -1.404
REMARK SMILES CCCCCCCCCCCC(=O)[O-]
REMARK SMILES IDX 7 1 8 2 9 3 10 4 11 5 12 6 13 7 14 8 6 9 5 10 4 11 3 12 2 13
REMARK SMILES IDX 1 14
REMARK H PARENT
REMARK Flexibility Score: inf
ROOT
ATOM      1  C   UNL     1      17.848  -7.020  35.454  1.00  0.00     0.000 C 
ENDROOT
BRANCH   1   2
ATOM      2  C   UNL     1      16.855  -5.848  35.423  1.00  0.00     0.000 C 
BRANCH   2   3
ATOM      3  C   UNL     1      15.885  -5.925  34.234  1.00  0.00     0.000 C 
BRANCH   3   4
ATOM      4  C   UNL     1      15.719  -7.358  33.697  1.00  0.00     0.006 C 
BRANCH   4   5
ATOM      5  C   UNL     1      16.136  -7.476  32.225  1.00  0.00     0.053 C 
BRANCH   5   6
ATOM      6  C   UNL     1      16.281  -8.905  31.801  1.00  0.00     0.041 C 
ATOM      7  O   UNL     1      15.267  -9.645  31.714  1.00  0.00    -0.550 OA
ATOM      8  O   UNL     1      17.532  -9.409  31.469  1.00  0.00    -0.550 OA
ENDBRANCH   5   6
ENDBRANCH   4   5
ENDBRANCH   3   4
ENDBRANCH   2   3
ENDBRANCH   1   2
BRANCH   1   9
ATOM      9  C   UNL     1      19.249  -6.565  35.032  1.00  0.00     0.000 C 
BRANCH   9  10
ATOM     10  C   UNL     1      19.425  -6.661  33.508  1.00  0.00    -0.000 C 
BRANCH  10  11
ATOM     11  C   UNL     1      19.351  -5.292  32.808  1.00  0.00    -0.000 C 
BRANCH  11  12
ATOM     12  C   UNL     1      19.744  -4.090  33.686  1.00  0.00    -0.000 C 
BRANCH  12  13
ATOM     13  C   UNL     1      18.607  -3.073  33.854  1.00  0.00    -0.003 C 
ATOM     14  C   UNL     1      18.789  -2.247  35.123  1.00  0.00     0.004 C 
ENDBRANCH  12  13
ENDBRANCH  11  12
ENDBRANCH  10  11
ENDBRANCH   9  10
ENDBRANCH   1   9
TORSDOF 10
ENDMDL
MODEL 7
REMARK VINA RESULT:    -4.793      3.506      4.993
REMARK INTER + INTRA:          -8.999
REMARK INTER:                  -7.576
REMARK INTRA:                  -1.423
REMARK UNBOUND:                -1.404
REMARK SMILES CCCCCCCCCCCC(=O)[O-]
REMARK SMILES IDX 7 1 8 2 9 3 10 4 11 5 12 6 13 7 14 8 6 9 5 10 4 11 3 12 2 13
REMARK SMILES IDX 1 14
REMARK H PARENT
REMARK Flexibility Score: inf
ROOT
ATOM      1  C   UNL     1      16.220  -6.715  32.265  1.00  0.00     0.000 C 
ENDROOT
BRANCH   1   2
ATOM      2  C   UNL     1      16.642  -5.250  32.073  1.00  0.00     0.000 C 
BRANCH   2   3
ATOM      3  C   UNL     1      16.673  -4.465  33.394  1.00  0.00     0.000 C 
BRANCH   3   4
ATOM      4  C   UNL     1      17.843  -3.466  33.462  1.00  0.00     0.006 C 
BRANCH   4   5
ATOM      5  C   UNL     1      19.205  -4.165  33.368  1.00  0.00     0.053 C 
BRANCH   5   6
ATOM      6  C   UNL     1      20.292  -3.351  34.001  1.00  0.00     0.041 C 
ATOM      7  O   UNL     1      20.120  -2.842  35.139  1.00  0.00    -0.550 OA
ATOM      8  O   UNL     1      21.507  -3.185  33.349  1.00  0.00    -0.550 OA
ENDBRANCH   5   6
ENDBRANCH   4   5
ENDBRANCH   3   4
ENDBRANCH   2   3
ENDBRANCH   1   2
BRANCH   1   9
ATOM      9  C   UNL     1      16.865  -7.313  33.520  1.00  0.00     0.000 C 
BRANCH   9  10
ATOM     10  C   UNL     1      18.317  -7.735  33.247  1.00  0.00    -0.000 C 
BRANCH  10  11
ATOM     11  C   UNL     1      19.252  -7.480  34.442  1.00  0.00    -0.000 C 
BRANCH  11  12
ATOM     12  C   UNL     1      18.570  -7.517  35.821  1.00  0.00    -0.000 C 
BRANCH  12  13
ATOM     13  C   UNL     1      18.996  -6.357  36.732  1.00  0.00    -0.003 C 
ATOM     14  C   UNL     1      17.951  -5.246  36.734  1.00  0.00     0.004 C 
ENDBRANCH  12  13
ENDBRANCH  11  12
ENDBRANCH  10  11
ENDBRANCH   9  10
ENDBRANCH   1   9
TORSDOF 10
ENDMDL
MODEL 8
REMARK VINA RESULT:    -4.785      3.150      5.376
REMARK INTER + INTRA:          -8.985
REMARK INTER:                  -7.625
REMARK INTRA:                  -1.360
REMARK UNBOUND:                -1.404
REMARK SMILES CCCCCCCCCCCC(=O)[O-]
REMARK SMILES IDX 7 1 8 2 9 3 10 4 11 5 12 6 13 7 14 8 6 9 5 10 4 11 3 12 2 13
REMARK SMILES IDX 1 14
REMARK H PARENT
REMARK Flexibility Score: inf
ROOT
ATOM      1  C   UNL     1      17.734  -6.458  35.781  1.00  0.00     0.000 C 
ENDROOT
BRANCH   1   2
ATOM      2  C   UNL     1      19.157  -6.025  35.394  1.00  0.00     0.000 C 
BRANCH   2   3
ATOM      3  C   UNL     1      19.426  -6.157  33.887  1.00  0.00     0.000 C 
BRANCH   3   4
ATOM      4  C   UNL     1      19.481  -4.793  33.174  1.00  0.00     0.006 C 
BRANCH   4   5
ATOM      5  C   UNL     1      19.873  -3.657  34.128  1.00  0.00     0.053 C 
BRANCH   5   6
ATOM      6  C   UNL     1      18.797  -2.619  34.227  1.00  0.00     0.041 C 
ATOM      7  O   UNL     1      17.865  -2.592  33.382  1.00  0.00    -0.550 OA
ATOM      8  O   UNL     1      18.807  -1.704  35.272  1.00  0.00    -0.550 OA
ENDBRANCH   5   6
ENDBRANCH   4   5
ENDBRANCH   3   4
ENDBRANCH   2   3
ENDBRANCH   1   2
BRANCH   1   9
ATOM      9  C   UNL     1      16.785  -5.255  35.819  1.00  0.00     0.000 C 
BRANCH   9  10
ATOM     10  C   UNL     1      15.882  -5.227  34.576  1.00  0.00    -0.000 C 
BRANCH  10  11
ATOM     11  C   UNL     1      15.630  -6.625  33.984  1.00  0.00    -0.000 C 
BRANCH  11  12
ATOM     12  C   UNL     1      16.043  -6.791  32.510  1.00  0.00    -0.000 C 
BRANCH  12  13
ATOM     13  C   UNL     1      16.720  -8.138  32.226  1.00  0.00    -0.003 C 
ATOM     14  C   UNL     1      15.688  -9.219  31.917  1.00  0.00     0.004 C 
ENDBRANCH  12  13
ENDBRANCH  11  12
ENDBRANCH  10  11
ENDBRANCH   9  10
ENDBRANCH   1   9
TORSDOF 10
ENDMDL
MODEL 9
REMARK VINA RESULT:    -4.766      1.378      3.171
REMARK INTER + INTRA:          -8.955
REMARK INTER:                  -7.695
REMARK INTRA:                  -1.260
REMARK UNBOUND:                -1.404
REMARK SMILES CCCCCCCCCCCC(=O)[O-]
REMARK SMILES IDX 7 1 8 2 9 3 10 4 11 5 12 6 13 7 14 8 6 9 5 10 4 11 3 12 2 13
REMARK SMILES IDX 1 14
REMARK H PARENT
REMARK Flexibility Score: inf
ROOT
ATOM      1  C   UNL     1      19.397  -4.531  32.994  1.00  0.00     0.000 C 
ENDROOT
BRANCH   1   2
ATOM      2  C   UNL     1      19.914  -5.962  32.785  1.00  0.00     0.000 C 
BRANCH   2   3
ATOM      3  C   UNL     1      19.240  -6.978  33.720  1.00  0.00     0.000 C 
BRANCH   3   4
ATOM      4  C   UNL     1      18.341  -7.974  32.964  1.00  0.00     0.006 C 
BRANCH   4   5
ATOM      5  C   UNL     1      17.004  -7.346  32.550  1.00  0.00     0.053 C 
BRANCH   5   6
ATOM      6  C   UNL     1      15.841  -8.208  32.938  1.00  0.00     0.041 C 
ATOM      7  O   UNL     1      15.123  -7.894  33.923  1.00  0.00    -0.550 OA
ATOM      8  O   UNL     1      15.531  -9.336  32.190  1.00  0.00    -0.550 OA
ENDBRANCH   5   6
ENDBRANCH   4   5
ENDBRANCH   3   4
ENDBRANCH   2   3
ENDBRANCH   1   2
BRANCH   1   9
ATOM      9  C   UNL     1      20.391  -3.701  33.813  1.00  0.00     0.000 C 
BRANCH   9  10
ATOM     10  C   UNL     1      19.673  -2.913  34.919  1.00  0.00    -0.000 C 
BRANCH  10  11
ATOM     11  C   UNL     1      18.176  -3.257  35.026  1.00  0.00    -0.000 C 
BRANCH  11  12
ATOM     12  C   UNL     1      17.814  -4.245  36.149  1.00  0.00    -0.000 C 
BRANCH  12  13
ATOM     13  C   UNL     1      16.664  -5.188  35.770  1.00  0.00    -0.003 C 
ATOM     14  C   UNL     1      15.873  -4.642  34.585  1.00  0.00     0.004 C 
ENDBRANCH  12  13
ENDBRANCH  11  12
ENDBRANCH  10  11
ENDBRANCH   9  10
ENDBRANCH   1   9
TORSDOF 10
ENDMDL
