MODEL 1
REMARK VINA RESULT:    -4.660      0.000      0.000
REMARK INTER + INTRA:          -5.256
REMARK INTER:                  -5.068
REMARK INTRA:                  -0.188
REMARK UNBOUND:                -0.188
REMARK SMILES Cc1ccc(C(C)C)c(O)c1
REMARK SMILES IDX 1 1 2 2 11 3 9 4 5 5 4 6 3 7 10 8 6 10 7 11 8 12
REMARK H PARENT 10 9
REMARK Flexibility Score: inf
ROOT
ATOM      1  C   UNL     1     476.760  34.636 462.970  1.00  0.00     0.044 C 
ATOM      2  C   UNL     1     477.504  35.470 461.970  1.00  0.00    -0.047 A 
ATOM      3  C   UNL     1     478.253  34.859 460.958  1.00  0.00     0.049 A 
ATOM      4  C   UNL     1     478.992  35.624 460.046  1.00  0.00     0.119 A 
ATOM      5  C   UNL     1     478.951  37.043 460.115  1.00  0.00    -0.004 A 
ATOM      6  C   UNL     1     478.247  37.640 461.183  1.00  0.00     0.008 A 
ATOM      7  C   UNL     1     477.530  36.862 462.094  1.00  0.00     0.004 A 
ENDROOT
BRANCH   4   8
ATOM      8  O   UNL     1     479.764  34.933 459.109  1.00  0.00    -0.508 OA
ATOM      9  H   UNL     1     479.465  34.731 458.166  1.00  0.00     0.293 HD
ENDBRANCH   4   8
BRANCH   5  10
ATOM     10  C   UNL     1     479.709  37.912 459.115  1.00  0.00     0.017 C 
ATOM     11  C   UNL     1     480.994  38.451 459.749  1.00  0.00     0.012 C 
ATOM     12  C   UNL     1     478.862  39.062 458.544  1.00  0.00     0.012 C 
ENDBRANCH   5  10
TORSDOF 2
ENDMDL
MODEL 2
REMARK VINA RESULT:    -4.555      1.967      2.588
REMARK INTER + INTRA:          -5.142
REMARK INTER:                  -4.981
REMARK INTRA:                  -0.161
REMARK UNBOUND:                -0.188
REMARK SMILES Cc1ccc(C(C)C)c(O)c1
REMARK SMILES IDX 1 1 2 2 11 3 9 4 5 5 4 6 3 7 10 8 6 10 7 11 8 12
REMARK H PARENT 10 9
REMARK Flexibility Score: inf
ROOT
ATOM      1  C   UNL     1     475.957  33.990 463.175  1.00  0.00     0.044 C 
ATOM      2  C   UNL     1     476.767  35.008 462.427  1.00  0.00    -0.047 A 
ATOM      3  C   UNL     1     476.427  36.363 462.489  1.00  0.00     0.049 A 
ATOM      4  C   UNL     1     477.144  37.320 461.758  1.00  0.00     0.119 A 
ATOM      5  C   UNL     1     478.261  36.922 460.974  1.00  0.00    -0.004 A 
ATOM      6  C   UNL     1     478.546  35.543 460.869  1.00  0.00     0.008 A 
ATOM      7  C   UNL     1     477.810  34.601 461.591  1.00  0.00     0.004 A 
ENDROOT
BRANCH   4   8
ATOM      8  O   UNL     1     476.698  38.642 461.823  1.00  0.00    -0.508 OA
ATOM      9  H   UNL     1     477.061  39.332 462.466  1.00  0.00     0.293 HD
ENDBRANCH   4   8
BRANCH   5  10
ATOM     10  C   UNL     1     479.093  37.938 460.197  1.00  0.00     0.017 C 
ATOM     11  C   UNL     1     479.876  37.238 459.081  1.00  0.00     0.012 C 
ATOM     12  C   UNL     1     480.037  38.761 461.088  1.00  0.00     0.012 C 
ENDBRANCH   5  10
TORSDOF 2
ENDMDL
MODEL 3
REMARK VINA RESULT:    -4.180      1.628      2.407
REMARK INTER + INTRA:          -4.735
REMARK INTER:                  -4.542
REMARK INTRA:                  -0.192
REMARK UNBOUND:                -0.188
REMARK SMILES Cc1ccc(C(C)C)c(O)c1
REMARK SMILES IDX 1 1 2 2 11 3 9 4 5 5 4 6 3 7 10 8 6 10 7 11 8 12
REMARK H PARENT 10 9
REMARK Flexibility Score: inf
ROOT
ATOM      1  C   UNL     1     477.044  34.741 462.548  1.00  0.00     0.044 C 
ATOM      2  C   UNL     1     477.861  35.597 461.626  1.00  0.00    -0.047 A 
ATOM      3  C   UNL     1     477.777  36.991 461.699  1.00  0.00     0.049 A 
ATOM      4  C   UNL     1     478.497  37.804 460.814  1.00  0.00     0.119 A 
ATOM      5  C   UNL     1     479.362  37.213 459.853  1.00  0.00    -0.004 A 
ATOM      6  C   UNL     1     479.381  35.805 459.749  1.00  0.00     0.008 A 
ATOM      7  C   UNL     1     478.643  35.009 460.628  1.00  0.00     0.004 A 
ENDROOT
BRANCH   4   8
ATOM      8  O   UNL     1     478.306  39.184 460.911  1.00  0.00    -0.508 OA
ATOM      9  H   UNL     1     478.652  39.854 460.239  1.00  0.00     0.293 HD
ENDBRANCH   4   8
BRANCH   5  10
ATOM     10  C   UNL     1     480.195  38.064 458.898  1.00  0.00     0.017 C 
ATOM     11  C   UNL     1     480.403  37.323 457.574  1.00  0.00     0.012 C 
ATOM     12  C   UNL     1     481.543  38.502 459.493  1.00  0.00     0.012 C 
ENDBRANCH   5  10
TORSDOF 2
ENDMDL
MODEL 4
REMARK VINA RESULT:    -4.174      2.331      3.813
REMARK INTER + INTRA:          -4.728
REMARK INTER:                  -4.539
REMARK INTRA:                  -0.188
REMARK UNBOUND:                -0.188
REMARK SMILES Cc1ccc(C(C)C)c(O)c1
REMARK SMILES IDX 1 1 2 2 11 3 9 4 5 5 4 6 3 7 10 8 6 10 7 11 8 12
REMARK H PARENT 10 9
REMARK Flexibility Score: inf
ROOT
ATOM      1  C   UNL     1     479.509  34.641 459.791  1.00  0.00     0.044 C 
ATOM      2  C   UNL     1     478.693  35.665 460.522  1.00  0.00    -0.047 A 
ATOM      3  C   UNL     1     477.712  35.266 461.436  1.00  0.00     0.049 A 
ATOM      4  C   UNL     1     476.910  36.209 462.091  1.00  0.00     0.119 A 
ATOM      5  C   UNL     1     477.118  37.596 461.863  1.00  0.00    -0.004 A 
ATOM      6  C   UNL     1     478.064  37.978 460.887  1.00  0.00     0.008 A 
ATOM      7  C   UNL     1     478.844  37.024 460.230  1.00  0.00     0.004 A 
ENDROOT
BRANCH   4   8
ATOM      8  O   UNL     1     475.910  35.723 462.937  1.00  0.00    -0.508 OA
ATOM      9  H   UNL     1     475.009  35.394 462.620  1.00  0.00     0.293 HD
ENDBRANCH   4   8
BRANCH   5  10
ATOM     10  C   UNL     1     476.293  38.656 462.588  1.00  0.00     0.017 C 
ATOM     11  C   UNL     1     475.189  39.188 461.669  1.00  0.00     0.012 C 
ATOM     12  C   UNL     1     477.142  39.813 463.142  1.00  0.00     0.012 C 
ENDBRANCH   5  10
TORSDOF 2
ENDMDL
MODEL 5
REMARK VINA RESULT:    -3.852      6.001      7.537
REMARK INTER + INTRA:          -4.378
REMARK INTER:                  -4.186
REMARK INTRA:                  -0.191
REMARK UNBOUND:                -0.188
REMARK SMILES Cc1ccc(C(C)C)c(O)c1
REMARK SMILES IDX 1 1 2 2 11 3 9 4 5 5 4 6 3 7 10 8 6 10 7 11 8 12
REMARK H PARENT 10 9
REMARK Flexibility Score: inf
ROOT
ATOM      1  C   UNL     1     485.603  41.648 460.112  1.00  0.00     0.044 C 
ATOM      2  C   UNL     1     484.992  40.784 459.050  1.00  0.00    -0.047 A 
ATOM      3  C   UNL     1     485.049  39.390 459.155  1.00  0.00     0.049 A 
ATOM      4  C   UNL     1     484.525  38.569 458.148  1.00  0.00     0.119 A 
ATOM      5  C   UNL     1     483.885  39.151 457.020  1.00  0.00    -0.004 A 
ATOM      6  C   UNL     1     483.899  40.558 456.898  1.00  0.00     0.008 A 
ATOM      7  C   UNL     1     484.441  41.361 457.903  1.00  0.00     0.004 A 
ENDROOT
BRANCH   4   8
ATOM      8  O   UNL     1     484.683  37.189 458.299  1.00  0.00    -0.508 OA
ATOM      9  H   UNL     1     484.183  36.498 457.757  1.00  0.00     0.293 HD
ENDBRANCH   4   8
BRANCH   5  10
ATOM     10  C   UNL     1     483.266  38.292 455.922  1.00  0.00     0.017 C 
ATOM     11  C   UNL     1     483.306  39.033 454.583  1.00  0.00     0.012 C 
ATOM     12  C   UNL     1     481.834  37.832 456.244  1.00  0.00     0.012 C 
ENDBRANCH   5  10
TORSDOF 2
ENDMDL
MODEL 6
REMARK VINA RESULT:    -3.746      4.150      6.926
REMARK INTER + INTRA:          -4.262
REMARK INTER:                  -4.070
REMARK INTRA:                  -0.192
REMARK UNBOUND:                -0.188
REMARK SMILES Cc1ccc(C(C)C)c(O)c1
REMARK SMILES IDX 1 1 2 2 11 3 9 4 5 5 4 6 3 7 10 8 6 10 7 11 8 12
REMARK H PARENT 10 9
REMARK Flexibility Score: inf
ROOT
ATOM      1  C   UNL     1     483.275  39.391 453.806  1.00  0.00     0.044 C 
ATOM      2  C   UNL     1     483.099  39.219 455.286  1.00  0.00    -0.047 A 
ATOM      3  C   UNL     1     483.929  38.347 455.998  1.00  0.00     0.049 A 
ATOM      4  C   UNL     1     483.746  38.139 457.372  1.00  0.00     0.119 A 
ATOM      5  C   UNL     1     482.733  38.853 458.068  1.00  0.00    -0.004 A 
ATOM      6  C   UNL     1     481.862  39.675 457.320  1.00  0.00     0.008 A 
ATOM      7  C   UNL     1     482.047  39.858 455.948  1.00  0.00     0.004 A 
ENDROOT
BRANCH   4   8
ATOM      8  O   UNL     1     484.575  37.202 457.994  1.00  0.00    -0.508 OA
ATOM      9  H   UNL     1     484.907  36.356 457.552  1.00  0.00     0.293 HD
ENDBRANCH   4   8
BRANCH   5  10
ATOM     10  C   UNL     1     482.528  38.686 459.571  1.00  0.00     0.017 C 
ATOM     11  C   UNL     1     481.040  38.785 459.916  1.00  0.00     0.012 C 
ATOM     12  C   UNL     1     483.348  39.680 460.411  1.00  0.00     0.012 C 
ENDBRANCH   5  10
TORSDOF 2
ENDMDL
MODEL 7
REMARK VINA RESULT:    -3.734      3.826      6.166
REMARK INTER + INTRA:          -4.249
REMARK INTER:                  -4.060
REMARK INTRA:                  -0.189
REMARK UNBOUND:                -0.188
REMARK SMILES Cc1ccc(C(C)C)c(O)c1
REMARK SMILES IDX 1 1 2 2 11 3 9 4 5 5 4 6 3 7 10 8 6 10 7 11 8 12
REMARK H PARENT 10 9
REMARK Flexibility Score: inf
ROOT
ATOM      1  C   UNL     1     485.773  40.206 461.736  1.00  0.00     0.044 C 
ATOM      2  C   UNL     1     484.736  39.645 460.809  1.00  0.00    -0.047 A 
ATOM      3  C   UNL     1     485.083  38.668 459.870  1.00  0.00     0.049 A 
ATOM      4  C   UNL     1     484.136  38.169 458.965  1.00  0.00     0.119 A 
ATOM      5  C   UNL     1     482.791  38.625 459.024  1.00  0.00    -0.004 A 
ATOM      6  C   UNL     1     482.476  39.660 459.931  1.00  0.00     0.008 A 
ATOM      7  C   UNL     1     483.436  40.158 460.814  1.00  0.00     0.004 A 
ENDROOT
BRANCH   4   8
ATOM      8  O   UNL     1     484.581  37.244 458.017  1.00  0.00    -0.508 OA
ATOM      9  H   UNL     1     485.340  36.595 458.170  1.00  0.00     0.293 HD
ENDBRANCH   4   8
BRANCH   5  10
ATOM     10  C   UNL     1     481.721  38.076 458.084  1.00  0.00     0.017 C 
ATOM     11  C   UNL     1     481.511  39.033 456.907  1.00  0.00     0.012 C 
ATOM     12  C   UNL     1     480.386  37.781 458.788  1.00  0.00     0.012 C 
ENDBRANCH   5  10
TORSDOF 2
ENDMDL
MODEL 8
REMARK VINA RESULT:    -3.732      1.860      4.496
REMARK INTER + INTRA:          -4.247
REMARK INTER:                  -4.227
REMARK INTRA:                  -0.020
REMARK UNBOUND:                -0.188
REMARK SMILES Cc1ccc(C(C)C)c(O)c1
REMARK SMILES IDX 1 1 2 2 11 3 9 4 5 5 4 6 3 7 10 8 6 10 7 11 8 12
REMARK H PARENT 10 9
REMARK Flexibility Score: inf
ROOT
ATOM      1  C   UNL     1     480.537  37.233 458.057  1.00  0.00     0.044 C 
ATOM      2  C   UNL     1     479.722  36.784 459.232  1.00  0.00    -0.047 A 
ATOM      3  C   UNL     1     479.351  37.698 460.225  1.00  0.00     0.049 A 
ATOM      4  C   UNL     1     478.631  37.285 461.353  1.00  0.00     0.119 A 
ATOM      5  C   UNL     1     478.228  35.927 461.478  1.00  0.00    -0.004 A 
ATOM      6  C   UNL     1     478.669  35.007 460.502  1.00  0.00     0.008 A 
ATOM      7  C   UNL     1     479.402  35.433 459.393  1.00  0.00     0.004 A 
ENDROOT
BRANCH   4   8
ATOM      8  O   UNL     1     478.359  38.248 462.328  1.00  0.00    -0.508 OA
ATOM      9  H   UNL     1     477.937  39.145 462.136  1.00  0.00     0.293 HD
ENDBRANCH   4   8
BRANCH   5  10
ATOM     10  C   UNL     1     477.407  35.446 462.670  1.00  0.00     0.017 C 
ATOM     11  C   UNL     1     477.241  33.924 462.619  1.00  0.00     0.012 C 
ATOM     12  C   UNL     1     476.038  36.137 462.786  1.00  0.00     0.012 C 
ENDBRANCH   5  10
TORSDOF 2
ENDMDL
MODEL 9
REMARK VINA RESULT:    -3.562      3.395      5.108
REMARK INTER + INTRA:          -4.063
REMARK INTER:                  -3.871
REMARK INTRA:                  -0.192
REMARK UNBOUND:                -0.188
REMARK SMILES Cc1ccc(C(C)C)c(O)c1
REMARK SMILES IDX 1 1 2 2 11 3 9 4 5 5 4 6 3 7 10 8 6 10 7 11 8 12
REMARK H PARENT 10 9
REMARK Flexibility Score: inf
ROOT
ATOM      1  C   UNL     1     478.959  38.656 459.269  1.00  0.00     0.044 C 
ATOM      2  C   UNL     1     480.457  38.676 459.217  1.00  0.00    -0.047 A 
ATOM      3  C   UNL     1     481.136  38.024 458.183  1.00  0.00     0.049 A 
ATOM      4  C   UNL     1     482.536  37.993 458.146  1.00  0.00     0.119 A 
ATOM      5  C   UNL     1     483.286  38.668 459.147  1.00  0.00    -0.004 A 
ATOM      6  C   UNL     1     482.586  39.261 460.220  1.00  0.00     0.008 A 
ATOM      7  C   UNL     1     481.190  39.268 460.250  1.00  0.00     0.004 A 
ENDROOT
BRANCH   4   8
ATOM      8  O   UNL     1     483.135  37.264 457.115  1.00  0.00    -0.508 OA
ATOM      9  H   UNL     1     483.881  36.597 457.251  1.00  0.00     0.293 HD
ENDBRANCH   4   8
BRANCH   5  10
ATOM     10  C   UNL     1     484.812  38.693 459.120  1.00  0.00     0.017 C 
ATOM     11  C   UNL     1     485.366  38.702 460.548  1.00  0.00     0.012 C 
ATOM     12  C   UNL     1     485.387  39.866 458.308  1.00  0.00     0.012 C 
ENDBRANCH   5  10
TORSDOF 2
ENDMDL
