MODEL 1
REMARK VINA RESULT:    12.238      0.000      0.000
REMARK INTER + INTRA:          21.744
REMARK INTER:                  22.253
REMARK INTRA:                  -0.510
REMARK UNBOUND:                -0.510
REMARK SMILES CCCCCCCCCCCCCCCC(=O)[O-]
REMARK SMILES IDX 9 1 10 2 11 3 12 4 13 5 14 6 15 7 16 8 17 9 18 10 8 11 7 12
REMARK SMILES IDX 6 13 5 14 4 15 3 16 2 17 1 18
REMARK H PARENT
REMARK Flexibility Score: inf
ROOT
ATOM      1  C   UNL     1     -19.123  59.763  -2.710  1.00  0.00     0.000 C 
ENDROOT
BRANCH   1   2
ATOM      2  C   UNL     1     -18.686  58.303  -2.522  1.00  0.00     0.000 C 
BRANCH   2   3
ATOM      3  C   UNL     1     -18.964  57.826  -1.092  1.00  0.00     0.000 C 
BRANCH   3   4
ATOM      4  C   UNL     1     -17.657  57.573  -0.331  1.00  0.00     0.000 C 
BRANCH   4   5
ATOM      5  C   UNL     1     -16.510  57.256  -1.296  1.00  0.00     0.000 C 
BRANCH   5   6
ATOM      6  C   UNL     1     -16.798  55.973  -2.091  1.00  0.00     0.006 C 
BRANCH   6   7
ATOM      7  C   UNL     1     -16.338  56.079  -3.551  1.00  0.00     0.053 C 
BRANCH   7   8
ATOM      8  C   UNL     1     -17.117  55.166  -4.446  1.00  0.00     0.041 C 
ATOM      9  O   UNL     1     -17.581  54.084  -4.000  1.00  0.00    -0.550 OA
ATOM     10  O   UNL     1     -17.303  55.495  -5.782  1.00  0.00    -0.550 OA
ENDBRANCH   7   8
ENDBRANCH   6   7
ENDBRANCH   5   6
ENDBRANCH   4   5
ENDBRANCH   3   4
ENDBRANCH   2   3
ENDBRANCH   1   2
BRANCH   1  11
ATOM     11  C   UNL     1     -18.214  60.538  -3.680  1.00  0.00     0.000 C 
BRANCH  11  12
ATOM     12  C   UNL     1     -16.789  60.814  -3.158  1.00  0.00    -0.000 C 
BRANCH  12  13
ATOM     13  C   UNL     1     -15.807  59.632  -3.279  1.00  0.00    -0.000 C 
BRANCH  13  14
ATOM     14  C   UNL     1     -14.492  59.953  -4.012  1.00  0.00    -0.000 C 
BRANCH  14  15
ATOM     15  C   UNL     1     -13.878  58.724  -4.699  1.00  0.00    -0.000 C 
BRANCH  15  16
ATOM     16  C   UNL     1     -13.261  57.770  -3.669  1.00  0.00    -0.000 C 
BRANCH  16  17
ATOM     17  C   UNL     1     -11.756  57.601  -3.907  1.00  0.00    -0.003 C 
ATOM     18  C   UNL     1     -10.944  58.309  -2.826  1.00  0.00     0.004 C 
ENDBRANCH  16  17
ENDBRANCH  15  16
ENDBRANCH  14  15
ENDBRANCH  13  14
ENDBRANCH  12  13
ENDBRANCH  11  12
ENDBRANCH   1  11
TORSDOF 14
ENDMDL
MODEL 2
REMARK VINA RESULT:    12.318      0.794      1.021
REMARK INTER + INTRA:          21.890
REMARK INTER:                  22.988
REMARK INTRA:                  -1.098
REMARK UNBOUND:                -0.510
REMARK SMILES CCCCCCCCCCCCCCCC(=O)[O-]
REMARK SMILES IDX 9 1 10 2 11 3 12 4 13 5 14 6 15 7 16 8 17 9 18 10 8 11 7 12
REMARK SMILES IDX 6 13 5 14 4 15 3 16 2 17 1 18
REMARK H PARENT
REMARK Flexibility Score: inf
ROOT
ATOM      1  C   UNL     1     -18.743  60.417  -3.163  1.00  0.00     0.000 C 
ENDROOT
BRANCH   1   2
ATOM      2  C   UNL     1     -18.744  58.908  -3.448  1.00  0.00     0.000 C 
BRANCH   2   3
ATOM      3  C   UNL     1     -19.038  58.109  -2.173  1.00  0.00     0.000 C 
BRANCH   3   4
ATOM      4  C   UNL     1     -17.957  58.347  -1.111  1.00  0.00     0.000 C 
BRANCH   4   5
ATOM      5  C   UNL     1     -16.984  57.166  -1.041  1.00  0.00     0.000 C 
BRANCH   5   6
ATOM      6  C   UNL     1     -17.402  56.049  -2.008  1.00  0.00     0.006 C 
BRANCH   6   7
ATOM      7  C   UNL     1     -16.499  55.984  -3.246  1.00  0.00     0.053 C 
BRANCH   7   8
ATOM      8  C   UNL     1     -17.113  55.165  -4.339  1.00  0.00     0.041 C 
ATOM      9  O   UNL     1     -17.576  54.021  -4.091  1.00  0.00    -0.550 OA
ATOM     10  O   UNL     1     -17.144  55.652  -5.639  1.00  0.00    -0.550 OA
ENDBRANCH   7   8
ENDBRANCH   6   7
ENDBRANCH   5   6
ENDBRANCH   4   5
ENDBRANCH   3   4
ENDBRANCH   2   3
ENDBRANCH   1   2
BRANCH   1  11
ATOM     11  C   UNL     1     -17.410  61.094  -3.529  1.00  0.00     0.000 C 
BRANCH  11  12
ATOM     12  C   UNL     1     -16.150  60.375  -3.007  1.00  0.00    -0.000 C 
BRANCH  12  13
ATOM     13  C   UNL     1     -15.094  60.041  -4.079  1.00  0.00    -0.000 C 
BRANCH  13  14
ATOM     14  C   UNL     1     -14.606  58.581  -4.078  1.00  0.00    -0.000 C 
BRANCH  14  15
ATOM     15  C   UNL     1     -13.107  58.453  -4.387  1.00  0.00    -0.000 C 
BRANCH  15  16
ATOM     16  C   UNL     1     -12.269  58.614  -3.113  1.00  0.00    -0.000 C 
BRANCH  16  17
ATOM     17  C   UNL     1     -10.946  57.847  -3.224  1.00  0.00    -0.003 C 
ATOM     18  C   UNL     1     -11.121  56.559  -4.025  1.00  0.00     0.004 C 
ENDBRANCH  16  17
ENDBRANCH  15  16
ENDBRANCH  14  15
ENDBRANCH  13  14
ENDBRANCH  12  13
ENDBRANCH  11  12
ENDBRANCH   1  11
TORSDOF 14
ENDMDL
MODEL 3
REMARK VINA RESULT:    12.397      2.610      4.887
REMARK INTER + INTRA:          22.034
REMARK INTER:                  23.311
REMARK INTRA:                  -1.277
REMARK UNBOUND:                -0.510
REMARK SMILES CCCCCCCCCCCCCCCC(=O)[O-]
REMARK SMILES IDX 9 1 10 2 11 3 12 4 13 5 14 6 15 7 16 8 17 9 18 10 8 11 7 12
REMARK SMILES IDX 6 13 5 14 4 15 3 16 2 17 1 18
REMARK H PARENT
REMARK Flexibility Score: inf
ROOT
ATOM      1  C   UNL     1     -18.862  60.368  -3.475  1.00  0.00     0.000 C 
ENDROOT
BRANCH   1   2
ATOM      2  C   UNL     1     -17.583  61.211  -3.362  1.00  0.00     0.000 C 
BRANCH   2   3
ATOM      3  C   UNL     1     -16.416  60.369  -2.833  1.00  0.00     0.000 C 
BRANCH   3   4
ATOM      4  C   UNL     1     -15.244  60.370  -3.822  1.00  0.00     0.000 C 
BRANCH   4   5
ATOM      5  C   UNL     1     -14.807  58.940  -4.160  1.00  0.00     0.000 C 
BRANCH   5   6
ATOM      6  C   UNL     1     -13.309  58.886  -4.495  1.00  0.00     0.006 C 
BRANCH   6   7
ATOM      7  C   UNL     1     -12.665  57.561  -4.069  1.00  0.00     0.053 C 
BRANCH   7   8
ATOM      8  C   UNL     1     -11.589  57.769  -3.049  1.00  0.00     0.041 C 
ATOM      9  O   UNL     1     -11.709  57.286  -1.892  1.00  0.00    -0.550 OA
ATOM     10  O   UNL     1     -10.469  58.525  -3.365  1.00  0.00    -0.550 OA
ENDBRANCH   7   8
ENDBRANCH   6   7
ENDBRANCH   5   6
ENDBRANCH   4   5
ENDBRANCH   3   4
ENDBRANCH   2   3
ENDBRANCH   1   2
BRANCH   1  11
ATOM     11  C   UNL     1     -18.574  58.872  -3.693  1.00  0.00     0.000 C 
BRANCH  11  12
ATOM     12  C   UNL     1     -19.125  57.937  -2.599  1.00  0.00    -0.000 C 
BRANCH  12  13
ATOM     13  C   UNL     1     -18.333  57.936  -1.276  1.00  0.00    -0.000 C 
BRANCH  13  14
ATOM     14  C   UNL     1     -17.240  56.856  -1.174  1.00  0.00    -0.000 C 
BRANCH  14  15
ATOM     15  C   UNL     1     -16.208  56.944  -2.307  1.00  0.00    -0.000 C 
BRANCH  15  16
ATOM     16  C   UNL     1     -15.978  55.570  -2.948  1.00  0.00    -0.000 C 
BRANCH  16  17
ATOM     17  C   UNL     1     -17.216  55.112  -3.728  1.00  0.00    -0.003 C 
ATOM     18  C   UNL     1     -17.096  55.463  -5.208  1.00  0.00     0.004 C 
ENDBRANCH  16  17
ENDBRANCH  15  16
ENDBRANCH  14  15
ENDBRANCH  13  14
ENDBRANCH  12  13
ENDBRANCH  11  12
ENDBRANCH   1  11
TORSDOF 14
ENDMDL
MODEL 4
REMARK VINA RESULT:    12.882      0.960      1.822
REMARK INTER + INTRA:          22.916
REMARK INTER:                  24.090
REMARK INTRA:                  -1.174
REMARK UNBOUND:                -0.510
REMARK SMILES CCCCCCCCCCCCCCCC(=O)[O-]
REMARK SMILES IDX 9 1 10 2 11 3 12 4 13 5 14 6 15 7 16 8 17 9 18 10 8 11 7 12
REMARK SMILES IDX 6 13 5 14 4 15 3 16 2 17 1 18
REMARK H PARENT
REMARK Flexibility Score: inf
ROOT
ATOM      1  C   UNL     1     -17.507  61.038  -3.704  1.00  0.00     0.000 C 
ENDROOT
BRANCH   1   2
ATOM      2  C   UNL     1     -18.875  60.437  -3.349  1.00  0.00     0.000 C 
BRANCH   2   3
ATOM      3  C   UNL     1     -18.826  58.905  -3.382  1.00  0.00     0.000 C 
BRANCH   3   4
ATOM      4  C   UNL     1     -18.755  58.326  -1.963  1.00  0.00     0.000 C 
BRANCH   4   5
ATOM      5  C   UNL     1     -18.094  56.943  -1.966  1.00  0.00     0.000 C 
BRANCH   5   6
ATOM      6  C   UNL     1     -16.620  57.037  -2.387  1.00  0.00     0.006 C 
BRANCH   6   7
ATOM      7  C   UNL     1     -16.110  55.733  -3.013  1.00  0.00     0.053 C 
BRANCH   7   8
ATOM      8  C   UNL     1     -17.101  55.153  -3.973  1.00  0.00     0.041 C 
ATOM      9  O   UNL     1     -17.780  54.142  -3.652  1.00  0.00    -0.550 OA
ATOM     10  O   UNL     1     -17.251  55.708  -5.237  1.00  0.00    -0.550 OA
ENDBRANCH   7   8
ENDBRANCH   6   7
ENDBRANCH   5   6
ENDBRANCH   4   5
ENDBRANCH   3   4
ENDBRANCH   2   3
ENDBRANCH   1   2
BRANCH   1  11
ATOM     11  C   UNL     1     -16.350  60.398  -2.917  1.00  0.00     0.000 C 
BRANCH  11  12
ATOM     12  C   UNL     1     -15.000  60.359  -3.660  1.00  0.00    -0.000 C 
BRANCH  12  13
ATOM     13  C   UNL     1     -14.722  59.065  -4.450  1.00  0.00    -0.000 C 
BRANCH  13  14
ATOM     14  C   UNL     1     -13.249  58.619  -4.469  1.00  0.00    -0.000 C 
BRANCH  14  15
ATOM     15  C   UNL     1     -12.833  57.882  -3.187  1.00  0.00    -0.000 C 
BRANCH  15  16
ATOM     16  C   UNL     1     -11.308  57.874  -3.029  1.00  0.00    -0.000 C 
BRANCH  16  17
ATOM     17  C   UNL     1     -10.636  57.166  -4.210  1.00  0.00    -0.003 C 
ATOM     18  C   UNL     1     -10.951  55.672  -4.210  1.00  0.00     0.004 C 
ENDBRANCH  16  17
ENDBRANCH  15  16
ENDBRANCH  14  15
ENDBRANCH  13  14
ENDBRANCH  12  13
ENDBRANCH  11  12
ENDBRANCH   1  11
TORSDOF 14
ENDMDL
MODEL 5
REMARK VINA RESULT:    14.494     10.828     13.776
REMARK INTER + INTRA:          25.846
REMARK INTER:                  26.473
REMARK INTRA:                  -0.627
REMARK UNBOUND:                -0.510
REMARK SMILES CCCCCCCCCCCCCCCC(=O)[O-]
REMARK SMILES IDX 9 1 10 2 11 3 12 4 13 5 14 6 15 7 16 8 17 9 18 10 8 11 7 12
REMARK SMILES IDX 6 13 5 14 4 15 3 16 2 17 1 18
REMARK H PARENT
REMARK Flexibility Score: inf
ROOT
ATOM      1  C   UNL     1      -6.442  50.937  -1.916  1.00  0.00     0.000 C 
ENDROOT
BRANCH   1   2
ATOM      2  C   UNL     1      -5.055  50.330  -2.174  1.00  0.00     0.000 C 
BRANCH   2   3
ATOM      3  C   UNL     1      -4.501  49.669  -0.906  1.00  0.00     0.000 C 
BRANCH   3   4
ATOM      4  C   UNL     1      -3.729  48.387  -1.244  1.00  0.00     0.000 C 
BRANCH   4   5
ATOM      5  C   UNL     1      -4.672  47.298  -1.766  1.00  0.00     0.000 C 
BRANCH   5   6
ATOM      6  C   UNL     1      -5.922  47.182  -0.881  1.00  0.00     0.006 C 
BRANCH   6   7
ATOM      7  C   UNL     1      -6.577  45.798  -0.980  1.00  0.00     0.053 C 
BRANCH   7   8
ATOM      8  C   UNL     1      -5.993  44.986  -2.094  1.00  0.00     0.041 C 
ATOM      9  O   UNL     1      -5.101  44.130  -1.856  1.00  0.00    -0.550 OA
ATOM     10  O   UNL     1      -6.411  45.197  -3.401  1.00  0.00    -0.550 OA
ENDBRANCH   7   8
ENDBRANCH   6   7
ENDBRANCH   5   6
ENDBRANCH   4   5
ENDBRANCH   3   4
ENDBRANCH   2   3
ENDBRANCH   1   2
BRANCH   1  11
ATOM     11  C   UNL     1      -7.170  51.335  -3.212  1.00  0.00     0.000 C 
BRANCH  11  12
ATOM     12  C   UNL     1      -8.691  51.080  -3.208  1.00  0.00    -0.000 C 
BRANCH  12  13
ATOM     13  C   UNL     1      -9.169  49.974  -2.247  1.00  0.00    -0.000 C 
BRANCH  13  14
ATOM     14  C   UNL     1     -10.028  48.875  -2.898  1.00  0.00    -0.000 C 
BRANCH  14  15
ATOM     15  C   UNL     1     -11.513  48.978  -2.520  1.00  0.00    -0.000 C 
BRANCH  15  16
ATOM     16  C   UNL     1     -11.685  49.125  -1.004  1.00  0.00    -0.000 C 
BRANCH  16  17
ATOM     17  C   UNL     1     -13.152  48.946  -0.596  1.00  0.00    -0.003 C 
ATOM     18  C   UNL     1     -13.859  50.294  -0.477  1.00  0.00     0.004 C 
ENDBRANCH  16  17
ENDBRANCH  15  16
ENDBRANCH  14  15
ENDBRANCH  13  14
ENDBRANCH  12  13
ENDBRANCH  11  12
ENDBRANCH   1  11
TORSDOF 14
ENDMDL
MODEL 6
REMARK VINA RESULT:    15.019     12.220     15.449
REMARK INTER + INTRA:          26.801
REMARK INTER:                  27.808
REMARK INTRA:                  -1.007
REMARK UNBOUND:                -0.510
REMARK SMILES CCCCCCCCCCCCCCCC(=O)[O-]
REMARK SMILES IDX 9 1 10 2 11 3 12 4 13 5 14 6 15 7 16 8 17 9 18 10 8 11 7 12
REMARK SMILES IDX 6 13 5 14 4 15 3 16 2 17 1 18
REMARK H PARENT
REMARK Flexibility Score: inf
ROOT
ATOM      1  C   UNL     1      -3.438  48.396  -1.552  1.00  0.00     0.000 C 
ENDROOT
BRANCH   1   2
ATOM      2  C   UNL     1      -4.414  49.444  -0.999  1.00  0.00     0.000 C 
BRANCH   2   3
ATOM      3  C   UNL     1      -5.012  50.289  -2.131  1.00  0.00     0.000 C 
BRANCH   3   4
ATOM      4  C   UNL     1      -6.485  50.615  -1.856  1.00  0.00     0.000 C 
BRANCH   4   5
ATOM      5  C   UNL     1      -7.230  50.936  -3.155  1.00  0.00     0.000 C 
BRANCH   5   6
ATOM      6  C   UNL     1      -8.749  50.963  -2.928  1.00  0.00     0.006 C 
BRANCH   6   7
ATOM      7  C   UNL     1      -9.212  49.861  -1.967  1.00  0.00     0.053 C 
BRANCH   7   8
ATOM      8  C   UNL     1     -10.453  49.182  -2.458  1.00  0.00     0.041 C 
ATOM      9  O   UNL     1     -11.436  49.022  -1.686  1.00  0.00    -0.550 OA
ATOM     10  O   UNL     1     -10.512  48.696  -3.756  1.00  0.00    -0.550 OA
ENDBRANCH   7   8
ENDBRANCH   6   7
ENDBRANCH   5   6
ENDBRANCH   4   5
ENDBRANCH   3   4
ENDBRANCH   2   3
ENDBRANCH   1   2
BRANCH   1  11
ATOM     11  C   UNL     1      -2.116  48.338  -0.768  1.00  0.00     0.000 C 
BRANCH  11  12
ATOM     12  C   UNL     1      -1.806  46.977  -0.113  1.00  0.00    -0.000 C 
BRANCH  12  13
ATOM     13  C   UNL     1      -1.602  45.807  -1.096  1.00  0.00    -0.000 C 
BRANCH  13  14
ATOM     14  C   UNL     1      -2.252  44.478  -0.669  1.00  0.00    -0.000 C 
BRANCH  14  15
ATOM     15  C   UNL     1      -3.153  43.880  -1.760  1.00  0.00    -0.000 C 
BRANCH  15  16
ATOM     16  C   UNL     1      -4.623  43.885  -1.322  1.00  0.00    -0.000 C 
BRANCH  16  17
ATOM     17  C   UNL     1      -5.477  44.733  -2.271  1.00  0.00    -0.003 C 
ATOM     18  C   UNL     1      -6.310  45.753  -1.499  1.00  0.00     0.004 C 
ENDBRANCH  16  17
ENDBRANCH  15  16
ENDBRANCH  14  15
ENDBRANCH  13  14
ENDBRANCH  12  13
ENDBRANCH  11  12
ENDBRANCH   1  11
TORSDOF 14
ENDMDL
MODEL 7
REMARK VINA RESULT:    15.225     10.553     13.348
REMARK INTER + INTRA:          27.176
REMARK INTER:                  27.743
REMARK INTRA:                  -0.567
REMARK UNBOUND:                -0.510
REMARK SMILES CCCCCCCCCCCCCCCC(=O)[O-]
REMARK SMILES IDX 9 1 10 2 11 3 12 4 13 5 14 6 15 7 16 8 17 9 18 10 8 11 7 12
REMARK SMILES IDX 6 13 5 14 4 15 3 16 2 17 1 18
REMARK H PARENT
REMARK Flexibility Score: inf
ROOT
ATOM      1  C   UNL     1      -6.304  50.336  -1.806  1.00  0.00     0.000 C 
ENDROOT
BRANCH   1   2
ATOM      2  C   UNL     1      -6.848  50.964  -3.096  1.00  0.00     0.000 C 
BRANCH   2   3
ATOM      3  C   UNL     1      -8.366  51.164  -3.011  1.00  0.00     0.000 C 
BRANCH   3   4
ATOM      4  C   UNL     1      -9.018  50.074  -2.151  1.00  0.00     0.000 C 
BRANCH   4   5
ATOM      5  C   UNL     1      -9.790  49.075  -3.021  1.00  0.00     0.000 C 
BRANCH   5   6
ATOM      6  C   UNL     1     -11.276  49.043  -2.636  1.00  0.00     0.006 C 
BRANCH   6   7
ATOM      7  C   UNL     1     -11.496  49.326  -1.144  1.00  0.00     0.053 C 
BRANCH   7   8
ATOM      8  C   UNL     1     -12.919  49.097  -0.739  1.00  0.00     0.041 C 
ATOM      9  O   UNL     1     -13.368  47.925  -0.635  1.00  0.00    -0.550 OA
ATOM     10  O   UNL     1     -13.760  50.178  -0.510  1.00  0.00    -0.550 OA
ENDBRANCH   7   8
ENDBRANCH   6   7
ENDBRANCH   5   6
ENDBRANCH   4   5
ENDBRANCH   3   4
ENDBRANCH   2   3
ENDBRANCH   1   2
BRANCH   1  11
ATOM     11  C   UNL     1      -4.792  50.560  -1.623  1.00  0.00     0.000 C 
BRANCH  11  12
ATOM     12  C   UNL     1      -3.909  49.337  -1.944  1.00  0.00    -0.000 C 
BRANCH  12  13
ATOM     13  C   UNL     1      -4.058  48.147  -0.976  1.00  0.00    -0.000 C 
BRANCH  13  14
ATOM     14  C   UNL     1      -4.821  46.937  -1.545  1.00  0.00    -0.000 C 
BRANCH  14  15
ATOM     15  C   UNL     1      -6.177  46.711  -0.861  1.00  0.00    -0.000 C 
BRANCH  15  16
ATOM     16  C   UNL     1      -6.810  45.393  -1.319  1.00  0.00    -0.000 C 
BRANCH  16  17
ATOM     17  C   UNL     1      -6.011  44.768  -2.468  1.00  0.00    -0.003 C 
ATOM     18  C   UNL     1      -4.891  43.875  -1.939  1.00  0.00     0.004 C 
ENDBRANCH  16  17
ENDBRANCH  15  16
ENDBRANCH  14  15
ENDBRANCH  13  14
ENDBRANCH  12  13
ENDBRANCH  11  12
ENDBRANCH   1  11
TORSDOF 14
ENDMDL
