MODEL 1
REMARK VINA RESULT:    -4.158      0.000      0.000
REMARK INTER + INTRA:          -9.424
REMARK INTER:                  -7.319
REMARK INTRA:                  -2.105
REMARK UNBOUND:                -2.105
REMARK SMILES CCCCCCCCCCCCCCC(=O)[O-]
REMARK SMILES IDX 9 1 10 2 11 3 12 4 13 5 14 6 15 7 16 8 17 9 8 10 7 11 6 12
REMARK SMILES IDX 5 13 4 14 3 15 2 16 1 17
REMARK H PARENT
REMARK Flexibility Score: inf
ROOT
ATOM      1  C   UNL     1      19.234  31.928  43.876  1.00  0.00     0.000 C 
ENDROOT
BRANCH   1   2
ATOM      2  C   UNL     1      18.773  30.475  44.091  1.00  0.00     0.000 C 
BRANCH   2   3
ATOM      3  C   UNL     1      18.669  30.032  45.562  1.00  0.00     0.000 C 
BRANCH   3   4
ATOM      4  C   UNL     1      18.159  31.145  46.490  1.00  0.00     0.000 C 
BRANCH   4   5
ATOM      5  C   UNL     1      18.900  31.122  47.835  1.00  0.00     0.006 C 
BRANCH   5   6
ATOM      6  C   UNL     1      20.399  30.845  47.669  1.00  0.00     0.053 C 
BRANCH   6   7
ATOM      7  C   UNL     1      21.083  30.670  48.991  1.00  0.00     0.041 C 
ATOM      8  O   UNL     1      22.289  30.311  49.037  1.00  0.00    -0.550 OA
ATOM      9  O   UNL     1      20.398  30.936  50.170  1.00  0.00    -0.550 OA
ENDBRANCH   6   7
ENDBRANCH   5   6
ENDBRANCH   4   5
ENDBRANCH   3   4
ENDBRANCH   2   3
ENDBRANCH   1   2
BRANCH   1  10
ATOM     10  C   UNL     1      20.764  32.085  43.916  1.00  0.00     0.000 C 
BRANCH  10  11
ATOM     11  C   UNL     1      21.204  33.402  44.578  1.00  0.00    -0.000 C 
BRANCH  11  12
ATOM     12  C   UNL     1      20.141  34.509  44.461  1.00  0.00    -0.000 C 
BRANCH  12  13
ATOM     13  C   UNL     1      19.644  34.999  45.831  1.00  0.00    -0.000 C 
BRANCH  13  14
ATOM     14  C   UNL     1      20.459  34.417  46.996  1.00  0.00    -0.000 C 
BRANCH  14  15
ATOM     15  C   UNL     1      19.900  34.890  48.346  1.00  0.00    -0.000 C 
BRANCH  15  16
ATOM     16  C   UNL     1      20.750  34.418  49.536  1.00  0.00    -0.003 C 
ATOM     17  C   UNL     1      22.227  34.246  49.176  1.00  0.00     0.004 C 
ENDBRANCH  15  16
ENDBRANCH  14  15
ENDBRANCH  13  14
ENDBRANCH  12  13
ENDBRANCH  11  12
ENDBRANCH  10  11
ENDBRANCH   1  10
TORSDOF 13
ENDMDL
MODEL 2
REMARK VINA RESULT:    -4.118      1.340      2.513
REMARK INTER + INTRA:          -9.353
REMARK INTER:                  -7.407
REMARK INTRA:                  -1.946
REMARK UNBOUND:                -2.105
REMARK SMILES CCCCCCCCCCCCCCC(=O)[O-]
REMARK SMILES IDX 9 1 10 2 11 3 12 4 13 5 14 6 15 7 16 8 17 9 8 10 7 11 6 12
REMARK SMILES IDX 5 13 4 14 3 15 2 16 1 17
REMARK H PARENT
REMARK Flexibility Score: inf
ROOT
ATOM      1  C   UNL     1      21.024  33.158  44.581  1.00  0.00     0.000 C 
ENDROOT
BRANCH   1   2
ATOM      2  C   UNL     1      20.485  31.878  43.915  1.00  0.00     0.000 C 
BRANCH   2   3
ATOM      3  C   UNL     1      18.994  31.585  44.171  1.00  0.00     0.000 C 
BRANCH   3   4
ATOM      4  C   UNL     1      18.626  30.110  43.950  1.00  0.00     0.000 C 
BRANCH   4   5
ATOM      5  C   UNL     1      18.199  29.447  45.268  1.00  0.00     0.006 C 
BRANCH   5   6
ATOM      6  C   UNL     1      18.106  30.454  46.422  1.00  0.00     0.053 C 
BRANCH   6   7
ATOM      7  C   UNL     1      18.899  30.008  47.614  1.00  0.00     0.041 C 
ATOM      8  O   UNL     1      19.863  29.210  47.471  1.00  0.00    -0.550 OA
ATOM      9  O   UNL     1      18.595  30.502  48.877  1.00  0.00    -0.550 OA
ENDBRANCH   6   7
ENDBRANCH   5   6
ENDBRANCH   4   5
ENDBRANCH   3   4
ENDBRANCH   2   3
ENDBRANCH   1   2
BRANCH   1  10
ATOM     10  C   UNL     1      20.123  34.382  44.345  1.00  0.00     0.000 C 
BRANCH  10  11
ATOM     11  C   UNL     1      19.794  35.131  45.647  1.00  0.00    -0.000 C 
BRANCH  11  12
ATOM     12  C   UNL     1      18.783  34.375  46.528  1.00  0.00    -0.000 C 
BRANCH  12  13
ATOM     13  C   UNL     1      19.382  33.943  47.876  1.00  0.00    -0.000 C 
BRANCH  13  14
ATOM     14  C   UNL     1      20.632  34.752  48.254  1.00  0.00    -0.000 C 
BRANCH  14  15
ATOM     15  C   UNL     1      21.865  33.843  48.353  1.00  0.00    -0.000 C 
BRANCH  15  16
ATOM     16  C   UNL     1      21.504  32.350  48.286  1.00  0.00    -0.003 C 
ATOM     17  C   UNL     1      22.653  31.486  47.765  1.00  0.00     0.004 C 
ENDBRANCH  15  16
ENDBRANCH  14  15
ENDBRANCH  13  14
ENDBRANCH  12  13
ENDBRANCH  11  12
ENDBRANCH  10  11
ENDBRANCH   1  10
TORSDOF 13
ENDMDL
MODEL 3
REMARK VINA RESULT:    -4.072      1.432      1.883
REMARK INTER + INTRA:          -9.272
REMARK INTER:                  -7.193
REMARK INTRA:                  -2.079
REMARK UNBOUND:                -2.105
REMARK SMILES CCCCCCCCCCCCCCC(=O)[O-]
REMARK SMILES IDX 9 1 10 2 11 3 12 4 13 5 14 6 15 7 16 8 17 9 8 10 7 11 6 12
REMARK SMILES IDX 5 13 4 14 3 15 2 16 1 17
REMARK H PARENT
REMARK Flexibility Score: inf
ROOT
ATOM      1  C   UNL     1      20.109  31.977  44.437  1.00  0.00     0.000 C 
ENDROOT
BRANCH   1   2
ATOM      2  C   UNL     1      19.068  30.904  44.070  1.00  0.00     0.000 C 
BRANCH   2   3
ATOM      3  C   UNL     1      18.550  30.063  45.252  1.00  0.00     0.000 C 
BRANCH   3   4
ATOM      4  C   UNL     1      18.130  30.917  46.458  1.00  0.00     0.000 C 
BRANCH   4   5
ATOM      5  C   UNL     1      18.458  30.203  47.778  1.00  0.00     0.006 C 
BRANCH   5   6
ATOM      6  C   UNL     1      19.821  29.502  47.736  1.00  0.00     0.053 C 
BRANCH   6   7
ATOM      7  C   UNL     1      20.211  28.962  49.079  1.00  0.00     0.041 C 
ATOM      8  O   UNL     1      19.348  28.414  49.816  1.00  0.00    -0.550 OA
ATOM      9  O   UNL     1      21.532  29.032  49.502  1.00  0.00    -0.550 OA
ENDBRANCH   6   7
ENDBRANCH   5   6
ENDBRANCH   4   5
ENDBRANCH   3   4
ENDBRANCH   2   3
ENDBRANCH   1   2
BRANCH   1  10
ATOM     10  C   UNL     1      19.654  33.402  44.077  1.00  0.00     0.000 C 
BRANCH  10  11
ATOM     11  C   UNL     1      20.340  34.475  44.939  1.00  0.00    -0.000 C 
BRANCH  11  12
ATOM     12  C   UNL     1      19.362  35.182  45.896  1.00  0.00    -0.000 C 
BRANCH  12  13
ATOM     13  C   UNL     1      19.032  34.333  47.134  1.00  0.00    -0.000 C 
BRANCH  13  14
ATOM     14  C   UNL     1      20.110  34.434  48.224  1.00  0.00    -0.000 C 
BRANCH  14  15
ATOM     15  C   UNL     1      20.843  33.095  48.395  1.00  0.00    -0.000 C 
BRANCH  15  16
ATOM     16  C   UNL     1      22.268  33.124  47.820  1.00  0.00    -0.003 C 
ATOM     17  C   UNL     1      22.631  31.840  47.073  1.00  0.00     0.004 C 
ENDBRANCH  15  16
ENDBRANCH  14  15
ENDBRANCH  13  14
ENDBRANCH  12  13
ENDBRANCH  11  12
ENDBRANCH  10  11
ENDBRANCH   1  10
TORSDOF 13
ENDMDL
MODEL 4
REMARK VINA RESULT:    -4.004      1.275      3.987
REMARK INTER + INTRA:          -9.152
REMARK INTER:                  -7.234
REMARK INTRA:                  -1.918
REMARK UNBOUND:                -2.105
REMARK SMILES CCCCCCCCCCCCCCC(=O)[O-]
REMARK SMILES IDX 9 1 10 2 11 3 12 4 13 5 14 6 15 7 16 8 17 9 8 10 7 11 6 12
REMARK SMILES IDX 5 13 4 14 3 15 2 16 1 17
REMARK H PARENT
REMARK Flexibility Score: inf
ROOT
ATOM      1  C   UNL     1      20.785  32.140  43.875  1.00  0.00     0.000 C 
ENDROOT
BRANCH   1   2
ATOM      2  C   UNL     1      21.275  33.376  44.652  1.00  0.00     0.000 C 
BRANCH   2   3
ATOM      3  C   UNL     1      20.443  34.655  44.441  1.00  0.00     0.000 C 
BRANCH   3   4
ATOM      4  C   UNL     1      19.715  35.114  45.713  1.00  0.00     0.000 C 
BRANCH   4   5
ATOM      5  C   UNL     1      20.221  34.346  46.944  1.00  0.00     0.006 C 
BRANCH   5   6
ATOM      6  C   UNL     1      19.766  34.992  48.259  1.00  0.00     0.053 C 
BRANCH   6   7
ATOM      7  C   UNL     1      20.436  34.369  49.446  1.00  0.00     0.041 C 
ATOM      8  O   UNL     1      21.472  34.892  49.935  1.00  0.00    -0.550 OA
ATOM      9  O   UNL     1      19.896  33.231  50.033  1.00  0.00    -0.550 OA
ENDBRANCH   6   7
ENDBRANCH   5   6
ENDBRANCH   4   5
ENDBRANCH   3   4
ENDBRANCH   2   3
ENDBRANCH   1   2
BRANCH   1  10
ATOM     10  C   UNL     1      19.269  31.909  44.009  1.00  0.00     0.000 C 
BRANCH  10  11
ATOM     11  C   UNL     1      18.895  30.418  43.969  1.00  0.00    -0.000 C 
BRANCH  11  12
ATOM     12  C   UNL     1      18.600  29.842  45.366  1.00  0.00    -0.000 C 
BRANCH  12  13
ATOM     13  C   UNL     1      18.062  30.903  46.340  1.00  0.00    -0.000 C 
BRANCH  13  14
ATOM     14  C   UNL     1      18.905  31.011  47.620  1.00  0.00    -0.000 C 
BRANCH  14  15
ATOM     15  C   UNL     1      19.728  29.734  47.844  1.00  0.00    -0.000 C 
BRANCH  15  16
ATOM     16  C   UNL     1      21.131  30.025  48.400  1.00  0.00    -0.003 C 
ATOM     17  C   UNL     1      21.813  31.200  47.698  1.00  0.00     0.004 C 
ENDBRANCH  15  16
ENDBRANCH  14  15
ENDBRANCH  13  14
ENDBRANCH  12  13
ENDBRANCH  11  12
ENDBRANCH  10  11
ENDBRANCH   1  10
TORSDOF 13
ENDMDL
MODEL 5
REMARK VINA RESULT:    -3.986      1.343      2.027
REMARK INTER + INTRA:          -9.120
REMARK INTER:                  -6.822
REMARK INTRA:                  -2.298
REMARK UNBOUND:                -2.105
REMARK SMILES CCCCCCCCCCCCCCC(=O)[O-]
REMARK SMILES IDX 9 1 10 2 11 3 12 4 13 5 14 6 15 7 16 8 17 9 8 10 7 11 6 12
REMARK SMILES IDX 5 13 4 14 3 15 2 16 1 17
REMARK H PARENT
REMARK Flexibility Score: inf
ROOT
ATOM      1  C   UNL     1      19.254  31.246  43.875  1.00  0.00     0.000 C 
ENDROOT
BRANCH   1   2
ATOM      2  C   UNL     1      18.586  30.556  45.079  1.00  0.00     0.000 C 
BRANCH   2   3
ATOM      3  C   UNL     1      18.264  31.481  46.268  1.00  0.00     0.000 C 
BRANCH   3   4
ATOM      4  C   UNL     1      18.740  30.916  47.614  1.00  0.00     0.000 C 
BRANCH   4   5
ATOM      5  C   UNL     1      19.769  29.794  47.407  1.00  0.00     0.006 C 
BRANCH   5   6
ATOM      6  C   UNL     1      20.686  29.615  48.623  1.00  0.00     0.053 C 
BRANCH   6   7
ATOM      7  C   UNL     1      19.911  29.283  49.861  1.00  0.00     0.041 C 
ATOM      8  O   UNL     1      19.463  28.118  50.034  1.00  0.00    -0.550 OA
ATOM      9  O   UNL     1      19.712  30.249  50.840  1.00  0.00    -0.550 OA
ENDBRANCH   6   7
ENDBRANCH   5   6
ENDBRANCH   4   5
ENDBRANCH   3   4
ENDBRANCH   2   3
ENDBRANCH   1   2
BRANCH   1  10
ATOM     10  C   UNL     1      19.122  32.778  43.913  1.00  0.00     0.000 C 
BRANCH  10  11
ATOM     11  C   UNL     1      20.474  33.481  44.121  1.00  0.00    -0.000 C 
BRANCH  11  12
ATOM     12  C   UNL     1      21.637  32.488  44.302  1.00  0.00    -0.000 C 
BRANCH  12  13
ATOM     13  C   UNL     1      22.097  32.379  45.765  1.00  0.00    -0.000 C 
BRANCH  13  14
ATOM     14  C   UNL     1      21.440  33.432  46.671  1.00  0.00    -0.000 C 
BRANCH  14  15
ATOM     15  C   UNL     1      21.740  33.147  48.149  1.00  0.00    -0.000 C 
BRANCH  15  16
ATOM     16  C   UNL     1      20.695  33.762  49.093  1.00  0.00    -0.003 C 
ATOM     17  C   UNL     1      19.706  34.675  48.366  1.00  0.00     0.004 C 
ENDBRANCH  15  16
ENDBRANCH  14  15
ENDBRANCH  13  14
ENDBRANCH  12  13
ENDBRANCH  11  12
ENDBRANCH  10  11
ENDBRANCH   1  10
TORSDOF 13
ENDMDL
MODEL 6
REMARK VINA RESULT:    -3.917      1.485      2.100
REMARK INTER + INTRA:          -8.999
REMARK INTER:                  -7.139
REMARK INTRA:                  -1.860
REMARK UNBOUND:                -2.105
REMARK SMILES CCCCCCCCCCCCCCC(=O)[O-]
REMARK SMILES IDX 9 1 10 2 11 3 12 4 13 5 14 6 15 7 16 8 17 9 8 10 7 11 6 12
REMARK SMILES IDX 5 13 4 14 3 15 2 16 1 17
REMARK H PARENT
REMARK Flexibility Score: inf
ROOT
ATOM      1  C   UNL     1      21.085  32.213  44.533  1.00  0.00     0.000 C 
ENDROOT
BRANCH   1   2
ATOM      2  C   UNL     1      19.711  31.992  43.875  1.00  0.00     0.000 C 
BRANCH   2   3
ATOM      3  C   UNL     1      18.921  30.778  44.400  1.00  0.00     0.000 C 
BRANCH   3   4
ATOM      4  C   UNL     1      18.366  30.989  45.816  1.00  0.00     0.000 C 
BRANCH   4   5
ATOM      5  C   UNL     1      18.775  29.836  46.745  1.00  0.00     0.006 C 
BRANCH   5   6
ATOM      6  C   UNL     1      20.122  30.093  47.433  1.00  0.00     0.053 C 
BRANCH   6   7
ATOM      7  C   UNL     1      20.396  29.091  48.513  1.00  0.00     0.041 C 
ATOM      8  O   UNL     1      21.532  28.556  48.607  1.00  0.00    -0.550 OA
ATOM      9  O   UNL     1      19.407  28.774  49.437  1.00  0.00    -0.550 OA
ENDBRANCH   6   7
ENDBRANCH   5   6
ENDBRANCH   4   5
ENDBRANCH   3   4
ENDBRANCH   2   3
ENDBRANCH   1   2
BRANCH   1  10
ATOM     10  C   UNL     1      21.376  33.694  44.833  1.00  0.00     0.000 C 
BRANCH  10  11
ATOM     11  C   UNL     1      20.094  34.539  44.924  1.00  0.00    -0.000 C 
BRANCH  11  12
ATOM     12  C   UNL     1      19.534  34.616  46.356  1.00  0.00    -0.000 C 
BRANCH  12  13
ATOM     13  C   UNL     1      20.543  34.135  47.411  1.00  0.00    -0.000 C 
BRANCH  13  14
ATOM     14  C   UNL     1      19.916  33.992  48.806  1.00  0.00    -0.000 C 
BRANCH  14  15
ATOM     15  C   UNL     1      18.629  33.156  48.745  1.00  0.00    -0.000 C 
BRANCH  15  16
ATOM     16  C   UNL     1      18.487  32.204  49.943  1.00  0.00    -0.003 C 
ATOM     17  C   UNL     1      19.237  32.695  51.182  1.00  0.00     0.004 C 
ENDBRANCH  15  16
ENDBRANCH  14  15
ENDBRANCH  13  14
ENDBRANCH  12  13
ENDBRANCH  11  12
ENDBRANCH  10  11
ENDBRANCH   1  10
TORSDOF 13
ENDMDL
MODEL 7
REMARK VINA RESULT:    -3.898      1.375      2.525
REMARK INTER + INTRA:          -8.965
REMARK INTER:                  -6.967
REMARK INTRA:                  -1.998
REMARK UNBOUND:                -2.105
REMARK SMILES CCCCCCCCCCCCCCC(=O)[O-]
REMARK SMILES IDX 9 1 10 2 11 3 12 4 13 5 14 6 15 7 16 8 17 9 8 10 7 11 6 12
REMARK SMILES IDX 5 13 4 14 3 15 2 16 1 17
REMARK H PARENT
REMARK Flexibility Score: inf
ROOT
ATOM      1  C   UNL     1      18.637  29.512  45.392  1.00  0.00     0.000 C 
ENDROOT
BRANCH   1   2
ATOM      2  C   UNL     1      17.880  30.329  46.456  1.00  0.00     0.000 C 
BRANCH   2   3
ATOM      3  C   UNL     1      18.587  30.444  47.819  1.00  0.00     0.000 C 
BRANCH   3   4
ATOM      4  C   UNL     1      20.118  30.409  47.706  1.00  0.00     0.000 C 
BRANCH   4   5
ATOM      5  C   UNL     1      20.778  30.770  49.046  1.00  0.00     0.006 C 
BRANCH   5   6
ATOM      6  C   UNL     1      19.831  30.559  50.234  1.00  0.00     0.053 C 
BRANCH   6   7
ATOM      7  C   UNL     1      19.625  31.823  51.012  1.00  0.00     0.041 C 
ATOM      8  O   UNL     1      20.598  32.376  51.592  1.00  0.00    -0.550 OA
ATOM      9  O   UNL     1      18.367  32.410  51.069  1.00  0.00    -0.550 OA
ENDBRANCH   6   7
ENDBRANCH   5   6
ENDBRANCH   4   5
ENDBRANCH   3   4
ENDBRANCH   2   3
ENDBRANCH   1   2
BRANCH   1  10
ATOM     10  C   UNL     1      18.844  30.284  44.078  1.00  0.00     0.000 C 
BRANCH  10  11
ATOM     11  C   UNL     1      18.614  31.796  44.240  1.00  0.00    -0.000 C 
BRANCH  11  12
ATOM     12  C   UNL     1      19.867  32.626  43.909  1.00  0.00    -0.000 C 
BRANCH  12  13
ATOM     13  C   UNL     1      20.712  32.944  45.153  1.00  0.00    -0.000 C 
BRANCH  13  14
ATOM     14  C   UNL     1      20.438  34.350  45.709  1.00  0.00    -0.000 C 
BRANCH  14  15
ATOM     15  C   UNL     1      19.076  34.405  46.415  1.00  0.00    -0.000 C 
BRANCH  15  16
ATOM     16  C   UNL     1      19.167  34.030  47.903  1.00  0.00    -0.003 C 
ATOM     17  C   UNL     1      20.317  34.736  48.622  1.00  0.00     0.004 C 
ENDBRANCH  15  16
ENDBRANCH  14  15
ENDBRANCH  13  14
ENDBRANCH  12  13
ENDBRANCH  11  12
ENDBRANCH  10  11
ENDBRANCH   1  10
TORSDOF 13
ENDMDL
MODEL 8
REMARK VINA RESULT:    -3.862      1.813      4.125
REMARK INTER + INTRA:          -8.902
REMARK INTER:                  -7.033
REMARK INTRA:                  -1.869
REMARK UNBOUND:                -2.105
REMARK SMILES CCCCCCCCCCCCCCC(=O)[O-]
REMARK SMILES IDX 9 1 10 2 11 3 12 4 13 5 14 6 15 7 16 8 17 9 8 10 7 11 6 12
REMARK SMILES IDX 5 13 4 14 3 15 2 16 1 17
REMARK H PARENT
REMARK Flexibility Score: inf
ROOT
ATOM      1  C   UNL     1      21.218  33.616  44.680  1.00  0.00     0.000 C 
ENDROOT
BRANCH   1   2
ATOM      2  C   UNL     1      20.033  34.596  44.772  1.00  0.00     0.000 C 
BRANCH   2   3
ATOM      3  C   UNL     1      19.622  34.994  46.202  1.00  0.00     0.000 C 
BRANCH   3   4
ATOM      4  C   UNL     1      20.431  34.264  47.284  1.00  0.00     0.000 C 
BRANCH   4   5
ATOM      5  C   UNL     1      20.135  34.843  48.676  1.00  0.00     0.006 C 
BRANCH   5   6
ATOM      6  C   UNL     1      21.326  34.697  49.632  1.00  0.00     0.053 C 
BRANCH   6   7
ATOM      7  C   UNL     1      20.956  35.050  51.041  1.00  0.00     0.041 C 
ATOM      8  O   UNL     1      20.206  34.290  51.708  1.00  0.00    -0.550 OA
ATOM      9  O   UNL     1      21.467  36.202  51.627  1.00  0.00    -0.550 OA
ENDBRANCH   6   7
ENDBRANCH   5   6
ENDBRANCH   4   5
ENDBRANCH   3   4
ENDBRANCH   2   3
ENDBRANCH   1   2
BRANCH   1  10
ATOM     10  C   UNL     1      20.828  32.261  44.064  1.00  0.00     0.000 C 
BRANCH  10  11
ATOM     11  C   UNL     1      19.307  32.100  43.906  1.00  0.00    -0.000 C 
BRANCH  11  12
ATOM     12  C   UNL     1      18.817  30.690  44.280  1.00  0.00    -0.000 C 
BRANCH  12  13
ATOM     13  C   UNL     1      18.643  30.508  45.796  1.00  0.00    -0.000 C 
BRANCH  13  14
ATOM     14  C   UNL     1      17.949  31.707  46.459  1.00  0.00    -0.000 C 
BRANCH  14  15
ATOM     15  C   UNL     1      17.880  31.527  47.983  1.00  0.00    -0.000 C 
BRANCH  15  16
ATOM     16  C   UNL     1      19.227  31.099  48.588  1.00  0.00    -0.003 C 
ATOM     17  C   UNL     1      19.343  31.441  50.074  1.00  0.00     0.004 C 
ENDBRANCH  15  16
ENDBRANCH  14  15
ENDBRANCH  13  14
ENDBRANCH  12  13
ENDBRANCH  11  12
ENDBRANCH  10  11
ENDBRANCH   1  10
TORSDOF 13
ENDMDL
MODEL 9
REMARK VINA RESULT:    -3.823      1.413      2.854
REMARK INTER + INTRA:          -8.834
REMARK INTER:                  -6.962
REMARK INTRA:                  -1.872
REMARK UNBOUND:                -2.105
REMARK SMILES CCCCCCCCCCCCCCC(=O)[O-]
REMARK SMILES IDX 9 1 10 2 11 3 12 4 13 5 14 6 15 7 16 8 17 9 8 10 7 11 6 12
REMARK SMILES IDX 5 13 4 14 3 15 2 16 1 17
REMARK H PARENT
REMARK Flexibility Score: inf
ROOT
ATOM      1  C   UNL     1      19.057  29.907  46.359  1.00  0.00     0.000 C 
ENDROOT
BRANCH   1   2
ATOM      2  C   UNL     1      17.875  30.384  47.223  1.00  0.00     0.000 C 
BRANCH   2   3
ATOM      3  C   UNL     1      18.019  31.803  47.804  1.00  0.00     0.000 C 
BRANCH   3   4
ATOM      4  C   UNL     1      17.922  31.836  49.337  1.00  0.00     0.000 C 
BRANCH   4   5
ATOM      5  C   UNL     1      18.873  30.810  49.971  1.00  0.00     0.006 C 
BRANCH   5   6
ATOM      6  C   UNL     1      20.348  31.169  49.747  1.00  0.00     0.053 C 
BRANCH   6   7
ATOM      7  C   UNL     1      21.260  30.053  50.157  1.00  0.00     0.041 C 
ATOM      8  O   UNL     1      22.468  30.289  50.424  1.00  0.00    -0.550 OA
ATOM      9  O   UNL     1      20.768  28.759  50.277  1.00  0.00    -0.550 OA
ENDBRANCH   6   7
ENDBRANCH   5   6
ENDBRANCH   4   5
ENDBRANCH   3   4
ENDBRANCH   2   3
ENDBRANCH   1   2
BRANCH   1  10
ATOM     10  C   UNL     1      18.614  29.308  45.013  1.00  0.00     0.000 C 
BRANCH  10  11
ATOM     11  C   UNL     1      18.598  30.350  43.882  1.00  0.00    -0.000 C 
BRANCH  11  12
ATOM     12  C   UNL     1      19.732  31.382  44.009  1.00  0.00    -0.000 C 
BRANCH  12  13
ATOM     13  C   UNL     1      19.222  32.831  43.950  1.00  0.00    -0.000 C 
BRANCH  13  14
ATOM     14  C   UNL     1      20.062  33.789  44.809  1.00  0.00    -0.000 C 
BRANCH  14  15
ATOM     15  C   UNL     1      21.294  33.074  45.381  1.00  0.00    -0.000 C 
BRANCH  15  16
ATOM     16  C   UNL     1      21.416  33.234  46.904  1.00  0.00    -0.003 C 
ATOM     17  C   UNL     1      20.538  34.361  47.453  1.00  0.00     0.004 C 
ENDBRANCH  15  16
ENDBRANCH  14  15
ENDBRANCH  13  14
ENDBRANCH  12  13
ENDBRANCH  11  12
ENDBRANCH  10  11
ENDBRANCH   1  10
TORSDOF 13
ENDMDL
