MODEL 1
REMARK VINA RESULT:    -4.898      0.000      0.000
REMARK INTER + INTRA:          -8.313
REMARK INTER:                  -7.475
REMARK INTRA:                  -0.838
REMARK UNBOUND:                -0.838
REMARK SMILES O=C([O-])CCCCCCCCC(=O)[O-]
REMARK SMILES IDX 7 1 6 2 5 3 4 4 2 5 1 6 3 7 8 8 9 9 10 10 11 11 12 12 13 13
REMARK SMILES IDX 14 14
REMARK H PARENT
REMARK Flexibility Score: inf
ROOT
ATOM      1  C   UNL     1      41.319  54.269  59.980  1.00  0.00     0.000 C 
ENDROOT
BRANCH   1   2
ATOM      2  C   UNL     1      42.600  54.815  60.632  1.00  0.00     0.000 C 
BRANCH   2   3
ATOM      3  C   UNL     1      43.020  56.177  60.060  1.00  0.00     0.006 C 
BRANCH   3   4
ATOM      4  C   UNL     1      42.189  56.532  58.823  1.00  0.00     0.053 C 
BRANCH   4   5
ATOM      5  C   UNL     1      41.781  57.971  58.860  1.00  0.00     0.041 C 
ATOM      6  O   UNL     1      40.874  58.392  58.096  1.00  0.00    -0.550 OA
ATOM      7  O   UNL     1      42.369  58.837  59.773  1.00  0.00    -0.550 OA
ENDBRANCH   4   5
ENDBRANCH   3   4
ENDBRANCH   2   3
ENDBRANCH   1   2
BRANCH   1   8
ATOM      8  C   UNL     1      40.225  53.933  61.009  1.00  0.00     0.000 C 
BRANCH   8   9
ATOM      9  C   UNL     1      38.869  54.575  60.647  1.00  0.00     0.000 C 
BRANCH   9  10
ATOM     10  C   UNL     1      38.904  56.111  60.619  1.00  0.00     0.006 C 
BRANCH  10  11
ATOM     11  C   UNL     1      38.078  56.708  59.473  1.00  0.00     0.053 C 
BRANCH  11  12
ATOM     12  C   UNL     1      36.641  56.313  59.605  1.00  0.00     0.041 C 
ATOM     13  O   UNL     1      35.914  56.849  60.482  1.00  0.00    -0.550 OA
ATOM     14  O   UNL     1      36.115  55.319  58.790  1.00  0.00    -0.550 OA
ENDBRANCH  11  12
ENDBRANCH  10  11
ENDBRANCH   9  10
ENDBRANCH   8   9
ENDBRANCH   1   8
TORSDOF 9
ENDMDL
MODEL 2
REMARK VINA RESULT:    -4.875      1.571      5.773
REMARK INTER + INTRA:          -8.278
REMARK INTER:                  -7.677
REMARK INTRA:                  -0.601
REMARK UNBOUND:                -0.838
REMARK SMILES O=C([O-])CCCCCCCCC(=O)[O-]
REMARK SMILES IDX 7 1 6 2 5 3 4 4 2 5 1 6 3 7 8 8 9 9 10 10 11 11 12 12 13 13
REMARK SMILES IDX 14 14
REMARK H PARENT
REMARK Flexibility Score: inf
ROOT
ATOM      1  C   UNL     1      39.637  56.268  60.500  1.00  0.00     0.000 C 
ENDROOT
BRANCH   1   2
ATOM      2  C   UNL     1      38.459  56.728  59.626  1.00  0.00     0.000 C 
BRANCH   2   3
ATOM      3  C   UNL     1      37.104  56.228  60.149  1.00  0.00     0.006 C 
BRANCH   3   4
ATOM      4  C   UNL     1      36.263  55.639  59.013  1.00  0.00     0.053 C 
BRANCH   4   5
ATOM      5  C   UNL     1      36.083  54.166  59.203  1.00  0.00     0.041 C 
ATOM      6  O   UNL     1      35.227  53.540  58.525  1.00  0.00    -0.550 OA
ATOM      7  O   UNL     1      36.896  53.475  60.093  1.00  0.00    -0.550 OA
ENDBRANCH   4   5
ENDBRANCH   3   4
ENDBRANCH   2   3
ENDBRANCH   1   2
BRANCH   1   8
ATOM      8  C   UNL     1      40.018  54.797  60.259  1.00  0.00     0.000 C 
BRANCH   8   9
ATOM      9  C   UNL     1      41.506  54.522  60.566  1.00  0.00     0.000 C 
BRANCH   9  10
ATOM     10  C   UNL     1      42.445  54.852  59.395  1.00  0.00     0.006 C 
BRANCH  10  11
ATOM     11  C   UNL     1      43.339  56.067  59.669  1.00  0.00     0.053 C 
BRANCH  11  12
ATOM     12  C   UNL     1      43.128  57.117  58.624  1.00  0.00     0.041 C 
ATOM     13  O   UNL     1      44.039  57.947  58.367  1.00  0.00    -0.550 OA
ATOM     14  O   UNL     1      41.908  57.210  57.968  1.00  0.00    -0.550 OA
ENDBRANCH  11  12
ENDBRANCH  10  11
ENDBRANCH   9  10
ENDBRANCH   8   9
ENDBRANCH   1   8
TORSDOF 9
ENDMDL
MODEL 3
REMARK VINA RESULT:    -4.816      2.349      6.454
REMARK INTER + INTRA:          -8.188
REMARK INTER:                  -7.824
REMARK INTRA:                  -0.363
REMARK UNBOUND:                -0.838
REMARK SMILES O=C([O-])CCCCCCCCC(=O)[O-]
REMARK SMILES IDX 7 1 6 2 5 3 4 4 2 5 1 6 3 7 8 8 9 9 10 10 11 11 12 12 13 13
REMARK SMILES IDX 14 14
REMARK H PARENT
REMARK Flexibility Score: inf
ROOT
ATOM      1  C   UNL     1      38.264  54.296  60.264  1.00  0.00     0.000 C 
ENDROOT
BRANCH   1   2
ATOM      2  C   UNL     1      37.121  55.238  59.852  1.00  0.00     0.000 C 
BRANCH   2   3
ATOM      3  C   UNL     1      36.020  54.522  59.057  1.00  0.00     0.006 C 
BRANCH   3   4
ATOM      4  C   UNL     1      36.205  53.002  59.113  1.00  0.00     0.053 C 
BRANCH   4   5
ATOM      5  C   UNL     1      35.235  52.322  58.200  1.00  0.00     0.041 C 
ATOM      6  O   UNL     1      34.152  52.886  57.892  1.00  0.00    -0.550 OA
ATOM      7  O   UNL     1      35.548  51.086  57.649  1.00  0.00    -0.550 OA
ENDBRANCH   4   5
ENDBRANCH   3   4
ENDBRANCH   2   3
ENDBRANCH   1   2
BRANCH   1   8
ATOM      8  C   UNL     1      39.559  55.049  60.614  1.00  0.00     0.000 C 
BRANCH   8   9
ATOM      9  C   UNL     1      40.783  54.109  60.668  1.00  0.00     0.000 C 
BRANCH   9  10
ATOM     10  C   UNL     1      41.861  54.444  59.624  1.00  0.00     0.006 C 
BRANCH  10  11
ATOM     11  C   UNL     1      42.915  55.426  60.147  1.00  0.00     0.053 C 
BRANCH  11  12
ATOM     12  C   UNL     1      42.685  56.791  59.579  1.00  0.00     0.041 C 
ATOM     13  O   UNL     1      43.121  57.084  58.435  1.00  0.00    -0.550 OA
ATOM     14  O   UNL     1      42.029  57.757  60.333  1.00  0.00    -0.550 OA
ENDBRANCH  11  12
ENDBRANCH  10  11
ENDBRANCH   9  10
ENDBRANCH   8   9
ENDBRANCH   1   8
TORSDOF 9
ENDMDL
MODEL 4
REMARK VINA RESULT:    -4.804      1.205      5.050
REMARK INTER + INTRA:          -8.170
REMARK INTER:                  -7.600
REMARK INTRA:                  -0.570
REMARK UNBOUND:                -0.838
REMARK SMILES O=C([O-])CCCCCCCCC(=O)[O-]
REMARK SMILES IDX 7 1 6 2 5 3 4 4 2 5 1 6 3 7 8 8 9 9 10 10 11 11 12 12 13 13
REMARK SMILES IDX 14 14
REMARK H PARENT
REMARK Flexibility Score: inf
ROOT
ATOM      1  C   UNL     1      41.068  54.149  60.020  1.00  0.00     0.000 C 
ENDROOT
BRANCH   1   2
ATOM      2  C   UNL     1      39.930  54.096  61.052  1.00  0.00     0.000 C 
BRANCH   2   3
ATOM      3  C   UNL     1      38.678  54.857  60.591  1.00  0.00     0.006 C 
BRANCH   3   4
ATOM      4  C   UNL     1      37.545  53.887  60.241  1.00  0.00     0.053 C 
BRANCH   4   5
ATOM      5  C   UNL     1      36.448  54.601  59.518  1.00  0.00     0.041 C 
ATOM      6  O   UNL     1      35.621  53.953  58.824  1.00  0.00    -0.550 OA
ATOM      7  O   UNL     1      36.307  55.976  59.651  1.00  0.00    -0.550 OA
ENDBRANCH   4   5
ENDBRANCH   3   4
ENDBRANCH   2   3
ENDBRANCH   1   2
BRANCH   1   8
ATOM      8  C   UNL     1      42.368  54.736  60.599  1.00  0.00     0.000 C 
BRANCH   8   9
ATOM      9  C   UNL     1      43.105  55.633  59.581  1.00  0.00     0.000 C 
BRANCH   9  10
ATOM     10  C   UNL     1      43.507  57.004  60.148  1.00  0.00     0.006 C 
BRANCH  10  11
ATOM     11  C   UNL     1      42.314  57.952  60.320  1.00  0.00     0.053 C 
BRANCH  11  12
ATOM     12  C   UNL     1      41.547  58.063  59.040  1.00  0.00     0.041 C 
ATOM     13  O   UNL     1      42.071  58.605  58.032  1.00  0.00    -0.550 OA
ATOM     14  O   UNL     1      40.235  57.611  58.974  1.00  0.00    -0.550 OA
ENDBRANCH  11  12
ENDBRANCH  10  11
ENDBRANCH   9  10
ENDBRANCH   8   9
ENDBRANCH   1   8
TORSDOF 9
ENDMDL
MODEL 5
REMARK VINA RESULT:    -4.794      1.439      2.130
REMARK INTER + INTRA:          -8.154
REMARK INTER:                  -7.560
REMARK INTRA:                  -0.594
REMARK UNBOUND:                -0.838
REMARK SMILES O=C([O-])CCCCCCCCC(=O)[O-]
REMARK SMILES IDX 7 1 6 2 5 3 4 4 2 5 1 6 3 7 8 8 9 9 10 10 11 11 12 12 13 13
REMARK SMILES IDX 14 14
REMARK H PARENT
REMARK Flexibility Score: inf
ROOT
ATOM      1  C   UNL     1      42.646  55.204  59.091  1.00  0.00     0.000 C 
ENDROOT
BRANCH   1   2
ATOM      2  C   UNL     1      43.084  56.677  59.076  1.00  0.00     0.000 C 
BRANCH   2   3
ATOM      3  C   UNL     1      42.240  57.536  58.122  1.00  0.00     0.006 C 
BRANCH   3   4
ATOM      4  C   UNL     1      40.878  57.864  58.740  1.00  0.00     0.053 C 
BRANCH   4   5
ATOM      5  C   UNL     1      40.067  58.706  57.807  1.00  0.00     0.041 C 
ATOM      6  O   UNL     1      38.953  58.295  57.388  1.00  0.00    -0.550 OA
ATOM      7  O   UNL     1      40.519  59.967  57.438  1.00  0.00    -0.550 OA
ENDBRANCH   4   5
ENDBRANCH   3   4
ENDBRANCH   2   3
ENDBRANCH   1   2
BRANCH   1   8
ATOM      8  C   UNL     1      42.369  54.680  60.511  1.00  0.00     0.000 C 
BRANCH   8   9
ATOM      9  C   UNL     1      40.980  54.015  60.625  1.00  0.00     0.000 C 
BRANCH   9  10
ATOM     10  C   UNL     1      39.812  55.004  60.481  1.00  0.00     0.006 C 
BRANCH  10  11
ATOM     11  C   UNL     1      38.443  54.313  60.460  1.00  0.00     0.053 C 
BRANCH  11  12
ATOM     12  C   UNL     1      37.397  55.243  59.933  1.00  0.00     0.041 C 
ATOM     13  O   UNL     1      37.630  56.478  59.849  1.00  0.00    -0.550 OA
ATOM     14  O   UNL     1      36.146  54.754  59.578  1.00  0.00    -0.550 OA
ENDBRANCH  11  12
ENDBRANCH  10  11
ENDBRANCH   9  10
ENDBRANCH   8   9
ENDBRANCH   1   8
TORSDOF 9
ENDMDL
MODEL 6
REMARK VINA RESULT:    -4.787      1.165      5.377
REMARK INTER + INTRA:          -8.144
REMARK INTER:                  -7.498
REMARK INTRA:                  -0.645
REMARK UNBOUND:                -0.838
REMARK SMILES O=C([O-])CCCCCCCCC(=O)[O-]
REMARK SMILES IDX 7 1 6 2 5 3 4 4 2 5 1 6 3 7 8 8 9 9 10 10 11 11 12 12 13 13
REMARK SMILES IDX 14 14
REMARK H PARENT
REMARK Flexibility Score: inf
ROOT
ATOM      1  C   UNL     1      40.309  54.699  60.567  1.00  0.00     0.000 C 
ENDROOT
BRANCH   1   2
ATOM      2  C   UNL     1      39.592  56.040  60.344  1.00  0.00     0.000 C 
BRANCH   2   3
ATOM      3  C   UNL     1      38.117  56.002  60.769  1.00  0.00     0.006 C 
BRANCH   3   4
ATOM      4  C   UNL     1      37.197  55.924  59.547  1.00  0.00     0.053 C 
BRANCH   4   5
ATOM      5  C   UNL     1      36.527  54.588  59.480  1.00  0.00     0.041 C 
ATOM      6  O   UNL     1      35.504  54.428  58.764  1.00  0.00    -0.550 OA
ATOM      7  O   UNL     1      37.061  53.506  60.168  1.00  0.00    -0.550 OA
ENDBRANCH   4   5
ENDBRANCH   3   4
ENDBRANCH   2   3
ENDBRANCH   1   2
BRANCH   1   8
ATOM      8  C   UNL     1      41.619  54.585  59.769  1.00  0.00     0.000 C 
BRANCH   8   9
ATOM      9  C   UNL     1      42.847  55.017  60.600  1.00  0.00     0.000 C 
BRANCH   9  10
ATOM     10  C   UNL     1      43.606  56.211  60.000  1.00  0.00     0.006 C 
BRANCH  10  11
ATOM     11  C   UNL     1      42.927  56.784  58.751  1.00  0.00     0.053 C 
BRANCH  11  12
ATOM     12  C   UNL     1      42.362  58.140  59.038  1.00  0.00     0.041 C 
ATOM     13  O   UNL     1      41.981  58.881  58.094  1.00  0.00    -0.550 OA
ATOM     14  O   UNL     1      42.300  58.604  60.346  1.00  0.00    -0.550 OA
ENDBRANCH  11  12
ENDBRANCH  10  11
ENDBRANCH   9  10
ENDBRANCH   8   9
ENDBRANCH   1   8
TORSDOF 9
ENDMDL
MODEL 7
REMARK VINA RESULT:    -4.754      1.642      4.700
REMARK INTER + INTRA:          -8.094
REMARK INTER:                  -7.467
REMARK INTRA:                  -0.627
REMARK UNBOUND:                -0.838
REMARK SMILES O=C([O-])CCCCCCCCC(=O)[O-]
REMARK SMILES IDX 7 1 6 2 5 3 4 4 2 5 1 6 3 7 8 8 9 9 10 10 11 11 12 12 13 13
REMARK SMILES IDX 14 14
REMARK H PARENT
REMARK Flexibility Score: inf
ROOT
ATOM      1  C   UNL     1      42.608  54.809  60.689  1.00  0.00     0.000 C 
ENDROOT
BRANCH   1   2
ATOM      2  C   UNL     1      41.332  54.261  60.031  1.00  0.00     0.000 C 
BRANCH   2   3
ATOM      3  C   UNL     1      40.072  55.031  60.450  1.00  0.00     0.006 C 
BRANCH   3   4
ATOM      4  C   UNL     1      38.972  54.071  60.913  1.00  0.00     0.053 C 
BRANCH   4   5
ATOM      5  C   UNL     1      37.701  54.330  60.168  1.00  0.00     0.041 C 
ATOM      6  O   UNL     1      37.434  55.489  59.755  1.00  0.00    -0.550 OA
ATOM      7  O   UNL     1      36.835  53.281  59.886  1.00  0.00    -0.550 OA
ENDBRANCH   4   5
ENDBRANCH   3   4
ENDBRANCH   2   3
ENDBRANCH   1   2
BRANCH   1   8
ATOM      8  C   UNL     1      42.878  56.281  60.329  1.00  0.00     0.000 C 
BRANCH   8   9
ATOM      9  C   UNL     1      43.313  56.450  58.857  1.00  0.00     0.000 C 
BRANCH   9  10
ATOM     10  C   UNL     1      42.450  57.451  58.072  1.00  0.00     0.006 C 
BRANCH  10  11
ATOM     11  C   UNL     1      41.294  58.022  58.901  1.00  0.00     0.053 C 
BRANCH  11  12
ATOM     12  C   UNL     1      40.303  58.706  58.013  1.00  0.00     0.041 C 
ATOM     13  O   UNL     1      39.182  58.176  57.788  1.00  0.00    -0.550 OA
ATOM     14  O   UNL     1      40.633  59.904  57.394  1.00  0.00    -0.550 OA
ENDBRANCH  11  12
ENDBRANCH  10  11
ENDBRANCH   9  10
ENDBRANCH   8   9
ENDBRANCH   1   8
TORSDOF 9
ENDMDL
MODEL 8
REMARK VINA RESULT:    -4.747      4.077      5.199
REMARK INTER + INTRA:          -8.083
REMARK INTER:                  -7.679
REMARK INTRA:                  -0.404
REMARK UNBOUND:                -0.838
REMARK SMILES O=C([O-])CCCCCCCCC(=O)[O-]
REMARK SMILES IDX 7 1 6 2 5 3 4 4 2 5 1 6 3 7 8 8 9 9 10 10 11 11 12 12 13 13
REMARK SMILES IDX 14 14
REMARK H PARENT
REMARK Flexibility Score: inf
ROOT
ATOM      1  C   UNL     1      36.506  54.729  59.599  1.00  0.00     0.000 C 
ENDROOT
BRANCH   1   2
ATOM      2  C   UNL     1      37.591  53.852  60.244  1.00  0.00     0.000 C 
BRANCH   2   3
ATOM      3  C   UNL     1      38.609  54.670  61.053  1.00  0.00     0.006 C 
BRANCH   3   4
ATOM      4  C   UNL     1      39.984  54.653  60.379  1.00  0.00     0.053 C 
BRANCH   4   5
ATOM      5  C   UNL     1      40.482  56.048  60.168  1.00  0.00     0.041 C 
ATOM      6  O   UNL     1      39.751  57.032  60.457  1.00  0.00    -0.550 OA
ATOM      7  O   UNL     1      41.771  56.263  59.698  1.00  0.00    -0.550 OA
ENDBRANCH   4   5
ENDBRANCH   3   4
ENDBRANCH   2   3
ENDBRANCH   1   2
BRANCH   1   8
ATOM      8  C   UNL     1      35.546  53.925  58.704  1.00  0.00     0.000 C 
BRANCH   8   9
ATOM      9  C   UNL     1      36.024  52.471  58.496  1.00  0.00     0.000 C 
BRANCH   9  10
ATOM     10  C   UNL     1      34.901  51.510  58.075  1.00  0.00     0.006 C 
BRANCH  10  11
ATOM     11  C   UNL     1      33.509  52.151  58.138  1.00  0.00     0.053 C 
BRANCH  11  12
ATOM     12  C   UNL     1      32.465  51.109  58.388  1.00  0.00     0.041 C 
ATOM     13  O   UNL     1      31.439  51.390  59.062  1.00  0.00    -0.550 OA
ATOM     14  O   UNL     1      32.647  49.815  57.919  1.00  0.00    -0.550 OA
ENDBRANCH  11  12
ENDBRANCH  10  11
ENDBRANCH   9  10
ENDBRANCH   8   9
ENDBRANCH   1   8
TORSDOF 9
ENDMDL
MODEL 9
REMARK VINA RESULT:    -4.727      2.152      3.058
REMARK INTER + INTRA:          -8.051
REMARK INTER:                  -7.285
REMARK INTRA:                  -0.767
REMARK UNBOUND:                -0.838
REMARK SMILES O=C([O-])CCCCCCCCC(=O)[O-]
REMARK SMILES IDX 7 1 6 2 5 3 4 4 2 5 1 6 3 7 8 8 9 9 10 10 11 11 12 12 13 13
REMARK SMILES IDX 14 14
REMARK H PARENT
REMARK Flexibility Score: inf
ROOT
ATOM      1  C   UNL     1      41.099  57.801  58.724  1.00  0.00     0.000 C 
ENDROOT
BRANCH   1   2
ATOM      2  C   UNL     1      42.091  57.577  59.876  1.00  0.00     0.000 C 
BRANCH   2   3
ATOM      3  C   UNL     1      43.066  56.422  59.603  1.00  0.00     0.006 C 
BRANCH   3   4
ATOM      4  C   UNL     1      42.820  55.258  60.567  1.00  0.00     0.053 C 
BRANCH   4   5
ATOM      5  C   UNL     1      41.756  54.351  60.035  1.00  0.00     0.041 C 
ATOM      6  O   UNL     1      41.719  54.071  58.808  1.00  0.00    -0.550 OA
ATOM      7  O   UNL     1      40.834  53.777  60.901  1.00  0.00    -0.550 OA
ENDBRANCH   4   5
ENDBRANCH   3   4
ENDBRANCH   2   3
ENDBRANCH   1   2
BRANCH   1   8
ATOM      8  C   UNL     1      39.647  57.477  59.118  1.00  0.00     0.000 C 
BRANCH   8   9
ATOM      9  C   UNL     1      39.533  57.005  60.583  1.00  0.00     0.000 C 
BRANCH   9  10
ATOM     10  C   UNL     1      38.172  56.373  60.920  1.00  0.00     0.006 C 
BRANCH  10  11
ATOM     11  C   UNL     1      37.220  56.328  59.719  1.00  0.00     0.053 C 
BRANCH  11  12
ATOM     12  C   UNL     1      36.739  54.930  59.486  1.00  0.00     0.041 C 
ATOM     13  O   UNL     1      35.746  54.717  58.742  1.00  0.00    -0.550 OA
ATOM     14  O   UNL     1      37.358  53.866  60.130  1.00  0.00    -0.550 OA
ENDBRANCH  11  12
ENDBRANCH  10  11
ENDBRANCH   9  10
ENDBRANCH   8   9
ENDBRANCH   1   8
TORSDOF 9
ENDMDL
