MODEL 1
REMARK VINA RESULT:    -4.360      0.000      0.000
REMARK INTER + INTRA:          -4.852
REMARK INTER:                  -4.743
REMARK INTRA:                  -0.109
REMARK UNBOUND:                -0.109
REMARK SMILES Cc1ccc(C(C)C)cc1O
REMARK SMILES IDX 1 1 2 2 10 3 9 4 5 5 4 6 3 7 11 8 6 10 7 11 8 12
REMARK H PARENT 11 9
REMARK Flexibility Score: inf
ROOT
ATOM      1  C   UNL     1       6.924  13.987   7.963  1.00  0.00     0.048 C 
ATOM      2  C   UNL     1       7.611  12.706   7.583  1.00  0.00    -0.009 A 
ATOM      3  C   UNL     1       8.894  12.733   7.010  1.00  0.00     0.118 A 
ATOM      4  C   UNL     1       9.531  11.534   6.659  1.00  0.00     0.050 A 
ATOM      5  C   UNL     1       8.896  10.296   6.873  1.00  0.00    -0.042 A 
ATOM      6  C   UNL     1       7.613  10.279   7.445  1.00  0.00     0.004 A 
ATOM      7  C   UNL     1       6.978  11.472   7.798  1.00  0.00     0.007 A 
ENDROOT
BRANCH   3   8
ATOM      8  O   UNL     1       9.536  13.953   6.792  1.00  0.00    -0.508 OA
ATOM      9  H   UNL     1       9.555  14.387   5.877  1.00  0.00     0.293 HD
ENDBRANCH   3   8
BRANCH   5  10
ATOM     10  C   UNL     1       9.574   8.992   6.496  1.00  0.00     0.013 C 
ATOM     11  C   UNL     1      10.088   8.257   7.740  1.00  0.00     0.012 C 
ATOM     12  C   UNL     1      10.705   9.228   5.487  1.00  0.00     0.012 C 
ENDBRANCH   5  10
TORSDOF 2
ENDMDL
MODEL 2
REMARK VINA RESULT:    -4.091      1.382      4.788
REMARK INTER + INTRA:          -4.559
REMARK INTER:                  -4.459
REMARK INTRA:                  -0.101
REMARK UNBOUND:                -0.109
REMARK SMILES Cc1ccc(C(C)C)cc1O
REMARK SMILES IDX 1 1 2 2 10 3 9 4 5 5 4 6 3 7 11 8 6 10 7 11 8 12
REMARK H PARENT 11 9
REMARK Flexibility Score: inf
ROOT
ATOM      1  C   UNL     1       9.455  10.499   6.731  1.00  0.00     0.048 C 
ATOM      2  C   UNL     1       8.356  11.436   7.147  1.00  0.00    -0.009 A 
ATOM      3  C   UNL     1       8.553  12.827   7.093  1.00  0.00     0.118 A 
ATOM      4  C   UNL     1       7.524  13.696   7.482  1.00  0.00     0.050 A 
ATOM      5  C   UNL     1       6.289  13.191   7.928  1.00  0.00    -0.042 A 
ATOM      6  C   UNL     1       6.101  11.799   7.979  1.00  0.00     0.004 A 
ATOM      7  C   UNL     1       7.124  10.931   7.592  1.00  0.00     0.007 A 
ENDROOT
BRANCH   3   8
ATOM      8  O   UNL     1       9.772  13.343   6.653  1.00  0.00    -0.508 OA
ATOM      9  H   UNL     1      10.629  13.203   7.176  1.00  0.00     0.293 HD
ENDBRANCH   3   8
BRANCH   5  10
ATOM     10  C   UNL     1       5.167  14.121   8.352  1.00  0.00     0.013 C 
ATOM     11  C   UNL     1       4.401  14.652   7.134  1.00  0.00     0.012 C 
ATOM     12  C   UNL     1       5.701  15.273   9.213  1.00  0.00     0.012 C 
ENDBRANCH   5  10
TORSDOF 2
ENDMDL
MODEL 3
REMARK VINA RESULT:    -4.061      1.615      4.820
REMARK INTER + INTRA:          -4.527
REMARK INTER:                  -4.399
REMARK INTRA:                  -0.128
REMARK UNBOUND:                -0.109
REMARK SMILES Cc1ccc(C(C)C)cc1O
REMARK SMILES IDX 1 1 2 2 10 3 9 4 5 5 4 6 3 7 11 8 6 10 7 11 8 12
REMARK H PARENT 11 9
REMARK Flexibility Score: inf
ROOT
ATOM      1  C   UNL     1       9.060  10.127   7.444  1.00  0.00     0.048 C 
ATOM      2  C   UNL     1       8.016  11.207   7.496  1.00  0.00    -0.009 A 
ATOM      3  C   UNL     1       8.376  12.550   7.291  1.00  0.00     0.118 A 
ATOM      4  C   UNL     1       7.397  13.554   7.339  1.00  0.00     0.050 A 
ATOM      5  C   UNL     1       6.051  13.230   7.592  1.00  0.00    -0.042 A 
ATOM      6  C   UNL     1       5.701  11.885   7.796  1.00  0.00     0.004 A 
ATOM      7  C   UNL     1       6.674  10.884   7.747  1.00  0.00     0.007 A 
ENDROOT
BRANCH   3   8
ATOM      8  O   UNL     1       9.707  12.887   7.039  1.00  0.00    -0.508 OA
ATOM      9  H   UNL     1      10.472  12.416   7.508  1.00  0.00     0.293 HD
ENDBRANCH   3   8
BRANCH   5  10
ATOM     10  C   UNL     1       4.983  14.307   7.647  1.00  0.00     0.013 C 
ATOM     11  C   UNL     1       5.059  15.093   8.961  1.00  0.00     0.012 C 
ATOM     12  C   UNL     1       3.586  13.710   7.441  1.00  0.00     0.012 C 
ENDBRANCH   5  10
TORSDOF 2
ENDMDL
MODEL 4
REMARK VINA RESULT:    -3.944      2.270      3.050
REMARK INTER + INTRA:          -4.400
REMARK INTER:                  -4.300
REMARK INTRA:                  -0.100
REMARK UNBOUND:                -0.109
REMARK SMILES Cc1ccc(C(C)C)cc1O
REMARK SMILES IDX 1 1 2 2 10 3 9 4 5 5 4 6 3 7 11 8 6 10 7 11 8 12
REMARK H PARENT 11 9
REMARK Flexibility Score: inf
ROOT
ATOM      1  C   UNL     1       4.385  13.441   7.854  1.00  0.00     0.048 C 
ATOM      2  C   UNL     1       5.646  12.629   7.769  1.00  0.00    -0.009 A 
ATOM      3  C   UNL     1       5.581  11.234   7.607  1.00  0.00     0.118 A 
ATOM      4  C   UNL     1       6.762  10.482   7.526  1.00  0.00     0.050 A 
ATOM      5  C   UNL     1       8.018  11.109   7.607  1.00  0.00    -0.042 A 
ATOM      6  C   UNL     1       8.073  12.504   7.769  1.00  0.00     0.004 A 
ATOM      7  C   UNL     1       6.899  13.255   7.848  1.00  0.00     0.007 A 
ENDROOT
BRANCH   3   8
ATOM      8  O   UNL     1       4.342  10.597   7.526  1.00  0.00    -0.508 OA
ATOM      9  H   UNL     1       3.886  10.432   6.636  1.00  0.00     0.293 HD
ENDBRANCH   3   8
BRANCH   5  10
ATOM     10  C   UNL     1       9.303  10.306   7.522  1.00  0.00     0.013 C 
ATOM     11  C   UNL     1       9.631   9.941   6.069  1.00  0.00     0.012 C 
ATOM     12  C   UNL     1       9.230   9.052   8.402  1.00  0.00     0.012 C 
ENDBRANCH   5  10
TORSDOF 2
ENDMDL
MODEL 5
REMARK VINA RESULT:    -3.937      2.410      3.301
REMARK INTER + INTRA:          -4.392
REMARK INTER:                  -4.263
REMARK INTRA:                  -0.129
REMARK UNBOUND:                -0.109
REMARK SMILES Cc1ccc(C(C)C)cc1O
REMARK SMILES IDX 1 1 2 2 10 3 9 4 5 5 4 6 3 7 11 8 6 10 7 11 8 12
REMARK H PARENT 11 9
REMARK Flexibility Score: inf
ROOT
ATOM      1  C   UNL     1       2.991  12.682   7.689  1.00  0.00     0.048 C 
ATOM      2  C   UNL     1       4.456  12.349   7.721  1.00  0.00    -0.009 A 
ATOM      3  C   UNL     1       5.414  13.376   7.764  1.00  0.00     0.118 A 
ATOM      4  C   UNL     1       6.780  13.059   7.795  1.00  0.00     0.050 A 
ATOM      5  C   UNL     1       7.205  11.718   7.782  1.00  0.00    -0.042 A 
ATOM      6  C   UNL     1       6.240  10.698   7.738  1.00  0.00     0.004 A 
ATOM      7  C   UNL     1       4.879  11.011   7.709  1.00  0.00     0.007 A 
ENDROOT
BRANCH   3   8
ATOM      8  O   UNL     1       5.008  14.711   7.777  1.00  0.00    -0.508 OA
ATOM      9  H   UNL     1       4.482  15.114   7.011  1.00  0.00     0.293 HD
ENDBRANCH   3   8
BRANCH   5  10
ATOM     10  C   UNL     1       8.680  11.362   7.814  1.00  0.00     0.013 C 
ATOM     11  C   UNL     1       9.003  10.254   6.805  1.00  0.00     0.012 C 
ATOM     12  C   UNL     1       9.122  10.966   9.228  1.00  0.00     0.012 C 
ENDBRANCH   5  10
TORSDOF 2
ENDMDL
MODEL 6
REMARK VINA RESULT:    -3.850      2.194      4.664
REMARK INTER + INTRA:          -4.297
REMARK INTER:                  -4.169
REMARK INTRA:                  -0.128
REMARK UNBOUND:                -0.109
REMARK SMILES Cc1ccc(C(C)C)cc1O
REMARK SMILES IDX 1 1 2 2 10 3 9 4 5 5 4 6 3 7 11 8 6 10 7 11 8 12
REMARK H PARENT 11 9
REMARK Flexibility Score: inf
ROOT
ATOM      1  C   UNL     1      11.928   6.931   6.192  1.00  0.00     0.048 C 
ATOM      2  C   UNL     1      10.926   7.992   6.554  1.00  0.00    -0.009 A 
ATOM      3  C   UNL     1      10.744   9.108   5.719  1.00  0.00     0.118 A 
ATOM      4  C   UNL     1       9.807  10.093   6.061  1.00  0.00     0.050 A 
ATOM      5  C   UNL     1       9.044   9.979   7.237  1.00  0.00    -0.042 A 
ATOM      6  C   UNL     1       9.234   8.860   8.066  1.00  0.00     0.004 A 
ATOM      7  C   UNL     1      10.165   7.876   7.726  1.00  0.00     0.007 A 
ENDROOT
BRANCH   3   8
ATOM      8  O   UNL     1      11.494   9.235   4.549  1.00  0.00    -0.508 OA
ATOM      9  H   UNL     1      11.540   8.490   3.864  1.00  0.00     0.293 HD
ENDBRANCH   3   8
BRANCH   5  10
ATOM     10  C   UNL     1       8.027  11.040   7.619  1.00  0.00     0.013 C 
ATOM     11  C   UNL     1       8.367  11.666   8.977  1.00  0.00     0.012 C 
ATOM     12  C   UNL     1       6.604  10.468   7.616  1.00  0.00     0.012 C 
ENDBRANCH   5  10
TORSDOF 2
ENDMDL
MODEL 7
REMARK VINA RESULT:    -3.845      1.787      4.157
REMARK INTER + INTRA:          -4.291
REMARK INTER:                  -4.163
REMARK INTRA:                  -0.128
REMARK UNBOUND:                -0.109
REMARK SMILES Cc1ccc(C(C)C)cc1O
REMARK SMILES IDX 1 1 2 2 10 3 9 4 5 5 4 6 3 7 11 8 6 10 7 11 8 12
REMARK H PARENT 11 9
REMARK Flexibility Score: inf
ROOT
ATOM      1  C   UNL     1       8.783   7.698   5.438  1.00  0.00     0.048 C 
ATOM      2  C   UNL     1       8.555   8.983   6.184  1.00  0.00    -0.009 A 
ATOM      3  C   UNL     1       9.488  10.030   6.089  1.00  0.00     0.118 A 
ATOM      4  C   UNL     1       9.270  11.228   6.786  1.00  0.00     0.050 A 
ATOM      5  C   UNL     1       8.123  11.394   7.584  1.00  0.00    -0.042 A 
ATOM      6  C   UNL     1       7.197  10.341   7.672  1.00  0.00     0.004 A 
ATOM      7  C   UNL     1       7.411   9.148   6.978  1.00  0.00     0.007 A 
ENDROOT
BRANCH   3   8
ATOM      8  O   UNL     1      10.630   9.880   5.302  1.00  0.00    -0.508 OA
ATOM      9  H   UNL     1      11.018  10.654   4.775  1.00  0.00     0.293 HD
ENDBRANCH   3   8
BRANCH   5  10
ATOM     10  C   UNL     1       7.876  12.685   8.343  1.00  0.00     0.013 C 
ATOM     11  C   UNL     1       7.572  12.406   9.820  1.00  0.00     0.012 C 
ATOM     12  C   UNL     1       6.752  13.502   7.693  1.00  0.00     0.012 C 
ENDBRANCH   5  10
TORSDOF 2
ENDMDL
MODEL 8
REMARK VINA RESULT:    -3.786      8.604      9.996
REMARK INTER + INTRA:          -4.228
REMARK INTER:                  -4.118
REMARK INTRA:                  -0.110
REMARK UNBOUND:                -0.109
REMARK SMILES Cc1ccc(C(C)C)cc1O
REMARK SMILES IDX 1 1 2 2 10 3 9 4 5 5 4 6 3 7 11 8 6 10 7 11 8 12
REMARK H PARENT 11 9
REMARK Flexibility Score: inf
ROOT
ATOM      1  C   UNL     1      15.907   7.550  14.761  1.00  0.00     0.048 C 
ATOM      2  C   UNL     1      15.766   7.150  13.319  1.00  0.00    -0.009 A 
ATOM      3  C   UNL     1      16.281   5.921  12.872  1.00  0.00     0.118 A 
ATOM      4  C   UNL     1      16.144   5.552  11.526  1.00  0.00     0.050 A 
ATOM      5  C   UNL     1      15.496   6.402  10.612  1.00  0.00    -0.042 A 
ATOM      6  C   UNL     1      14.985   7.629  11.068  1.00  0.00     0.004 A 
ATOM      7  C   UNL     1      15.118   7.998  12.409  1.00  0.00     0.007 A 
ENDROOT
BRANCH   3   8
ATOM      8  O   UNL     1      16.927   5.067  13.767  1.00  0.00    -0.508 OA
ATOM      9  H   UNL     1      17.576   4.357  13.449  1.00  0.00     0.293 HD
ENDBRANCH   3   8
BRANCH   5  10
ATOM     10  C   UNL     1      15.343   6.015   9.152  1.00  0.00     0.013 C 
ATOM     11  C   UNL     1      13.893   5.633   8.831  1.00  0.00     0.012 C 
ATOM     12  C   UNL     1      16.308   4.883   8.777  1.00  0.00     0.012 C 
ENDBRANCH   5  10
TORSDOF 2
ENDMDL
MODEL 9
REMARK VINA RESULT:    -3.763      2.322      4.860
REMARK INTER + INTRA:          -4.202
REMARK INTER:                  -4.079
REMARK INTRA:                  -0.124
REMARK UNBOUND:                -0.109
REMARK SMILES Cc1ccc(C(C)C)cc1O
REMARK SMILES IDX 1 1 2 2 10 3 9 4 5 5 4 6 3 7 11 8 6 10 7 11 8 12
REMARK H PARENT 11 9
REMARK Flexibility Score: inf
ROOT
ATOM      1  C   UNL     1       9.893   9.075   7.002  1.00  0.00     0.048 C 
ATOM      2  C   UNL     1       8.730   9.982   7.292  1.00  0.00    -0.009 A 
ATOM      3  C   UNL     1       7.420   9.473   7.299  1.00  0.00     0.118 A 
ATOM      4  C   UNL     1       6.339  10.324   7.571  1.00  0.00     0.050 A 
ATOM      5  C   UNL     1       6.551  11.689   7.838  1.00  0.00    -0.042 A 
ATOM      6  C   UNL     1       7.864  12.188   7.829  1.00  0.00     0.004 A 
ATOM      7  C   UNL     1       8.943  11.343   7.559  1.00  0.00     0.007 A 
ENDROOT
BRANCH   3   8
ATOM      8  O   UNL     1       7.194   8.121   7.035  1.00  0.00    -0.508 OA
ATOM      9  H   UNL     1       6.553   7.821   6.310  1.00  0.00     0.293 HD
ENDBRANCH   3   8
BRANCH   5  10
ATOM     10  C   UNL     1       5.389  12.620   8.134  1.00  0.00     0.013 C 
ATOM     11  C   UNL     1       4.051  11.967   7.766  1.00  0.00     0.012 C 
ATOM     12  C   UNL     1       5.563  13.964   7.417  1.00  0.00     0.012 C 
ENDBRANCH   5  10
TORSDOF 2
ENDMDL
