MODEL 1
REMARK VINA RESULT:    -3.061      0.000      0.000
REMARK INTER + INTRA:         -11.235
REMARK INTER:                  -6.999
REMARK INTRA:                  -4.237
REMARK UNBOUND:                -4.237
REMARK SMILES CCCCCCCCCCCCCCCCCCCCCCCC(=O)[O-]
REMARK SMILES IDX 13 1 14 2 15 3 16 4 17 5 18 6 19 7 20 8 21 9 22 10 23 11
REMARK SMILES IDX 24 12 25 13 26 14 12 15 11 16 10 17 9 18 8 19 7 20 6 21 5 22
REMARK SMILES IDX 4 23 3 24 2 25 1 26
REMARK H PARENT
REMARK Flexibility Score: inf
ROOT
ATOM      1  C   UNL     1      57.508  27.412  53.594  1.00  0.00     0.000 C 
ENDROOT
BRANCH   1   2
ATOM      2  C   UNL     1      58.583  28.364  53.026  1.00  0.00     0.000 C 
BRANCH   2   3
ATOM      3  C   UNL     1      58.022  29.314  51.954  1.00  0.00     0.000 C 
BRANCH   3   4
ATOM      4  C   UNL     1      57.722  28.601  50.628  1.00  0.00     0.000 C 
BRANCH   4   5
ATOM      5  C   UNL     1      58.841  28.788  49.588  1.00  0.00     0.000 C 
BRANCH   5   6
ATOM      6  C   UNL     1      59.591  27.481  49.279  1.00  0.00     0.000 C 
BRANCH   6   7
ATOM      7  C   UNL     1      60.964  27.338  49.967  1.00  0.00     0.000 C 
BRANCH   7   8
ATOM      8  C   UNL     1      61.028  26.276  51.078  1.00  0.00     0.000 C 
BRANCH   8   9
ATOM      9  C   UNL     1      60.424  24.928  50.654  1.00  0.00     0.000 C 
BRANCH   9  10
ATOM     10  C   UNL     1      60.548  23.895  51.779  1.00  0.00     0.006 C 
BRANCH  10  11
ATOM     11  C   UNL     1      59.893  22.568  51.383  1.00  0.00     0.053 C 
BRANCH  11  12
ATOM     12  C   UNL     1      60.859  21.712  50.627  1.00  0.00     0.041 C 
ATOM     13  O   UNL     1      62.060  22.070  50.503  1.00  0.00    -0.550 OA
ATOM     14  O   UNL     1      60.425  20.539  50.022  1.00  0.00    -0.550 OA
ENDBRANCH  11  12
ENDBRANCH  10  11
ENDBRANCH   9  10
ENDBRANCH   8   9
ENDBRANCH   7   8
ENDBRANCH   6   7
ENDBRANCH   5   6
ENDBRANCH   4   5
ENDBRANCH   3   4
ENDBRANCH   2   3
ENDBRANCH   1   2
BRANCH   1  15
ATOM     15  C   UNL     1      57.696  25.936  53.185  1.00  0.00     0.000 C 
BRANCH  15  16
ATOM     16  C   UNL     1      56.536  25.328  52.378  1.00  0.00     0.000 C 
BRANCH  16  17
ATOM     17  C   UNL     1      56.785  25.222  50.861  1.00  0.00     0.000 C 
BRANCH  17  18
ATOM     18  C   UNL     1      55.571  25.639  50.000  1.00  0.00    -0.000 C 
BRANCH  18  19
ATOM     19  C   UNL     1      54.458  26.370  50.778  1.00  0.00    -0.000 C 
BRANCH  19  20
ATOM     20  C   UNL     1      54.025  27.732  50.194  1.00  0.00    -0.000 C 
BRANCH  20  21
ATOM     21  C   UNL     1      54.171  28.935  51.143  1.00  0.00    -0.000 C 
BRANCH  21  22
ATOM     22  C   UNL     1      54.248  28.523  52.620  1.00  0.00    -0.000 C 
BRANCH  22  23
ATOM     23  C   UNL     1      54.320  29.758  53.532  1.00  0.00    -0.000 C 
BRANCH  23  24
ATOM     24  C   UNL     1      54.289  31.078  52.745  1.00  0.00    -0.000 C 
BRANCH  24  25
ATOM     25  C   UNL     1      54.870  32.254  53.541  1.00  0.00    -0.003 C 
ATOM     26  C   UNL     1      56.324  31.994  53.923  1.00  0.00     0.004 C 
ENDBRANCH  24  25
ENDBRANCH  23  24
ENDBRANCH  22  23
ENDBRANCH  21  22
ENDBRANCH  20  21
ENDBRANCH  19  20
ENDBRANCH  18  19
ENDBRANCH  17  18
ENDBRANCH  16  17
ENDBRANCH  15  16
ENDBRANCH   1  15
TORSDOF 22
ENDMDL
MODEL 2
REMARK VINA RESULT:    -3.061      3.984      8.067
REMARK INTER + INTRA:         -11.235
REMARK INTER:                  -7.315
REMARK INTRA:                  -3.920
REMARK UNBOUND:                -4.237
REMARK SMILES CCCCCCCCCCCCCCCCCCCCCCCC(=O)[O-]
REMARK SMILES IDX 13 1 14 2 15 3 16 4 17 5 18 6 19 7 20 8 21 9 22 10 23 11
REMARK SMILES IDX 24 12 25 13 26 14 12 15 11 16 10 17 9 18 8 19 7 20 6 21 5 22
REMARK SMILES IDX 4 23 3 24 2 25 1 26
REMARK H PARENT
REMARK Flexibility Score: inf
ROOT
ATOM      1  C   UNL     1      57.282  26.465  52.926  1.00  0.00     0.000 C 
ENDROOT
BRANCH   1   2
ATOM      2  C   UNL     1      56.935  25.102  52.290  1.00  0.00     0.000 C 
BRANCH   2   3
ATOM      3  C   UNL     1      56.390  25.240  50.858  1.00  0.00     0.000 C 
BRANCH   3   4
ATOM      4  C   UNL     1      55.756  26.614  50.596  1.00  0.00     0.000 C 
BRANCH   4   5
ATOM      5  C   UNL     1      54.290  26.511  50.136  1.00  0.00     0.000 C 
BRANCH   5   6
ATOM      6  C   UNL     1      53.573  27.872  50.122  1.00  0.00     0.000 C 
BRANCH   6   7
ATOM      7  C   UNL     1      54.401  29.051  50.674  1.00  0.00     0.000 C 
BRANCH   7   8
ATOM      8  C   UNL     1      53.891  29.639  52.001  1.00  0.00     0.000 C 
BRANCH   8   9
ATOM      9  C   UNL     1      54.817  29.332  53.187  1.00  0.00     0.000 C 
BRANCH   9  10
ATOM     10  C   UNL     1      55.746  30.516  53.477  1.00  0.00     0.006 C 
BRANCH  10  11
ATOM     11  C   UNL     1      55.250  31.322  54.682  1.00  0.00     0.053 C 
BRANCH  11  12
ATOM     12  C   UNL     1      54.952  32.732  54.283  1.00  0.00     0.041 C 
ATOM     13  O   UNL     1      54.639  33.002  53.093  1.00  0.00    -0.550 OA
ATOM     14  O   UNL     1      55.060  33.758  55.214  1.00  0.00    -0.550 OA
ENDBRANCH  11  12
ENDBRANCH  10  11
ENDBRANCH   9  10
ENDBRANCH   8   9
ENDBRANCH   7   8
ENDBRANCH   6   7
ENDBRANCH   5   6
ENDBRANCH   4   5
ENDBRANCH   3   4
ENDBRANCH   2   3
ENDBRANCH   1   2
BRANCH   1  15
ATOM     15  C   UNL     1      58.659  26.502  53.621  1.00  0.00     0.000 C 
BRANCH  15  16
ATOM     16  C   UNL     1      59.537  27.716  53.270  1.00  0.00     0.000 C 
BRANCH  16  17
ATOM     17  C   UNL     1      58.772  28.928  52.702  1.00  0.00     0.000 C 
BRANCH  17  18
ATOM     18  C   UNL     1      59.277  29.389  51.316  1.00  0.00    -0.000 C 
BRANCH  18  19
ATOM     19  C   UNL     1      58.570  28.714  50.123  1.00  0.00    -0.000 C 
BRANCH  19  20
ATOM     20  C   UNL     1      59.450  27.768  49.278  1.00  0.00    -0.000 C 
BRANCH  20  21
ATOM     21  C   UNL     1      59.509  26.309  49.766  1.00  0.00    -0.000 C 
BRANCH  21  22
ATOM     22  C   UNL     1      60.915  25.888  50.218  1.00  0.00    -0.000 C 
BRANCH  22  23
ATOM     23  C   UNL     1      60.845  24.735  51.232  1.00  0.00    -0.000 C 
BRANCH  23  24
ATOM     24  C   UNL     1      59.912  23.602  50.775  1.00  0.00    -0.000 C 
BRANCH  24  25
ATOM     25  C   UNL     1      60.678  22.406  50.192  1.00  0.00    -0.003 C 
ATOM     26  C   UNL     1      62.119  22.380  50.693  1.00  0.00     0.004 C 
ENDBRANCH  24  25
ENDBRANCH  23  24
ENDBRANCH  22  23
ENDBRANCH  21  22
ENDBRANCH  20  21
ENDBRANCH  19  20
ENDBRANCH  18  19
ENDBRANCH  17  18
ENDBRANCH  16  17
ENDBRANCH  15  16
ENDBRANCH   1  15
TORSDOF 22
ENDMDL
MODEL 3
REMARK VINA RESULT:    -3.045      4.130      6.622
REMARK INTER + INTRA:         -11.198
REMARK INTER:                  -7.804
REMARK INTRA:                  -3.394
REMARK UNBOUND:                -4.237
REMARK SMILES CCCCCCCCCCCCCCCCCCCCCCCC(=O)[O-]
REMARK SMILES IDX 13 1 14 2 15 3 16 4 17 5 18 6 19 7 20 8 21 9 22 10 23 11
REMARK SMILES IDX 24 12 25 13 26 14 12 15 11 16 10 17 9 18 8 19 7 20 6 21 5 22
REMARK SMILES IDX 4 23 3 24 2 25 1 26
REMARK H PARENT
REMARK Flexibility Score: inf
ROOT
ATOM      1  C   UNL     1      61.392  25.577  50.454  1.00  0.00     0.000 C 
ENDROOT
BRANCH   1   2
ATOM      2  C   UNL     1      62.264  25.849  51.699  1.00  0.00     0.000 C 
BRANCH   2   3
ATOM      3  C   UNL     1      63.753  25.545  51.454  1.00  0.00     0.000 C 
BRANCH   3   4
ATOM      4  C   UNL     1      64.039  25.114  50.008  1.00  0.00     0.000 C 
BRANCH   4   5
ATOM      5  C   UNL     1      65.337  25.728  49.453  1.00  0.00     0.000 C 
BRANCH   5   6
ATOM      6  C   UNL     1      65.087  26.687  48.277  1.00  0.00     0.000 C 
BRANCH   6   7
ATOM      7  C   UNL     1      63.858  27.607  48.435  1.00  0.00     0.000 C 
BRANCH   7   8
ATOM      8  C   UNL     1      64.178  29.058  48.830  1.00  0.00     0.000 C 
BRANCH   8   9
ATOM      9  C   UNL     1      64.215  29.270  50.351  1.00  0.00     0.000 C 
BRANCH   9  10
ATOM     10  C   UNL     1      63.917  30.731  50.708  1.00  0.00     0.006 C 
BRANCH  10  11
ATOM     11  C   UNL     1      62.707  31.252  49.926  1.00  0.00     0.053 C 
BRANCH  11  12
ATOM     12  C   UNL     1      63.028  32.558  49.272  1.00  0.00     0.041 C 
ATOM     13  O   UNL     1      64.224  32.938  49.168  1.00  0.00    -0.550 OA
ATOM     14  O   UNL     1      62.004  33.378  48.813  1.00  0.00    -0.550 OA
ENDBRANCH  11  12
ENDBRANCH  10  11
ENDBRANCH   9  10
ENDBRANCH   8   9
ENDBRANCH   7   8
ENDBRANCH   6   7
ENDBRANCH   5   6
ENDBRANCH   4   5
ENDBRANCH   3   4
ENDBRANCH   2   3
ENDBRANCH   1   2
BRANCH   1  15
ATOM     15  C   UNL     1      60.616  26.811  49.948  1.00  0.00     0.000 C 
BRANCH  15  16
ATOM     16  C   UNL     1      60.866  28.108  50.735  1.00  0.00     0.000 C 
BRANCH  16  17
ATOM     17  C   UNL     1      59.617  28.985  50.955  1.00  0.00     0.000 C 
BRANCH  17  18
ATOM     18  C   UNL     1      58.514  28.776  49.893  1.00  0.00    -0.000 C 
BRANCH  18  19
ATOM     19  C   UNL     1      57.201  28.185  50.444  1.00  0.00    -0.000 C 
BRANCH  19  20
ATOM     20  C   UNL     1      57.356  27.241  51.657  1.00  0.00    -0.000 C 
BRANCH  20  21
ATOM     21  C   UNL     1      57.100  25.750  51.371  1.00  0.00    -0.000 C 
BRANCH  21  22
ATOM     22  C   UNL     1      56.135  25.525  50.198  1.00  0.00    -0.000 C 
BRANCH  22  23
ATOM     23  C   UNL     1      54.740  25.126  50.702  1.00  0.00    -0.000 C 
BRANCH  23  24
ATOM     24  C   UNL     1      53.931  26.327  51.218  1.00  0.00    -0.000 C 
BRANCH  24  25
ATOM     25  C   UNL     1      53.328  27.165  50.082  1.00  0.00    -0.003 C 
ATOM     26  C   UNL     1      53.525  28.657  50.335  1.00  0.00     0.004 C 
ENDBRANCH  24  25
ENDBRANCH  23  24
ENDBRANCH  22  23
ENDBRANCH  21  22
ENDBRANCH  20  21
ENDBRANCH  19  20
ENDBRANCH  18  19
ENDBRANCH  17  18
ENDBRANCH  16  17
ENDBRANCH  15  16
ENDBRANCH   1  15
TORSDOF 22
ENDMDL
MODEL 4
REMARK VINA RESULT:    -2.984      9.963     12.659
REMARK INTER + INTRA:         -11.059
REMARK INTER:                  -7.005
REMARK INTRA:                  -4.054
REMARK UNBOUND:                -4.237
REMARK SMILES CCCCCCCCCCCCCCCCCCCCCCCC(=O)[O-]
REMARK SMILES IDX 13 1 14 2 15 3 16 4 17 5 18 6 19 7 20 8 21 9 22 10 23 11
REMARK SMILES IDX 24 12 25 13 26 14 12 15 11 16 10 17 9 18 8 19 7 20 6 21 5 22
REMARK SMILES IDX 4 23 3 24 2 25 1 26
REMARK H PARENT
REMARK Flexibility Score: inf
ROOT
ATOM      1  C   UNL     1      60.650  32.772  59.299  1.00  0.00     0.000 C 
ENDROOT
BRANCH   1   2
ATOM      2  C   UNL     1      61.040  31.358  59.781  1.00  0.00     0.000 C 
BRANCH   2   3
ATOM      3  C   UNL     1      61.246  31.289  61.305  1.00  0.00     0.000 C 
BRANCH   3   4
ATOM      4  C   UNL     1      61.870  29.962  61.759  1.00  0.00     0.000 C 
BRANCH   4   5
ATOM      5  C   UNL     1      63.001  29.490  60.827  1.00  0.00     0.000 C 
BRANCH   5   6
ATOM      6  C   UNL     1      64.400  29.756  61.408  1.00  0.00     0.000 C 
BRANCH   6   7
ATOM      7  C   UNL     1      65.562  29.088  60.644  1.00  0.00     0.000 C 
BRANCH   7   8
ATOM      8  C   UNL     1      65.136  28.077  59.566  1.00  0.00     0.000 C 
BRANCH   8   9
ATOM      9  C   UNL     1      66.327  27.366  58.906  1.00  0.00     0.000 C 
BRANCH   9  10
ATOM     10  C   UNL     1      67.401  27.021  59.944  1.00  0.00     0.006 C 
BRANCH  10  11
ATOM     11  C   UNL     1      68.802  27.340  59.414  1.00  0.00     0.053 C 
BRANCH  11  12
ATOM     12  C   UNL     1      69.254  28.680  59.900  1.00  0.00     0.041 C 
ATOM     13  O   UNL     1      69.025  29.713  59.216  1.00  0.00    -0.550 OA
ATOM     14  O   UNL     1      69.966  28.786  61.089  1.00  0.00    -0.550 OA
ENDBRANCH  11  12
ENDBRANCH  10  11
ENDBRANCH   9  10
ENDBRANCH   8   9
ENDBRANCH   7   8
ENDBRANCH   6   7
ENDBRANCH   5   6
ENDBRANCH   4   5
ENDBRANCH   3   4
ENDBRANCH   2   3
ENDBRANCH   1   2
BRANCH   1  15
ATOM     15  C   UNL     1      60.044  33.666  60.401  1.00  0.00     0.000 C 
BRANCH  15  16
ATOM     16  C   UNL     1      60.117  35.179  60.130  1.00  0.00     0.000 C 
BRANCH  16  17
ATOM     17  C   UNL     1      61.543  35.740  59.964  1.00  0.00     0.000 C 
BRANCH  17  18
ATOM     18  C   UNL     1      62.330  35.846  61.290  1.00  0.00    -0.000 C 
BRANCH  18  19
ATOM     19  C   UNL     1      63.857  35.968  61.117  1.00  0.00    -0.000 C 
BRANCH  19  20
ATOM     20  C   UNL     1      64.671  34.714  61.505  1.00  0.00    -0.000 C 
BRANCH  20  21
ATOM     21  C   UNL     1      64.127  33.380  60.964  1.00  0.00    -0.000 C 
BRANCH  21  22
ATOM     22  C   UNL     1      64.813  32.940  59.663  1.00  0.00    -0.000 C 
BRANCH  22  23
ATOM     23  C   UNL     1      64.151  33.596  58.441  1.00  0.00    -0.000 C 
BRANCH  23  24
ATOM     24  C   UNL     1      63.736  32.573  57.372  1.00  0.00    -0.000 C 
BRANCH  24  25
ATOM     25  C   UNL     1      64.253  31.159  57.675  1.00  0.00    -0.003 C 
ATOM     26  C   UNL     1      63.322  30.098  57.096  1.00  0.00     0.004 C 
ENDBRANCH  24  25
ENDBRANCH  23  24
ENDBRANCH  22  23
ENDBRANCH  21  22
ENDBRANCH  20  21
ENDBRANCH  19  20
ENDBRANCH  18  19
ENDBRANCH  17  18
ENDBRANCH  16  17
ENDBRANCH  15  16
ENDBRANCH   1  15
TORSDOF 22
ENDMDL
MODEL 5
REMARK VINA RESULT:    -2.973      1.382      4.066
REMARK INTER + INTRA:         -11.033
REMARK INTER:                  -6.719
REMARK INTRA:                  -4.314
REMARK UNBOUND:                -4.237
REMARK SMILES CCCCCCCCCCCCCCCCCCCCCCCC(=O)[O-]
REMARK SMILES IDX 13 1 14 2 15 3 16 4 17 5 18 6 19 7 20 8 21 9 22 10 23 11
REMARK SMILES IDX 24 12 25 13 26 14 12 15 11 16 10 17 9 18 8 19 7 20 6 21 5 22
REMARK SMILES IDX 4 23 3 24 2 25 1 26
REMARK H PARENT
REMARK Flexibility Score: inf
ROOT
ATOM      1  C   UNL     1      53.600  29.213  53.338  1.00  0.00     0.000 C 
ENDROOT
BRANCH   1   2
ATOM      2  C   UNL     1      55.022  28.625  53.467  1.00  0.00     0.000 C 
BRANCH   2   3
ATOM      3  C   UNL     1      56.016  29.618  54.093  1.00  0.00     0.000 C 
BRANCH   3   4
ATOM      4  C   UNL     1      57.394  29.584  53.415  1.00  0.00     0.000 C 
BRANCH   4   5
ATOM      5  C   UNL     1      57.379  28.809  52.085  1.00  0.00     0.000 C 
BRANCH   5   6
ATOM      6  C   UNL     1      58.790  28.565  51.523  1.00  0.00     0.000 C 
BRANCH   6   7
ATOM      7  C   UNL     1      58.919  28.720  49.994  1.00  0.00     0.000 C 
BRANCH   7   8
ATOM      8  C   UNL     1      59.574  27.530  49.272  1.00  0.00     0.000 C 
BRANCH   8   9
ATOM      9  C   UNL     1      59.273  26.182  49.943  1.00  0.00     0.000 C 
BRANCH   9  10
ATOM     10  C   UNL     1      60.555  25.545  50.491  1.00  0.00     0.006 C 
BRANCH  10  11
ATOM     11  C   UNL     1      60.405  24.025  50.615  1.00  0.00     0.053 C 
BRANCH  11  12
ATOM     12  C   UNL     1      61.740  23.358  50.523  1.00  0.00     0.041 C 
ATOM     13  O   UNL     1      62.781  24.043  50.345  1.00  0.00    -0.550 OA
ATOM     14  O   UNL     1      61.833  21.973  50.592  1.00  0.00    -0.550 OA
ENDBRANCH  11  12
ENDBRANCH  10  11
ENDBRANCH   9  10
ENDBRANCH   8   9
ENDBRANCH   7   8
ENDBRANCH   6   7
ENDBRANCH   5   6
ENDBRANCH   4   5
ENDBRANCH   3   4
ENDBRANCH   2   3
ENDBRANCH   1   2
BRANCH   1  15
ATOM     15  C   UNL     1      53.344  29.954  52.009  1.00  0.00     0.000 C 
BRANCH  15  16
ATOM     16  C   UNL     1      53.950  29.288  50.762  1.00  0.00     0.000 C 
BRANCH  16  17
ATOM     17  C   UNL     1      53.052  28.233  50.087  1.00  0.00     0.000 C 
BRANCH  17  18
ATOM     18  C   UNL     1      53.621  26.797  50.153  1.00  0.00    -0.000 C 
BRANCH  18  19
ATOM     19  C   UNL     1      55.161  26.723  50.207  1.00  0.00    -0.000 C 
BRANCH  19  20
ATOM     20  C   UNL     1      55.743  25.387  50.718  1.00  0.00    -0.000 C 
BRANCH  20  21
ATOM     21  C   UNL     1      55.871  25.264  52.247  1.00  0.00    -0.000 C 
BRANCH  21  22
ATOM     22  C   UNL     1      57.296  24.920  52.702  1.00  0.00    -0.000 C 
BRANCH  22  23
ATOM     23  C   UNL     1      57.477  25.194  54.203  1.00  0.00    -0.000 C 
BRANCH  23  24
ATOM     24  C   UNL     1      58.548  26.260  54.484  1.00  0.00    -0.000 C 
BRANCH  24  25
ATOM     25  C   UNL     1      59.957  25.803  54.081  1.00  0.00    -0.003 C 
ATOM     26  C   UNL     1      60.928  26.979  54.047  1.00  0.00     0.004 C 
ENDBRANCH  24  25
ENDBRANCH  23  24
ENDBRANCH  22  23
ENDBRANCH  21  22
ENDBRANCH  20  21
ENDBRANCH  19  20
ENDBRANCH  18  19
ENDBRANCH  17  18
ENDBRANCH  16  17
ENDBRANCH  15  16
ENDBRANCH   1  15
TORSDOF 22
ENDMDL
MODEL 6
REMARK VINA RESULT:    -2.963      3.908      6.008
REMARK INTER + INTRA:         -11.010
REMARK INTER:                  -6.786
REMARK INTRA:                  -4.224
REMARK UNBOUND:                -4.237
REMARK SMILES CCCCCCCCCCCCCCCCCCCCCCCC(=O)[O-]
REMARK SMILES IDX 13 1 14 2 15 3 16 4 17 5 18 6 19 7 20 8 21 9 22 10 23 11
REMARK SMILES IDX 24 12 25 13 26 14 12 15 11 16 10 17 9 18 8 19 7 20 6 21 5 22
REMARK SMILES IDX 4 23 3 24 2 25 1 26
REMARK H PARENT
REMARK Flexibility Score: inf
ROOT
ATOM      1  C   UNL     1      57.573  25.697  53.391  1.00  0.00     0.000 C 
ENDROOT
BRANCH   1   2
ATOM      2  C   UNL     1      58.821  25.555  52.493  1.00  0.00     0.000 C 
BRANCH   2   3
ATOM      3  C   UNL     1      58.558  24.684  51.252  1.00  0.00     0.000 C 
BRANCH   3   4
ATOM      4  C   UNL     1      58.978  25.373  49.945  1.00  0.00     0.000 C 
BRANCH   4   5
ATOM      5  C   UNL     1      59.877  26.599  50.185  1.00  0.00     0.000 C 
BRANCH   5   6
ATOM      6  C   UNL     1      59.491  27.801  49.307  1.00  0.00     0.000 C 
BRANCH   6   7
ATOM      7  C   UNL     1      58.523  28.807  49.965  1.00  0.00     0.000 C 
BRANCH   7   8
ATOM      8  C   UNL     1      58.831  29.139  51.435  1.00  0.00     0.000 C 
BRANCH   8   9
ATOM      9  C   UNL     1      57.571  29.199  52.312  1.00  0.00     0.000 C 
BRANCH   9  10
ATOM     10  C   UNL     1      57.770  30.160  53.490  1.00  0.00     0.006 C 
BRANCH  10  11
ATOM     11  C   UNL     1      58.884  31.170  53.195  1.00  0.00     0.053 C 
BRANCH  11  12
ATOM     12  C   UNL     1      58.387  32.568  53.380  1.00  0.00     0.041 C 
ATOM     13  O   UNL     1      57.169  32.782  53.619  1.00  0.00    -0.550 OA
ATOM     14  O   UNL     1      59.260  33.641  53.247  1.00  0.00    -0.550 OA
ENDBRANCH  11  12
ENDBRANCH  10  11
ENDBRANCH   9  10
ENDBRANCH   8   9
ENDBRANCH   7   8
ENDBRANCH   6   7
ENDBRANCH   5   6
ENDBRANCH   4   5
ENDBRANCH   3   4
ENDBRANCH   2   3
ENDBRANCH   1   2
BRANCH   1  15
ATOM     15  C   UNL     1      57.064  24.363  53.976  1.00  0.00     0.000 C 
BRANCH  15  16
ATOM     16  C   UNL     1      55.706  23.887  53.432  1.00  0.00     0.000 C 
BRANCH  16  17
ATOM     17  C   UNL     1      54.487  24.291  54.284  1.00  0.00     0.000 C 
BRANCH  17  18
ATOM     18  C   UNL     1      53.672  25.462  53.690  1.00  0.00    -0.000 C 
BRANCH  18  19
ATOM     19  C   UNL     1      53.835  26.799  54.442  1.00  0.00    -0.000 C 
BRANCH  19  20
ATOM     20  C   UNL     1      54.321  27.988  53.585  1.00  0.00    -0.000 C 
BRANCH  20  21
ATOM     21  C   UNL     1      53.343  28.460  52.495  1.00  0.00    -0.000 C 
BRANCH  21  22
ATOM     22  C   UNL     1      54.051  28.875  51.197  1.00  0.00    -0.000 C 
BRANCH  22  23
ATOM     23  C   UNL     1      54.128  27.698  50.212  1.00  0.00    -0.000 C 
BRANCH  23  24
ATOM     24  C   UNL     1      55.403  26.858  50.392  1.00  0.00    -0.000 C 
BRANCH  24  25
ATOM     25  C   UNL     1      55.147  25.353  50.223  1.00  0.00    -0.003 C 
ATOM     26  C   UNL     1      53.784  25.097  49.587  1.00  0.00     0.004 C 
ENDBRANCH  24  25
ENDBRANCH  23  24
ENDBRANCH  22  23
ENDBRANCH  21  22
ENDBRANCH  20  21
ENDBRANCH  19  20
ENDBRANCH  18  19
ENDBRANCH  17  18
ENDBRANCH  16  17
ENDBRANCH  15  16
ENDBRANCH   1  15
TORSDOF 22
ENDMDL
MODEL 7
REMARK VINA RESULT:    -2.921      3.525      7.815
REMARK INTER + INTRA:         -10.916
REMARK INTER:                  -7.211
REMARK INTRA:                  -3.705
REMARK UNBOUND:                -4.237
REMARK SMILES CCCCCCCCCCCCCCCCCCCCCCCC(=O)[O-]
REMARK SMILES IDX 13 1 14 2 15 3 16 4 17 5 18 6 19 7 20 8 21 9 22 10 23 11
REMARK SMILES IDX 24 12 25 13 26 14 12 15 11 16 10 17 9 18 8 19 7 20 6 21 5 22
REMARK SMILES IDX 4 23 3 24 2 25 1 26
REMARK H PARENT
REMARK Flexibility Score: inf
ROOT
ATOM      1  C   UNL     1      54.852  25.547  49.963  1.00  0.00     0.000 C 
ENDROOT
BRANCH   1   2
ATOM      2  C   UNL     1      53.847  26.410  50.756  1.00  0.00     0.000 C 
BRANCH   2   3
ATOM      3  C   UNL     1      53.427  27.679  49.993  1.00  0.00     0.000 C 
BRANCH   3   4
ATOM      4  C   UNL     1      53.622  28.958  50.818  1.00  0.00     0.000 C 
BRANCH   4   5
ATOM      5  C   UNL     1      53.662  28.686  52.333  1.00  0.00     0.000 C 
BRANCH   5   6
ATOM      6  C   UNL     1      53.349  29.936  53.172  1.00  0.00     0.000 C 
BRANCH   6   7
ATOM      7  C   UNL     1      54.083  31.219  52.730  1.00  0.00     0.000 C 
BRANCH   7   8
ATOM      8  C   UNL     1      55.187  31.699  53.688  1.00  0.00     0.000 C 
BRANCH   8   9
ATOM      9  C   UNL     1      56.471  30.862  53.590  1.00  0.00     0.000 C 
BRANCH   9  10
ATOM     10  C   UNL     1      56.644  29.979  54.831  1.00  0.00     0.006 C 
BRANCH  10  11
ATOM     11  C   UNL     1      55.813  30.507  56.004  1.00  0.00     0.053 C 
BRANCH  11  12
ATOM     12  C   UNL     1      55.448  29.393  56.932  1.00  0.00     0.041 C 
ATOM     13  O   UNL     1      54.736  28.436  56.525  1.00  0.00    -0.550 OA
ATOM     14  O   UNL     1      55.858  29.429  58.259  1.00  0.00    -0.550 OA
ENDBRANCH  11  12
ENDBRANCH  10  11
ENDBRANCH   9  10
ENDBRANCH   8   9
ENDBRANCH   7   8
ENDBRANCH   6   7
ENDBRANCH   5   6
ENDBRANCH   4   5
ENDBRANCH   3   4
ENDBRANCH   2   3
ENDBRANCH   1   2
BRANCH   1  15
ATOM     15  C   UNL     1      56.313  25.682  50.443  1.00  0.00     0.000 C 
BRANCH  15  16
ATOM     16  C   UNL     1      56.482  26.140  51.902  1.00  0.00     0.000 C 
BRANCH  16  17
ATOM     17  C   UNL     1      57.214  27.484  52.080  1.00  0.00     0.000 C 
BRANCH  17  18
ATOM     18  C   UNL     1      57.179  28.384  50.824  1.00  0.00    -0.000 C 
BRANCH  18  19
ATOM     19  C   UNL     1      58.565  28.857  50.340  1.00  0.00    -0.000 C 
BRANCH  19  20
ATOM     20  C   UNL     1      59.266  27.928  49.324  1.00  0.00    -0.000 C 
BRANCH  20  21
ATOM     21  C   UNL     1      60.342  26.998  49.912  1.00  0.00    -0.000 C 
BRANCH  21  22
ATOM     22  C   UNL     1      59.923  25.521  49.905  1.00  0.00    -0.000 C 
BRANCH  22  23
ATOM     23  C   UNL     1      59.967  24.930  51.323  1.00  0.00    -0.000 C 
BRANCH  23  24
ATOM     24  C   UNL     1      59.805  23.401  51.332  1.00  0.00    -0.000 C 
BRANCH  24  25
ATOM     25  C   UNL     1      60.970  22.680  50.641  1.00  0.00    -0.003 C 
ATOM     26  C   UNL     1      60.480  21.456  49.872  1.00  0.00     0.004 C 
ENDBRANCH  24  25
ENDBRANCH  23  24
ENDBRANCH  22  23
ENDBRANCH  21  22
ENDBRANCH  20  21
ENDBRANCH  19  20
ENDBRANCH  18  19
ENDBRANCH  17  18
ENDBRANCH  16  17
ENDBRANCH  15  16
ENDBRANCH   1  15
TORSDOF 22
ENDMDL
MODEL 8
REMARK VINA RESULT:    -2.903      2.213      3.773
REMARK INTER + INTRA:         -10.874
REMARK INTER:                  -7.021
REMARK INTRA:                  -3.853
REMARK UNBOUND:                -4.237
REMARK SMILES CCCCCCCCCCCCCCCCCCCCCCCC(=O)[O-]
REMARK SMILES IDX 13 1 14 2 15 3 16 4 17 5 18 6 19 7 20 8 21 9 22 10 23 11
REMARK SMILES IDX 24 12 25 13 26 14 12 15 11 16 10 17 9 18 8 19 7 20 6 21 5 22
REMARK SMILES IDX 4 23 3 24 2 25 1 26
REMARK H PARENT
REMARK Flexibility Score: inf
ROOT
ATOM      1  C   UNL     1      58.491  24.169  51.384  1.00  0.00     0.000 C 
ENDROOT
BRANCH   1   2
ATOM      2  C   UNL     1      58.628  25.360  50.411  1.00  0.00     0.000 C 
BRANCH   2   3
ATOM      3  C   UNL     1      60.068  25.540  49.898  1.00  0.00     0.000 C 
BRANCH   3   4
ATOM      4  C   UNL     1      61.068  25.820  51.029  1.00  0.00     0.000 C 
BRANCH   4   5
ATOM      5  C   UNL     1      62.528  25.590  50.598  1.00  0.00     0.000 C 
BRANCH   5   6
ATOM      6  C   UNL     1      62.998  24.145  50.833  1.00  0.00     0.000 C 
BRANCH   6   7
ATOM      7  C   UNL     1      62.297  23.411  51.995  1.00  0.00     0.000 C 
BRANCH   7   8
ATOM      8  C   UNL     1      61.640  22.072  51.618  1.00  0.00     0.000 C 
BRANCH   8   9
ATOM      9  C   UNL     1      61.186  22.020  50.152  1.00  0.00     0.000 C 
BRANCH   9  10
ATOM     10  C   UNL     1      60.287  20.804  49.901  1.00  0.00     0.006 C 
BRANCH  10  11
ATOM     11  C   UNL     1      59.897  20.126  51.218  1.00  0.00     0.053 C 
BRANCH  11  12
ATOM     12  C   UNL     1      59.042  18.927  50.958  1.00  0.00     0.041 C 
ATOM     13  O   UNL     1      59.207  18.245  49.912  1.00  0.00    -0.550 OA
ATOM     14  O   UNL     1      58.033  18.583  51.849  1.00  0.00    -0.550 OA
ENDBRANCH  11  12
ENDBRANCH  10  11
ENDBRANCH   9  10
ENDBRANCH   8   9
ENDBRANCH   7   8
ENDBRANCH   6   7
ENDBRANCH   5   6
ENDBRANCH   4   5
ENDBRANCH   3   4
ENDBRANCH   2   3
ENDBRANCH   1   2
BRANCH   1  15
ATOM     15  C   UNL     1      58.108  24.573  52.823  1.00  0.00     0.000 C 
BRANCH  15  16
ATOM     16  C   UNL     1      56.671  24.219  53.241  1.00  0.00     0.000 C 
BRANCH  16  17
ATOM     17  C   UNL     1      55.616  25.295  52.917  1.00  0.00     0.000 C 
BRANCH  17  18
ATOM     18  C   UNL     1      54.671  24.911  51.756  1.00  0.00    -0.000 C 
BRANCH  18  19
ATOM     19  C   UNL     1      55.005  25.589  50.411  1.00  0.00    -0.000 C 
BRANCH  19  20
ATOM     20  C   UNL     1      54.224  26.886  50.109  1.00  0.00    -0.000 C 
BRANCH  20  21
ATOM     21  C   UNL     1      54.793  28.165  50.748  1.00  0.00    -0.000 C 
BRANCH  21  22
ATOM     22  C   UNL     1      56.325  28.240  50.669  1.00  0.00    -0.000 C 
BRANCH  22  23
ATOM     23  C   UNL     1      56.931  28.568  52.042  1.00  0.00    -0.000 C 
BRANCH  23  24
ATOM     24  C   UNL     1      58.455  28.763  51.984  1.00  0.00    -0.000 C 
BRANCH  24  25
ATOM     25  C   UNL     1      58.967  28.997  50.555  1.00  0.00    -0.003 C 
ATOM     26  C   UNL     1      60.458  29.322  50.553  1.00  0.00     0.004 C 
ENDBRANCH  24  25
ENDBRANCH  23  24
ENDBRANCH  22  23
ENDBRANCH  21  22
ENDBRANCH  20  21
ENDBRANCH  19  20
ENDBRANCH  18  19
ENDBRANCH  17  18
ENDBRANCH  16  17
ENDBRANCH  15  16
ENDBRANCH   1  15
TORSDOF 22
ENDMDL
MODEL 9
REMARK VINA RESULT:    -2.897      3.244      4.857
REMARK INTER + INTRA:         -10.861
REMARK INTER:                  -6.021
REMARK INTRA:                  -4.840
REMARK UNBOUND:                -4.237
REMARK SMILES CCCCCCCCCCCCCCCCCCCCCCCC(=O)[O-]
REMARK SMILES IDX 13 1 14 2 15 3 16 4 17 5 18 6 19 7 20 8 21 9 22 10 23 11
REMARK SMILES IDX 24 12 25 13 26 14 12 15 11 16 10 17 9 18 8 19 7 20 6 21 5 22
REMARK SMILES IDX 4 23 3 24 2 25 1 26
REMARK H PARENT
REMARK Flexibility Score: inf
ROOT
ATOM      1  C   UNL     1      56.928  25.654  53.961  1.00  0.00     0.000 C 
ENDROOT
BRANCH   1   2
ATOM      2  C   UNL     1      58.201  26.270  53.342  1.00  0.00     0.000 C 
BRANCH   2   3
ATOM      3  C   UNL     1      59.104  25.215  52.678  1.00  0.00     0.000 C 
BRANCH   3   4
ATOM      4  C   UNL     1      58.429  24.525  51.484  1.00  0.00     0.000 C 
BRANCH   4   5
ATOM      5  C   UNL     1      58.687  25.257  50.155  1.00  0.00     0.000 C 
BRANCH   5   6
ATOM      6  C   UNL     1      60.142  25.735  50.010  1.00  0.00     0.000 C 
BRANCH   6   7
ATOM      7  C   UNL     1      60.312  27.252  49.789  1.00  0.00     0.000 C 
BRANCH   7   8
ATOM      8  C   UNL     1      59.010  28.018  49.502  1.00  0.00     0.000 C 
BRANCH   8   9
ATOM      9  C   UNL     1      58.622  28.985  50.631  1.00  0.00     0.000 C 
BRANCH   9  10
ATOM     10  C   UNL     1      59.715  29.039  51.705  1.00  0.00     0.006 C 
BRANCH  10  11
ATOM     11  C   UNL     1      59.842  30.448  52.292  1.00  0.00     0.053 C 
BRANCH  11  12
ATOM     12  C   UNL     1      58.766  30.695  53.300  1.00  0.00     0.041 C 
ATOM     13  O   UNL     1      58.191  31.814  53.355  1.00  0.00    -0.550 OA
ATOM     14  O   UNL     1      58.424  29.702  54.211  1.00  0.00    -0.550 OA
ENDBRANCH  11  12
ENDBRANCH  10  11
ENDBRANCH   9  10
ENDBRANCH   8   9
ENDBRANCH   7   8
ENDBRANCH   6   7
ENDBRANCH   5   6
ENDBRANCH   4   5
ENDBRANCH   3   4
ENDBRANCH   2   3
ENDBRANCH   1   2
BRANCH   1  15
ATOM     15  C   UNL     1      56.043  26.668  54.716  1.00  0.00     0.000 C 
BRANCH  15  16
ATOM     16  C   UNL     1      54.578  26.239  54.911  1.00  0.00     0.000 C 
BRANCH  16  17
ATOM     17  C   UNL     1      54.104  25.105  53.982  1.00  0.00     0.000 C 
BRANCH  17  18
ATOM     18  C   UNL     1      52.884  25.483  53.111  1.00  0.00    -0.000 C 
BRANCH  18  19
ATOM     19  C   UNL     1      53.038  25.140  51.615  1.00  0.00    -0.000 C 
BRANCH  19  20
ATOM     20  C   UNL     1      54.476  24.820  51.152  1.00  0.00    -0.000 C 
BRANCH  20  21
ATOM     21  C   UNL     1      55.057  25.773  50.092  1.00  0.00    -0.000 C 
BRANCH  21  22
ATOM     22  C   UNL     1      55.509  27.116  50.681  1.00  0.00    -0.000 C 
BRANCH  22  23
ATOM     23  C   UNL     1      54.493  28.225  50.367  1.00  0.00    -0.000 C 
BRANCH  23  24
ATOM     24  C   UNL     1      54.124  29.058  51.606  1.00  0.00    -0.000 C 
BRANCH  24  25
ATOM     25  C   UNL     1      55.346  29.405  52.468  1.00  0.00    -0.003 C 
ATOM     26  C   UNL     1      54.924  30.070  53.775  1.00  0.00     0.004 C 
ENDBRANCH  24  25
ENDBRANCH  23  24
ENDBRANCH  22  23
ENDBRANCH  21  22
ENDBRANCH  20  21
ENDBRANCH  19  20
ENDBRANCH  18  19
ENDBRANCH  17  18
ENDBRANCH  16  17
ENDBRANCH  15  16
ENDBRANCH   1  15
TORSDOF 22
ENDMDL
