MODEL 1
REMARK VINA RESULT:    18.915      0.000      0.000
REMARK INTER + INTRA:          32.700
REMARK INTER:                  33.291
REMARK INTRA:                  -0.591
REMARK UNBOUND:                -0.591
REMARK SMILES CCCCCCC=CCCCCCCCC(=O)[O-]
REMARK SMILES IDX 10 1 11 2 12 3 13 4 14 5 15 6 16 7 17 8 18 9 9 10 8 11 7 12
REMARK SMILES IDX 6 13 5 14 4 15 3 16 2 17 1 18
REMARK H PARENT
REMARK Flexibility Score: inf
ROOT
ATOM      1  C   UNL     1     -42.047  23.763 -13.085  1.00  0.00     0.004 C 
ENDROOT
BRANCH   1   2
ATOM      2  C   UNL     1     -40.981  24.271 -12.102  1.00  0.00     0.000 C 
BRANCH   2   3
ATOM      3  C   UNL     1     -41.629  24.995 -10.913  1.00  0.00     0.000 C 
BRANCH   3   4
ATOM      4  C   UNL     1     -43.112  24.628 -10.722  1.00  0.00     0.000 C 
BRANCH   4   5
ATOM      5  C   UNL     1     -43.642  24.792  -9.285  1.00  0.00     0.006 C 
BRANCH   5   6
ATOM      6  C   UNL     1     -45.158  25.013  -9.230  1.00  0.00     0.053 C 
BRANCH   6   7
ATOM      7  C   UNL     1     -45.530  25.777  -7.998  1.00  0.00     0.041 C 
ATOM      8  O   UNL     1     -46.535  26.536  -8.002  1.00  0.00    -0.550 OA
ATOM      9  O   UNL     1     -44.738  25.689  -6.861  1.00  0.00    -0.550 OA
ENDBRANCH   6   7
ENDBRANCH   5   6
ENDBRANCH   4   5
ENDBRANCH   3   4
ENDBRANCH   2   3
ENDBRANCH   1   2
BRANCH   1  10
ATOM     10  C   UNL     1     -41.959  24.461 -14.447  1.00  0.00     0.027 C 
BRANCH  10  11
ATOM     11  C   UNL     1     -42.328  23.528 -15.568  1.00  0.00    -0.031 C 
ATOM     12  C   UNL     1     -41.644  23.508 -16.722  1.00  0.00    -0.031 C 
BRANCH  12  13
ATOM     13  C   UNL     1     -41.968  22.524 -17.811  1.00  0.00     0.027 C 
BRANCH  13  14
ATOM     14  C   UNL     1     -40.712  21.757 -18.249  1.00  0.00     0.004 C 
BRANCH  14  15
ATOM     15  C   UNL     1     -39.437  22.614 -18.192  1.00  0.00     0.000 C 
BRANCH  15  16
ATOM     16  C   UNL     1     -38.384  22.228 -19.253  1.00  0.00    -0.000 C 
BRANCH  16  17
ATOM     17  C   UNL     1     -37.417  23.381 -19.556  1.00  0.00    -0.003 C 
ATOM     18  C   UNL     1     -38.007  24.338 -20.589  1.00  0.00     0.004 C 
ENDBRANCH  16  17
ENDBRANCH  15  16
ENDBRANCH  14  15
ENDBRANCH  13  14
ENDBRANCH  12  13
ENDBRANCH  10  11
ENDBRANCH   1  10
TORSDOF 13
ENDMDL
MODEL 2
REMARK VINA RESULT:    19.453      5.843      9.784
REMARK INTER + INTRA:          33.647
REMARK INTER:                  34.187
REMARK INTRA:                  -0.541
REMARK UNBOUND:                -0.591
REMARK SMILES CCCCCCC=CCCCCCCCC(=O)[O-]
REMARK SMILES IDX 10 1 11 2 12 3 13 4 14 5 15 6 16 7 17 8 18 9 9 10 8 11 7 12
REMARK SMILES IDX 6 13 5 14 4 15 3 16 2 17 1 18
REMARK H PARENT
REMARK Flexibility Score: inf
ROOT
ATOM      1  C   UNL     1     -40.542  21.920 -18.294  1.00  0.00     0.004 C 
ENDROOT
BRANCH   1   2
ATOM      2  C   UNL     1     -39.438  22.985 -18.352  1.00  0.00     0.000 C 
BRANCH   2   3
ATOM      3  C   UNL     1     -38.120  22.385 -18.865  1.00  0.00     0.000 C 
BRANCH   3   4
ATOM      4  C   UNL     1     -37.575  23.110 -20.109  1.00  0.00     0.000 C 
BRANCH   4   5
ATOM      5  C   UNL     1     -38.300  24.420 -20.467  1.00  0.00     0.006 C 
BRANCH   5   6
ATOM      6  C   UNL     1     -37.349  25.506 -20.987  1.00  0.00     0.053 C 
BRANCH   6   7
ATOM      7  C   UNL     1     -38.082  26.458 -21.879  1.00  0.00     0.041 C 
ATOM      8  O   UNL     1     -39.057  26.058 -22.569  1.00  0.00    -0.550 OA
ATOM      9  O   UNL     1     -37.658  27.776 -21.986  1.00  0.00    -0.550 OA
ENDBRANCH   6   7
ENDBRANCH   5   6
ENDBRANCH   4   5
ENDBRANCH   3   4
ENDBRANCH   2   3
ENDBRANCH   1   2
BRANCH   1  10
ATOM     10  C   UNL     1     -41.895  22.509 -17.878  1.00  0.00     0.027 C 
BRANCH  10  11
ATOM     11  C   UNL     1     -41.757  23.415 -16.684  1.00  0.00    -0.031 C 
ATOM     12  C   UNL     1     -42.634  23.382 -15.670  1.00  0.00    -0.031 C 
BRANCH  12  13
ATOM     13  C   UNL     1     -42.452  24.234 -14.445  1.00  0.00     0.027 C 
BRANCH  13  14
ATOM     14  C   UNL     1     -42.181  23.366 -13.208  1.00  0.00     0.004 C 
BRANCH  14  15
ATOM     15  C   UNL     1     -41.920  24.197 -11.940  1.00  0.00     0.000 C 
BRANCH  15  16
ATOM     16  C   UNL     1     -40.440  24.593 -11.755  1.00  0.00    -0.000 C 
BRANCH  16  17
ATOM     17  C   UNL     1     -39.598  24.289 -13.003  1.00  0.00    -0.003 C 
ATOM     18  C   UNL     1     -38.348  23.491 -12.643  1.00  0.00     0.004 C 
ENDBRANCH  16  17
ENDBRANCH  15  16
ENDBRANCH  14  15
ENDBRANCH  13  14
ENDBRANCH  12  13
ENDBRANCH  10  11
ENDBRANCH   1  10
TORSDOF 13
ENDMDL
MODEL 3
REMARK VINA RESULT:    19.611      6.848     10.259
REMARK INTER + INTRA:          33.924
REMARK INTER:                  34.702
REMARK INTRA:                  -0.777
REMARK UNBOUND:                -0.591
REMARK SMILES CCCCCCC=CCCCCCCCC(=O)[O-]
REMARK SMILES IDX 10 1 11 2 12 3 13 4 14 5 15 6 16 7 17 8 18 9 9 10 8 11 7 12
REMARK SMILES IDX 6 13 5 14 4 15 3 16 2 17 1 18
REMARK H PARENT
REMARK Flexibility Score: inf
ROOT
ATOM      1  C   UNL     1     -38.404  28.902 -22.050  1.00  0.00     0.004 C 
ENDROOT
BRANCH   1   2
ATOM      2  C   UNL     1     -38.843  29.597 -20.752  1.00  0.00     0.000 C 
BRANCH   2   3
ATOM      3  C   UNL     1     -40.367  29.775 -20.710  1.00  0.00     0.000 C 
BRANCH   3   4
ATOM      4  C   UNL     1     -41.042  29.492 -22.065  1.00  0.00     0.000 C 
BRANCH   4   5
ATOM      5  C   UNL     1     -41.875  30.656 -22.631  1.00  0.00     0.006 C 
BRANCH   5   6
ATOM      6  C   UNL     1     -43.382  30.473 -22.412  1.00  0.00     0.053 C 
BRANCH   6   7
ATOM      7  C   UNL     1     -43.936  31.613 -21.615  1.00  0.00     0.041 C 
ATOM      8  O   UNL     1     -43.498  31.849 -20.458  1.00  0.00    -0.550 OA
ATOM      9  O   UNL     1     -44.970  32.383 -22.130  1.00  0.00    -0.550 OA
ENDBRANCH   6   7
ENDBRANCH   5   6
ENDBRANCH   4   5
ENDBRANCH   3   4
ENDBRANCH   2   3
ENDBRANCH   1   2
BRANCH   1  10
ATOM     10  C   UNL     1     -37.406  27.767 -21.792  1.00  0.00     0.027 C 
BRANCH  10  11
ATOM     11  C   UNL     1     -38.105  26.442 -21.652  1.00  0.00    -0.031 C 
ATOM     12  C   UNL     1     -37.556  25.425 -20.972  1.00  0.00    -0.031 C 
BRANCH  12  13
ATOM     13  C   UNL     1     -38.288  24.127 -20.770  1.00  0.00     0.027 C 
BRANCH  13  14
ATOM     14  C   UNL     1     -37.531  23.216 -19.794  1.00  0.00     0.004 C 
BRANCH  14  15
ATOM     15  C   UNL     1     -38.461  22.269 -19.017  1.00  0.00     0.000 C 
BRANCH  15  16
ATOM     16  C   UNL     1     -39.561  23.001 -18.218  1.00  0.00    -0.000 C 
BRANCH  16  17
ATOM     17  C   UNL     1     -40.840  22.160 -18.091  1.00  0.00    -0.003 C 
ATOM     18  C   UNL     1     -41.959  22.959 -17.428  1.00  0.00     0.004 C 
ENDBRANCH  16  17
ENDBRANCH  15  16
ENDBRANCH  14  15
ENDBRANCH  13  14
ENDBRANCH  12  13
ENDBRANCH  10  11
ENDBRANCH   1  10
TORSDOF 13
ENDMDL
MODEL 4
REMARK VINA RESULT:    19.635      3.730      5.423
REMARK INTER + INTRA:          33.967
REMARK INTER:                  34.324
REMARK INTRA:                  -0.357
REMARK UNBOUND:                -0.591
REMARK SMILES CCCCCCC=CCCCCCCCC(=O)[O-]
REMARK SMILES IDX 10 1 11 2 12 3 13 4 14 5 15 6 16 7 17 8 18 9 9 10 8 11 7 12
REMARK SMILES IDX 6 13 5 14 4 15 3 16 2 17 1 18
REMARK H PARENT
REMARK Flexibility Score: inf
ROOT
ATOM      1  C   UNL     1     -41.970  23.309 -17.212  1.00  0.00     0.004 C 
ENDROOT
BRANCH   1   2
ATOM      2  C   UNL     1     -42.624  22.772 -15.930  1.00  0.00     0.000 C 
BRANCH   2   3
ATOM      3  C   UNL     1     -42.667  23.851 -14.839  1.00  0.00     0.000 C 
BRANCH   3   4
ATOM      4  C   UNL     1     -42.221  23.330 -13.461  1.00  0.00     0.000 C 
BRANCH   4   5
ATOM      5  C   UNL     1     -41.840  24.424 -12.446  1.00  0.00     0.006 C 
BRANCH   5   6
ATOM      6  C   UNL     1     -40.431  24.237 -11.868  1.00  0.00     0.053 C 
BRANCH   6   7
ATOM      7  C   UNL     1     -39.415  24.220 -12.967  1.00  0.00     0.041 C 
ATOM      8  O   UNL     1     -38.338  23.582 -12.824  1.00  0.00    -0.550 OA
ATOM      9  O   UNL     1     -39.635  24.949 -14.128  1.00  0.00    -0.550 OA
ENDBRANCH   6   7
ENDBRANCH   5   6
ENDBRANCH   4   5
ENDBRANCH   3   4
ENDBRANCH   2   3
ENDBRANCH   1   2
BRANCH   1  10
ATOM     10  C   UNL     1     -40.935  22.335 -17.788  1.00  0.00     0.027 C 
BRANCH  10  11
ATOM     11  C   UNL     1     -39.909  23.052 -18.622  1.00  0.00    -0.031 C 
ATOM     12  C   UNL     1     -38.671  22.564 -18.788  1.00  0.00    -0.031 C 
BRANCH  12  13
ATOM     13  C   UNL     1     -37.671  23.243 -19.682  1.00  0.00     0.027 C 
BRANCH  13  14
ATOM     14  C   UNL     1     -38.349  24.307 -20.557  1.00  0.00     0.004 C 
BRANCH  14  15
ATOM     15  C   UNL     1     -37.373  25.389 -21.047  1.00  0.00     0.000 C 
BRANCH  15  16
ATOM     16  C   UNL     1     -38.039  26.470 -21.926  1.00  0.00    -0.000 C 
BRANCH  16  17
ATOM     17  C   UNL     1     -37.474  27.871 -21.650  1.00  0.00    -0.003 C 
ATOM     18  C   UNL     1     -38.579  28.923 -21.667  1.00  0.00     0.004 C 
ENDBRANCH  16  17
ENDBRANCH  15  16
ENDBRANCH  14  15
ENDBRANCH  13  14
ENDBRANCH  12  13
ENDBRANCH  10  11
ENDBRANCH   1  10
TORSDOF 13
ENDMDL
MODEL 5
REMARK VINA RESULT:    19.742      3.316      6.250
REMARK INTER + INTRA:          34.154
REMARK INTER:                  34.772
REMARK INTRA:                  -0.618
REMARK UNBOUND:                -0.591
REMARK SMILES CCCCCCC=CCCCCCCCC(=O)[O-]
REMARK SMILES IDX 10 1 11 2 12 3 13 4 14 5 15 6 16 7 17 8 18 9 9 10 8 11 7 12
REMARK SMILES IDX 6 13 5 14 4 15 3 16 2 17 1 18
REMARK H PARENT
REMARK Flexibility Score: inf
ROOT
ATOM      1  C   UNL     1     -39.658  23.111 -18.226  1.00  0.00     0.004 C 
ENDROOT
BRANCH   1   2
ATOM      2  C   UNL     1     -40.937  22.276 -18.068  1.00  0.00     0.000 C 
BRANCH   2   3
ATOM      3  C   UNL     1     -42.027  23.070 -17.335  1.00  0.00     0.000 C 
BRANCH   3   4
ATOM      4  C   UNL     1     -41.504  23.791 -16.080  1.00  0.00     0.000 C 
BRANCH   4   5
ATOM      5  C   UNL     1     -42.577  24.117 -15.024  1.00  0.00     0.006 C 
BRANCH   5   6
ATOM      6  C   UNL     1     -42.459  23.247 -13.766  1.00  0.00     0.053 C 
BRANCH   6   7
ATOM      7  C   UNL     1     -41.721  23.982 -12.690  1.00  0.00     0.041 C 
ATOM      8  O   UNL     1     -42.323  24.348 -11.646  1.00  0.00    -0.550 OA
ATOM      9  O   UNL     1     -40.382  24.306 -12.863  1.00  0.00    -0.550 OA
ENDBRANCH   6   7
ENDBRANCH   5   6
ENDBRANCH   4   5
ENDBRANCH   3   4
ENDBRANCH   2   3
ENDBRANCH   1   2
BRANCH   1  10
ATOM     10  C   UNL     1     -38.553  22.346 -18.964  1.00  0.00     0.027 C 
BRANCH  10  11
ATOM     11  C   UNL     1     -37.697  23.273 -19.785  1.00  0.00    -0.031 C 
ATOM     12  C   UNL     1     -38.222  24.314 -20.446  1.00  0.00    -0.031 C 
BRANCH  12  13
ATOM     13  C   UNL     1     -37.357  25.282 -21.205  1.00  0.00     0.027 C 
BRANCH  13  14
ATOM     14  C   UNL     1     -38.183  26.464 -21.730  1.00  0.00     0.004 C 
BRANCH  14  15
ATOM     15  C   UNL     1     -37.442  27.807 -21.622  1.00  0.00     0.000 C 
BRANCH  15  16
ATOM     16  C   UNL     1     -38.279  29.015 -22.095  1.00  0.00    -0.000 C 
BRANCH  16  17
ATOM     17  C   UNL     1     -39.232  29.522 -21.002  1.00  0.00    -0.003 C 
ATOM     18  C   UNL     1     -40.690  29.333 -21.412  1.00  0.00     0.004 C 
ENDBRANCH  16  17
ENDBRANCH  15  16
ENDBRANCH  14  15
ENDBRANCH  13  14
ENDBRANCH  12  13
ENDBRANCH  10  11
ENDBRANCH   1  10
TORSDOF 13
ENDMDL
MODEL 6
REMARK VINA RESULT:    20.035      5.483      9.941
REMARK INTER + INTRA:          34.670
REMARK INTER:                  35.322
REMARK INTRA:                  -0.652
REMARK UNBOUND:                -0.591
REMARK SMILES CCCCCCC=CCCCCCCCC(=O)[O-]
REMARK SMILES IDX 10 1 11 2 12 3 13 4 14 5 15 6 16 7 17 8 18 9 9 10 8 11 7 12
REMARK SMILES IDX 6 13 5 14 4 15 3 16 2 17 1 18
REMARK H PARENT
REMARK Flexibility Score: inf
ROOT
ATOM      1  C   UNL     1     -37.794  23.299 -19.313  1.00  0.00     0.004 C 
ENDROOT
BRANCH   1   2
ATOM      2  C   UNL     1     -38.346  24.090 -20.508  1.00  0.00     0.000 C 
BRANCH   2   3
ATOM      3  C   UNL     1     -37.375  25.203 -20.927  1.00  0.00     0.000 C 
BRANCH   3   4
ATOM      4  C   UNL     1     -38.052  26.309 -21.758  1.00  0.00     0.000 C 
BRANCH   4   5
ATOM      5  C   UNL     1     -37.517  27.731 -21.505  1.00  0.00     0.006 C 
BRANCH   5   6
ATOM      6  C   UNL     1     -38.324  28.810 -22.236  1.00  0.00     0.053 C 
BRANCH   6   7
ATOM      7  C   UNL     1     -39.367  29.386 -21.330  1.00  0.00     0.041 C 
ATOM      8  O   UNL     1     -40.583  29.342 -21.656  1.00  0.00    -0.550 OA
ATOM      9  O   UNL     1     -38.992  30.015 -20.151  1.00  0.00    -0.550 OA
ENDBRANCH   6   7
ENDBRANCH   5   6
ENDBRANCH   4   5
ENDBRANCH   3   4
ENDBRANCH   2   3
ENDBRANCH   1   2
BRANCH   1  10
ATOM     10  C   UNL     1     -38.763  22.208 -18.842  1.00  0.00     0.027 C 
BRANCH  10  11
ATOM     11  C   UNL     1     -39.837  22.774 -17.953  1.00  0.00    -0.031 C 
ATOM     12  C   UNL     1     -41.133  22.484 -18.143  1.00  0.00    -0.031 C 
BRANCH  12  13
ATOM     13  C   UNL     1     -42.197  22.990 -17.209  1.00  0.00     0.027 C 
BRANCH  13  14
ATOM     14  C   UNL     1     -41.577  23.767 -16.040  1.00  0.00     0.004 C 
BRANCH  14  15
ATOM     15  C   UNL     1     -42.556  23.974 -14.872  1.00  0.00     0.000 C 
BRANCH  15  16
ATOM     16  C   UNL     1     -42.121  23.273 -13.568  1.00  0.00    -0.000 C 
BRANCH  16  17
ATOM     17  C   UNL     1     -41.463  24.246 -12.578  1.00  0.00    -0.003 C 
ATOM     18  C   UNL     1     -39.941  24.181 -12.672  1.00  0.00     0.004 C 
ENDBRANCH  16  17
ENDBRANCH  15  16
ENDBRANCH  14  15
ENDBRANCH  13  14
ENDBRANCH  12  13
ENDBRANCH  10  11
ENDBRANCH   1  10
TORSDOF 13
ENDMDL
MODEL 7
REMARK VINA RESULT:    20.199      6.275     10.216
REMARK INTER + INTRA:          34.959
REMARK INTER:                  35.509
REMARK INTRA:                  -0.550
REMARK UNBOUND:                -0.591
REMARK SMILES CCCCCCC=CCCCCCCCC(=O)[O-]
REMARK SMILES IDX 10 1 11 2 12 3 13 4 14 5 15 6 16 7 17 8 18 9 9 10 8 11 7 12
REMARK SMILES IDX 6 13 5 14 4 15 3 16 2 17 1 18
REMARK H PARENT
REMARK Flexibility Score: inf
ROOT
ATOM      1  C   UNL     1     -38.407  26.508 -21.945  1.00  0.00     0.004 C 
ENDROOT
BRANCH   1   2
ATOM      2  C   UNL     1     -37.983  27.956 -22.235  1.00  0.00     0.000 C 
BRANCH   2   3
ATOM      3  C   UNL     1     -38.847  28.951 -21.448  1.00  0.00     0.000 C 
BRANCH   3   4
ATOM      4  C   UNL     1     -40.340  28.871 -21.815  1.00  0.00     0.000 C 
BRANCH   4   5
ATOM      5  C   UNL     1     -41.171  30.107 -21.426  1.00  0.00     0.006 C 
BRANCH   5   6
ATOM      6  C   UNL     1     -41.963  30.689 -22.604  1.00  0.00     0.053 C 
BRANCH   6   7
ATOM      7  C   UNL     1     -43.348  31.055 -22.173  1.00  0.00     0.041 C 
ATOM      8  O   UNL     1     -44.336  30.760 -22.897  1.00  0.00    -0.550 OA
ATOM      9  O   UNL     1     -43.545  31.766 -20.996  1.00  0.00    -0.550 OA
ENDBRANCH   6   7
ENDBRANCH   5   6
ENDBRANCH   4   5
ENDBRANCH   3   4
ENDBRANCH   2   3
ENDBRANCH   1   2
BRANCH   1  10
ATOM     10  C   UNL     1     -37.488  25.829 -20.922  1.00  0.00     0.027 C 
BRANCH  10  11
ATOM     11  C   UNL     1     -37.819  24.369 -20.770  1.00  0.00    -0.031 C 
ATOM     12  C   UNL     1     -37.982  23.807 -19.563  1.00  0.00    -0.031 C 
BRANCH  12  13
ATOM     13  C   UNL     1     -38.386  22.366 -19.415  1.00  0.00     0.027 C 
BRANCH  13  14
ATOM     14  C   UNL     1     -39.395  22.194 -18.271  1.00  0.00     0.004 C 
BRANCH  14  15
ATOM     15  C   UNL     1     -40.635  23.089 -18.427  1.00  0.00     0.000 C 
BRANCH  15  16
ATOM     16  C   UNL     1     -41.784  22.729 -17.460  1.00  0.00    -0.000 C 
BRANCH  16  17
ATOM     17  C   UNL     1     -41.847  23.681 -16.257  1.00  0.00    -0.003 C 
ATOM     18  C   UNL     1     -42.835  23.176 -15.208  1.00  0.00     0.004 C 
ENDBRANCH  16  17
ENDBRANCH  15  16
ENDBRANCH  14  15
ENDBRANCH  13  14
ENDBRANCH  12  13
ENDBRANCH  10  11
ENDBRANCH   1  10
TORSDOF 13
ENDMDL
