MODEL 1
REMARK VINA RESULT:     5.781      0.000      0.000
REMARK INTER + INTRA:           8.640
REMARK INTER:                   8.823
REMARK INTRA:                  -0.183
REMARK UNBOUND:                -0.183
REMARK SMILES CC(=O)CCC=C(C)CCC=C(C)CCC=C(C)C
REMARK SMILES IDX 10 1 11 2 12 3 13 4 14 5 15 6 16 7 18 8 17 9 19 10 9 11 7 12
REMARK SMILES IDX 6 13 8 14 5 15 4 16 2 17 3 18 1 19
REMARK H PARENT
REMARK Flexibility Score: inf
ROOT
ATOM      1  C   UNL     1      89.278  17.824 119.629  1.00  0.00     0.032 C 
ENDROOT
BRANCH   1   2
ATOM      2  C   UNL     1      90.581  18.503 119.278  1.00  0.00    -0.028 C 
ATOM      3  C   UNL     1      91.742  18.349 119.955  1.00  0.00    -0.077 C 
ATOM      4  C   UNL     1      92.947  19.124 119.489  1.00  0.00     0.039 C 
BRANCH   3   5
ATOM      5  C   UNL     1      91.905  17.381 121.109  1.00  0.00     0.034 C 
BRANCH   5   6
ATOM      6  C   UNL     1      92.882  16.261 120.740  1.00  0.00     0.032 C 
BRANCH   6   7
ATOM      7  C   UNL     1      94.309  16.725 120.894  1.00  0.00    -0.028 C 
ATOM      8  C   UNL     1      96.750  16.661 120.618  1.00  0.00     0.039 C 
ATOM      9  C   UNL     1      95.385  16.053 120.427  1.00  0.00    -0.080 C 
ATOM     10  C   UNL     1      95.256  14.714 119.740  1.00  0.00     0.039 C 
ENDBRANCH   6   7
ENDBRANCH   5   6
ENDBRANCH   3   5
ENDBRANCH   1   2
BRANCH   1  11
ATOM     11  C   UNL     1      88.811  18.194 121.045  1.00  0.00     0.034 C 
BRANCH  11  12
ATOM     12  C   UNL     1      87.360  18.633 121.064  1.00  0.00    -0.077 C 
ATOM     13  C   UNL     1      86.389  17.690 121.073  1.00  0.00    -0.028 C 
ATOM     14  C   UNL     1      87.041  20.109 121.052  1.00  0.00     0.039 C 
BRANCH  13  15
ATOM     15  C   UNL     1      84.911  17.987 121.124  1.00  0.00     0.035 C 
BRANCH  15  16
ATOM     16  C   UNL     1      84.159  17.182 120.054  1.00  0.00     0.079 C 
BRANCH  16  17
ATOM     17  C   UNL     1      82.778  17.709 119.732  1.00  0.00     0.130 C 
ATOM     18  O   UNL     1      82.216  18.408 120.560  1.00  0.00    -0.300 OA
ATOM     19  C   UNL     1      82.070  17.415 118.438  1.00  0.00     0.087 C 
ENDBRANCH  16  17
ENDBRANCH  15  16
ENDBRANCH  13  15
ENDBRANCH  11  12
ENDBRANCH   1  11
TORSDOF 9
ENDMDL
