MODEL 1
REMARK VINA RESULT:    -4.374      0.000      0.000
REMARK INTER + INTRA:          -5.444
REMARK INTER:                  -6.163
REMARK INTRA:                   0.719
REMARK UNBOUND:                 0.719
REMARK SMILES CC1=CCC(=C(C)C)C(=O)CC(C)=CCC1
REMARK SMILES IDX 12 1 14 2 13 3 15 4 16 5 2 6 1 7 3 8 11 10 9 11 10 12 5 13
REMARK SMILES IDX 6 14 7 15 8 16 4 17
REMARK H PARENT
REMARK Flexibility Score: 60.00
ROOT
ATOM      1  C   UNL     1      48.141  25.103  21.762  1.00  0.00    -0.070 C 
ATOM      2  C   UNL     1      49.164  24.230  21.417  1.00  0.00    -0.027 C 
ATOM      3  C   UNL     1      48.425  26.572  21.525  1.00  0.00     0.039 C 
ENDROOT
BRANCH   2   4
ATOM      4  C   UNL     1      49.197  22.684  21.372  1.00  0.00     0.032 C 
BRANCH   4   5
ATOM      5  C   UNL     1      48.136  22.148  20.444  1.00  0.00     0.034 C 
BRANCH   5   6
ATOM      6  C   UNL     1      47.176  21.038  20.693  1.00  0.00    -0.077 C 
ATOM      7  C   UNL     1      47.623  19.689  21.181  1.00  0.00     0.039 C 
ATOM      8  C   UNL     1      45.859  21.312  20.468  1.00  0.00    -0.023 CG0
ATOM      9  G   UNL     1      45.354  22.678  19.950  1.00  0.00     0.000 G0
ENDBRANCH   5   6
ENDBRANCH   4   5
ENDBRANCH   2   4
BRANCH   1  10
ATOM     10  C   UNL     1      46.785  24.771  22.449  1.00  0.00     0.111 C 
BRANCH  10  11
ATOM     11  C   UNL     1      45.549  24.835  21.532  1.00  0.00     0.163 C 
ATOM     12  O   UNL     1      45.146  25.995  21.247  1.00  0.00    -0.294 OA
BRANCH  11  13
ATOM     13  C   UNL     1      44.753  23.641  20.995  1.00  0.00    -0.002 C 
ATOM     14  C   UNL     1      43.494  23.378  21.471  1.00  0.00    -0.069 C 
ATOM     15  C   UNL     1      42.732  22.134  21.065  1.00  0.00     0.039 C 
ATOM     16  C   UNL     1      42.774  24.331  22.399  1.00  0.00     0.039 C 
BRANCH  13  17
ATOM     17  C   UNL     1      45.372  22.699  19.939  1.00  0.00     0.066 CG0
ATOM     18  G   UNL     1      45.851  21.337  20.490  1.00  0.00     0.000 G0
ENDBRANCH  13  17
ENDBRANCH  11  13
ENDBRANCH  10  11
ENDBRANCH   1  10
TORSDOF 0
ENDMDL
MODEL 2
REMARK VINA RESULT:    -4.314      2.929      5.348
REMARK INTER + INTRA:          -5.360
REMARK INTER:                  -5.721
REMARK INTRA:                   0.361
REMARK UNBOUND:                 0.719
REMARK SMILES CC1=CCC(=C(C)C)C(=O)CC(C)=CCC1
REMARK SMILES IDX 12 1 14 2 13 3 15 4 16 5 2 6 1 7 3 8 11 10 9 11 10 12 5 13
REMARK SMILES IDX 6 14 7 15 8 16 4 17
REMARK H PARENT
REMARK Flexibility Score: 60.00
ROOT
ATOM      1  C   UNL     1      50.412  23.759  19.696  1.00  0.00    -0.070 C 
ATOM      2  C   UNL     1      49.430  22.816  19.968  1.00  0.00    -0.027 C 
ATOM      3  C   UNL     1      50.606  24.101  18.234  1.00  0.00     0.039 C 
ENDROOT
BRANCH   2   4
ATOM      4  C   UNL     1      48.848  22.327  21.315  1.00  0.00     0.032 C 
BRANCH   4   5
ATOM      5  C   UNL     1      48.312  23.482  22.122  1.00  0.00     0.034 C 
BRANCH   5   6
ATOM      6  C   UNL     1      47.154  24.363  21.805  1.00  0.00    -0.077 C 
ATOM      7  C   UNL     1      45.807  23.810  21.434  1.00  0.00     0.039 C 
ATOM      8  C   UNL     1      47.374  25.707  21.883  1.00  0.00    -0.023 CG0
ATOM      9  G   UNL     1      48.746  26.322  22.244  1.00  0.00     0.000 G0
ENDBRANCH   5   6
ENDBRANCH   4   5
ENDBRANCH   2   4
BRANCH   1  10
ATOM     10  C   UNL     1      51.398  24.435  20.693  1.00  0.00     0.111 C 
BRANCH  10  11
ATOM     11  C   UNL     1      51.090  25.905  21.030  1.00  0.00     0.163 C 
ATOM     12  O   UNL     1      52.083  26.600  21.374  1.00  0.00    -0.294 OA
BRANCH  11  13
ATOM     13  C   UNL     1      49.707  26.565  21.039  1.00  0.00    -0.002 C 
ATOM     14  C   UNL     1      49.318  27.370  19.999  1.00  0.00    -0.069 C 
ATOM     15  C   UNL     1      48.016  28.144  20.035  1.00  0.00     0.039 C 
ATOM     16  C   UNL     1      50.143  27.506  18.739  1.00  0.00     0.039 C 
BRANCH  13  17
ATOM     17  C   UNL     1      48.749  26.358  22.233  1.00  0.00     0.066 CG0
ATOM     18  G   UNL     1      47.388  25.724  21.866  1.00  0.00     0.000 G0
ENDBRANCH  13  17
ENDBRANCH  11  13
ENDBRANCH  10  11
ENDBRANCH   1  10
TORSDOF 0
ENDMDL
MODEL 3
REMARK VINA RESULT:    -4.223      3.405      6.210
REMARK INTER + INTRA:          -5.232
REMARK INTER:                  -5.779
REMARK INTRA:                   0.547
REMARK UNBOUND:                 0.719
REMARK SMILES CC1=CCC(=C(C)C)C(=O)CC(C)=CCC1
REMARK SMILES IDX 12 1 14 2 13 3 15 4 16 5 2 6 1 7 3 8 11 10 9 11 10 12 5 13
REMARK SMILES IDX 6 14 7 15 8 16 4 17
REMARK H PARENT
REMARK Flexibility Score: 60.00
ROOT
ATOM      1  C   UNL     1      48.311  23.188  21.346  1.00  0.00    -0.070 C 
ATOM      2  C   UNL     1      47.133  23.878  21.603  1.00  0.00    -0.027 C 
ATOM      3  C   UNL     1      48.192  22.023  20.386  1.00  0.00     0.039 C 
ENDROOT
BRANCH   2   4
ATOM      4  C   UNL     1      46.882  25.184  22.392  1.00  0.00     0.032 C 
BRANCH   4   5
ATOM      5  C   UNL     1      47.436  26.376  21.653  1.00  0.00     0.034 C 
BRANCH   5   6
ATOM      6  C   UNL     1      48.531  27.290  22.080  1.00  0.00    -0.077 C 
ATOM      7  C   UNL     1      48.463  28.076  23.359  1.00  0.00     0.039 C 
ATOM      8  C   UNL     1      49.613  27.370  21.252  1.00  0.00    -0.023 CG0
ATOM      9  G   UNL     1      49.719  26.594  19.920  1.00  0.00     0.000 G0
ENDBRANCH   5   6
ENDBRANCH   4   5
ENDBRANCH   2   4
BRANCH   1  10
ATOM     10  C   UNL     1      49.710  23.402  21.992  1.00  0.00     0.111 C 
BRANCH  10  11
ATOM     11  C   UNL     1      50.549  24.541  21.384  1.00  0.00     0.163 C 
ATOM     12  O   UNL     1      51.467  24.990  22.122  1.00  0.00    -0.294 OA
BRANCH  11  13
ATOM     13  C   UNL     1      50.335  25.197  20.016  1.00  0.00    -0.002 C 
ATOM     14  C   UNL     1      50.720  24.550  18.870  1.00  0.00    -0.069 C 
ATOM     15  C   UNL     1      50.647  25.220  17.513  1.00  0.00     0.039 C 
ATOM     16  C   UNL     1      51.203  23.117  18.883  1.00  0.00     0.039 C 
BRANCH  13  17
ATOM     17  C   UNL     1      49.715  26.608  19.914  1.00  0.00     0.066 CG0
ATOM     18  G   UNL     1      49.602  27.362  21.258  1.00  0.00     0.000 G0
ENDBRANCH  13  17
ENDBRANCH  11  13
ENDBRANCH  10  11
ENDBRANCH   1  10
TORSDOF 0
ENDMDL
MODEL 4
REMARK VINA RESULT:    -4.215      1.738      4.351
REMARK INTER + INTRA:          -5.221
REMARK INTER:                  -5.716
REMARK INTRA:                   0.495
REMARK UNBOUND:                 0.719
REMARK SMILES CC1=CCC(=C(C)C)C(=O)CC(C)=CCC1
REMARK SMILES IDX 12 1 14 2 13 3 15 4 16 5 2 6 1 7 3 8 11 10 9 11 10 12 5 13
REMARK SMILES IDX 6 14 7 15 8 16 4 17
REMARK H PARENT
REMARK Flexibility Score: 60.00
ROOT
ATOM      1  C   UNL     1      45.553  24.455  21.595  1.00  0.00    -0.070 C 
ATOM      2  C   UNL     1      44.878  23.434  20.938  1.00  0.00    -0.027 C 
ATOM      3  C   UNL     1      44.894  25.817  21.538  1.00  0.00     0.039 C 
ENDROOT
BRANCH   2   4
ATOM      4  C   UNL     1      45.148  21.912  20.898  1.00  0.00     0.032 C 
BRANCH   4   5
ATOM      5  C   UNL     1      46.382  21.604  20.087  1.00  0.00     0.034 C 
BRANCH   5   6
ATOM      6  C   UNL     1      47.628  20.923  20.536  1.00  0.00    -0.077 C 
ATOM      7  C   UNL     1      47.616  19.542  21.128  1.00  0.00     0.039 C 
ATOM      8  C   UNL     1      48.791  21.616  20.371  1.00  0.00    -0.023 CG0
ATOM      9  G   UNL     1      48.851  23.045  19.784  1.00  0.00     0.000 G0
ENDBRANCH   5   6
ENDBRANCH   4   5
ENDBRANCH   2   4
BRANCH   1  10
ATOM     10  C   UNL     1      46.941  24.395  22.296  1.00  0.00     0.111 C 
BRANCH  10  11
ATOM     11  C   UNL     1      48.114  24.972  21.483  1.00  0.00     0.163 C 
ATOM     12  O   UNL     1      48.115  26.224  21.349  1.00  0.00    -0.294 OA
BRANCH  11  13
ATOM     13  C   UNL     1      49.221  24.169  20.791  1.00  0.00    -0.002 C 
ATOM     14  C   UNL     1      50.540  24.454  21.039  1.00  0.00    -0.069 C 
ATOM     15  C   UNL     1      51.659  23.774  20.276  1.00  0.00     0.039 C 
ATOM     16  C   UNL     1      50.960  25.432  22.113  1.00  0.00     0.039 C 
BRANCH  13  17
ATOM     17  C   UNL     1      48.866  23.055  19.782  1.00  0.00     0.066 CG0
ATOM     18  G   UNL     1      48.784  21.636  20.390  1.00  0.00     0.000 G0
ENDBRANCH  13  17
ENDBRANCH  11  13
ENDBRANCH  10  11
ENDBRANCH   1  10
TORSDOF 0
ENDMDL
MODEL 5
REMARK VINA RESULT:    -4.152      2.008      4.945
REMARK INTER + INTRA:          -5.132
REMARK INTER:                  -5.507
REMARK INTRA:                   0.375
REMARK UNBOUND:                 0.719
REMARK SMILES CC1=CCC(=C(C)C)C(=O)CC(C)=CCC1
REMARK SMILES IDX 12 1 14 2 13 3 15 4 16 5 2 6 1 7 3 8 11 10 9 11 10 12 5 13
REMARK SMILES IDX 6 14 7 15 8 16 4 17
REMARK H PARENT
REMARK Flexibility Score: 60.00
ROOT
ATOM      1  C   UNL     1      47.392  21.293  20.258  1.00  0.00    -0.070 C 
ATOM      2  C   UNL     1      46.119  20.864  20.612  1.00  0.00    -0.027 C 
ATOM      3  C   UNL     1      48.452  20.214  20.193  1.00  0.00     0.039 C 
ENDROOT
BRANCH   2   4
ATOM      4  C   UNL     1      44.773  21.624  20.641  1.00  0.00     0.032 C 
BRANCH   4   5
ATOM      5  C   UNL     1      44.853  22.831  21.541  1.00  0.00     0.034 C 
BRANCH   5   6
ATOM      6  C   UNL     1      44.432  24.228  21.241  1.00  0.00    -0.077 C 
ATOM      7  C   UNL     1      43.197  24.536  20.442  1.00  0.00     0.039 C 
ATOM      8  C   UNL     1      45.221  25.221  21.742  1.00  0.00    -0.023 CG0
ATOM      9  G   UNL     1      46.509  24.952  22.554  1.00  0.00     0.000 G0
ENDBRANCH   5   6
ENDBRANCH   4   5
ENDBRANCH   2   4
BRANCH   1  10
ATOM     10  C   UNL     1      47.883  22.749  20.015  1.00  0.00     0.111 C 
BRANCH  10  11
ATOM     11  C   UNL     1      48.344  23.507  21.273  1.00  0.00     0.163 C 
ATOM     12  O   UNL     1      49.198  22.911  21.982  1.00  0.00    -0.294 OA
BRANCH  11  13
ATOM     13  C   UNL     1      47.825  24.866  21.757  1.00  0.00    -0.002 C 
ATOM     14  C   UNL     1      48.534  26.010  21.496  1.00  0.00    -0.069 C 
ATOM     15  C   UNL     1      48.124  27.350  22.070  1.00  0.00     0.039 C 
ATOM     16  C   UNL     1      49.744  26.013  20.589  1.00  0.00     0.039 C 
BRANCH  13  17
ATOM     17  C   UNL     1      46.517  24.958  22.573  1.00  0.00     0.066 CG0
ATOM     18  G   UNL     1      45.248  25.222  21.730  1.00  0.00     0.000 G0
ENDBRANCH  13  17
ENDBRANCH  11  13
ENDBRANCH  10  11
ENDBRANCH   1  10
TORSDOF 0
ENDMDL
MODEL 6
REMARK VINA RESULT:    -4.133      2.481      4.584
REMARK INTER + INTRA:          -5.105
REMARK INTER:                  -5.880
REMARK INTRA:                   0.774
REMARK UNBOUND:                 0.719
REMARK SMILES CC1=CCC(=C(C)C)C(=O)CC(C)=CCC1
REMARK SMILES IDX 12 1 14 2 13 3 15 4 16 5 2 6 1 7 3 8 11 10 9 11 10 12 5 13
REMARK SMILES IDX 6 14 7 15 8 16 4 17
REMARK H PARENT
REMARK Flexibility Score: 60.00
ROOT
ATOM      1  C   UNL     1      50.604  23.869  19.556  1.00  0.00    -0.070 C 
ATOM      2  C   UNL     1      51.060  24.936  20.319  1.00  0.00    -0.027 C 
ATOM      3  C   UNL     1      51.137  23.801  18.140  1.00  0.00     0.039 C 
ENDROOT
BRANCH   2   4
ATOM      4  C   UNL     1      50.865  25.258  21.819  1.00  0.00     0.032 C 
BRANCH   4   5
ATOM      5  C   UNL     1      49.868  26.373  22.007  1.00  0.00     0.034 C 
BRANCH   5   6
ATOM      6  C   UNL     1      48.831  26.846  21.049  1.00  0.00    -0.077 C 
ATOM      7  C   UNL     1      49.095  27.949  20.064  1.00  0.00     0.039 C 
ATOM      8  C   UNL     1      47.623  26.214  21.102  1.00  0.00    -0.023 CG0
ATOM      9  G   UNL     1      47.299  25.087  22.109  1.00  0.00     0.000 G0
ENDBRANCH   5   6
ENDBRANCH   4   5
ENDBRANCH   2   4
BRANCH   1  10
ATOM     10  C   UNL     1      49.546  22.795  19.941  1.00  0.00     0.111 C 
BRANCH  10  11
ATOM     11  C   UNL     1      48.837  23.022  21.289  1.00  0.00     0.163 C 
ATOM     12  O   UNL     1      49.461  22.612  22.304  1.00  0.00    -0.294 OA
BRANCH  11  13
ATOM     13  C   UNL     1      47.448  23.636  21.493  1.00  0.00    -0.002 C 
ATOM     14  C   UNL     1      46.324  22.941  21.126  1.00  0.00    -0.069 C 
ATOM     15  C   UNL     1      44.945  23.567  21.188  1.00  0.00     0.039 C 
ATOM     16  C   UNL     1      46.385  21.500  20.674  1.00  0.00     0.039 C 
BRANCH  13  17
ATOM     17  C   UNL     1      47.299  25.056  22.082  1.00  0.00     0.066 CG0
ATOM     18  G   UNL     1      47.626  26.200  21.096  1.00  0.00     0.000 G0
ENDBRANCH  13  17
ENDBRANCH  11  13
ENDBRANCH  10  11
ENDBRANCH   1  10
TORSDOF 0
ENDMDL
MODEL 7
REMARK VINA RESULT:    -4.104      3.608      5.761
REMARK INTER + INTRA:          -5.065
REMARK INTER:                  -5.102
REMARK INTRA:                   0.037
REMARK UNBOUND:                 0.719
REMARK SMILES CC1=CCC(=C(C)C)C(=O)CC(C)=CCC1
REMARK SMILES IDX 12 1 14 2 13 3 15 4 16 5 2 6 1 7 3 8 11 10 9 11 10 12 5 13
REMARK SMILES IDX 6 14 7 15 8 16 4 17
REMARK H PARENT
REMARK Flexibility Score: 60.00
ROOT
ATOM      1  C   UNL     1      47.376  25.767  22.257  1.00  0.00    -0.070 C 
ATOM      2  C   UNL     1      47.373  24.378  22.251  1.00  0.00    -0.027 C 
ATOM      3  C   UNL     1      46.740  26.418  23.468  1.00  0.00     0.039 C 
ENDROOT
BRANCH   2   4
ATOM      4  C   UNL     1      48.044  23.374  21.286  1.00  0.00     0.032 C 
BRANCH   4   5
ATOM      5  C   UNL     1      49.538  23.347  21.487  1.00  0.00     0.034 C 
BRANCH   5   6
ATOM      6  C   UNL     1      50.596  23.836  20.560  1.00  0.00    -0.077 C 
ATOM      7  C   UNL     1      50.845  23.197  19.223  1.00  0.00     0.039 C 
ATOM      8  C   UNL     1      51.325  24.909  20.982  1.00  0.00    -0.023 CG0
ATOM      9  G   UNL     1      51.116  25.588  22.355  1.00  0.00     0.000 G0
ENDBRANCH   5   6
ENDBRANCH   4   5
ENDBRANCH   2   4
BRANCH   1  10
ATOM     10  C   UNL     1      47.861  26.732  21.138  1.00  0.00     0.111 C 
BRANCH  10  11
ATOM     11  C   UNL     1      49.334  27.168  21.236  1.00  0.00     0.163 C 
ATOM     12  O   UNL     1      49.780  27.798  20.240  1.00  0.00    -0.294 OA
BRANCH  11  13
ATOM     13  C   UNL     1      50.298  26.859  22.387  1.00  0.00    -0.002 C 
ATOM     14  C   UNL     1      50.435  27.740  23.429  1.00  0.00    -0.069 C 
ATOM     15  C   UNL     1      51.472  27.535  24.515  1.00  0.00     0.039 C 
ATOM     16  C   UNL     1      49.537  28.947  23.582  1.00  0.00     0.039 C 
BRANCH  13  17
ATOM     17  C   UNL     1      51.151  25.571  22.370  1.00  0.00     0.066 CG0
ATOM     18  G   UNL     1      51.304  24.919  20.977  1.00  0.00     0.000 G0
ENDBRANCH  13  17
ENDBRANCH  11  13
ENDBRANCH  10  11
ENDBRANCH   1  10
TORSDOF 0
ENDMDL
MODEL 8
REMARK VINA RESULT:    -4.065      4.736      6.377
REMARK INTER + INTRA:          -5.010
REMARK INTER:                  -5.243
REMARK INTRA:                   0.234
REMARK UNBOUND:                 0.719
REMARK SMILES CC1=CCC(=C(C)C)C(=O)CC(C)=CCC1
REMARK SMILES IDX 12 1 14 2 13 3 15 4 16 5 2 6 1 7 3 8 11 10 9 11 10 12 5 13
REMARK SMILES IDX 6 14 7 15 8 16 4 17
REMARK H PARENT
REMARK Flexibility Score: 60.00
ROOT
ATOM      1  C   UNL     1      50.580  23.839  20.912  1.00  0.00    -0.070 C 
ATOM      2  C   UNL     1      50.255  23.576  19.588  1.00  0.00    -0.027 C 
ATOM      3  C   UNL     1      49.677  23.202  21.947  1.00  0.00     0.039 C 
ENDROOT
BRANCH   2   4
ATOM      4  C   UNL     1      51.007  23.916  18.280  1.00  0.00     0.032 C 
BRANCH   4   5
ATOM      5  C   UNL     1      50.395  25.116  17.602  1.00  0.00     0.034 C 
BRANCH   5   6
ATOM      6  C   UNL     1      50.920  26.508  17.554  1.00  0.00    -0.077 C 
ATOM      7  C   UNL     1      51.902  26.957  16.508  1.00  0.00     0.039 C 
ATOM      8  C   UNL     1      50.451  27.367  18.505  1.00  0.00    -0.023 CG0
ATOM      9  G   UNL     1      49.455  26.947  19.609  1.00  0.00     0.000 G0
ENDBRANCH   5   6
ENDBRANCH   4   5
ENDBRANCH   2   4
BRANCH   1  10
ATOM     10  C   UNL     1      51.691  24.780  21.461  1.00  0.00     0.111 C 
BRANCH  10  11
ATOM     11  C   UNL     1      51.405  26.287  21.325  1.00  0.00     0.163 C 
ATOM     12  O   UNL     1      52.396  27.044  21.504  1.00  0.00    -0.294 OA
BRANCH  11  13
ATOM     13  C   UNL     1      50.042  26.932  21.054  1.00  0.00    -0.002 C 
ATOM     14  C   UNL     1      49.313  27.468  22.084  1.00  0.00    -0.069 C 
ATOM     15  C   UNL     1      47.907  27.992  21.877  1.00  0.00     0.039 C 
ATOM     16  C   UNL     1      49.879  27.605  23.479  1.00  0.00     0.039 C 
BRANCH  13  17
ATOM     17  C   UNL     1      49.457  26.954  19.624  1.00  0.00     0.066 CG0
ATOM     18  G   UNL     1      50.454  27.391  18.527  1.00  0.00     0.000 G0
ENDBRANCH  13  17
ENDBRANCH  11  13
ENDBRANCH  10  11
ENDBRANCH   1  10
TORSDOF 0
ENDMDL
MODEL 9
REMARK VINA RESULT:    -4.023      9.922     12.124
REMARK INTER + INTRA:          -4.950
REMARK INTER:                  -4.993
REMARK INTRA:                   0.043
REMARK UNBOUND:                 0.719
REMARK SMILES CC1=CCC(=C(C)C)C(=O)CC(C)=CCC1
REMARK SMILES IDX 12 1 14 2 13 3 15 4 16 5 2 6 1 7 3 8 11 10 9 11 10 12 5 13
REMARK SMILES IDX 6 14 7 15 8 16 4 17
REMARK H PARENT
REMARK Flexibility Score: 60.00
ROOT
ATOM      1  C   UNL     1      37.899  33.283  21.224  1.00  0.00    -0.070 C 
ATOM      2  C   UNL     1      36.930  32.626  21.969  1.00  0.00    -0.027 C 
ATOM      3  C   UNL     1      37.691  34.773  21.046  1.00  0.00     0.039 C 
ENDROOT
BRANCH   2   4
ATOM      4  C   UNL     1      36.871  31.168  22.483  1.00  0.00     0.032 C 
BRANCH   4   5
ATOM      5  C   UNL     1      37.733  30.993  23.709  1.00  0.00     0.034 C 
BRANCH   5   6
ATOM      6  C   UNL     1      38.974  30.182  23.848  1.00  0.00    -0.077 C 
ATOM      7  C   UNL     1      38.952  28.680  23.844  1.00  0.00     0.039 C 
ATOM      8  C   UNL     1      40.142  30.877  23.967  1.00  0.00    -0.023 CG0
ATOM      9  G   UNL     1      40.212  32.421  23.994  1.00  0.00     0.000 G0
ENDBRANCH   5   6
ENDBRANCH   4   5
ENDBRANCH   2   4
BRANCH   1  10
ATOM     10  C   UNL     1      39.115  32.669  20.471  1.00  0.00     0.111 C 
BRANCH  10  11
ATOM     11  C   UNL     1      40.370  32.431  21.331  1.00  0.00     0.163 C 
ATOM     12  O   UNL     1      41.180  31.578  20.880  1.00  0.00    -0.294 OA
BRANCH  11  13
ATOM     13  C   UNL     1      40.683  33.084  22.681  1.00  0.00    -0.002 C 
ATOM     14  C   UNL     1      41.404  34.249  22.736  1.00  0.00    -0.069 C 
ATOM     15  C   UNL     1      41.847  34.851  24.054  1.00  0.00     0.039 C 
ATOM     16  C   UNL     1      41.767  35.025  21.490  1.00  0.00     0.039 C 
BRANCH  13  17
ATOM     17  C   UNL     1      40.222  32.419  23.997  1.00  0.00     0.066 CG0
ATOM     18  G   UNL     1      40.140  30.876  23.946  1.00  0.00     0.000 G0
ENDBRANCH  13  17
ENDBRANCH  11  13
ENDBRANCH  10  11
ENDBRANCH   1  10
TORSDOF 0
ENDMDL
