MODEL 1
REMARK VINA RESULT:    -4.278      0.000      0.000
REMARK INTER + INTRA:          -5.404
REMARK INTER:                  -5.278
REMARK INTRA:                  -0.125
REMARK UNBOUND:                -0.125
REMARK SMILES CCCCCC(=O)[O-]
REMARK SMILES IDX 4 1 5 2 6 3 7 4 8 5 3 6 2 7 1 8
REMARK H PARENT
REMARK Flexibility Score: inf
ROOT
ATOM      1  C   UNL     1      86.004 325.345 193.261  1.00  0.00     0.006 C 
ENDROOT
BRANCH   1   2
ATOM      2  C   UNL     1      87.031 326.299 193.881  1.00  0.00     0.053 C 
BRANCH   2   3
ATOM      3  C   UNL     1      86.829 326.394 195.361  1.00  0.00     0.041 C 
ATOM      4  O   UNL     1      87.487 325.655 196.140  1.00  0.00    -0.550 OA
ATOM      5  O   UNL     1      85.877 327.263 195.877  1.00  0.00    -0.550 OA
ENDBRANCH   2   3
ENDBRANCH   1   2
BRANCH   1   6
ATOM      6  C   UNL     1      86.642 324.335 192.295  1.00  0.00     0.000 C 
BRANCH   6   7
ATOM      7  C   UNL     1      88.128 324.623 192.034  1.00  0.00    -0.003 C 
ATOM      8  C   UNL     1      88.542 324.157 190.641  1.00  0.00     0.004 C 
ENDBRANCH   6   7
ENDBRANCH   1   6
TORSDOF 4
ENDMDL
MODEL 2
REMARK VINA RESULT:    -4.189      1.341      1.843
REMARK INTER + INTRA:          -5.294
REMARK INTER:                  -5.080
REMARK INTRA:                  -0.214
REMARK UNBOUND:                -0.125
REMARK SMILES CCCCCC(=O)[O-]
REMARK SMILES IDX 4 1 5 2 6 3 7 4 8 5 3 6 2 7 1 8
REMARK H PARENT
REMARK Flexibility Score: inf
ROOT
ATOM      1  C   UNL     1      86.827 326.490 194.091  1.00  0.00     0.006 C 
ENDROOT
BRANCH   1   2
ATOM      2  C   UNL     1      86.643 326.580 195.610  1.00  0.00     0.053 C 
BRANCH   2   3
ATOM      3  C   UNL     1      87.869 326.089 196.314  1.00  0.00     0.041 C 
ATOM      4  O   UNL     1      88.410 325.006 195.967  1.00  0.00    -0.550 OA
ATOM      5  O   UNL     1      88.386 326.803 197.388  1.00  0.00    -0.550 OA
ENDBRANCH   2   3
ENDBRANCH   1   2
BRANCH   1   6
ATOM      6  C   UNL     1      85.920 325.430 193.447  1.00  0.00     0.000 C 
BRANCH   6   7
ATOM      7  C   UNL     1      86.686 324.489 192.505  1.00  0.00    -0.003 C 
ATOM      8  C   UNL     1      88.145 324.916 192.369  1.00  0.00     0.004 C 
ENDBRANCH   6   7
ENDBRANCH   1   6
TORSDOF 4
ENDMDL
MODEL 3
REMARK VINA RESULT:    -4.176      2.259      4.057
REMARK INTER + INTRA:          -5.278
REMARK INTER:                  -5.049
REMARK INTRA:                  -0.229
REMARK UNBOUND:                -0.125
REMARK SMILES CCCCCC(=O)[O-]
REMARK SMILES IDX 4 1 5 2 6 3 7 4 8 5 3 6 2 7 1 8
REMARK H PARENT
REMARK Flexibility Score: inf
ROOT
ATOM      1  C   UNL     1      87.885 326.411 193.682  1.00  0.00     0.006 C 
ENDROOT
BRANCH   1   2
ATOM      2  C   UNL     1      88.059 325.137 192.846  1.00  0.00     0.053 C 
BRANCH   2   3
ATOM      3  C   UNL     1      86.801 324.327 192.861  1.00  0.00     0.041 C 
ATOM      4  O   UNL     1      86.346 323.881 193.948  1.00  0.00    -0.550 OA
ATOM      5  O   UNL     1      86.157 324.022 191.668  1.00  0.00    -0.550 OA
ENDBRANCH   2   3
ENDBRANCH   1   2
BRANCH   1   6
ATOM      6  C   UNL     1      88.541 326.304 195.067  1.00  0.00     0.000 C 
BRANCH   6   7
ATOM      7  C   UNL     1      87.522 326.385 196.213  1.00  0.00    -0.003 C 
ATOM      8  C   UNL     1      86.190 326.948 195.724  1.00  0.00     0.004 C 
ENDBRANCH   6   7
ENDBRANCH   1   6
TORSDOF 4
ENDMDL
MODEL 4
REMARK VINA RESULT:    -4.171     20.898     22.059
REMARK INTER + INTRA:          -5.272
REMARK INTER:                  -5.108
REMARK INTRA:                  -0.164
REMARK UNBOUND:                -0.125
REMARK SMILES CCCCCC(=O)[O-]
REMARK SMILES IDX 4 1 5 2 6 3 7 4 8 5 3 6 2 7 1 8
REMARK H PARENT
REMARK Flexibility Score: inf
ROOT
ATOM      1  C   UNL     1     105.399 311.374 193.276  1.00  0.00     0.006 C 
ENDROOT
BRANCH   1   2
ATOM      2  C   UNL     1     105.999 312.215 194.409  1.00  0.00     0.053 C 
BRANCH   2   3
ATOM      3  C   UNL     1     104.963 312.506 195.448  1.00  0.00     0.041 C 
ATOM      4  O   UNL     1     104.574 313.688 195.643  1.00  0.00    -0.550 OA
ATOM      5  O   UNL     1     104.462 311.478 196.237  1.00  0.00    -0.550 OA
ENDBRANCH   2   3
ENDBRANCH   1   2
BRANCH   1   6
ATOM      6  C   UNL     1     104.296 312.118 192.507  1.00  0.00     0.000 C 
BRANCH   6   7
ATOM      7  C   UNL     1     104.810 313.393 191.822  1.00  0.00    -0.003 C 
ATOM      8  C   UNL     1     103.952 313.751 190.612  1.00  0.00     0.004 C 
ENDBRANCH   6   7
ENDBRANCH   1   6
TORSDOF 4
ENDMDL
MODEL 5
REMARK VINA RESULT:    -4.098     20.143     21.637
REMARK INTER + INTRA:          -5.181
REMARK INTER:                  -4.966
REMARK INTRA:                  -0.215
REMARK UNBOUND:                -0.125
REMARK SMILES CCCCCC(=O)[O-]
REMARK SMILES IDX 4 1 5 2 6 3 7 4 8 5 3 6 2 7 1 8
REMARK H PARENT
REMARK Flexibility Score: inf
ROOT
ATOM      1  C   UNL     1     104.342 312.090 192.826  1.00  0.00     0.006 C 
ENDROOT
BRANCH   1   2
ATOM      2  C   UNL     1     104.428 313.172 191.744  1.00  0.00     0.053 C 
BRANCH   2   3
ATOM      3  C   UNL     1     103.875 314.466 192.254  1.00  0.00     0.041 C 
ATOM      4  O   UNL     1     103.846 314.699 193.491  1.00  0.00    -0.550 OA
ATOM      5  O   UNL     1     103.344 315.393 191.365  1.00  0.00    -0.550 OA
ENDBRANCH   2   3
ENDBRANCH   1   2
BRANCH   1   6
ATOM      6  C   UNL     1     105.724 311.597 193.282  1.00  0.00     0.000 C 
BRANCH   6   7
ATOM      7  C   UNL     1     105.993 311.883 194.767  1.00  0.00    -0.003 C 
ATOM      8  C   UNL     1     104.689 311.960 195.557  1.00  0.00     0.004 C 
ENDBRANCH   6   7
ENDBRANCH   1   6
TORSDOF 4
ENDMDL
MODEL 6
REMARK VINA RESULT:    -4.056     20.828     21.749
REMARK INTER + INTRA:          -5.130
REMARK INTER:                  -4.977
REMARK INTRA:                  -0.153
REMARK UNBOUND:                -0.125
REMARK SMILES CCCCCC(=O)[O-]
REMARK SMILES IDX 4 1 5 2 6 3 7 4 8 5 3 6 2 7 1 8
REMARK H PARENT
REMARK Flexibility Score: inf
ROOT
ATOM      1  C   UNL     1     104.372 314.102 193.004  1.00  0.00     0.006 C 
ENDROOT
BRANCH   1   2
ATOM      2  C   UNL     1     105.586 313.201 192.748  1.00  0.00     0.053 C 
BRANCH   2   3
ATOM      3  C   UNL     1     105.412 311.884 193.437  1.00  0.00     0.041 C 
ATOM      4  O   UNL     1     104.591 311.039 192.993  1.00  0.00    -0.550 OA
ATOM      5  O   UNL     1     106.122 311.609 194.600  1.00  0.00    -0.550 OA
ENDBRANCH   2   3
ENDBRANCH   1   2
BRANCH   1   6
ATOM      6  C   UNL     1     103.811 314.718 191.713  1.00  0.00     0.000 C 
BRANCH   6   7
ATOM      7  C   UNL     1     103.889 313.758 190.517  1.00  0.00    -0.003 C 
ATOM      8  C   UNL     1     103.283 314.388 189.266  1.00  0.00     0.004 C 
ENDBRANCH   6   7
ENDBRANCH   1   6
TORSDOF 4
ENDMDL
MODEL 7
REMARK VINA RESULT:    -4.054      3.310      4.641
REMARK INTER + INTRA:          -5.128
REMARK INTER:                  -5.066
REMARK INTRA:                  -0.062
REMARK UNBOUND:                -0.125
REMARK SMILES CCCCCC(=O)[O-]
REMARK SMILES IDX 4 1 5 2 6 3 7 4 8 5 3 6 2 7 1 8
REMARK H PARENT
REMARK Flexibility Score: inf
ROOT
ATOM      1  C   UNL     1      88.208 324.516 192.928  1.00  0.00     0.006 C 
ENDROOT
BRANCH   1   2
ATOM      2  C   UNL     1      88.352 324.532 191.401  1.00  0.00     0.053 C 
BRANCH   2   3
ATOM      3  C   UNL     1      87.431 323.529 190.780  1.00  0.00     0.041 C 
ATOM      4  O   UNL     1      87.842 322.778 189.856  1.00  0.00    -0.550 OA
ATOM      5  O   UNL     1      86.105 323.459 191.186  1.00  0.00    -0.550 OA
ENDBRANCH   2   3
ENDBRANCH   1   2
BRANCH   1   6
ATOM      6  C   UNL     1      87.364 325.687 193.455  1.00  0.00     0.000 C 
BRANCH   6   7
ATOM      7  C   UNL     1      88.224 326.835 194.004  1.00  0.00    -0.003 C 
ATOM      8  C   UNL     1      88.600 326.590 195.463  1.00  0.00     0.004 C 
ENDBRANCH   6   7
ENDBRANCH   1   6
TORSDOF 4
ENDMDL
MODEL 8
REMARK VINA RESULT:    -4.003      1.467      2.028
REMARK INTER + INTRA:          -5.064
REMARK INTER:                  -5.013
REMARK INTRA:                  -0.051
REMARK UNBOUND:                -0.125
REMARK SMILES CCCCCC(=O)[O-]
REMARK SMILES IDX 4 1 5 2 6 3 7 4 8 5 3 6 2 7 1 8
REMARK H PARENT
REMARK Flexibility Score: inf
ROOT
ATOM      1  C   UNL     1      88.043 324.312 192.477  1.00  0.00     0.006 C 
ENDROOT
BRANCH   1   2
ATOM      2  C   UNL     1      87.819 325.539 193.369  1.00  0.00     0.053 C 
BRANCH   2   3
ATOM      3  C   UNL     1      86.739 325.267 194.368  1.00  0.00     0.041 C 
ATOM      4  O   UNL     1      86.166 324.146 194.394  1.00  0.00    -0.550 OA
ATOM      5  O   UNL     1      86.330 326.270 195.239  1.00  0.00    -0.550 OA
ENDBRANCH   2   3
ENDBRANCH   1   2
BRANCH   1   6
ATOM      6  C   UNL     1      88.562 324.683 191.079  1.00  0.00     0.000 C 
BRANCH   6   7
ATOM      7  C   UNL     1      88.930 323.451 190.239  1.00  0.00    -0.003 C 
ATOM      8  C   UNL     1      89.576 323.860 188.918  1.00  0.00     0.004 C 
ENDBRANCH   6   7
ENDBRANCH   1   6
TORSDOF 4
ENDMDL
MODEL 9
REMARK VINA RESULT:    -3.839     20.205     21.477
REMARK INTER + INTRA:          -4.862
REMARK INTER:                  -4.758
REMARK INTRA:                  -0.103
REMARK UNBOUND:                -0.125
REMARK SMILES CCCCCC(=O)[O-]
REMARK SMILES IDX 4 1 5 2 6 3 7 4 8 5 3 6 2 7 1 8
REMARK H PARENT
REMARK Flexibility Score: inf
ROOT
ATOM      1  C   UNL     1     104.183 313.365 191.326  1.00  0.00     0.006 C 
ENDROOT
BRANCH   1   2
ATOM      2  C   UNL     1     103.717 314.740 190.832  1.00  0.00     0.053 C 
BRANCH   2   3
ATOM      3  C   UNL     1     103.671 314.770 189.337  1.00  0.00     0.041 C 
ATOM      4  O   UNL     1     102.731 314.203 188.719  1.00  0.00    -0.550 OA
ATOM      5  O   UNL     1     104.695 315.380 188.623  1.00  0.00    -0.550 OA
ENDBRANCH   2   3
ENDBRANCH   1   2
BRANCH   1   6
ATOM      6  C   UNL     1     105.559 313.417 192.008  1.00  0.00     0.000 C 
BRANCH   6   7
ATOM      7  C   UNL     1     105.819 312.198 192.906  1.00  0.00    -0.003 C 
ATOM      8  C   UNL     1     104.531 311.423 193.168  1.00  0.00     0.004 C 
ENDBRANCH   6   7
ENDBRANCH   1   6
TORSDOF 4
ENDMDL
