MODEL 1
REMARK VINA RESULT:    38.403      0.000      0.000
REMARK INTER + INTRA:          60.996
REMARK INTER:                  60.853
REMARK INTRA:                   0.143
REMARK UNBOUND:                 0.143
REMARK SMILES C[C@@H]1O[C@@H](O[C@@H]2[C@@H](Oc3cc(O)c4c(c3)O[C@H](c3ccc(O)cc3)CC4=O)O[C@H](CO)[C@@H](O)[C@H]2O)[C@H](O)[C@@H](O)[C@H]1O
REMARK SMILES IDX 6 1 34 2 32 3 29 4 28 5 7 6 5 7 4 8 1 9 2 10 40 11 3 12
REMARK SMILES IDX 38 13 36 14 41 15 39 17 37 19 35 21 8 23 9 24 10 25 15 26
REMARK SMILES IDX 11 27 14 28 13 29 16 30 26 31 17 32 27 33 25 34 12 35 18 37
REMARK SMILES IDX 19 38 24 39 20 40 23 41 21 42 22 43 33 45 30 47 31 48
REMARK H PARENT 41 16 39 18 37 20 35 22 12 36 22 44 33 46 31 49
REMARK Flexibility Score: inf
ROOT
ATOM      1  C   UNL     1      19.313  -3.127  29.682  1.00  0.00     0.221 C 
ATOM      2  C   UNL     1      20.215  -4.225  30.284  1.00  0.00     0.181 C 
ATOM      3  C   UNL     1      19.328  -5.317  30.933  1.00  0.00     0.177 C 
ATOM      4  C   UNL     1      17.978  -4.715  31.445  1.00  0.00     0.179 C 
ATOM      5  O   UNL     1      18.122  -3.365  31.872  1.00  0.00    -0.332 OA
ATOM      6  C   UNL     1      18.501  -2.469  30.826  1.00  0.00     0.339 C 
ENDROOT
BRANCH   1   7
ATOM      7  O   UNL     1      19.978  -2.206  28.824  1.00  0.00    -0.337 OA
BRANCH   7   8
ATOM      8  C   UNL     1      21.396  -2.314  28.789  1.00  0.00     0.282 C 
ATOM      9  C   UNL     1      22.244  -0.135  31.636  1.00  0.00     0.041 C 
ATOM     10  C   UNL     1      21.646  -0.501  30.274  1.00  0.00     0.150 C 
ATOM     11  C   UNL     1      22.193   0.442  29.172  1.00  0.00     0.174 C 
ATOM     12  O   UNL     1      21.980  -1.854  29.998  1.00  0.00    -0.344 OA
ATOM     13  C   UNL     1      21.743  -0.013  27.764  1.00  0.00     0.179 C 
ATOM     14  C   UNL     1      21.946  -1.531  27.585  1.00  0.00     0.202 C 
BRANCH  11  15
ATOM     15  O   UNL     1      21.757   1.757  29.397  1.00  0.00    -0.388 OA
ATOM     16  H   UNL     1      22.558   2.339  29.393  1.00  0.00     0.211 HD
ENDBRANCH  11  15
BRANCH  13  17
ATOM     17  O   UNL     1      20.413   0.345  27.460  1.00  0.00    -0.387 OA
ATOM     18  H   UNL     1      20.088   0.983  28.142  1.00  0.00     0.211 HD
ENDBRANCH  13  17
BRANCH  14  19
ATOM     19  O   UNL     1      23.311  -1.823  27.443  1.00  0.00    -0.385 OA
ATOM     20  H   UNL     1      23.382  -2.809  27.348  1.00  0.00     0.211 HD
ENDBRANCH  14  19
ENDBRANCH   7   8
ENDBRANCH   1   7
BRANCH   2  21
ATOM     21  O   UNL     1      21.100  -4.770  29.334  1.00  0.00    -0.387 OA
ATOM     22  H   UNL     1      21.756  -5.339  29.814  1.00  0.00     0.211 HD
ENDBRANCH   2  21
BRANCH   6  23
ATOM     23  O   UNL     1      17.380  -1.738  30.324  1.00  0.00    -0.462 OA
BRANCH  23  24
ATOM     24  C   UNL     1      16.392  -2.271  29.494  1.00  0.00     0.130 A 
ATOM     25  C   UNL     1      15.044  -1.935  29.668  1.00  0.00     0.093 A 
ATOM     26  C   UNL     1      16.752  -3.201  28.517  1.00  0.00     0.094 A 
ATOM     27  C   UNL     1      14.056  -2.495  28.841  1.00  0.00     0.133 A 
ATOM     28  C   UNL     1      15.772  -3.809  27.727  1.00  0.00     0.138 A 
ATOM     29  C   UNL     1      14.418  -3.447  27.865  1.00  0.00     0.102 A 
ATOM     30  O   UNL     1      16.141  -4.800  26.812  1.00  0.00    -0.484 OA
ATOM     31  C   UNL     1      13.428  -4.103  26.974  1.00  0.00     0.174 C 
ATOM     32  C   UNL     1      15.186  -5.742  26.324  1.00  0.00     0.211 C 
ATOM     33  O   UNL     1      12.194  -3.893  27.106  1.00  0.00    -0.294 OA
ATOM     34  C   UNL     1      13.904  -5.018  25.877  1.00  0.00     0.131 C 
BRANCH  27  35
ATOM     35  O   UNL     1      12.725  -2.112  28.998  1.00  0.00    -0.507 OA
ATOM     36  H   UNL     1      11.975  -2.796  29.013  1.00  0.00     0.293 HD
ENDBRANCH  27  35
BRANCH  32  37
ATOM     37  C   UNL     1      15.794  -6.561  25.211  1.00  0.00    -0.007 A 
ATOM     38  C   UNL     1      16.781  -7.528  25.480  1.00  0.00     0.011 A 
ATOM     39  C   UNL     1      15.337  -6.400  23.888  1.00  0.00     0.011 A 
ATOM     40  C   UNL     1      17.316  -8.299  24.443  1.00  0.00     0.046 A 
ATOM     41  C   UNL     1      15.863  -7.186  22.856  1.00  0.00     0.046 A 
ATOM     42  C   UNL     1      16.858  -8.133  23.129  1.00  0.00     0.115 A 
BRANCH  42  43
ATOM     43  O   UNL     1      17.391  -8.922  22.109  1.00  0.00    -0.508 OA
ATOM     44  H   UNL     1      18.199  -8.619  21.578  1.00  0.00     0.293 HD
ENDBRANCH  42  43
ENDBRANCH  32  37
ENDBRANCH  23  24
ENDBRANCH   6  23
BRANCH   3  45
ATOM     45  O   UNL     1      19.061  -6.318  29.979  1.00  0.00    -0.387 OA
ATOM     46  H   UNL     1      19.370  -7.182  30.357  1.00  0.00     0.211 HD
ENDBRANCH   3  45
BRANCH   4  47
ATOM     47  C   UNL     1      17.400  -5.519  32.619  1.00  0.00     0.191 C 
BRANCH  47  48
ATOM     48  O   UNL     1      18.114  -5.280  33.801  1.00  0.00    -0.394 OA
ATOM     49  H   UNL     1      18.541  -6.139  34.062  1.00  0.00     0.210 HD
ENDBRANCH  47  48
ENDBRANCH   4  47
TORSDOF 14
ENDMDL
MODEL 2
REMARK VINA RESULT:    38.576      1.855      3.904
REMARK INTER + INTRA:          61.270
REMARK INTER:                  60.154
REMARK INTRA:                   1.116
REMARK UNBOUND:                 0.143
REMARK SMILES C[C@@H]1O[C@@H](O[C@@H]2[C@@H](Oc3cc(O)c4c(c3)O[C@H](c3ccc(O)cc3)CC4=O)O[C@H](CO)[C@@H](O)[C@H]2O)[C@H](O)[C@@H](O)[C@H]1O
REMARK SMILES IDX 6 1 34 2 32 3 29 4 28 5 7 6 5 7 4 8 1 9 2 10 40 11 3 12
REMARK SMILES IDX 38 13 36 14 41 15 39 17 37 19 35 21 8 23 9 24 10 25 15 26
REMARK SMILES IDX 11 27 14 28 13 29 16 30 26 31 17 32 27 33 25 34 12 35 18 37
REMARK SMILES IDX 19 38 24 39 20 40 23 41 21 42 22 43 33 45 30 47 31 48
REMARK H PARENT 41 16 39 18 37 20 35 22 12 36 22 44 33 46 31 49
REMARK Flexibility Score: inf
ROOT
ATOM      1  C   UNL     1      21.239  -1.319  29.683  1.00  0.00     0.221 C 
ATOM      2  C   UNL     1      22.390  -1.294  28.656  1.00  0.00     0.181 C 
ATOM      3  C   UNL     1      21.812  -1.008  27.247  1.00  0.00     0.177 C 
ATOM      4  C   UNL     1      20.348  -1.542  27.120  1.00  0.00     0.179 C 
ATOM      5  O   UNL     1      20.131  -2.703  27.915  1.00  0.00    -0.332 OA
ATOM      6  C   UNL     1      20.273  -2.474  29.318  1.00  0.00     0.339 C 
ENDROOT
BRANCH   1   7
ATOM      7  O   UNL     1      21.649  -1.301  31.046  1.00  0.00    -0.337 OA
BRANCH   7   8
ATOM      8  C   UNL     1      21.166  -0.207  31.818  1.00  0.00     0.282 C 
ATOM      9  C   UNL     1      21.422   2.472  29.301  1.00  0.00     0.041 C 
ATOM     10  C   UNL     1      21.921   1.351  30.218  1.00  0.00     0.150 C 
ATOM     11  C   UNL     1      23.065   1.866  31.128  1.00  0.00     0.174 C 
ATOM     12  O   UNL     1      20.820   0.895  30.992  1.00  0.00    -0.344 OA
ATOM     13  C   UNL     1      23.469   0.808  32.182  1.00  0.00     0.179 C 
ATOM     14  C   UNL     1      22.223   0.201  32.857  1.00  0.00     0.202 C 
BRANCH  11  15
ATOM     15  O   UNL     1      24.187   2.204  30.355  1.00  0.00    -0.388 OA
ATOM     16  H   UNL     1      24.241   1.554  29.612  1.00  0.00     0.211 HD
ENDBRANCH  11  15
BRANCH  13  17
ATOM     17  O   UNL     1      24.293  -0.211  31.661  1.00  0.00    -0.387 OA
ATOM     18  H   UNL     1      25.044   0.202  31.169  1.00  0.00     0.211 HD
ENDBRANCH  13  17
BRANCH  14  19
ATOM     19  O   UNL     1      21.651   1.128  33.741  1.00  0.00    -0.385 OA
ATOM     20  H   UNL     1      21.015   0.622  34.312  1.00  0.00     0.211 HD
ENDBRANCH  14  19
ENDBRANCH   7   8
ENDBRANCH   1   7
BRANCH   2  21
ATOM     21  O   UNL     1      23.396  -0.371  29.002  1.00  0.00    -0.387 OA
ATOM     22  H   UNL     1      23.709   0.071  28.171  1.00  0.00     0.211 HD
ENDBRANCH   2  21
BRANCH   6  23
ATOM     23  O   UNL     1      19.005  -2.324  29.960  1.00  0.00    -0.462 OA
BRANCH  23  24
ATOM     24  C   UNL     1      17.776  -2.631  29.373  1.00  0.00     0.130 A 
ATOM     25  C   UNL     1      16.575  -2.176  29.931  1.00  0.00     0.093 A 
ATOM     26  C   UNL     1      17.746  -3.456  28.247  1.00  0.00     0.094 A 
ATOM     27  C   UNL     1      15.344  -2.511  29.345  1.00  0.00     0.133 A 
ATOM     28  C   UNL     1      16.524  -3.845  27.690  1.00  0.00     0.138 A 
ATOM     29  C   UNL     1      15.312  -3.359  28.217  1.00  0.00     0.102 A 
ATOM     30  O   UNL     1      16.510  -4.739  26.615  1.00  0.00    -0.484 OA
ATOM     31  C   UNL     1      14.049  -3.779  27.561  1.00  0.00     0.174 C 
ATOM     32  C   UNL     1      15.340  -5.499  26.307  1.00  0.00     0.211 C 
ATOM     33  O   UNL     1      12.929  -3.455  28.036  1.00  0.00    -0.294 OA
ATOM     34  C   UNL     1      14.102  -4.586  26.291  1.00  0.00     0.131 C 
BRANCH  27  35
ATOM     35  O   UNL     1      14.161  -2.009  29.888  1.00  0.00    -0.507 OA
ATOM     36  H   UNL     1      13.254  -2.260  29.505  1.00  0.00     0.293 HD
ENDBRANCH  27  35
BRANCH  32  37
ATOM     37  C   UNL     1      15.530  -6.223  24.996  1.00  0.00    -0.007 A 
ATOM     38  C   UNL     1      14.770  -5.880  23.862  1.00  0.00     0.011 A 
ATOM     39  C   UNL     1      16.517  -7.222  24.881  1.00  0.00     0.011 A 
ATOM     40  C   UNL     1      14.976  -6.541  22.647  1.00  0.00     0.046 A 
ATOM     41  C   UNL     1      16.732  -7.868  23.658  1.00  0.00     0.046 A 
ATOM     42  C   UNL     1      15.957  -7.534  22.540  1.00  0.00     0.115 A 
BRANCH  42  43
ATOM     43  O   UNL     1      16.161  -8.171  21.315  1.00  0.00    -0.508 OA
ATOM     44  H   UNL     1      15.392  -8.344  20.678  1.00  0.00     0.293 HD
ENDBRANCH  42  43
ENDBRANCH  32  37
ENDBRANCH  23  24
ENDBRANCH   6  23
BRANCH   3  45
ATOM     45  O   UNL     1      21.824   0.381  27.019  1.00  0.00    -0.387 OA
ATOM     46  H   UNL     1      21.290   0.808  27.738  1.00  0.00     0.211 HD
ENDBRANCH   3  45
BRANCH   4  47
ATOM     47  C   UNL     1      19.987  -1.893  25.669  1.00  0.00     0.191 C 
BRANCH  47  48
ATOM     48  O   UNL     1      21.124  -1.900  24.850  1.00  0.00    -0.394 OA
ATOM     49  H   UNL     1      21.884  -2.216  25.408  1.00  0.00     0.210 HD
ENDBRANCH  47  48
ENDBRANCH   4  47
TORSDOF 14
ENDMDL
MODEL 3
REMARK VINA RESULT:    38.717      2.643      9.111
REMARK INTER + INTRA:          61.494
REMARK INTER:                  63.243
REMARK INTRA:                  -1.748
REMARK UNBOUND:                 0.143
REMARK SMILES C[C@@H]1O[C@@H](O[C@@H]2[C@@H](Oc3cc(O)c4c(c3)O[C@H](c3ccc(O)cc3)CC4=O)O[C@H](CO)[C@@H](O)[C@H]2O)[C@H](O)[C@@H](O)[C@H]1O
REMARK SMILES IDX 6 1 34 2 32 3 29 4 28 5 7 6 5 7 4 8 1 9 2 10 40 11 3 12
REMARK SMILES IDX 38 13 36 14 41 15 39 17 37 19 35 21 8 23 9 24 10 25 15 26
REMARK SMILES IDX 11 27 14 28 13 29 16 30 26 31 17 32 27 33 25 34 12 35 18 37
REMARK SMILES IDX 19 38 24 39 20 40 23 41 21 42 22 43 33 45 30 47 31 48
REMARK H PARENT 41 16 39 18 37 20 35 22 12 36 22 44 33 46 31 49
REMARK Flexibility Score: inf
ROOT
ATOM      1  C   UNL     1      14.915  -2.550  29.080  1.00  0.00     0.221 C 
ATOM      2  C   UNL     1      13.666  -2.480  28.177  1.00  0.00     0.181 C 
ATOM      3  C   UNL     1      13.658  -3.698  27.220  1.00  0.00     0.177 C 
ATOM      4  C   UNL     1      15.114  -4.177  26.906  1.00  0.00     0.179 C 
ATOM      5  O   UNL     1      16.045  -3.101  26.914  1.00  0.00    -0.332 OA
ATOM      6  C   UNL     1      16.179  -2.465  28.187  1.00  0.00     0.339 C 
ENDROOT
BRANCH   1   7
ATOM      7  O   UNL     1      14.911  -1.650  30.184  1.00  0.00    -0.337 OA
BRANCH   7   8
ATOM      8  C   UNL     1      15.591  -0.418  29.973  1.00  0.00     0.282 C 
ATOM      9  C   UNL     1      15.694   0.821  33.442  1.00  0.00     0.041 C 
ATOM     10  C   UNL     1      15.049   0.337  32.139  1.00  0.00     0.150 C 
ATOM     11  C   UNL     1      14.034   1.386  31.617  1.00  0.00     0.174 C 
ATOM     12  O   UNL     1      16.085   0.115  31.193  1.00  0.00    -0.344 OA
ATOM     13  C   UNL     1      13.498   1.005  30.217  1.00  0.00     0.179 C 
ATOM     14  C   UNL     1      14.649   0.582  29.283  1.00  0.00     0.202 C 
BRANCH  11  15
ATOM     15  O   UNL     1      12.958   1.508  32.509  1.00  0.00    -0.388 OA
ATOM     16  H   UNL     1      12.498   0.632  32.541  1.00  0.00     0.211 HD
ENDBRANCH  11  15
BRANCH  13  17
ATOM     17  O   UNL     1      12.502   0.006  30.254  1.00  0.00    -0.387 OA
ATOM     18  H   UNL     1      12.100  -0.080  29.355  1.00  0.00     0.211 HD
ENDBRANCH  13  17
BRANCH  14  19
ATOM     19  O   UNL     1      15.392   1.706  28.892  1.00  0.00    -0.385 OA
ATOM     20  H   UNL     1      16.328   1.397  28.766  1.00  0.00     0.211 HD
ENDBRANCH  14  19
ENDBRANCH   7   8
ENDBRANCH   1   7
BRANCH   2  21
ATOM     21  O   UNL     1      12.473  -2.396  28.922  1.00  0.00    -0.387 OA
ATOM     22  H   UNL     1      12.468  -1.525  29.399  1.00  0.00     0.211 HD
ENDBRANCH   2  21
BRANCH   6  23
ATOM     23  O   UNL     1      17.346  -2.912  28.880  1.00  0.00    -0.462 OA
BRANCH  23  24
ATOM     24  C   UNL     1      18.633  -2.409  28.677  1.00  0.00     0.130 A 
ATOM     25  C   UNL     1      19.252  -2.493  27.424  1.00  0.00     0.093 A 
ATOM     26  C   UNL     1      19.333  -1.873  29.759  1.00  0.00     0.094 A 
ATOM     27  C   UNL     1      20.555  -2.006  27.238  1.00  0.00     0.133 A 
ATOM     28  C   UNL     1      20.651  -1.438  29.601  1.00  0.00     0.138 A 
ATOM     29  C   UNL     1      21.268  -1.478  28.335  1.00  0.00     0.102 A 
ATOM     30  O   UNL     1      21.366  -0.982  30.713  1.00  0.00    -0.484 OA
ATOM     31  C   UNL     1      22.659  -0.970  28.223  1.00  0.00     0.174 C 
ATOM     32  C   UNL     1      22.794  -0.955  30.709  1.00  0.00     0.211 C 
ATOM     33  O   UNL     1      23.300  -1.061  27.143  1.00  0.00    -0.294 OA
ATOM     34  C   UNL     1      23.310  -0.312  29.410  1.00  0.00     0.131 C 
BRANCH  27  35
ATOM     35  O   UNL     1      21.137  -2.054  25.971  1.00  0.00    -0.507 OA
ATOM     36  H   UNL     1      21.459  -1.212  25.504  1.00  0.00     0.293 HD
ENDBRANCH  27  35
BRANCH  32  37
ATOM     37  C   UNL     1      23.297  -0.238  31.938  1.00  0.00    -0.007 A 
ATOM     38  C   UNL     1      23.946  -0.941  32.971  1.00  0.00     0.011 A 
ATOM     39  C   UNL     1      23.168   1.161  32.039  1.00  0.00     0.011 A 
ATOM     40  C   UNL     1      24.433  -0.260  34.092  1.00  0.00     0.046 A 
ATOM     41  C   UNL     1      23.673   1.840  33.154  1.00  0.00     0.046 A 
ATOM     42  C   UNL     1      24.300   1.131  34.187  1.00  0.00     0.115 A 
BRANCH  42  43
ATOM     43  O   UNL     1      24.805   1.796  35.304  1.00  0.00    -0.508 OA
ATOM     44  H   UNL     1      24.462   2.712  35.570  1.00  0.00     0.293 HD
ENDBRANCH  42  43
ENDBRANCH  32  37
ENDBRANCH  23  24
ENDBRANCH   6  23
BRANCH   3  45
ATOM     45  O   UNL     1      12.940  -4.749  27.820  1.00  0.00    -0.387 OA
ATOM     46  H   UNL     1      13.374  -5.600  27.552  1.00  0.00     0.211 HD
ENDBRANCH   3  45
BRANCH   4  47
ATOM     47  C   UNL     1      15.209  -4.869  25.539  1.00  0.00     0.191 C 
BRANCH  47  48
ATOM     48  O   UNL     1      14.143  -5.757  25.343  1.00  0.00    -0.394 OA
ATOM     49  H   UNL     1      14.338  -6.571  25.880  1.00  0.00     0.210 HD
ENDBRANCH  47  48
ENDBRANCH   4  47
TORSDOF 14
ENDMDL
MODEL 4
REMARK VINA RESULT:    39.274      5.544      8.473
REMARK INTER + INTRA:          62.376
REMARK INTER:                  64.022
REMARK INTRA:                  -1.646
REMARK UNBOUND:                 0.143
REMARK SMILES C[C@@H]1O[C@@H](O[C@@H]2[C@@H](Oc3cc(O)c4c(c3)O[C@H](c3ccc(O)cc3)CC4=O)O[C@H](CO)[C@@H](O)[C@H]2O)[C@H](O)[C@@H](O)[C@H]1O
REMARK SMILES IDX 6 1 34 2 32 3 29 4 28 5 7 6 5 7 4 8 1 9 2 10 40 11 3 12
REMARK SMILES IDX 38 13 36 14 41 15 39 17 37 19 35 21 8 23 9 24 10 25 15 26
REMARK SMILES IDX 11 27 14 28 13 29 16 30 26 31 17 32 27 33 25 34 12 35 18 37
REMARK SMILES IDX 19 38 24 39 20 40 23 41 21 42 22 43 33 45 30 47 31 48
REMARK H PARENT 41 16 39 18 37 20 35 22 12 36 22 44 33 46 31 49
REMARK Flexibility Score: inf
ROOT
ATOM      1  C   UNL     1      22.233   2.382  28.971  1.00  0.00     0.221 C 
ATOM      2  C   UNL     1      22.974   3.028  30.160  1.00  0.00     0.181 C 
ATOM      3  C   UNL     1      23.669   1.921  30.992  1.00  0.00     0.177 C 
ATOM      4  C   UNL     1      22.888   0.569  30.894  1.00  0.00     0.179 C 
ATOM      5  O   UNL     1      21.488   0.770  30.737  1.00  0.00    -0.332 OA
ATOM      6  C   UNL     1      21.135   1.438  29.524  1.00  0.00     0.339 C 
ENDROOT
BRANCH   1   7
ATOM      7  O   UNL     1      21.781   3.294  27.976  1.00  0.00    -0.337 OA
BRANCH   7   8
ATOM      8  C   UNL     1      22.084   2.938  26.633  1.00  0.00     0.282 C 
ATOM      9  C   UNL     1      24.876   5.258  26.002  1.00  0.00     0.041 C 
ATOM     10  C   UNL     1      23.444   4.842  26.355  1.00  0.00     0.150 C 
ATOM     11  C   UNL     1      22.431   5.539  25.411  1.00  0.00     0.174 C 
ATOM     12  O   UNL     1      23.357   3.429  26.242  1.00  0.00    -0.344 OA
ATOM     13  C   UNL     1      20.996   5.005  25.630  1.00  0.00     0.179 C 
ATOM     14  C   UNL     1      20.985   3.465  25.695  1.00  0.00     0.202 C 
BRANCH  11  15
ATOM     15  O   UNL     1      22.448   6.927  25.617  1.00  0.00    -0.388 OA
ATOM     16  H   UNL     1      21.558   7.275  25.359  1.00  0.00     0.211 HD
ENDBRANCH  11  15
BRANCH  13  17
ATOM     17  O   UNL     1      20.365   5.551  26.768  1.00  0.00    -0.387 OA
ATOM     18  H   UNL     1      20.262   6.526  26.641  1.00  0.00     0.211 HD
ENDBRANCH  13  17
BRANCH  14  19
ATOM     19  O   UNL     1      21.186   2.924  24.417  1.00  0.00    -0.385 OA
ATOM     20  H   UNL     1      21.923   2.265  24.500  1.00  0.00     0.211 HD
ENDBRANCH  14  19
ENDBRANCH   7   8
ENDBRANCH   1   7
BRANCH   2  21
ATOM     21  O   UNL     1      23.887   4.017  29.746  1.00  0.00    -0.387 OA
ATOM     22  H   UNL     1      24.758   3.837  30.186  1.00  0.00     0.211 HD
ENDBRANCH   2  21
BRANCH   6  23
ATOM     23  O   UNL     1      20.679   0.520  28.529  1.00  0.00    -0.462 OA
BRANCH  23  24
ATOM     24  C   UNL     1      21.310  -0.684  28.208  1.00  0.00     0.130 A 
ATOM     25  C   UNL     1      20.941  -1.882  28.831  1.00  0.00     0.093 A 
ATOM     26  C   UNL     1      22.369  -0.676  27.298  1.00  0.00     0.094 A 
ATOM     27  C   UNL     1      21.600  -3.082  28.518  1.00  0.00     0.133 A 
ATOM     28  C   UNL     1      23.070  -1.853  27.022  1.00  0.00     0.138 A 
ATOM     29  C   UNL     1      22.680  -3.071  27.610  1.00  0.00     0.102 A 
ATOM     30  O   UNL     1      24.181  -1.811  26.172  1.00  0.00    -0.484 OA
ATOM     31  C   UNL     1      23.443  -4.294  27.251  1.00  0.00     0.174 C 
ATOM     32  C   UNL     1      25.172  -2.839  26.207  1.00  0.00     0.211 C 
ATOM     33  O   UNL     1      23.204  -5.397  27.810  1.00  0.00    -0.294 OA
ATOM     34  C   UNL     1      24.503  -4.224  26.185  1.00  0.00     0.131 C 
BRANCH  27  35
ATOM     35  O   UNL     1      21.186  -4.273  29.114  1.00  0.00    -0.507 OA
ATOM     36  H   UNL     1      20.201  -4.491  29.233  1.00  0.00     0.293 HD
ENDBRANCH  27  35
BRANCH  32  37
ATOM     37  C   UNL     1      26.140  -2.656  25.063  1.00  0.00    -0.007 A 
ATOM     38  C   UNL     1      25.898  -3.245  23.808  1.00  0.00     0.011 A 
ATOM     39  C   UNL     1      27.278  -1.842  25.229  1.00  0.00     0.011 A 
ATOM     40  C   UNL     1      26.790  -3.045  22.749  1.00  0.00     0.046 A 
ATOM     41  C   UNL     1      28.158  -1.629  24.161  1.00  0.00     0.046 A 
ATOM     42  C   UNL     1      27.920  -2.236  22.921  1.00  0.00     0.115 A 
BRANCH  42  43
ATOM     43  O   UNL     1      28.790  -2.032  21.850  1.00  0.00    -0.508 OA
ATOM     44  H   UNL     1      28.827  -2.681  21.072  1.00  0.00     0.293 HD
ENDBRANCH  42  43
ENDBRANCH  32  37
ENDBRANCH  23  24
ENDBRANCH   6  23
BRANCH   3  45
ATOM     45  O   UNL     1      24.979   1.739  30.512  1.00  0.00    -0.387 OA
ATOM     46  H   UNL     1      25.021   2.128  29.599  1.00  0.00     0.211 HD
ENDBRANCH   3  45
BRANCH   4  47
ATOM     47  C   UNL     1      23.099  -0.308  32.136  1.00  0.00     0.191 C 
BRANCH  47  48
ATOM     48  O   UNL     1      23.107   0.461  33.307  1.00  0.00    -0.394 OA
ATOM     49  H   UNL     1      23.815   0.087  33.897  1.00  0.00     0.210 HD
ENDBRANCH  47  48
ENDBRANCH   4  47
TORSDOF 14
ENDMDL
MODEL 5
REMARK VINA RESULT:    39.455      2.315      9.018
REMARK INTER + INTRA:          62.662
REMARK INTER:                  62.818
REMARK INTRA:                  -0.156
REMARK UNBOUND:                 0.143
REMARK SMILES C[C@@H]1O[C@@H](O[C@@H]2[C@@H](Oc3cc(O)c4c(c3)O[C@H](c3ccc(O)cc3)CC4=O)O[C@H](CO)[C@@H](O)[C@H]2O)[C@H](O)[C@@H](O)[C@H]1O
REMARK SMILES IDX 6 1 34 2 32 3 29 4 28 5 7 6 5 7 4 8 1 9 2 10 40 11 3 12
REMARK SMILES IDX 38 13 36 14 41 15 39 17 37 19 35 21 8 23 9 24 10 25 15 26
REMARK SMILES IDX 11 27 14 28 13 29 16 30 26 31 17 32 27 33 25 34 12 35 18 37
REMARK SMILES IDX 19 38 24 39 20 40 23 41 21 42 22 43 33 45 30 47 31 48
REMARK H PARENT 41 16 39 18 37 20 35 22 12 36 22 44 33 46 31 49
REMARK Flexibility Score: inf
ROOT
ATOM      1  C   UNL     1      14.818  -3.797  26.723  1.00  0.00     0.221 C 
ATOM      2  C   UNL     1      14.069  -4.449  25.542  1.00  0.00     0.181 C 
ATOM      3  C   UNL     1      14.742  -5.802  25.195  1.00  0.00     0.177 C 
ATOM      4  C   UNL     1      16.266  -5.778  25.544  1.00  0.00     0.179 C 
ATOM      5  O   UNL     1      16.829  -4.480  25.396  1.00  0.00    -0.332 OA
ATOM      6  C   UNL     1      16.277  -3.508  26.287  1.00  0.00     0.339 C 
ENDROOT
BRANCH   1   7
ATOM      7  O   UNL     1      14.151  -2.690  27.320  1.00  0.00    -0.337 OA
BRANCH   7   8
ATOM      8  C   UNL     1      13.286  -3.007  28.405  1.00  0.00     0.282 C 
ATOM      9  C   UNL     1      12.618   0.390  29.665  1.00  0.00     0.041 C 
ATOM     10  C   UNL     1      13.465  -0.828  29.284  1.00  0.00     0.150 C 
ATOM     11  C   UNL     1      14.323  -1.289  30.490  1.00  0.00     0.174 C 
ATOM     12  O   UNL     1      12.585  -1.860  28.861  1.00  0.00    -0.344 OA
ATOM     13  C   UNL     1      15.055  -2.617  30.188  1.00  0.00     0.179 C 
ATOM     14  C   UNL     1      14.097  -3.641  29.547  1.00  0.00     0.202 C 
BRANCH  11  15
ATOM     15  O   UNL     1      15.265  -0.303  30.823  1.00  0.00    -0.388 OA
ATOM     16  H   UNL     1      15.646   0.040  29.976  1.00  0.00     0.211 HD
ENDBRANCH  11  15
BRANCH  13  17
ATOM     17  O   UNL     1      16.206  -2.451  29.389  1.00  0.00    -0.387 OA
ATOM     18  H   UNL     1      17.008  -2.512  29.963  1.00  0.00     0.211 HD
ENDBRANCH  13  17
BRANCH  14  19
ATOM     19  O   UNL     1      13.207  -4.140  30.509  1.00  0.00    -0.385 OA
ATOM     20  H   UNL     1      13.441  -3.700  31.368  1.00  0.00     0.211 HD
ENDBRANCH  14  19
ENDBRANCH   7   8
ENDBRANCH   1   7
BRANCH   2  21
ATOM     21  O   UNL     1      12.694  -4.605  25.803  1.00  0.00    -0.387 OA
ATOM     22  H   UNL     1      12.514  -4.275  26.722  1.00  0.00     0.211 HD
ENDBRANCH   2  21
BRANCH   6  23
ATOM     23  O   UNL     1      17.128  -3.279  27.411  1.00  0.00    -0.462 OA
BRANCH  23  24
ATOM     24  C   UNL     1      18.409  -2.728  27.339  1.00  0.00     0.130 A 
ATOM     25  C   UNL     1      19.137  -2.745  26.144  1.00  0.00     0.093 A 
ATOM     26  C   UNL     1      18.994  -2.210  28.497  1.00  0.00     0.094 A 
ATOM     27  C   UNL     1      20.434  -2.209  26.090  1.00  0.00     0.133 A 
ATOM     28  C   UNL     1      20.305  -1.728  28.470  1.00  0.00     0.138 A 
ATOM     29  C   UNL     1      21.030  -1.700  27.263  1.00  0.00     0.102 A 
ATOM     30  O   UNL     1      20.905  -1.291  29.656  1.00  0.00    -0.484 OA
ATOM     31  C   UNL     1      22.407  -1.145  27.291  1.00  0.00     0.174 C 
ATOM     32  C   UNL     1      22.325  -1.219  29.778  1.00  0.00     0.211 C 
ATOM     33  O   UNL     1      23.142  -1.174  26.269  1.00  0.00    -0.294 OA
ATOM     34  C   UNL     1      22.929  -0.512  28.553  1.00  0.00     0.131 C 
BRANCH  27  35
ATOM     35  O   UNL     1      21.124  -2.191  24.878  1.00  0.00    -0.507 OA
ATOM     36  H   UNL     1      22.140  -2.176  24.847  1.00  0.00     0.293 HD
ENDBRANCH  27  35
BRANCH  32  37
ATOM     37  C   UNL     1      22.695  -0.533  31.071  1.00  0.00    -0.007 A 
ATOM     38  C   UNL     1      23.504  -1.177  32.026  1.00  0.00     0.011 A 
ATOM     39  C   UNL     1      22.274   0.789  31.311  1.00  0.00     0.011 A 
ATOM     40  C   UNL     1      23.863  -0.519  33.207  1.00  0.00     0.046 A 
ATOM     41  C   UNL     1      22.649   1.450  32.487  1.00  0.00     0.046 A 
ATOM     42  C   UNL     1      23.439   0.795  33.441  1.00  0.00     0.115 A 
BRANCH  42  43
ATOM     43  O   UNL     1      23.819   1.442  34.617  1.00  0.00    -0.508 OA
ATOM     44  H   UNL     1      23.186   1.514  35.406  1.00  0.00     0.293 HD
ENDBRANCH  42  43
ENDBRANCH  32  37
ENDBRANCH  23  24
ENDBRANCH   6  23
BRANCH   3  45
ATOM     45  O   UNL     1      14.111  -6.828  25.924  1.00  0.00    -0.387 OA
ATOM     46  H   UNL     1      13.498  -7.303  25.304  1.00  0.00     0.211 HD
ENDBRANCH   3  45
BRANCH   4  47
ATOM     47  C   UNL     1      17.072  -6.742  24.662  1.00  0.00     0.191 C 
BRANCH  47  48
ATOM     48  O   UNL     1      16.344  -7.907  24.383  1.00  0.00    -0.394 OA
ATOM     49  H   UNL     1      16.464  -8.101  23.415  1.00  0.00     0.210 HD
ENDBRANCH  47  48
ENDBRANCH   4  47
TORSDOF 14
ENDMDL
MODEL 6
REMARK VINA RESULT:    39.535      1.644      3.151
REMARK INTER + INTRA:          62.790
REMARK INTER:                  63.331
REMARK INTRA:                  -0.541
REMARK UNBOUND:                 0.143
REMARK SMILES C[C@@H]1O[C@@H](O[C@@H]2[C@@H](Oc3cc(O)c4c(c3)O[C@H](c3ccc(O)cc3)CC4=O)O[C@H](CO)[C@@H](O)[C@H]2O)[C@H](O)[C@@H](O)[C@H]1O
REMARK SMILES IDX 6 1 34 2 32 3 29 4 28 5 7 6 5 7 4 8 1 9 2 10 40 11 3 12
REMARK SMILES IDX 38 13 36 14 41 15 39 17 37 19 35 21 8 23 9 24 10 25 15 26
REMARK SMILES IDX 11 27 14 28 13 29 16 30 26 31 17 32 27 33 25 34 12 35 18 37
REMARK SMILES IDX 19 38 24 39 20 40 23 41 21 42 22 43 33 45 30 47 31 48
REMARK H PARENT 41 16 39 18 37 20 35 22 12 36 22 44 33 46 31 49
REMARK Flexibility Score: inf
ROOT
ATOM      1  C   UNL     1      18.498  -3.116  29.615  1.00  0.00     0.221 C 
ATOM      2  C   UNL     1      18.328  -3.175  31.147  1.00  0.00     0.181 C 
ATOM      3  C   UNL     1      16.864  -3.553  31.485  1.00  0.00     0.177 C 
ATOM      4  C   UNL     1      15.883  -3.059  30.370  1.00  0.00     0.179 C 
ATOM      5  O   UNL     1      16.336  -1.860  29.753  1.00  0.00    -0.332 OA
ATOM      6  C   UNL     1      17.575  -2.005  29.054  1.00  0.00     0.339 C 
ENDROOT
BRANCH   1   7
ATOM      7  O   UNL     1      19.846  -3.048  29.162  1.00  0.00    -0.337 OA
BRANCH   7   8
ATOM      8  C   UNL     1      20.399  -1.739  29.076  1.00  0.00     0.282 C 
ATOM      9  C   UNL     1      21.202  -1.653  25.481  1.00  0.00     0.041 C 
ATOM     10  C   UNL     1      21.261  -2.163  26.924  1.00  0.00     0.150 C 
ATOM     11  C   UNL     1      22.728  -2.206  27.422  1.00  0.00     0.174 C 
ATOM     12  O   UNL     1      20.474  -1.297  27.729  1.00  0.00    -0.344 OA
ATOM     13  C   UNL     1      22.804  -2.551  28.928  1.00  0.00     0.179 C 
ATOM     14  C   UNL     1      21.788  -1.719  29.735  1.00  0.00     0.202 C 
BRANCH  11  15
ATOM     15  O   UNL     1      23.464  -3.152  26.691  1.00  0.00    -0.388 OA
ATOM     16  H   UNL     1      24.251  -3.401  27.237  1.00  0.00     0.211 HD
ENDBRANCH  11  15
BRANCH  13  17
ATOM     17  O   UNL     1      22.636  -3.926  29.195  1.00  0.00    -0.387 OA
ATOM     18  H   UNL     1      22.079  -4.031  30.004  1.00  0.00     0.211 HD
ENDBRANCH  13  17
BRANCH  14  19
ATOM     19  O   UNL     1      22.221  -0.388  29.833  1.00  0.00    -0.385 OA
ATOM     20  H   UNL     1      23.026  -0.308  29.257  1.00  0.00     0.211 HD
ENDBRANCH  14  19
ENDBRANCH   7   8
ENDBRANCH   1   7
BRANCH   2  21
ATOM     21  O   UNL     1      19.245  -4.055  31.754  1.00  0.00    -0.387 OA
ATOM     22  H   UNL     1      18.838  -4.960  31.774  1.00  0.00     0.211 HD
ENDBRANCH   2  21
BRANCH   6  23
ATOM     23  O   UNL     1      17.375  -2.146  27.647  1.00  0.00    -0.462 OA
BRANCH  23  24
ATOM     24  C   UNL     1      16.422  -2.982  27.059  1.00  0.00     0.130 A 
ATOM     25  C   UNL     1      15.072  -2.906  27.421  1.00  0.00     0.093 A 
ATOM     26  C   UNL     1      16.838  -3.949  26.142  1.00  0.00     0.094 A 
ATOM     27  C   UNL     1      14.128  -3.767  26.840  1.00  0.00     0.133 A 
ATOM     28  C   UNL     1      15.918  -4.850  25.601  1.00  0.00     0.138 A 
ATOM     29  C   UNL     1      14.550  -4.755  25.926  1.00  0.00     0.102 A 
ATOM     30  O   UNL     1      16.364  -5.866  24.750  1.00  0.00    -0.484 OA
ATOM     31  C   UNL     1      13.615  -5.720  25.293  1.00  0.00     0.174 C 
ATOM     32  C   UNL     1      15.584  -7.043  24.537  1.00  0.00     0.211 C 
ATOM     33  O   UNL     1      12.397  -5.748  25.609  1.00  0.00    -0.294 OA
ATOM     34  C   UNL     1      14.123  -6.665  24.238  1.00  0.00     0.131 C 
BRANCH  27  35
ATOM     35  O   UNL     1      12.780  -3.644  27.179  1.00  0.00    -0.507 OA
ATOM     36  H   UNL     1      12.482  -3.566  28.146  1.00  0.00     0.293 HD
ENDBRANCH  27  35
BRANCH  32  37
ATOM     37  C   UNL     1      16.196  -7.871  23.432  1.00  0.00    -0.007 A 
ATOM     38  C   UNL     1      15.990  -7.539  22.080  1.00  0.00     0.011 A 
ATOM     39  C   UNL     1      17.031  -8.960  23.750  1.00  0.00     0.011 A 
ATOM     40  C   UNL     1      16.585  -8.298  21.067  1.00  0.00     0.046 A 
ATOM     41  C   UNL     1      17.639  -9.706  22.734  1.00  0.00     0.046 A 
ATOM     42  C   UNL     1      17.413  -9.382  21.390  1.00  0.00     0.115 A 
BRANCH  42  43
ATOM     43  O   UNL     1      18.013 -10.118  20.368  1.00  0.00    -0.508 OA
ATOM     44  H   UNL     1      18.770 -10.763  20.560  1.00  0.00     0.293 HD
ENDBRANCH  42  43
ENDBRANCH  32  37
ENDBRANCH  23  24
ENDBRANCH   6  23
BRANCH   3  45
ATOM     45  O   UNL     1      16.767  -4.953  31.605  1.00  0.00    -0.387 OA
ATOM     46  H   UNL     1      17.139  -5.204  32.490  1.00  0.00     0.211 HD
ENDBRANCH   3  45
BRANCH   4  47
ATOM     47  C   UNL     1      14.473  -2.800  30.919  1.00  0.00     0.191 C 
BRANCH  47  48
ATOM     48  O   UNL     1      13.495  -3.402  30.116  1.00  0.00    -0.394 OA
ATOM     49  H   UNL     1      13.714  -4.371  30.067  1.00  0.00     0.210 HD
ENDBRANCH  47  48
ENDBRANCH   4  47
TORSDOF 14
ENDMDL
MODEL 7
REMARK VINA RESULT:    40.119      2.767      9.103
REMARK INTER + INTRA:          63.715
REMARK INTER:                  60.670
REMARK INTRA:                   3.045
REMARK UNBOUND:                 0.143
REMARK SMILES C[C@@H]1O[C@@H](O[C@@H]2[C@@H](Oc3cc(O)c4c(c3)O[C@H](c3ccc(O)cc3)CC4=O)O[C@H](CO)[C@@H](O)[C@H]2O)[C@H](O)[C@@H](O)[C@H]1O
REMARK SMILES IDX 6 1 34 2 32 3 29 4 28 5 7 6 5 7 4 8 1 9 2 10 40 11 3 12
REMARK SMILES IDX 38 13 36 14 41 15 39 17 37 19 35 21 8 23 9 24 10 25 15 26
REMARK SMILES IDX 11 27 14 28 13 29 16 30 26 31 17 32 27 33 25 34 12 35 18 37
REMARK SMILES IDX 19 38 24 39 20 40 23 41 21 42 22 43 33 45 30 47 31 48
REMARK H PARENT 41 16 39 18 37 20 35 22 12 36 22 44 33 46 31 49
REMARK Flexibility Score: inf
ROOT
ATOM      1  C   UNL     1      17.431  -3.025  28.901  1.00  0.00     0.221 C 
ATOM      2  C   UNL     1      16.359  -3.417  29.939  1.00  0.00     0.181 C 
ATOM      3  C   UNL     1      16.652  -2.689  31.275  1.00  0.00     0.177 C 
ATOM      4  C   UNL     1      18.183  -2.421  31.446  1.00  0.00     0.179 C 
ATOM      5  O   UNL     1      18.975  -3.430  30.830  1.00  0.00    -0.332 OA
ATOM      6  C   UNL     1      18.814  -3.500  29.412  1.00  0.00     0.339 C 
ENDROOT
BRANCH   1   7
ATOM      7  O   UNL     1      17.136  -3.401  27.560  1.00  0.00    -0.337 OA
BRANCH   7   8
ATOM      8  C   UNL     1      16.341  -2.478  26.824  1.00  0.00     0.282 C 
ATOM      9  C   UNL     1      12.988  -3.597  27.862  1.00  0.00     0.041 C 
ATOM     10  C   UNL     1      14.381  -3.720  27.237  1.00  0.00     0.150 C 
ATOM     11  C   UNL     1      14.274  -4.209  25.770  1.00  0.00     0.174 C 
ATOM     12  O   UNL     1      15.006  -2.446  27.305  1.00  0.00    -0.344 OA
ATOM     13  C   UNL     1      15.649  -4.175  25.062  1.00  0.00     0.179 C 
ATOM     14  C   UNL     1      16.374  -2.842  25.330  1.00  0.00     0.202 C 
BRANCH  11  15
ATOM     15  O   UNL     1      13.762  -5.515  25.728  1.00  0.00    -0.388 OA
ATOM     16  H   UNL     1      14.504  -6.131  25.951  1.00  0.00     0.211 HD
ENDBRANCH  11  15
BRANCH  13  17
ATOM     17  O   UNL     1      16.479  -5.264  25.402  1.00  0.00    -0.387 OA
ATOM     18  H   UNL     1      17.420  -5.017  25.228  1.00  0.00     0.211 HD
ENDBRANCH  13  17
BRANCH  14  19
ATOM     19  O   UNL     1      15.770  -1.807  24.601  1.00  0.00    -0.385 OA
ATOM     20  H   UNL     1      15.418  -2.215  23.767  1.00  0.00     0.211 HD
ENDBRANCH  14  19
ENDBRANCH   7   8
ENDBRANCH   1   7
BRANCH   2  21
ATOM     21  O   UNL     1      15.052  -3.157  29.481  1.00  0.00    -0.387 OA
ATOM     22  H   UNL     1      15.081  -3.083  28.492  1.00  0.00     0.211 HD
ENDBRANCH   2  21
BRANCH   6  23
ATOM     23  O   UNL     1      19.883  -2.846  28.726  1.00  0.00    -0.462 OA
BRANCH  23  24
ATOM     24  C   UNL     1      20.667  -1.824  29.266  1.00  0.00     0.130 A 
ATOM     25  C   UNL     1      21.054  -1.845  30.611  1.00  0.00     0.093 A 
ATOM     26  C   UNL     1      21.015  -0.736  28.463  1.00  0.00     0.094 A 
ATOM     27  C   UNL     1      21.823  -0.799  31.148  1.00  0.00     0.133 A 
ATOM     28  C   UNL     1      21.729   0.338  29.001  1.00  0.00     0.138 A 
ATOM     29  C   UNL     1      22.160   0.308  30.341  1.00  0.00     0.102 A 
ATOM     30  O   UNL     1      21.995   1.457  28.206  1.00  0.00    -0.484 OA
ATOM     31  C   UNL     1      22.945   1.463  30.846  1.00  0.00     0.174 C 
ATOM     32  C   UNL     1      22.304   2.720  28.795  1.00  0.00     0.211 C 
ATOM     33  O   UNL     1      23.282   1.542  32.056  1.00  0.00    -0.294 OA
ATOM     34  C   UNL     1      23.367   2.549  29.894  1.00  0.00     0.131 C 
BRANCH  27  35
ATOM     35  O   UNL     1      22.239  -0.861  32.478  1.00  0.00    -0.507 OA
ATOM     36  H   UNL     1      21.931  -0.176  33.162  1.00  0.00     0.293 HD
ENDBRANCH  27  35
BRANCH  32  37
ATOM     37  C   UNL     1      22.742   3.692  27.725  1.00  0.00    -0.007 A 
ATOM     38  C   UNL     1      23.964   4.382  27.831  1.00  0.00     0.011 A 
ATOM     39  C   UNL     1      21.949   3.877  26.576  1.00  0.00     0.011 A 
ATOM     40  C   UNL     1      24.370   5.258  26.819  1.00  0.00     0.046 A 
ATOM     41  C   UNL     1      22.368   4.740  25.558  1.00  0.00     0.046 A 
ATOM     42  C   UNL     1      23.576   5.439  25.679  1.00  0.00     0.115 A 
BRANCH  42  43
ATOM     43  O   UNL     1      24.004   6.304  24.672  1.00  0.00    -0.508 OA
ATOM     44  H   UNL     1      23.354   6.685  23.994  1.00  0.00     0.293 HD
ENDBRANCH  42  43
ENDBRANCH  32  37
ENDBRANCH  23  24
ENDBRANCH   6  23
BRANCH   3  45
ATOM     45  O   UNL     1      15.958  -1.465  31.293  1.00  0.00    -0.387 OA
ATOM     46  H   UNL     1      16.317  -0.906  30.556  1.00  0.00     0.211 HD
ENDBRANCH   3  45
BRANCH   4  47
ATOM     47  C   UNL     1      18.591  -2.343  32.925  1.00  0.00     0.191 C 
BRANCH  47  48
ATOM     48  O   UNL     1      18.566  -3.608  33.527  1.00  0.00    -0.394 OA
ATOM     49  H   UNL     1      18.702  -4.278  32.806  1.00  0.00     0.210 HD
ENDBRANCH  47  48
ENDBRANCH   4  47
TORSDOF 14
ENDMDL
MODEL 8
REMARK VINA RESULT:    40.707      1.028      2.016
REMARK INTER + INTRA:          64.647
REMARK INTER:                  64.725
REMARK INTRA:                  -0.078
REMARK UNBOUND:                 0.143
REMARK SMILES C[C@@H]1O[C@@H](O[C@@H]2[C@@H](Oc3cc(O)c4c(c3)O[C@H](c3ccc(O)cc3)CC4=O)O[C@H](CO)[C@@H](O)[C@H]2O)[C@H](O)[C@@H](O)[C@H]1O
REMARK SMILES IDX 6 1 34 2 32 3 29 4 28 5 7 6 5 7 4 8 1 9 2 10 40 11 3 12
REMARK SMILES IDX 38 13 36 14 41 15 39 17 37 19 35 21 8 23 9 24 10 25 15 26
REMARK SMILES IDX 11 27 14 28 13 29 16 30 26 31 17 32 27 33 25 34 12 35 18 37
REMARK SMILES IDX 19 38 24 39 20 40 23 41 21 42 22 43 33 45 30 47 31 48
REMARK H PARENT 41 16 39 18 37 20 35 22 12 36 22 44 33 46 31 49
REMARK Flexibility Score: inf
ROOT
ATOM      1  C   UNL     1      19.067  -3.609  29.726  1.00  0.00     0.221 C 
ATOM      2  C   UNL     1      19.917  -4.646  30.489  1.00  0.00     0.181 C 
ATOM      3  C   UNL     1      19.025  -5.373  31.527  1.00  0.00     0.177 C 
ATOM      4  C   UNL     1      17.867  -4.445  32.022  1.00  0.00     0.179 C 
ATOM      5  O   UNL     1      18.247  -3.074  32.030  1.00  0.00    -0.332 OA
ATOM      6  C   UNL     1      18.549  -2.553  30.734  1.00  0.00     0.339 C 
ENDROOT
BRANCH   1   7
ATOM      7  O   UNL     1      19.684  -3.063  28.564  1.00  0.00    -0.337 OA
BRANCH   7   8
ATOM      8  C   UNL     1      20.307  -1.796  28.738  1.00  0.00     0.282 C 
ATOM      9  C   UNL     1      21.408  -1.177  25.277  1.00  0.00     0.041 C 
ATOM     10  C   UNL     1      21.322  -1.918  26.615  1.00  0.00     0.150 C 
ATOM     11  C   UNL     1      22.739  -2.134  27.205  1.00  0.00     0.174 C 
ATOM     12  O   UNL     1      20.516  -1.146  27.493  1.00  0.00    -0.344 OA
ATOM     13  C   UNL     1      22.672  -2.722  28.634  1.00  0.00     0.179 C 
ATOM     14  C   UNL     1      21.636  -1.970  29.492  1.00  0.00     0.202 C 
BRANCH  11  15
ATOM     15  O   UNL     1      23.484  -2.992  26.383  1.00  0.00    -0.388 OA
ATOM     16  H   UNL     1      24.246  -2.472  26.025  1.00  0.00     0.211 HD
ENDBRANCH  11  15
BRANCH  13  17
ATOM     17  O   UNL     1      22.414  -4.109  28.655  1.00  0.00    -0.387 OA
ATOM     18  H   UNL     1      22.189  -4.381  29.578  1.00  0.00     0.211 HD
ENDBRANCH  13  17
BRANCH  14  19
ATOM     19  O   UNL     1      22.125  -0.702  29.841  1.00  0.00    -0.385 OA
ATOM     20  H   UNL     1      22.964  -0.853  30.351  1.00  0.00     0.211 HD
ENDBRANCH  14  19
ENDBRANCH   7   8
ENDBRANCH   1   7
BRANCH   2  21
ATOM     21  O   UNL     1      20.553  -5.557  29.622  1.00  0.00    -0.387 OA
ATOM     22  H   UNL     1      21.411  -5.155  29.327  1.00  0.00     0.211 HD
ENDBRANCH   2  21
BRANCH   6  23
ATOM     23  O   UNL     1      17.458  -1.802  30.199  1.00  0.00    -0.462 OA
BRANCH  23  24
ATOM     24  C   UNL     1      16.454  -2.330  29.384  1.00  0.00     0.130 A 
ATOM     25  C   UNL     1      15.110  -1.993  29.583  1.00  0.00     0.093 A 
ATOM     26  C   UNL     1      16.795  -3.258  28.398  1.00  0.00     0.094 A 
ATOM     27  C   UNL     1      14.107  -2.549  28.773  1.00  0.00     0.133 A 
ATOM     28  C   UNL     1      15.801  -3.863  27.624  1.00  0.00     0.138 A 
ATOM     29  C   UNL     1      14.450  -3.499  27.787  1.00  0.00     0.102 A 
ATOM     30  O   UNL     1      16.151  -4.851  26.699  1.00  0.00    -0.484 OA
ATOM     31  C   UNL     1      13.443  -4.151  26.912  1.00  0.00     0.174 C 
ATOM     32  C   UNL     1      15.186  -5.790  26.225  1.00  0.00     0.211 C 
ATOM     33  O   UNL     1      12.212  -3.939  27.066  1.00  0.00    -0.294 OA
ATOM     34  C   UNL     1      13.898  -5.062  25.804  1.00  0.00     0.131 C 
BRANCH  27  35
ATOM     35  O   UNL     1      12.779  -2.164  28.955  1.00  0.00    -0.507 OA
ATOM     36  H   UNL     1      12.183  -2.622  29.638  1.00  0.00     0.293 HD
ENDBRANCH  27  35
BRANCH  32  37
ATOM     37  C   UNL     1      15.773  -6.606  25.099  1.00  0.00    -0.007 A 
ATOM     38  C   UNL     1      16.737  -7.600  25.352  1.00  0.00     0.011 A 
ATOM     39  C   UNL     1      15.318  -6.415  23.780  1.00  0.00     0.011 A 
ATOM     40  C   UNL     1      17.253  -8.368  24.303  1.00  0.00     0.046 A 
ATOM     41  C   UNL     1      15.824  -7.198  22.736  1.00  0.00     0.046 A 
ATOM     42  C   UNL     1      16.797  -8.172  22.993  1.00  0.00     0.115 A 
BRANCH  42  43
ATOM     43  O   UNL     1      17.310  -8.957  21.960  1.00  0.00    -0.508 OA
ATOM     44  H   UNL     1      16.697  -9.462  21.330  1.00  0.00     0.293 HD
ENDBRANCH  42  43
ENDBRANCH  32  37
ENDBRANCH  23  24
ENDBRANCH   6  23
BRANCH   3  45
ATOM     45  O   UNL     1      18.478  -6.527  30.936  1.00  0.00    -0.387 OA
ATOM     46  H   UNL     1      19.114  -7.274  31.091  1.00  0.00     0.211 HD
ENDBRANCH   3  45
BRANCH   4  47
ATOM     47  C   UNL     1      17.403  -4.812  33.439  1.00  0.00     0.191 C 
BRANCH  47  48
ATOM     48  O   UNL     1      18.370  -5.571  34.111  1.00  0.00    -0.394 OA
ATOM     49  H   UNL     1      19.257  -5.287  33.764  1.00  0.00     0.210 HD
ENDBRANCH  47  48
ENDBRANCH   4  47
TORSDOF 14
ENDMDL
MODEL 9
REMARK VINA RESULT:    41.088      2.239      9.088
REMARK INTER + INTRA:          65.250
REMARK INTER:                  66.182
REMARK INTRA:                  -0.932
REMARK UNBOUND:                 0.143
REMARK SMILES C[C@@H]1O[C@@H](O[C@@H]2[C@@H](Oc3cc(O)c4c(c3)O[C@H](c3ccc(O)cc3)CC4=O)O[C@H](CO)[C@@H](O)[C@H]2O)[C@H](O)[C@@H](O)[C@H]1O
REMARK SMILES IDX 6 1 34 2 32 3 29 4 28 5 7 6 5 7 4 8 1 9 2 10 40 11 3 12
REMARK SMILES IDX 38 13 36 14 41 15 39 17 37 19 35 21 8 23 9 24 10 25 15 26
REMARK SMILES IDX 11 27 14 28 13 29 16 30 26 31 17 32 27 33 25 34 12 35 18 37
REMARK SMILES IDX 19 38 24 39 20 40 23 41 21 42 22 43 33 45 30 47 31 48
REMARK H PARENT 41 16 39 18 37 20 35 22 12 36 22 44 33 46 31 49
REMARK Flexibility Score: inf
ROOT
ATOM      1  C   UNL     1      15.015  -2.641  28.975  1.00  0.00     0.221 C 
ATOM      2  C   UNL     1      13.860  -1.706  29.392  1.00  0.00     0.181 C 
ATOM      3  C   UNL     1      14.440  -0.485  30.150  1.00  0.00     0.177 C 
ATOM      4  C   UNL     1      15.764  -0.860  30.893  1.00  0.00     0.179 C 
ATOM      5  O   UNL     1      15.769  -2.216  31.324  1.00  0.00    -0.332 OA
ATOM      6  C   UNL     1      15.720  -3.161  30.253  1.00  0.00     0.339 C 
ENDROOT
BRANCH   1   7
ATOM      7  O   UNL     1      14.660  -3.656  28.042  1.00  0.00    -0.337 OA
BRANCH   7   8
ATOM      8  C   UNL     1      14.538  -3.232  26.689  1.00  0.00     0.282 C 
ATOM      9  C   UNL     1      13.070  -6.278  25.225  1.00  0.00     0.041 C 
ATOM     10  C   UNL     1      14.117  -5.433  25.958  1.00  0.00     0.150 C 
ATOM     11  C   UNL     1      15.498  -5.563  25.267  1.00  0.00     0.174 C 
ATOM     12  O   UNL     1      13.671  -4.084  25.956  1.00  0.00    -0.344 OA
ATOM     13  C   UNL     1      16.531  -4.588  25.879  1.00  0.00     0.179 C 
ATOM     14  C   UNL     1      15.929  -3.177  26.037  1.00  0.00     0.202 C 
BRANCH  11  15
ATOM     15  O   UNL     1      15.977  -6.878  25.379  1.00  0.00    -0.388 OA
ATOM     16  H   UNL     1      16.965  -6.832  25.404  1.00  0.00     0.211 HD
ENDBRANCH  11  15
BRANCH  13  17
ATOM     17  O   UNL     1      17.063  -5.036  27.106  1.00  0.00    -0.387 OA
ATOM     18  H   UNL     1      16.322  -5.333  27.689  1.00  0.00     0.211 HD
ENDBRANCH  13  17
BRANCH  14  19
ATOM     19  O   UNL     1      15.815  -2.557  24.784  1.00  0.00    -0.385 OA
ATOM     20  H   UNL     1      16.489  -1.828  24.765  1.00  0.00     0.211 HD
ENDBRANCH  14  19
ENDBRANCH   7   8
ENDBRANCH   1   7
BRANCH   2  21
ATOM     21  O   UNL     1      13.070  -1.311  28.295  1.00  0.00    -0.387 OA
ATOM     22  H   UNL     1      12.119  -1.477  28.523  1.00  0.00     0.211 HD
ENDBRANCH   2  21
BRANCH   6  23
ATOM     23  O   UNL     1      17.011  -3.698  29.962  1.00  0.00    -0.462 OA
BRANCH  23  24
ATOM     24  C   UNL     1      18.115  -2.942  29.560  1.00  0.00     0.130 A 
ATOM     25  C   UNL     1      18.414  -2.765  28.204  1.00  0.00     0.093 A 
ATOM     26  C   UNL     1      18.965  -2.409  30.530  1.00  0.00     0.094 A 
ATOM     27  C   UNL     1      19.540  -2.023  27.812  1.00  0.00     0.133 A 
ATOM     28  C   UNL     1      20.120  -1.718  30.153  1.00  0.00     0.138 A 
ATOM     29  C   UNL     1      20.408  -1.497  28.793  1.00  0.00     0.102 A 
ATOM     30  O   UNL     1      21.005  -1.264  31.137  1.00  0.00    -0.484 OA
ATOM     31  C   UNL     1      21.632  -0.727  28.455  1.00  0.00     0.174 C 
ATOM     32  C   UNL     1      22.365  -0.969  30.822  1.00  0.00     0.211 C 
ATOM     33  O   UNL     1      21.995  -0.573  27.260  1.00  0.00    -0.294 OA
ATOM     34  C   UNL     1      22.442  -0.097  29.557  1.00  0.00     0.131 C 
BRANCH  27  35
ATOM     35  O   UNL     1      19.794  -1.817  26.456  1.00  0.00    -0.507 OA
ATOM     36  H   UNL     1      19.453  -2.462  25.750  1.00  0.00     0.293 HD
ENDBRANCH  27  35
BRANCH  32  37
ATOM     37  C   UNL     1      23.036  -0.314  32.006  1.00  0.00    -0.007 A 
ATOM     38  C   UNL     1      23.903  -1.042  32.841  1.00  0.00     0.011 A 
ATOM     39  C   UNL     1      22.839   1.059  32.254  1.00  0.00     0.011 A 
ATOM     40  C   UNL     1      24.539  -0.416  33.918  1.00  0.00     0.046 A 
ATOM     41  C   UNL     1      23.492   1.686  33.322  1.00  0.00     0.046 A 
ATOM     42  C   UNL     1      24.338   0.949  34.161  1.00  0.00     0.115 A 
BRANCH  42  43
ATOM     43  O   UNL     1      24.993   1.562  35.229  1.00  0.00    -0.508 OA
ATOM     44  H   UNL     1      25.907   1.247  35.536  1.00  0.00     0.293 HD
ENDBRANCH  42  43
ENDBRANCH  32  37
ENDBRANCH  23  24
ENDBRANCH   6  23
BRANCH   3  45
ATOM     45  O   UNL     1      14.698   0.547  29.228  1.00  0.00    -0.387 OA
ATOM     46  H   UNL     1      15.330   1.181  29.657  1.00  0.00     0.211 HD
ENDBRANCH   3  45
BRANCH   4  47
ATOM     47  C   UNL     1      16.001   0.025  32.125  1.00  0.00     0.191 C 
BRANCH  47  48
ATOM     48  O   UNL     1      14.973   0.964  32.284  1.00  0.00    -0.394 OA
ATOM     49  H   UNL     1      15.323   1.682  32.875  1.00  0.00     0.210 HD
ENDBRANCH  47  48
ENDBRANCH   4  47
TORSDOF 14
ENDMDL
