MODEL 1
REMARK VINA RESULT:    -4.138      0.000      0.000
REMARK INTER + INTRA:          -8.780
REMARK INTER:                  -7.041
REMARK INTRA:                  -1.739
REMARK UNBOUND:                -1.739
REMARK SMILES CCCCCCCCCCCCCC(=O)[O-]
REMARK SMILES IDX 8 1 9 2 10 3 11 4 12 5 13 6 14 7 15 8 16 9 7 10 6 11 5 12
REMARK SMILES IDX 4 13 3 14 2 15 1 16
REMARK H PARENT
REMARK Flexibility Score: inf
ROOT
ATOM      1  C   UNL     1      44.026  63.762  12.061  1.00  0.00     0.000 C 
ENDROOT
BRANCH   1   2
ATOM      2  C   UNL     1      42.506  63.676  12.291  1.00  0.00     0.000 C 
BRANCH   2   3
ATOM      3  C   UNL     1      41.679  63.329  11.038  1.00  0.00     0.000 C 
BRANCH   3   4
ATOM      4  C   UNL     1      42.408  63.532   9.694  1.00  0.00     0.000 C 
BRANCH   4   5
ATOM      5  C   UNL     1      41.903  64.720   8.855  1.00  0.00     0.006 C 
BRANCH   5   6
ATOM      6  C   UNL     1      42.902  65.883   8.810  1.00  0.00     0.053 C 
BRANCH   6   7
ATOM      7  C   UNL     1      42.758  66.644   7.530  1.00  0.00     0.041 C 
ATOM      8  O   UNL     1      43.503  66.382   6.549  1.00  0.00    -0.550 OA
ATOM      9  O   UNL     1      41.768  67.611   7.403  1.00  0.00    -0.550 OA
ENDBRANCH   6   7
ENDBRANCH   5   6
ENDBRANCH   4   5
ENDBRANCH   3   4
ENDBRANCH   2   3
ENDBRANCH   1   2
BRANCH   1  10
ATOM     10  C   UNL     1      44.801  62.657  12.797  1.00  0.00     0.000 C 
BRANCH  10  11
ATOM     11  C   UNL     1      43.873  61.649  13.492  1.00  0.00    -0.000 C 
BRANCH  11  12
ATOM     12  C   UNL     1      44.071  60.212  12.973  1.00  0.00    -0.000 C 
BRANCH  12  13
ATOM     13  C   UNL     1      42.874  59.710  12.148  1.00  0.00    -0.000 C 
BRANCH  13  14
ATOM     14  C   UNL     1      43.046  59.973  10.642  1.00  0.00    -0.000 C 
BRANCH  14  15
ATOM     15  C   UNL     1      44.522  60.077  10.227  1.00  0.00    -0.003 C 
ATOM     16  C   UNL     1      44.714  60.803   8.897  1.00  0.00     0.004 C 
ENDBRANCH  14  15
ENDBRANCH  13  14
ENDBRANCH  12  13
ENDBRANCH  11  12
ENDBRANCH  10  11
ENDBRANCH   1  10
TORSDOF 12
ENDMDL
MODEL 2
REMARK VINA RESULT:    -4.099      1.006      3.058
REMARK INTER + INTRA:          -8.713
REMARK INTER:                  -7.001
REMARK INTRA:                  -1.712
REMARK UNBOUND:                -1.739
REMARK SMILES CCCCCCCCCCCCCC(=O)[O-]
REMARK SMILES IDX 8 1 9 2 10 3 11 4 12 5 13 6 14 7 15 8 16 9 7 10 6 11 5 12
REMARK SMILES IDX 4 13 3 14 2 15 1 16
REMARK H PARENT
REMARK Flexibility Score: inf
ROOT
ATOM      1  C   UNL     1      44.316  60.010  10.130  1.00  0.00     0.000 C 
ENDROOT
BRANCH   1   2
ATOM      2  C   UNL     1      44.461  61.121   9.073  1.00  0.00     0.000 C 
BRANCH   2   3
ATOM      3  C   UNL     1      43.189  61.401   8.250  1.00  0.00     0.000 C 
BRANCH   3   4
ATOM      4  C   UNL     1      43.044  62.847   7.736  1.00  0.00     0.000 C 
BRANCH   4   5
ATOM      5  C   UNL     1      41.911  63.658   8.389  1.00  0.00     0.006 C 
BRANCH   5   6
ATOM      6  C   UNL     1      42.406  64.958   9.035  1.00  0.00     0.053 C 
BRANCH   6   7
ATOM      7  C   UNL     1      42.682  65.989   7.987  1.00  0.00     0.041 C 
ATOM      8  O   UNL     1      43.678  66.753   8.095  1.00  0.00    -0.550 OA
ATOM      9  O   UNL     1      41.867  66.076   6.865  1.00  0.00    -0.550 OA
ENDBRANCH   6   7
ENDBRANCH   5   6
ENDBRANCH   4   5
ENDBRANCH   3   4
ENDBRANCH   2   3
ENDBRANCH   1   2
BRANCH   1  10
ATOM     10  C   UNL     1      42.903  59.941  10.730  1.00  0.00     0.000 C 
BRANCH  10  11
ATOM     11  C   UNL     1      42.919  59.784  12.258  1.00  0.00    -0.000 C 
BRANCH  11  12
ATOM     12  C   UNL     1      44.275  60.174  12.876  1.00  0.00    -0.000 C 
BRANCH  12  13
ATOM     13  C   UNL     1      44.201  61.471  13.697  1.00  0.00    -0.000 C 
BRANCH  13  14
ATOM     14  C   UNL     1      44.893  62.653  12.997  1.00  0.00    -0.000 C 
BRANCH  14  15
ATOM     15  C   UNL     1      43.964  63.378  12.010  1.00  0.00    -0.003 C 
ATOM     16  C   UNL     1      42.531  63.500  12.526  1.00  0.00     0.004 C 
ENDBRANCH  14  15
ENDBRANCH  13  14
ENDBRANCH  12  13
ENDBRANCH  11  12
ENDBRANCH  10  11
ENDBRANCH   1  10
TORSDOF 12
ENDMDL
MODEL 3
REMARK VINA RESULT:    -4.073      1.575      3.328
REMARK INTER + INTRA:          -8.668
REMARK INTER:                  -7.113
REMARK INTRA:                  -1.555
REMARK UNBOUND:                -1.739
REMARK SMILES CCCCCCCCCCCCCC(=O)[O-]
REMARK SMILES IDX 8 1 9 2 10 3 11 4 12 5 13 6 14 7 15 8 16 9 7 10 6 11 5 12
REMARK SMILES IDX 4 13 3 14 2 15 1 16
REMARK H PARENT
REMARK Flexibility Score: inf
ROOT
ATOM      1  C   UNL     1      44.975  60.514  10.182  1.00  0.00     0.000 C 
ENDROOT
BRANCH   1   2
ATOM      2  C   UNL     1      44.533  60.847   8.746  1.00  0.00     0.000 C 
BRANCH   2   3
ATOM      3  C   UNL     1      43.009  60.830   8.517  1.00  0.00     0.000 C 
BRANCH   3   4
ATOM      4  C   UNL     1      42.482  61.889   7.527  1.00  0.00     0.000 C 
BRANCH   4   5
ATOM      5  C   UNL     1      43.532  62.906   7.044  1.00  0.00     0.006 C 
BRANCH   5   6
ATOM      6  C   UNL     1      42.932  64.003   6.155  1.00  0.00     0.053 C 
BRANCH   6   7
ATOM      7  C   UNL     1      42.767  65.270   6.931  1.00  0.00     0.041 C 
ATOM      8  O   UNL     1      41.790  65.412   7.714  1.00  0.00    -0.550 OA
ATOM      9  O   UNL     1      43.718  66.278   6.829  1.00  0.00    -0.550 OA
ENDBRANCH   6   7
ENDBRANCH   5   6
ENDBRANCH   4   5
ENDBRANCH   3   4
ENDBRANCH   2   3
ENDBRANCH   1   2
BRANCH   1  10
ATOM     10  C   UNL     1      43.788  60.273  11.128  1.00  0.00     0.000 C 
BRANCH  10  11
ATOM     11  C   UNL     1      44.227  60.103  12.592  1.00  0.00    -0.000 C 
BRANCH  11  12
ATOM     12  C   UNL     1      43.882  61.330  13.456  1.00  0.00    -0.000 C 
BRANCH  12  13
ATOM     13  C   UNL     1      44.977  62.409  13.416  1.00  0.00    -0.000 C 
BRANCH  13  14
ATOM     14  C   UNL     1      44.589  63.609  12.537  1.00  0.00    -0.000 C 
BRANCH  14  15
ATOM     15  C   UNL     1      43.079  63.666  12.252  1.00  0.00    -0.003 C 
ATOM     16  C   UNL     1      42.763  63.867  10.771  1.00  0.00     0.004 C 
ENDBRANCH  14  15
ENDBRANCH  13  14
ENDBRANCH  12  13
ENDBRANCH  11  12
ENDBRANCH  10  11
ENDBRANCH   1  10
TORSDOF 12
ENDMDL
MODEL 4
REMARK VINA RESULT:    -4.068      3.178      6.190
REMARK INTER + INTRA:          -8.661
REMARK INTER:                  -7.431
REMARK INTRA:                  -1.230
REMARK UNBOUND:                -1.739
REMARK SMILES CCCCCCCCCCCCCC(=O)[O-]
REMARK SMILES IDX 8 1 9 2 10 3 11 4 12 5 13 6 14 7 15 8 16 9 7 10 6 11 5 12
REMARK SMILES IDX 4 13 3 14 2 15 1 16
REMARK H PARENT
REMARK Flexibility Score: inf
ROOT
ATOM      1  C   UNL     1      41.859  63.349  11.116  1.00  0.00     0.000 C 
ENDROOT
BRANCH   1   2
ATOM      2  C   UNL     1      42.642  63.596  12.418  1.00  0.00     0.000 C 
BRANCH   2   3
ATOM      3  C   UNL     1      44.174  63.621  12.258  1.00  0.00     0.000 C 
BRANCH   3   4
ATOM      4  C   UNL     1      44.938  62.565  13.081  1.00  0.00     0.000 C 
BRANCH   4   5
ATOM      5  C   UNL     1      44.057  61.475  13.717  1.00  0.00     0.006 C 
BRANCH   5   6
ATOM      6  C   UNL     1      44.228  60.106  13.047  1.00  0.00     0.053 C 
BRANCH   6   7
ATOM      7  C   UNL     1      43.226  59.933  11.951  1.00  0.00     0.041 C 
ATOM      8  O   UNL     1      41.993  59.943  12.210  1.00  0.00    -0.550 OA
ATOM      9  O   UNL     1      43.650  59.809  10.633  1.00  0.00    -0.550 OA
ENDBRANCH   6   7
ENDBRANCH   5   6
ENDBRANCH   4   5
ENDBRANCH   3   4
ENDBRANCH   2   3
ENDBRANCH   1   2
BRANCH   1  10
ATOM     10  C   UNL     1      42.776  63.050   9.919  1.00  0.00     0.000 C 
BRANCH  10  11
ATOM     11  C   UNL     1      42.054  63.209   8.571  1.00  0.00    -0.000 C 
BRANCH  11  12
ATOM     12  C   UNL     1      42.972  62.905   7.373  1.00  0.00    -0.000 C 
BRANCH  12  13
ATOM     13  C   UNL     1      42.646  63.768   6.143  1.00  0.00    -0.000 C 
BRANCH  13  14
ATOM     14  C   UNL     1      43.654  64.912   5.942  1.00  0.00    -0.000 C 
BRANCH  14  15
ATOM     15  C   UNL     1      43.098  66.272   6.395  1.00  0.00    -0.003 C 
ATOM     16  C   UNL     1      43.484  66.622   7.832  1.00  0.00     0.004 C 
ENDBRANCH  14  15
ENDBRANCH  13  14
ENDBRANCH  12  13
ENDBRANCH  11  12
ENDBRANCH  10  11
ENDBRANCH   1  10
TORSDOF 12
ENDMDL
MODEL 5
REMARK VINA RESULT:    -4.055      1.733      3.452
REMARK INTER + INTRA:          -8.638
REMARK INTER:                  -7.349
REMARK INTRA:                  -1.289
REMARK UNBOUND:                -1.739
REMARK SMILES CCCCCCCCCCCCCC(=O)[O-]
REMARK SMILES IDX 8 1 9 2 10 3 11 4 12 5 13 6 14 7 15 8 16 9 7 10 6 11 5 12
REMARK SMILES IDX 4 13 3 14 2 15 1 16
REMARK H PARENT
REMARK Flexibility Score: inf
ROOT
ATOM      1  C   UNL     1      43.483  61.164   9.028  1.00  0.00     0.000 C 
ENDROOT
BRANCH   1   2
ATOM      2  C   UNL     1      43.580  62.240   7.933  1.00  0.00     0.000 C 
BRANCH   2   3
ATOM      3  C   UNL     1      42.416  62.242   6.921  1.00  0.00     0.000 C 
BRANCH   3   4
ATOM      4  C   UNL     1      42.319  63.499   6.034  1.00  0.00     0.000 C 
BRANCH   4   5
ATOM      5  C   UNL     1      43.521  64.456   6.130  1.00  0.00     0.006 C 
BRANCH   5   6
ATOM      6  C   UNL     1      43.106  65.932   6.153  1.00  0.00     0.053 C 
BRANCH   6   7
ATOM      7  C   UNL     1      42.906  66.395   7.562  1.00  0.00     0.041 C 
ATOM      8  O   UNL     1      41.767  66.326   8.096  1.00  0.00    -0.550 OA
ATOM      9  O   UNL     1      43.987  66.857   8.303  1.00  0.00    -0.550 OA
ENDBRANCH   6   7
ENDBRANCH   5   6
ENDBRANCH   4   5
ENDBRANCH   3   4
ENDBRANCH   2   3
ENDBRANCH   1   2
BRANCH   1  10
ATOM     10  C   UNL     1      44.820  60.448   9.278  1.00  0.00     0.000 C 
BRANCH  10  11
ATOM     11  C   UNL     1      45.412  60.773  10.659  1.00  0.00    -0.000 C 
BRANCH  11  12
ATOM     12  C   UNL     1      44.375  60.644  11.790  1.00  0.00    -0.000 C 
BRANCH  12  13
ATOM     13  C   UNL     1      44.658  61.595  12.964  1.00  0.00    -0.000 C 
BRANCH  13  14
ATOM     14  C   UNL     1      44.613  63.075  12.548  1.00  0.00    -0.000 C 
BRANCH  14  15
ATOM     15  C   UNL     1      43.182  63.567  12.278  1.00  0.00    -0.003 C 
ATOM     16  C   UNL     1      43.063  64.357  10.975  1.00  0.00     0.004 C 
ENDBRANCH  14  15
ENDBRANCH  13  14
ENDBRANCH  12  13
ENDBRANCH  11  12
ENDBRANCH  10  11
ENDBRANCH   1  10
TORSDOF 12
ENDMDL
MODEL 6
REMARK VINA RESULT:    -3.980      2.132      4.016
REMARK INTER + INTRA:          -8.511
REMARK INTER:                  -6.620
REMARK INTRA:                  -1.891
REMARK UNBOUND:                -1.739
REMARK SMILES CCCCCCCCCCCCCC(=O)[O-]
REMARK SMILES IDX 8 1 9 2 10 3 11 4 12 5 13 6 14 7 15 8 16 9 7 10 6 11 5 12
REMARK SMILES IDX 4 13 3 14 2 15 1 16
REMARK H PARENT
REMARK Flexibility Score: inf
ROOT
ATOM      1  C   UNL     1      44.584  60.366  12.445  1.00  0.00     0.000 C 
ENDROOT
BRANCH   1   2
ATOM      2  C   UNL     1      45.388  60.638  11.161  1.00  0.00     0.000 C 
BRANCH   2   3
ATOM      3  C   UNL     1      44.790  60.024   9.880  1.00  0.00     0.000 C 
BRANCH   3   4
ATOM      4  C   UNL     1      43.251  59.930   9.853  1.00  0.00     0.000 C 
BRANCH   4   5
ATOM      5  C   UNL     1      42.570  60.755   8.746  1.00  0.00     0.006 C 
BRANCH   5   6
ATOM      6  C   UNL     1      43.565  61.581   7.921  1.00  0.00     0.053 C 
BRANCH   6   7
ATOM      7  C   UNL     1      42.889  62.780   7.336  1.00  0.00     0.041 C 
ATOM      8  O   UNL     1      43.506  63.525   6.530  1.00  0.00    -0.550 OA
ATOM      9  O   UNL     1      41.560  63.048   7.641  1.00  0.00    -0.550 OA
ENDBRANCH   6   7
ENDBRANCH   5   6
ENDBRANCH   4   5
ENDBRANCH   3   4
ENDBRANCH   2   3
ENDBRANCH   1   2
BRANCH   1  10
ATOM     10  C   UNL     1      44.504  61.593  13.367  1.00  0.00     0.000 C 
BRANCH  10  11
ATOM     11  C   UNL     1      44.986  62.879  12.678  1.00  0.00    -0.000 C 
BRANCH  11  12
ATOM     12  C   UNL     1      43.831  63.847  12.362  1.00  0.00    -0.000 C 
BRANCH  12  13
ATOM     13  C   UNL     1      43.102  63.492  11.055  1.00  0.00    -0.000 C 
BRANCH  13  14
ATOM     14  C   UNL     1      41.578  63.397  11.238  1.00  0.00    -0.000 C 
BRANCH  14  15
ATOM     15  C   UNL     1      41.175  62.336  12.275  1.00  0.00    -0.003 C 
ATOM     16  C   UNL     1      40.715  62.947  13.598  1.00  0.00     0.004 C 
ENDBRANCH  14  15
ENDBRANCH  13  14
ENDBRANCH  12  13
ENDBRANCH  11  12
ENDBRANCH  10  11
ENDBRANCH   1  10
TORSDOF 12
ENDMDL
MODEL 7
REMARK VINA RESULT:    -3.976      1.487      2.330
REMARK INTER + INTRA:          -8.504
REMARK INTER:                  -6.806
REMARK INTRA:                  -1.698
REMARK UNBOUND:                -1.739
REMARK SMILES CCCCCCCCCCCCCC(=O)[O-]
REMARK SMILES IDX 8 1 9 2 10 3 11 4 12 5 13 6 14 7 15 8 16 9 7 10 6 11 5 12
REMARK SMILES IDX 4 13 3 14 2 15 1 16
REMARK H PARENT
REMARK Flexibility Score: inf
ROOT
ATOM      1  C   UNL     1      42.080  63.057  10.940  1.00  0.00     0.000 C 
ENDROOT
BRANCH   1   2
ATOM      2  C   UNL     1      42.548  63.627   9.588  1.00  0.00     0.000 C 
BRANCH   2   3
ATOM      3  C   UNL     1      42.217  62.749   8.365  1.00  0.00     0.000 C 
BRANCH   3   4
ATOM      4  C   UNL     1      43.227  62.832   7.204  1.00  0.00     0.000 C 
BRANCH   4   5
ATOM      5  C   UNL     1      42.785  63.713   6.021  1.00  0.00     0.006 C 
BRANCH   5   6
ATOM      6  C   UNL     1      43.602  65.006   5.905  1.00  0.00     0.053 C 
BRANCH   6   7
ATOM      7  C   UNL     1      43.078  66.040   6.850  1.00  0.00     0.041 C 
ATOM      8  O   UNL     1      41.845  66.296   6.890  1.00  0.00    -0.550 OA
ATOM      9  O   UNL     1      43.944  66.688   7.722  1.00  0.00    -0.550 OA
ENDBRANCH   6   7
ENDBRANCH   5   6
ENDBRANCH   4   5
ENDBRANCH   3   4
ENDBRANCH   2   3
ENDBRANCH   1   2
BRANCH   1  10
ATOM     10  C   UNL     1      42.775  63.724  12.138  1.00  0.00     0.000 C 
BRANCH  10  11
ATOM     11  C   UNL     1      44.255  63.327  12.256  1.00  0.00    -0.000 C 
BRANCH  11  12
ATOM     12  C   UNL     1      44.461  62.081  13.136  1.00  0.00    -0.000 C 
BRANCH  12  13
ATOM     13  C   UNL     1      44.642  60.796  12.311  1.00  0.00    -0.000 C 
BRANCH  13  14
ATOM     14  C   UNL     1      45.349  61.052  10.969  1.00  0.00    -0.000 C 
BRANCH  14  15
ATOM     15  C   UNL     1      44.669  60.324   9.798  1.00  0.00    -0.003 C 
ATOM     16  C   UNL     1      43.354  59.656  10.199  1.00  0.00     0.004 C 
ENDBRANCH  14  15
ENDBRANCH  13  14
ENDBRANCH  12  13
ENDBRANCH  11  12
ENDBRANCH  10  11
ENDBRANCH   1  10
TORSDOF 12
ENDMDL
MODEL 8
REMARK VINA RESULT:    -3.963      1.549      2.996
REMARK INTER + INTRA:          -8.482
REMARK INTER:                  -7.097
REMARK INTRA:                  -1.386
REMARK UNBOUND:                -1.739
REMARK SMILES CCCCCCCCCCCCCC(=O)[O-]
REMARK SMILES IDX 8 1 9 2 10 3 11 4 12 5 13 6 14 7 15 8 16 9 7 10 6 11 5 12
REMARK SMILES IDX 4 13 3 14 2 15 1 16
REMARK H PARENT
REMARK Flexibility Score: inf
ROOT
ATOM      1  C   UNL     1      42.747  62.943  10.027  1.00  0.00     0.000 C 
ENDROOT
BRANCH   1   2
ATOM      2  C   UNL     1      42.604  61.563   9.359  1.00  0.00     0.000 C 
BRANCH   2   3
ATOM      3  C   UNL     1      42.548  61.591   7.819  1.00  0.00     0.000 C 
BRANCH   3   4
ATOM      4  C   UNL     1      43.435  62.659   7.149  1.00  0.00     0.000 C 
BRANCH   4   5
ATOM      5  C   UNL     1      42.667  63.783   6.430  1.00  0.00     0.006 C 
BRANCH   5   6
ATOM      6  C   UNL     1      43.424  65.118   6.436  1.00  0.00     0.053 C 
BRANCH   6   7
ATOM      7  C   UNL     1      42.989  65.958   7.595  1.00  0.00     0.041 C 
ATOM      8  O   UNL     1      43.756  66.841   8.060  1.00  0.00    -0.550 OA
ATOM      9  O   UNL     1      41.717  65.799   8.130  1.00  0.00    -0.550 OA
ENDBRANCH   6   7
ENDBRANCH   5   6
ENDBRANCH   4   5
ENDBRANCH   3   4
ENDBRANCH   2   3
ENDBRANCH   1   2
BRANCH   1  10
ATOM     10  C   UNL     1      41.860  63.095  11.273  1.00  0.00     0.000 C 
BRANCH  10  11
ATOM     11  C   UNL     1      42.667  63.466  12.527  1.00  0.00    -0.000 C 
BRANCH  11  12
ATOM     12  C   UNL     1      44.184  63.498  12.264  1.00  0.00    -0.000 C 
BRANCH  12  13
ATOM     13  C   UNL     1      44.964  62.539  13.178  1.00  0.00    -0.000 C 
BRANCH  13  14
ATOM     14  C   UNL     1      44.073  61.435  13.773  1.00  0.00    -0.000 C 
BRANCH  14  15
ATOM     15  C   UNL     1      44.115  60.138  12.949  1.00  0.00    -0.003 C 
ATOM     16  C   UNL     1      42.724  59.637  12.560  1.00  0.00     0.004 C 
ENDBRANCH  14  15
ENDBRANCH  13  14
ENDBRANCH  12  13
ENDBRANCH  11  12
ENDBRANCH  10  11
ENDBRANCH   1  10
TORSDOF 12
ENDMDL
MODEL 9
REMARK VINA RESULT:    -3.955      2.586      6.098
REMARK INTER + INTRA:          -8.468
REMARK INTER:                  -7.506
REMARK INTRA:                  -0.962
REMARK UNBOUND:                -1.739
REMARK SMILES CCCCCCCCCCCCCC(=O)[O-]
REMARK SMILES IDX 8 1 9 2 10 3 11 4 12 5 13 6 14 7 15 8 16 9 7 10 6 11 5 12
REMARK SMILES IDX 4 13 3 14 2 15 1 16
REMARK H PARENT
REMARK Flexibility Score: inf
ROOT
ATOM      1  C   UNL     1      43.440  61.496   9.201  1.00  0.00     0.000 C 
ENDROOT
BRANCH   1   2
ATOM      2  C   UNL     1      44.791  60.773   9.351  1.00  0.00     0.000 C 
BRANCH   2   3
ATOM      3  C   UNL     1      45.360  60.754  10.783  1.00  0.00     0.000 C 
BRANCH   3   4
ATOM      4  C   UNL     1      44.306  60.689  11.907  1.00  0.00     0.000 C 
BRANCH   4   5
ATOM      5  C   UNL     1      44.509  61.704  13.046  1.00  0.00     0.006 C 
BRANCH   5   6
ATOM      6  C   UNL     1      44.633  63.147  12.541  1.00  0.00     0.053 C 
BRANCH   6   7
ATOM      7  C   UNL     1      43.290  63.681  12.153  1.00  0.00     0.041 C 
ATOM      8  O   UNL     1      42.277  63.419  12.854  1.00  0.00    -0.550 OA
ATOM      9  O   UNL     1      43.164  64.508  11.044  1.00  0.00    -0.550 OA
ENDBRANCH   6   7
ENDBRANCH   5   6
ENDBRANCH   4   5
ENDBRANCH   3   4
ENDBRANCH   2   3
ENDBRANCH   1   2
BRANCH   1  10
ATOM     10  C   UNL     1      43.056  61.740   7.732  1.00  0.00     0.000 C 
BRANCH  10  11
ATOM     11  C   UNL     1      42.717  63.212   7.450  1.00  0.00    -0.000 C 
BRANCH  11  12
ATOM     12  C   UNL     1      43.541  63.794   6.287  1.00  0.00    -0.000 C 
BRANCH  12  13
ATOM     13  C   UNL     1      43.142  65.237   5.941  1.00  0.00    -0.000 C 
BRANCH  13  14
ATOM     14  C   UNL     1      43.542  66.239   7.037  1.00  0.00    -0.000 C 
BRANCH  14  15
ATOM     15  C   UNL     1      42.415  67.231   7.368  1.00  0.00    -0.003 C 
ATOM     16  C   UNL     1      41.241  66.573   8.093  1.00  0.00     0.004 C 
ENDBRANCH  14  15
ENDBRANCH  13  14
ENDBRANCH  12  13
ENDBRANCH  11  12
ENDBRANCH  10  11
ENDBRANCH   1  10
TORSDOF 12
ENDMDL
