MODEL 1
REMARK VINA RESULT:    -4.498      0.000      0.000
REMARK INTER + INTRA:         -10.169
REMARK INTER:                  -8.443
REMARK INTRA:                  -1.726
REMARK UNBOUND:                -1.726
REMARK SMILES O=C([O-])CCCCCCCCCCCCCCC(=O)[O-]
REMARK SMILES IDX 10 1 9 2 8 3 7 4 6 5 5 6 4 7 2 8 1 9 3 10 11 11 12 12 13 13
REMARK SMILES IDX 14 14 15 15 16 16 17 17 18 18 19 19 20 20
REMARK H PARENT
REMARK Flexibility Score: inf
ROOT
ATOM      1  C   UNL     1       3.647   4.373  -3.832  1.00  0.00     0.000 C 
ENDROOT
BRANCH   1   2
ATOM      2  C   UNL     1       3.157   4.142  -5.269  1.00  0.00     0.000 C 
BRANCH   2   3
ATOM      3  C   UNL     1       3.011   2.651  -5.623  1.00  0.00     0.000 C 
BRANCH   3   4
ATOM      4  C   UNL     1       1.568   2.114  -5.594  1.00  0.00     0.000 C 
BRANCH   4   5
ATOM      5  C   UNL     1       1.307   1.158  -4.422  1.00  0.00     0.000 C 
BRANCH   5   6
ATOM      6  C   UNL     1      -0.124   0.601  -4.475  1.00  0.00     0.006 C 
BRANCH   6   7
ATOM      7  C   UNL     1      -0.170  -0.910  -4.215  1.00  0.00     0.053 C 
BRANCH   7   8
ATOM      8  C   UNL     1       0.952  -1.628  -4.899  1.00  0.00     0.041 C 
ATOM      9  O   UNL     1       0.925  -1.803  -6.146  1.00  0.00    -0.550 OA
ATOM     10  O   UNL     1       2.045  -2.073  -4.165  1.00  0.00    -0.550 OA
ENDBRANCH   7   8
ENDBRANCH   6   7
ENDBRANCH   5   6
ENDBRANCH   4   5
ENDBRANCH   3   4
ENDBRANCH   2   3
ENDBRANCH   1   2
BRANCH   1  11
ATOM     11  C   UNL     1       4.608   5.570  -3.767  1.00  0.00     0.000 C 
BRANCH  11  12
ATOM     12  C   UNL     1       5.340   5.817  -5.096  1.00  0.00     0.000 C 
BRANCH  12  13
ATOM     13  C   UNL     1       6.813   5.384  -5.050  1.00  0.00     0.000 C 
BRANCH  13  14
ATOM     14  C   UNL     1       6.983   3.965  -5.615  1.00  0.00     0.000 C 
BRANCH  14  15
ATOM     15  C   UNL     1       7.235   2.917  -4.518  1.00  0.00     0.000 C 
BRANCH  15  16
ATOM     16  C   UNL     1       6.446   1.620  -4.747  1.00  0.00     0.006 C 
BRANCH  16  17
ATOM     17  C   UNL     1       5.691   1.208  -3.478  1.00  0.00     0.053 C 
BRANCH  17  18
ATOM     18  C   UNL     1       5.432  -0.265  -3.478  1.00  0.00     0.041 C 
ATOM     19  O   UNL     1       4.590  -0.760  -2.682  1.00  0.00    -0.550 OA
ATOM     20  O   UNL     1       6.157  -1.100  -4.319  1.00  0.00    -0.550 OA
ENDBRANCH  17  18
ENDBRANCH  16  17
ENDBRANCH  15  16
ENDBRANCH  14  15
ENDBRANCH  13  14
ENDBRANCH  12  13
ENDBRANCH  11  12
ENDBRANCH   1  11
TORSDOF 15
ENDMDL
MODEL 2
REMARK VINA RESULT:    -4.474      2.556      6.152
REMARK INTER + INTRA:         -10.124
REMARK INTER:                  -7.781
REMARK INTRA:                  -2.343
REMARK UNBOUND:                -1.726
REMARK SMILES O=C([O-])CCCCCCCCCCCCCCC(=O)[O-]
REMARK SMILES IDX 10 1 9 2 8 3 7 4 6 5 5 6 4 7 2 8 1 9 3 10 11 11 12 12 13 13
REMARK SMILES IDX 14 14 15 15 16 16 17 17 18 18 19 19 20 20
REMARK H PARENT
REMARK Flexibility Score: inf
ROOT
ATOM      1  C   UNL     1       4.222   0.668  -4.005  1.00  0.00     0.000 C 
ENDROOT
BRANCH   1   2
ATOM      2  C   UNL     1       5.565   1.120  -3.412  1.00  0.00     0.000 C 
BRANCH   2   3
ATOM      3  C   UNL     1       6.528   1.690  -4.470  1.00  0.00     0.000 C 
BRANCH   3   4
ATOM      4  C   UNL     1       6.537   3.225  -4.581  1.00  0.00     0.000 C 
BRANCH   4   5
ATOM      5  C   UNL     1       5.831   3.739  -5.844  1.00  0.00     0.000 C 
BRANCH   5   6
ATOM      6  C   UNL     1       4.879   4.897  -5.510  1.00  0.00     0.006 C 
BRANCH   6   7
ATOM      7  C   UNL     1       4.068   4.632  -4.234  1.00  0.00     0.053 C 
BRANCH   7   8
ATOM      8  C   UNL     1       3.562   5.901  -3.622  1.00  0.00     0.041 C 
ATOM      9  O   UNL     1       2.417   6.335  -3.918  1.00  0.00    -0.550 OA
ATOM     10  O   UNL     1       4.339   6.587  -2.696  1.00  0.00    -0.550 OA
ENDBRANCH   7   8
ENDBRANCH   6   7
ENDBRANCH   5   6
ENDBRANCH   4   5
ENDBRANCH   3   4
ENDBRANCH   2   3
ENDBRANCH   1   2
BRANCH   1  11
ATOM     11  C   UNL     1       4.379   0.281  -5.483  1.00  0.00     0.000 C 
BRANCH  11  12
ATOM     12  C   UNL     1       3.347   0.973  -6.389  1.00  0.00     0.000 C 
BRANCH  12  13
ATOM     13  C   UNL     1       2.339   1.821  -5.598  1.00  0.00     0.000 C 
BRANCH  13  14
ATOM     14  C   UNL     1       0.967   1.824  -6.291  1.00  0.00     0.000 C 
BRANCH  14  15
ATOM     15  C   UNL     1      -0.188   1.536  -5.318  1.00  0.00     0.000 C 
BRANCH  15  16
ATOM     16  C   UNL     1       0.230   0.624  -4.155  1.00  0.00     0.006 C 
BRANCH  16  17
ATOM     17  C   UNL     1      -0.176  -0.828  -4.425  1.00  0.00     0.053 C 
BRANCH  17  18
ATOM     18  C   UNL     1       0.986  -1.608  -4.951  1.00  0.00     0.041 C 
ATOM     19  O   UNL     1       1.031  -1.936  -6.167  1.00  0.00    -0.550 OA
ATOM     20  O   UNL     1       1.997  -2.018  -4.091  1.00  0.00    -0.550 OA
ENDBRANCH  17  18
ENDBRANCH  16  17
ENDBRANCH  15  16
ENDBRANCH  14  15
ENDBRANCH  13  14
ENDBRANCH  12  13
ENDBRANCH  11  12
ENDBRANCH   1  11
TORSDOF 15
ENDMDL
MODEL 3
REMARK VINA RESULT:    -4.376      2.832      4.199
REMARK INTER + INTRA:          -9.939
REMARK INTER:                  -8.000
REMARK INTRA:                  -1.940
REMARK UNBOUND:                -1.726
REMARK SMILES O=C([O-])CCCCCCCCCCCCCCC(=O)[O-]
REMARK SMILES IDX 10 1 9 2 8 3 7 4 6 5 5 6 4 7 2 8 1 9 3 10 11 11 12 12 13 13
REMARK SMILES IDX 14 14 15 15 16 16 17 17 18 18 19 19 20 20
REMARK H PARENT
REMARK Flexibility Score: inf
ROOT
ATOM      1  C   UNL     1       4.210  -0.097  -4.384  1.00  0.00     0.000 C 
ENDROOT
BRANCH   1   2
ATOM      2  C   UNL     1       4.216   0.276  -5.874  1.00  0.00     0.000 C 
BRANCH   2   3
ATOM      3  C   UNL     1       3.025   1.165  -6.276  1.00  0.00     0.000 C 
BRANCH   3   4
ATOM      4  C   UNL     1       2.235   1.765  -5.098  1.00  0.00     0.000 C 
BRANCH   4   5
ATOM      5  C   UNL     1       0.726   1.497  -5.189  1.00  0.00     0.000 C 
BRANCH   5   6
ATOM      6  C   UNL     1       0.250   0.626  -4.017  1.00  0.00     0.006 C 
BRANCH   6   7
ATOM      7  C   UNL     1      -0.261  -0.744  -4.481  1.00  0.00     0.053 C 
BRANCH   7   8
ATOM      8  C   UNL     1       0.862  -1.683  -4.792  1.00  0.00     0.041 C 
ATOM      9  O   UNL     1       1.206  -1.884  -5.987  1.00  0.00    -0.550 OA
ATOM     10  O   UNL     1       1.554  -2.309  -3.763  1.00  0.00    -0.550 OA
ENDBRANCH   7   8
ENDBRANCH   6   7
ENDBRANCH   5   6
ENDBRANCH   4   5
ENDBRANCH   3   4
ENDBRANCH   2   3
ENDBRANCH   1   2
BRANCH   1  11
ATOM     11  C   UNL     1       5.556   0.246  -3.728  1.00  0.00     0.000 C 
BRANCH  11  12
ATOM     12  C   UNL     1       5.717   1.751  -3.457  1.00  0.00     0.000 C 
BRANCH  12  13
ATOM     13  C   UNL     1       6.884   2.372  -4.241  1.00  0.00     0.000 C 
BRANCH  13  14
ATOM     14  C   UNL     1       6.380   3.467  -5.193  1.00  0.00     0.000 C 
BRANCH  14  15
ATOM     15  C   UNL     1       5.015   4.036  -4.772  1.00  0.00     0.000 C 
BRANCH  15  16
ATOM     16  C   UNL     1       5.080   5.529  -4.417  1.00  0.00     0.006 C 
BRANCH  16  17
ATOM     17  C   UNL     1       3.972   5.905  -3.427  1.00  0.00     0.053 C 
BRANCH  17  18
ATOM     18  C   UNL     1       2.814   6.521  -4.145  1.00  0.00     0.041 C 
ATOM     19  O   UNL     1       2.217   5.881  -5.052  1.00  0.00    -0.550 OA
ATOM     20  O   UNL     1       2.424   7.822  -3.851  1.00  0.00    -0.550 OA
ENDBRANCH  17  18
ENDBRANCH  16  17
ENDBRANCH  15  16
ENDBRANCH  14  15
ENDBRANCH  13  14
ENDBRANCH  12  13
ENDBRANCH  11  12
ENDBRANCH   1  11
TORSDOF 15
ENDMDL
MODEL 4
REMARK VINA RESULT:    -4.309      0.986      4.513
REMARK INTER + INTRA:          -9.813
REMARK INTER:                  -7.494
REMARK INTRA:                  -2.320
REMARK UNBOUND:                -1.726
REMARK SMILES O=C([O-])CCCCCCCCCCCCCCC(=O)[O-]
REMARK SMILES IDX 10 1 9 2 8 3 7 4 6 5 5 6 4 7 2 8 1 9 3 10 11 11 12 12 13 13
REMARK SMILES IDX 14 14 15 15 16 16 17 17 18 18 19 19 20 20
REMARK H PARENT
REMARK Flexibility Score: inf
ROOT
ATOM      1  C   UNL     1       4.691   5.534  -4.669  1.00  0.00     0.000 C 
ENDROOT
BRANCH   1   2
ATOM      2  C   UNL     1       6.157   5.310  -5.071  1.00  0.00     0.000 C 
BRANCH   2   3
ATOM      3  C   UNL     1       6.607   3.846  -4.911  1.00  0.00     0.000 C 
BRANCH   3   4
ATOM      4  C   UNL     1       6.453   2.977  -6.173  1.00  0.00     0.000 C 
BRANCH   4   5
ATOM      5  C   UNL     1       5.845   1.598  -5.882  1.00  0.00     0.000 C 
BRANCH   5   6
ATOM      6  C   UNL     1       6.047   1.209  -4.409  1.00  0.00     0.006 C 
BRANCH   6   7
ATOM      7  C   UNL     1       4.793   0.569  -3.800  1.00  0.00     0.053 C 
BRANCH   7   8
ATOM      8  C   UNL     1       4.866  -0.926  -3.817  1.00  0.00     0.041 C 
ATOM      9  O   UNL     1       5.600  -1.515  -4.654  1.00  0.00    -0.550 OA
ATOM     10  O   UNL     1       4.151  -1.670  -2.886  1.00  0.00    -0.550 OA
ENDBRANCH   7   8
ENDBRANCH   6   7
ENDBRANCH   5   6
ENDBRANCH   4   5
ENDBRANCH   3   4
ENDBRANCH   2   3
ENDBRANCH   1   2
BRANCH   1  11
ATOM     11  C   UNL     1       4.250   4.507  -3.615  1.00  0.00     0.000 C 
BRANCH  11  12
ATOM     12  C   UNL     1       3.032   3.683  -4.063  1.00  0.00     0.000 C 
BRANCH  12  13
ATOM     13  C   UNL     1       2.729   3.841  -5.561  1.00  0.00     0.000 C 
BRANCH  13  14
ATOM     14  C   UNL     1       2.416   2.480  -6.202  1.00  0.00     0.000 C 
BRANCH  14  15
ATOM     15  C   UNL     1       1.025   1.950  -5.817  1.00  0.00     0.000 C 
BRANCH  15  16
ATOM     16  C   UNL     1       1.089   0.813  -4.788  1.00  0.00     0.006 C 
BRANCH  16  17
ATOM     17  C   UNL     1       1.433  -0.519  -5.463  1.00  0.00     0.053 C 
BRANCH  17  18
ATOM     18  C   UNL     1       1.025  -1.667  -4.596  1.00  0.00     0.041 C 
ATOM     19  O   UNL     1       0.196  -1.494  -3.664  1.00  0.00    -0.550 OA
ATOM     20  O   UNL     1       1.599  -2.919  -4.783  1.00  0.00    -0.550 OA
ENDBRANCH  17  18
ENDBRANCH  16  17
ENDBRANCH  15  16
ENDBRANCH  14  15
ENDBRANCH  13  14
ENDBRANCH  12  13
ENDBRANCH  11  12
ENDBRANCH   1  11
TORSDOF 15
ENDMDL
MODEL 5
REMARK VINA RESULT:    -4.232      1.247      1.500
REMARK INTER + INTRA:          -9.669
REMARK INTER:                  -7.493
REMARK INTRA:                  -2.177
REMARK UNBOUND:                -1.726
REMARK SMILES O=C([O-])CCCCCCCCCCCCCCC(=O)[O-]
REMARK SMILES IDX 10 1 9 2 8 3 7 4 6 5 5 6 4 7 2 8 1 9 3 10 11 11 12 12 13 13
REMARK SMILES IDX 14 14 15 15 16 16 17 17 18 18 19 19 20 20
REMARK H PARENT
REMARK Flexibility Score: inf
ROOT
ATOM      1  C   UNL     1       3.463   3.837  -3.531  1.00  0.00     0.000 C 
ENDROOT
BRANCH   1   2
ATOM      2  C   UNL     1       2.904   2.539  -4.132  1.00  0.00     0.000 C 
BRANCH   2   3
ATOM      3  C   UNL     1       2.424   2.707  -5.585  1.00  0.00     0.000 C 
BRANCH   3   4
ATOM      4  C   UNL     1       3.115   1.788  -6.609  1.00  0.00     0.000 C 
BRANCH   4   5
ATOM      5  C   UNL     1       2.719   0.313  -6.453  1.00  0.00     0.000 C 
BRANCH   5   6
ATOM      6  C   UNL     1       1.215   0.118  -6.699  1.00  0.00     0.006 C 
BRANCH   6   7
ATOM      7  C   UNL     1       0.747  -1.300  -6.345  1.00  0.00     0.053 C 
BRANCH   7   8
ATOM      8  C   UNL     1       0.938  -1.604  -4.892  1.00  0.00     0.041 C 
ATOM      9  O   UNL     1       0.460  -0.835  -4.016  1.00  0.00    -0.550 OA
ATOM     10  O   UNL     1       1.611  -2.756  -4.503  1.00  0.00    -0.550 OA
ENDBRANCH   7   8
ENDBRANCH   6   7
ENDBRANCH   5   6
ENDBRANCH   4   5
ENDBRANCH   3   4
ENDBRANCH   2   3
ENDBRANCH   1   2
BRANCH   1  11
ATOM     11  C   UNL     1       3.994   4.766  -4.632  1.00  0.00     0.000 C 
BRANCH  11  12
ATOM     12  C   UNL     1       5.288   5.489  -4.225  1.00  0.00     0.000 C 
BRANCH  12  13
ATOM     13  C   UNL     1       6.493   5.074  -5.083  1.00  0.00     0.000 C 
BRANCH  13  14
ATOM     14  C   UNL     1       6.177   3.806  -5.891  1.00  0.00     0.000 C 
BRANCH  14  15
ATOM     15  C   UNL     1       7.054   2.610  -5.485  1.00  0.00     0.000 C 
BRANCH  15  16
ATOM     16  C   UNL     1       6.399   1.735  -4.406  1.00  0.00     0.006 C 
BRANCH  16  17
ATOM     17  C   UNL     1       6.117   0.327  -4.940  1.00  0.00     0.053 C 
BRANCH  17  18
ATOM     18  C   UNL     1       5.391  -0.486  -3.916  1.00  0.00     0.041 C 
ATOM     19  O   UNL     1       5.225  -0.036  -2.751  1.00  0.00    -0.550 OA
ATOM     20  O   UNL     1       4.942  -1.762  -4.231  1.00  0.00    -0.550 OA
ENDBRANCH  17  18
ENDBRANCH  16  17
ENDBRANCH  15  16
ENDBRANCH  14  15
ENDBRANCH  13  14
ENDBRANCH  12  13
ENDBRANCH  11  12
ENDBRANCH   1  11
TORSDOF 15
ENDMDL
MODEL 6
REMARK VINA RESULT:    -4.213      1.475      4.308
REMARK INTER + INTRA:          -9.633
REMARK INTER:                  -7.544
REMARK INTRA:                  -2.090
REMARK UNBOUND:                -1.726
REMARK SMILES O=C([O-])CCCCCCCCCCCCCCC(=O)[O-]
REMARK SMILES IDX 10 1 9 2 8 3 7 4 6 5 5 6 4 7 2 8 1 9 3 10 11 11 12 12 13 13
REMARK SMILES IDX 14 14 15 15 16 16 17 17 18 18 19 19 20 20
REMARK H PARENT
REMARK Flexibility Score: inf
ROOT
ATOM      1  C   UNL     1       3.643   5.419  -3.764  1.00  0.00     0.000 C 
ENDROOT
BRANCH   1   2
ATOM      2  C   UNL     1       5.108   5.508  -4.215  1.00  0.00     0.000 C 
BRANCH   2   3
ATOM      3  C   UNL     1       5.644   4.179  -4.780  1.00  0.00     0.000 C 
BRANCH   3   4
ATOM      4  C   UNL     1       5.102   2.914  -4.090  1.00  0.00     0.000 C 
BRANCH   4   5
ATOM      5  C   UNL     1       6.186   1.858  -3.836  1.00  0.00     0.000 C 
BRANCH   5   6
ATOM      6  C   UNL     1       5.737   0.858  -2.759  1.00  0.00     0.006 C 
BRANCH   6   7
ATOM      7  C   UNL     1       4.994  -0.344  -3.356  1.00  0.00     0.053 C 
BRANCH   7   8
ATOM      8  C   UNL     1       5.538  -0.727  -4.697  1.00  0.00     0.041 C 
ATOM      9  O   UNL     1       4.851  -0.538  -5.736  1.00  0.00    -0.550 OA
ATOM     10  O   UNL     1       6.817  -1.258  -4.805  1.00  0.00    -0.550 OA
ENDBRANCH   7   8
ENDBRANCH   6   7
ENDBRANCH   5   6
ENDBRANCH   4   5
ENDBRANCH   3   4
ENDBRANCH   2   3
ENDBRANCH   1   2
BRANCH   1  11
ATOM     11  C   UNL     1       2.769   6.418  -4.538  1.00  0.00     0.000 C 
BRANCH  11  12
ATOM     12  C   UNL     1       2.738   6.131  -6.048  1.00  0.00     0.000 C 
BRANCH  12  13
ATOM     13  C   UNL     1       2.013   4.819  -6.387  1.00  0.00     0.000 C 
BRANCH  13  14
ATOM     14  C   UNL     1       2.952   3.851  -7.123  1.00  0.00     0.000 C 
BRANCH  14  15
ATOM     15  C   UNL     1       2.671   2.378  -6.782  1.00  0.00     0.000 C 
BRANCH  15  16
ATOM     16  C   UNL     1       1.498   2.210  -5.805  1.00  0.00     0.006 C 
BRANCH  16  17
ATOM     17  C   UNL     1       1.914   1.374  -4.590  1.00  0.00     0.053 C 
BRANCH  17  18
ATOM     18  C   UNL     1       1.207   0.056  -4.594  1.00  0.00     0.041 C 
ATOM     19  O   UNL     1       0.276  -0.166  -3.775  1.00  0.00    -0.550 OA
ATOM     20  O   UNL     1       1.608  -0.947  -5.468  1.00  0.00    -0.550 OA
ENDBRANCH  17  18
ENDBRANCH  16  17
ENDBRANCH  15  16
ENDBRANCH  14  15
ENDBRANCH  13  14
ENDBRANCH  12  13
ENDBRANCH  11  12
ENDBRANCH   1  11
TORSDOF 15
ENDMDL
MODEL 7
REMARK VINA RESULT:    -4.077      2.914      5.901
REMARK INTER + INTRA:          -9.379
REMARK INTER:                  -7.535
REMARK INTRA:                  -1.843
REMARK UNBOUND:                -1.726
REMARK SMILES O=C([O-])CCCCCCCCCCCCCCC(=O)[O-]
REMARK SMILES IDX 10 1 9 2 8 3 7 4 6 5 5 6 4 7 2 8 1 9 3 10 11 11 12 12 13 13
REMARK SMILES IDX 14 14 15 15 16 16 17 17 18 18 19 19 20 20
REMARK H PARENT
REMARK Flexibility Score: inf
ROOT
ATOM      1  C   UNL     1       0.882   1.888  -6.575  1.00  0.00     0.000 C 
ENDROOT
BRANCH   1   2
ATOM      2  C   UNL     1       1.727   3.146  -6.326  1.00  0.00     0.000 C 
BRANCH   2   3
ATOM      3  C   UNL     1       3.120   2.830  -5.751  1.00  0.00     0.000 C 
BRANCH   3   4
ATOM      4  C   UNL     1       3.232   2.944  -4.219  1.00  0.00     0.000 C 
BRANCH   4   5
ATOM      5  C   UNL     1       4.562   3.558  -3.759  1.00  0.00     0.000 C 
BRANCH   5   6
ATOM      6  C   UNL     1       4.697   5.008  -4.251  1.00  0.00     0.006 C 
BRANCH   6   7
ATOM      7  C   UNL     1       3.818   5.978  -3.450  1.00  0.00     0.053 C 
BRANCH   7   8
ATOM      8  C   UNL     1       2.781   6.630  -4.309  1.00  0.00     0.041 C 
ATOM      9  O   UNL     1       2.915   6.647  -5.562  1.00  0.00    -0.550 OA
ATOM     10  O   UNL     1       1.648   7.189  -3.731  1.00  0.00    -0.550 OA
ENDBRANCH   7   8
ENDBRANCH   6   7
ENDBRANCH   5   6
ENDBRANCH   4   5
ENDBRANCH   3   4
ENDBRANCH   2   3
ENDBRANCH   1   2
BRANCH   1  11
ATOM     11  C   UNL     1      -0.161   1.700  -5.463  1.00  0.00     0.000 C 
BRANCH  11  12
ATOM     12  C   UNL     1       0.275   0.670  -4.409  1.00  0.00     0.000 C 
BRANCH  12  13
ATOM     13  C   UNL     1       0.098  -0.779  -4.887  1.00  0.00     0.000 C 
BRANCH  13  14
ATOM     14  C   UNL     1       1.401  -1.574  -4.714  1.00  0.00     0.000 C 
BRANCH  14  15
ATOM     15  C   UNL     1       2.631  -0.667  -4.545  1.00  0.00     0.000 C 
BRANCH  15  16
ATOM     16  C   UNL     1       3.784  -1.363  -3.807  1.00  0.00     0.006 C 
BRANCH  16  17
ATOM     17  C   UNL     1       4.977  -0.417  -3.638  1.00  0.00     0.053 C 
BRANCH  17  18
ATOM     18  C   UNL     1       5.979  -0.638  -4.726  1.00  0.00     0.041 C 
ATOM     19  O   UNL     1       6.782   0.280  -5.043  1.00  0.00    -0.550 OA
ATOM     20  O   UNL     1       5.995  -1.838  -5.425  1.00  0.00    -0.550 OA
ENDBRANCH  17  18
ENDBRANCH  16  17
ENDBRANCH  15  16
ENDBRANCH  14  15
ENDBRANCH  13  14
ENDBRANCH  12  13
ENDBRANCH  11  12
ENDBRANCH   1  11
TORSDOF 15
ENDMDL
MODEL 8
REMARK VINA RESULT:    -4.011      3.412      6.151
REMARK INTER + INTRA:          -9.255
REMARK INTER:                  -7.353
REMARK INTRA:                  -1.902
REMARK UNBOUND:                -1.726
REMARK SMILES O=C([O-])CCCCCCCCCCCCCCC(=O)[O-]
REMARK SMILES IDX 10 1 9 2 8 3 7 4 6 5 5 6 4 7 2 8 1 9 3 10 11 11 12 12 13 13
REMARK SMILES IDX 14 14 15 15 16 16 17 17 18 18 19 19 20 20
REMARK H PARENT
REMARK Flexibility Score: inf
ROOT
ATOM      1  C   UNL     1       5.414   0.170  -4.770  1.00  0.00     0.000 C 
ENDROOT
BRANCH   1   2
ATOM      2  C   UNL     1       4.661   1.028  -3.742  1.00  0.00     0.000 C 
BRANCH   2   3
ATOM      3  C   UNL     1       5.065   2.513  -3.786  1.00  0.00     0.000 C 
BRANCH   3   4
ATOM      4  C   UNL     1       3.894   3.509  -3.705  1.00  0.00     0.000 C 
BRANCH   4   5
ATOM      5  C   UNL     1       4.323   4.962  -3.953  1.00  0.00     0.000 C 
BRANCH   5   6
ATOM      6  C   UNL     1       3.193   5.762  -4.618  1.00  0.00     0.006 C 
BRANCH   6   7
ATOM      7  C   UNL     1       2.778   6.983  -3.787  1.00  0.00     0.053 C 
BRANCH   7   8
ATOM      8  C   UNL     1       1.541   7.631  -4.326  1.00  0.00     0.041 C 
ATOM      9  O   UNL     1       1.515   8.057  -5.511  1.00  0.00    -0.550 OA
ATOM     10  O   UNL     1       0.405   7.733  -3.533  1.00  0.00    -0.550 OA
ENDBRANCH   7   8
ENDBRANCH   6   7
ENDBRANCH   5   6
ENDBRANCH   4   5
ENDBRANCH   3   4
ENDBRANCH   2   3
ENDBRANCH   1   2
BRANCH   1  11
ATOM     11  C   UNL     1       5.323   0.790  -6.172  1.00  0.00     0.000 C 
BRANCH  11  12
ATOM     12  C   UNL     1       3.938   0.607  -6.813  1.00  0.00     0.000 C 
BRANCH  12  13
ATOM     13  C   UNL     1       3.187   1.936  -6.990  1.00  0.00     0.000 C 
BRANCH  13  14
ATOM     14  C   UNL     1       1.668   1.716  -6.936  1.00  0.00     0.000 C 
BRANCH  14  15
ATOM     15  C   UNL     1       1.063   2.089  -5.572  1.00  0.00     0.000 C 
BRANCH  15  16
ATOM     16  C   UNL     1       1.066   0.915  -4.582  1.00  0.00     0.006 C 
BRANCH  16  17
ATOM     17  C   UNL     1       0.457  -0.339  -5.218  1.00  0.00     0.053 C 
BRANCH  17  18
ATOM     18  C   UNL     1       1.336  -1.526  -4.982  1.00  0.00     0.041 C 
ATOM     19  O   UNL     1       2.335  -1.433  -4.220  1.00  0.00    -0.550 OA
ATOM     20  O   UNL     1       1.084  -2.721  -5.643  1.00  0.00    -0.550 OA
ENDBRANCH  17  18
ENDBRANCH  16  17
ENDBRANCH  15  16
ENDBRANCH  14  15
ENDBRANCH  13  14
ENDBRANCH  12  13
ENDBRANCH  11  12
ENDBRANCH   1  11
TORSDOF 15
ENDMDL
MODEL 9
REMARK VINA RESULT:    -3.949      1.512      5.551
REMARK INTER + INTRA:          -9.139
REMARK INTER:                  -7.505
REMARK INTRA:                  -1.634
REMARK UNBOUND:                -1.726
REMARK SMILES O=C([O-])CCCCCCCCCCCCCCC(=O)[O-]
REMARK SMILES IDX 10 1 9 2 8 3 7 4 6 5 5 6 4 7 2 8 1 9 3 10 11 11 12 12 13 13
REMARK SMILES IDX 14 14 15 15 16 16 17 17 18 18 19 19 20 20
REMARK H PARENT
REMARK Flexibility Score: inf
ROOT
ATOM      1  C   UNL     1       4.838   2.545  -3.697  1.00  0.00     0.000 C 
ENDROOT
BRANCH   1   2
ATOM      2  C   UNL     1       4.677   3.905  -4.392  1.00  0.00     0.000 C 
BRANCH   2   3
ATOM      3  C   UNL     1       6.007   4.467  -4.928  1.00  0.00     0.000 C 
BRANCH   3   4
ATOM      4  C   UNL     1       6.396   3.983  -6.337  1.00  0.00     0.000 C 
BRANCH   4   5
ATOM      5  C   UNL     1       7.450   2.868  -6.318  1.00  0.00     0.000 C 
BRANCH   5   6
ATOM      6  C   UNL     1       6.879   1.562  -6.892  1.00  0.00     0.006 C 
BRANCH   6   7
ATOM      7  C   UNL     1       7.471   0.320  -6.212  1.00  0.00     0.053 C 
BRANCH   7   8
ATOM      8  C   UNL     1       6.406  -0.583  -5.675  1.00  0.00     0.041 C 
ATOM      9  O   UNL     1       6.489  -1.032  -4.501  1.00  0.00    -0.550 OA
ATOM     10  O   UNL     1       5.302  -0.901  -6.457  1.00  0.00    -0.550 OA
ENDBRANCH   7   8
ENDBRANCH   6   7
ENDBRANCH   5   6
ENDBRANCH   4   5
ENDBRANCH   3   4
ENDBRANCH   2   3
ENDBRANCH   1   2
BRANCH   1  11
ATOM     11  C   UNL     1       3.817   1.532  -4.235  1.00  0.00     0.000 C 
BRANCH  11  12
ATOM     12  C   UNL     1       2.401   2.119  -4.349  1.00  0.00     0.000 C 
BRANCH  12  13
ATOM     13  C   UNL     1       1.802   1.953  -5.754  1.00  0.00     0.000 C 
BRANCH  13  14
ATOM     14  C   UNL     1       0.367   1.410  -5.674  1.00  0.00     0.000 C 
BRANCH  14  15
ATOM     15  C   UNL     1      -0.004   0.919  -4.265  1.00  0.00     0.000 C 
BRANCH  15  16
ATOM     16  C   UNL     1      -0.204  -0.602  -4.202  1.00  0.00     0.006 C 
BRANCH  16  17
ATOM     17  C   UNL     1       0.653  -1.311  -5.256  1.00  0.00     0.053 C 
BRANCH  17  18
ATOM     18  C   UNL     1       1.619  -2.248  -4.603  1.00  0.00     0.041 C 
ATOM     19  O   UNL     1       1.362  -3.480  -4.539  1.00  0.00    -0.550 OA
ATOM     20  O   UNL     1       2.779  -1.755  -4.018  1.00  0.00    -0.550 OA
ENDBRANCH  17  18
ENDBRANCH  16  17
ENDBRANCH  15  16
ENDBRANCH  14  15
ENDBRANCH  13  14
ENDBRANCH  12  13
ENDBRANCH  11  12
ENDBRANCH   1  11
TORSDOF 15
ENDMDL
