MODEL 1
REMARK VINA RESULT:    -6.906      0.000      0.000
REMARK INTER + INTRA:          -6.906
REMARK INTER:                  -6.906
REMARK INTRA:                   0.000
REMARK UNBOUND:                 0.000
REMARK SMILES CC1=CC(=O)[C@H]2C[C@@H]1C2(C)C
REMARK SMILES IDX 1 1 2 2 3 3 4 4 5 5 6 6 7 7 8 8 9 9 10 10 11 11
REMARK H PARENT
REMARK Flexibility Score: inf
ROOT
ATOM      1  C   UNL     1     109.016  48.267  65.199  1.00  0.00     0.040 C 
ATOM      2  C   UNL     1     108.760  48.468  63.739  1.00  0.00    -0.066 C 
ATOM      3  C   UNL     1     109.147  47.556  62.801  1.00  0.00     0.047 C 
ATOM      4  C   UNL     1     108.824  47.894  61.377  1.00  0.00     0.159 C 
ATOM      5  O   UNL     1     109.165  47.156  60.417  1.00  0.00    -0.295 OA
ATOM      6  C   UNL     1     108.051  49.198  61.172  1.00  0.00     0.067 C 
ATOM      7  C   UNL     1     106.938  49.148  62.243  1.00  0.00     0.021 C 
ATOM      8  C   UNL     1     107.988  49.703  63.233  1.00  0.00     0.022 C 
ATOM      9  C   UNL     1     108.734  50.315  62.011  1.00  0.00    -0.019 C 
ATOM     10  C   UNL     1     110.287  50.366  62.049  1.00  0.00     0.012 C 
ATOM     11  C   UNL     1     108.211  51.728  61.649  1.00  0.00     0.012 C 
ENDROOT
TORSDOF 0
ENDMDL
MODEL 2
REMARK VINA RESULT:    -6.709      1.773      3.036
REMARK INTER + INTRA:          -6.709
REMARK INTER:                  -6.709
REMARK INTRA:                   0.000
REMARK UNBOUND:                 0.000
REMARK SMILES CC1=CC(=O)[C@H]2C[C@@H]1C2(C)C
REMARK SMILES IDX 1 1 2 2 3 3 4 4 5 5 6 6 7 7 8 8 9 9 10 10 11 11
REMARK H PARENT
REMARK Flexibility Score: inf
ROOT
ATOM      1  C   UNL     1     108.753  47.544  60.491  1.00  0.00     0.040 C 
ATOM      2  C   UNL     1     108.901  48.447  61.674  1.00  0.00    -0.066 C 
ATOM      3  C   UNL     1     108.911  47.975  62.953  1.00  0.00     0.047 C 
ATOM      4  C   UNL     1     109.066  49.000  64.036  1.00  0.00     0.159 C 
ATOM      5  O   UNL     1     109.047  48.695  65.257  1.00  0.00    -0.295 OA
ATOM      6  C   UNL     1     109.247  50.439  63.554  1.00  0.00     0.067 C 
ATOM      7  C   UNL     1     110.289  50.328  62.418  1.00  0.00     0.021 C 
ATOM      8  C   UNL     1     109.108  49.965  61.489  1.00  0.00     0.022 C 
ATOM      9  C   UNL     1     108.175  50.736  62.467  1.00  0.00    -0.019 C 
ATOM     10  C   UNL     1     106.733  50.198  62.686  1.00  0.00     0.012 C 
ATOM     11  C   UNL     1     108.083  52.245  62.126  1.00  0.00     0.012 C 
ENDROOT
TORSDOF 0
ENDMDL
MODEL 3
REMARK VINA RESULT:    -6.667      1.925      3.052
REMARK INTER + INTRA:          -6.667
REMARK INTER:                  -6.667
REMARK INTRA:                   0.000
REMARK UNBOUND:                 0.000
REMARK SMILES CC1=CC(=O)[C@H]2C[C@@H]1C2(C)C
REMARK SMILES IDX 1 1 2 2 3 3 4 4 5 5 6 6 7 7 8 8 9 9 10 10 11 11
REMARK H PARENT
REMARK Flexibility Score: inf
ROOT
ATOM      1  C   UNL     1     109.086  48.174  65.360  1.00  0.00     0.040 C 
ATOM      2  C   UNL     1     109.101  48.989  64.105  1.00  0.00    -0.066 C 
ATOM      3  C   UNL     1     108.981  50.347  64.120  1.00  0.00     0.047 C 
ATOM      4  C   UNL     1     109.013  51.028  62.784  1.00  0.00     0.159 C 
ATOM      5  O   UNL     1     108.869  52.272  62.661  1.00  0.00    -0.295 OA
ATOM      6  C   UNL     1     109.231  50.107  61.584  1.00  0.00     0.067 C 
ATOM      7  C   UNL     1     110.387  49.181  62.025  1.00  0.00     0.021 C 
ATOM      8  C   UNL     1     109.313  48.322  62.731  1.00  0.00     0.022 C 
ATOM      9  C   UNL     1     108.276  48.886  61.717  1.00  0.00    -0.019 C 
ATOM     10  C   UNL     1     106.824  49.135  62.213  1.00  0.00     0.012 C 
ATOM     11  C   UNL     1     108.207  48.047  60.416  1.00  0.00     0.012 C 
ENDROOT
TORSDOF 0
ENDMDL
MODEL 4
REMARK VINA RESULT:    -6.462      2.056      3.365
REMARK INTER + INTRA:          -6.462
REMARK INTER:                  -6.462
REMARK INTRA:                   0.000
REMARK UNBOUND:                 0.000
REMARK SMILES CC1=CC(=O)[C@H]2C[C@@H]1C2(C)C
REMARK SMILES IDX 1 1 2 2 3 3 4 4 5 5 6 6 7 7 8 8 9 9 10 10 11 11
REMARK H PARENT
REMARK Flexibility Score: inf
ROOT
ATOM      1  C   UNL     1     108.368  47.928  60.372  1.00  0.00     0.040 C 
ATOM      2  C   UNL     1     108.209  49.052  61.346  1.00  0.00    -0.066 C 
ATOM      3  C   UNL     1     108.735  50.290  61.119  1.00  0.00     0.047 C 
ATOM      4  C   UNL     1     108.496  51.316  62.185  1.00  0.00     0.159 C 
ATOM      5  O   UNL     1     108.966  52.481  62.113  1.00  0.00    -0.295 OA
ATOM      6  C   UNL     1     107.642  50.849  63.364  1.00  0.00     0.067 C 
ATOM      7  C   UNL     1     106.459  50.108  62.702  1.00  0.00     0.021 C 
ATOM      8  C   UNL     1     107.384  48.871  62.636  1.00  0.00     0.022 C 
ATOM      9  C   UNL     1     108.170  49.466  63.840  1.00  0.00    -0.019 C 
ATOM     10  C   UNL     1     109.708  49.242  63.897  1.00  0.00     0.012 C 
ATOM     11  C   UNL     1     107.568  49.042  65.204  1.00  0.00     0.012 C 
ENDROOT
TORSDOF 0
ENDMDL
MODEL 5
REMARK VINA RESULT:    -6.409      1.926      3.251
REMARK INTER + INTRA:          -6.409
REMARK INTER:                  -6.409
REMARK INTRA:                   0.000
REMARK UNBOUND:                 0.000
REMARK SMILES CC1=CC(=O)[C@H]2C[C@@H]1C2(C)C
REMARK SMILES IDX 1 1 2 2 3 3 4 4 5 5 6 6 7 7 8 8 9 9 10 10 11 11
REMARK H PARENT
REMARK Flexibility Score: inf
ROOT
ATOM      1  C   UNL     1     108.703  52.694  61.970  1.00  0.00     0.040 C 
ATOM      2  C   UNL     1     108.460  51.298  62.449  1.00  0.00    -0.066 C 
ATOM      3  C   UNL     1     108.666  50.928  63.745  1.00  0.00     0.047 C 
ATOM      4  C   UNL     1     108.380  49.495  64.078  1.00  0.00     0.159 C 
ATOM      5  O   UNL     1     108.571  49.020  65.227  1.00  0.00    -0.295 OA
ATOM      6  C   UNL     1     107.840  48.649  62.923  1.00  0.00     0.067 C 
ATOM      7  C   UNL     1     106.756  49.541  62.278  1.00  0.00     0.021 C 
ATOM      8  C   UNL     1     107.903  50.221  61.496  1.00  0.00     0.022 C 
ATOM      9  C   UNL     1     108.721  48.907  61.667  1.00  0.00    -0.019 C 
ATOM     10  C   UNL     1     110.260  49.019  61.856  1.00  0.00     0.012 C 
ATOM     11  C   UNL     1     108.444  47.888  60.533  1.00  0.00     0.012 C 
ENDROOT
TORSDOF 0
ENDMDL
MODEL 6
REMARK VINA RESULT:    -6.348      1.013      3.177
REMARK INTER + INTRA:          -6.348
REMARK INTER:                  -6.348
REMARK INTRA:                   0.000
REMARK UNBOUND:                 0.000
REMARK SMILES CC1=CC(=O)[C@H]2C[C@@H]1C2(C)C
REMARK SMILES IDX 1 1 2 2 3 3 4 4 5 5 6 6 7 7 8 8 9 9 10 10 11 11
REMARK H PARENT
REMARK Flexibility Score: inf
ROOT
ATOM      1  C   UNL     1     108.739  52.436  62.119  1.00  0.00     0.040 C 
ATOM      2  C   UNL     1     108.801  50.941  62.121  1.00  0.00    -0.066 C 
ATOM      3  C   UNL     1     108.260  50.190  61.120  1.00  0.00     0.047 C 
ATOM      4  C   UNL     1     108.398  48.704  61.259  1.00  0.00     0.159 C 
ATOM      5  O   UNL     1     107.905  47.902  60.424  1.00  0.00    -0.295 OA
ATOM      6  C   UNL     1     109.179  48.231  62.485  1.00  0.00     0.067 C 
ATOM      7  C   UNL     1     110.425  49.145  62.515  1.00  0.00     0.021 C 
ATOM      8  C   UNL     1     109.538  50.182  63.243  1.00  0.00     0.022 C 
ATOM      9  C   UNL     1     108.654  48.998  63.733  1.00  0.00    -0.019 C 
ATOM     10  C   UNL     1     107.123  49.230  63.866  1.00  0.00     0.012 C 
ATOM     11  C   UNL     1     109.170  48.388  65.061  1.00  0.00     0.012 C 
ENDROOT
TORSDOF 0
ENDMDL
MODEL 7
REMARK VINA RESULT:    -6.222      1.952      2.800
REMARK INTER + INTRA:          -6.222
REMARK INTER:                  -6.222
REMARK INTRA:                   0.000
REMARK UNBOUND:                 0.000
REMARK SMILES CC1=CC(=O)[C@H]2C[C@@H]1C2(C)C
REMARK SMILES IDX 1 1 2 2 3 3 4 4 5 5 6 6 7 7 8 8 9 9 10 10 11 11
REMARK H PARENT
REMARK Flexibility Score: inf
ROOT
ATOM      1  C   UNL     1     109.120  47.880  65.430  1.00  0.00     0.040 C 
ATOM      2  C   UNL     1     108.730  48.927  64.435  1.00  0.00    -0.066 C 
ATOM      3  C   UNL     1     107.434  49.304  64.248  1.00  0.00     0.047 C 
ATOM      4  C   UNL     1     107.196  50.365  63.215  1.00  0.00     0.159 C 
ATOM      5  O   UNL     1     106.041  50.768  62.920  1.00  0.00    -0.295 OA
ATOM      6  C   UNL     1     108.454  50.923  62.547  1.00  0.00     0.067 C 
ATOM      7  C   UNL     1     109.427  51.169  63.722  1.00  0.00     0.021 C 
ATOM      8  C   UNL     1     109.800  49.672  63.611  1.00  0.00     0.022 C 
ATOM      9  C   UNL     1     109.357  49.730  62.120  1.00  0.00    -0.019 C 
ATOM     10  C   UNL     1     108.679  48.474  61.506  1.00  0.00     0.012 C 
ATOM     11  C   UNL     1     110.508  50.169  61.180  1.00  0.00     0.012 C 
ENDROOT
TORSDOF 0
ENDMDL
MODEL 8
REMARK VINA RESULT:    -6.061      1.657      3.357
REMARK INTER + INTRA:          -6.061
REMARK INTER:                  -6.061
REMARK INTRA:                   0.000
REMARK UNBOUND:                 0.000
REMARK SMILES CC1=CC(=O)[C@H]2C[C@@H]1C2(C)C
REMARK SMILES IDX 1 1 2 2 3 3 4 4 5 5 6 6 7 7 8 8 9 9 10 10 11 11
REMARK H PARENT
REMARK Flexibility Score: inf
ROOT
ATOM      1  C   UNL     1     106.063  50.493  62.680  1.00  0.00     0.040 C 
ATOM      2  C   UNL     1     107.526  50.228  62.517  1.00  0.00    -0.066 C 
ATOM      3  C   UNL     1     108.320  50.997  61.718  1.00  0.00     0.047 C 
ATOM      4  C   UNL     1     109.767  50.610  61.653  1.00  0.00     0.159 C 
ATOM      5  O   UNL     1     110.591  51.214  60.919  1.00  0.00    -0.295 OA
ATOM      6  C   UNL     1     110.170  49.430  62.539  1.00  0.00     0.067 C 
ATOM      7  C   UNL     1     109.494  49.730  63.895  1.00  0.00     0.021 C 
ATOM      8  C   UNL     1     108.217  49.093  63.301  1.00  0.00     0.022 C 
ATOM      9  C   UNL     1     109.136  48.285  62.339  1.00  0.00    -0.019 C 
ATOM     10  C   UNL     1     108.622  47.997  60.900  1.00  0.00     0.012 C 
ATOM     11  C   UNL     1     109.610  46.948  62.962  1.00  0.00     0.012 C 
ENDROOT
TORSDOF 0
ENDMDL
MODEL 9
REMARK VINA RESULT:    -5.988      1.645      2.215
REMARK INTER + INTRA:          -5.988
REMARK INTER:                  -5.988
REMARK INTRA:                   0.000
REMARK UNBOUND:                 0.000
REMARK SMILES CC1=CC(=O)[C@H]2C[C@@H]1C2(C)C
REMARK SMILES IDX 1 1 2 2 3 3 4 4 5 5 6 6 7 7 8 8 9 9 10 10 11 11
REMARK H PARENT
REMARK Flexibility Score: inf
ROOT
ATOM      1  C   UNL     1     109.493  46.942  63.725  1.00  0.00     0.040 C 
ATOM      2  C   UNL     1     109.244  48.161  62.893  1.00  0.00    -0.066 C 
ATOM      3  C   UNL     1     110.260  48.930  62.409  1.00  0.00     0.047 C 
ATOM      4  C   UNL     1     109.858  50.121  61.592  1.00  0.00     0.159 C 
ATOM      5  O   UNL     1     110.699  50.932  61.126  1.00  0.00    -0.295 OA
ATOM      6  C   UNL     1     108.354  50.281  61.364  1.00  0.00     0.067 C 
ATOM      7  C   UNL     1     107.878  48.862  60.980  1.00  0.00     0.021 C 
ATOM      8  C   UNL     1     107.811  48.568  62.496  1.00  0.00     0.022 C 
ATOM      9  C   UNL     1     107.625  50.096  62.726  1.00  0.00    -0.019 C 
ATOM     10  C   UNL     1     108.260  50.730  63.995  1.00  0.00     0.012 C 
ATOM     11  C   UNL     1     106.137  50.525  62.662  1.00  0.00     0.012 C 
ENDROOT
TORSDOF 0
ENDMDL
