MODEL 1
REMARK VINA RESULT:    -4.984      0.000      0.000
REMARK INTER + INTRA:          -8.851
REMARK INTER:                  -7.607
REMARK INTRA:                  -1.244
REMARK UNBOUND:                -1.244
REMARK SMILES OC[C@H]1O[C@@](CO)(O[C@@H]2O[C@H](CO)[C@@H](O)[C@H](O)[C@@H]2O)[C@@H](O)[C@@H]1O
REMARK SMILES IDX 8 1 9 2 11 3 14 4 10 5 16 6 18 7 12 8 13 9 15 11 17 13 19 15
REMARK SMILES IDX 5 17 20 18 4 19 22 20 3 21 6 22 7 23 21 25 23 27 2 29 1 30
REMARK H PARENT 13 10 15 12 17 14 19 16 7 24 21 26 23 28 1 31
REMARK Flexibility Score: inf
ROOT
ATOM      1  O   UNL     1      40.318  -5.123  23.203  1.00  0.00    -0.313 OA
ENDROOT
BRANCH   1   2
ATOM      2  C   UNL     1      38.923  -5.380  23.170  1.00  0.00     0.285 C 
ATOM      3  C   UNL     1      36.830  -4.427  23.552  1.00  0.00     0.178 C 
ATOM      4  C   UNL     1      36.347  -5.576  24.467  1.00  0.00     0.177 C 
ATOM      5  O   UNL     1      38.231  -4.252  23.679  1.00  0.00    -0.341 OA
ATOM      6  C   UNL     1      37.113  -6.871  24.130  1.00  0.00     0.179 C 
ATOM      7  C   UNL     1      38.634  -6.616  24.047  1.00  0.00     0.202 C 
BRANCH   3   8
ATOM      8  C   UNL     1      36.141  -3.106  23.926  1.00  0.00     0.191 C 
BRANCH   8   9
ATOM      9  O   UNL     1      34.955  -2.950  23.195  1.00  0.00    -0.394 OA
ATOM     10  H   UNL     1      34.341  -2.413  23.761  1.00  0.00     0.210 HD
ENDBRANCH   8   9
ENDBRANCH   3   8
BRANCH   4  11
ATOM     11  O   UNL     1      34.970  -5.782  24.276  1.00  0.00    -0.387 OA
ATOM     12  H   UNL     1      34.860  -6.718  23.964  1.00  0.00     0.211 HD
ENDBRANCH   4  11
BRANCH   6  13
ATOM     13  O   UNL     1      36.835  -7.849  25.098  1.00  0.00    -0.387 OA
ATOM     14  H   UNL     1      35.940  -7.637  25.471  1.00  0.00     0.211 HD
ENDBRANCH   6  13
BRANCH   7  15
ATOM     15  O   UNL     1      39.208  -6.488  25.326  1.00  0.00    -0.385 OA
ATOM     16  H   UNL     1      38.571  -5.993  25.904  1.00  0.00     0.211 HD
ENDBRANCH   7  15
ENDBRANCH   1   2
BRANCH   1  17
ATOM     17  C   UNL     1      41.025  -5.658  22.084  1.00  0.00     0.224 C 
ATOM     18  C   UNL     1      41.972  -6.814  22.507  1.00  0.00     0.208 C 
ATOM     19  O   UNL     1      40.133  -6.132  21.087  1.00  0.00    -0.337 OA
ATOM     20  C   UNL     1      41.392  -8.019  21.802  1.00  0.00     0.180 C 
ATOM     21  C   UNL     1      40.585  -7.397  20.662  1.00  0.00     0.179 C 
BRANCH  17  22
ATOM     22  C   UNL     1      41.831  -4.500  21.466  1.00  0.00     0.225 C 
BRANCH  22  23
ATOM     23  O   UNL     1      42.659  -3.896  22.427  1.00  0.00    -0.391 OA
ATOM     24  H   UNL     1      42.072  -3.374  23.032  1.00  0.00     0.210 HD
ENDBRANCH  22  23
ENDBRANCH  17  22
BRANCH  18  25
ATOM     25  O   UNL     1      41.986  -7.018  23.897  1.00  0.00    -0.385 OA
ATOM     26  H   UNL     1      42.663  -6.392  24.266  1.00  0.00     0.211 HD
ENDBRANCH  18  25
BRANCH  20  27
ATOM     27  O   UNL     1      42.385  -8.906  21.343  1.00  0.00    -0.387 OA
ATOM     28  H   UNL     1      42.819  -8.505  20.546  1.00  0.00     0.211 HD
ENDBRANCH  20  27
BRANCH  21  29
ATOM     29  C   UNL     1      39.383  -8.259  20.256  1.00  0.00     0.191 C 
BRANCH  29  30
ATOM     30  O   UNL     1      38.183  -7.560  20.451  1.00  0.00    -0.394 OA
ATOM     31  H   UNL     1      37.567  -8.176  20.928  1.00  0.00     0.210 HD
ENDBRANCH  29  30
ENDBRANCH  21  29
ENDBRANCH   1  17
TORSDOF 13
ENDMDL
MODEL 2
REMARK VINA RESULT:    -4.878     12.919     15.382
REMARK INTER + INTRA:          -8.688
REMARK INTER:                  -7.925
REMARK INTRA:                  -0.763
REMARK UNBOUND:                -1.244
REMARK SMILES OC[C@H]1O[C@@](CO)(O[C@@H]2O[C@H](CO)[C@@H](O)[C@H](O)[C@@H]2O)[C@@H](O)[C@@H]1O
REMARK SMILES IDX 8 1 9 2 11 3 14 4 10 5 16 6 18 7 12 8 13 9 15 11 17 13 19 15
REMARK SMILES IDX 5 17 20 18 4 19 22 20 3 21 6 22 7 23 21 25 23 27 2 29 1 30
REMARK H PARENT 13 10 15 12 17 14 19 16 7 24 21 26 23 28 1 31
REMARK Flexibility Score: inf
ROOT
ATOM      1  O   UNL     1      47.844   1.608  30.446  1.00  0.00    -0.313 OA
ENDROOT
BRANCH   1   2
ATOM      2  C   UNL     1      48.745   1.407  31.524  1.00  0.00     0.285 C 
ATOM      3  C   UNL     1      49.493  -0.161  33.078  1.00  0.00     0.178 C 
ATOM      4  C   UNL     1      49.293   0.777  34.291  1.00  0.00     0.177 C 
ATOM      5  O   UNL     1      48.531   0.119  32.075  1.00  0.00    -0.341 OA
ATOM      6  C   UNL     1      49.362   2.247  33.833  1.00  0.00     0.179 C 
ATOM      7  C   UNL     1      48.478   2.489  32.590  1.00  0.00     0.202 C 
BRANCH   3   8
ATOM      8  C   UNL     1      49.344  -1.631  33.495  1.00  0.00     0.191 C 
BRANCH   8   9
ATOM      9  O   UNL     1      50.507  -2.077  34.139  1.00  0.00    -0.394 OA
ATOM     10  H   UNL     1      51.221  -1.422  33.921  1.00  0.00     0.210 HD
ENDBRANCH   8   9
ENDBRANCH   3   8
BRANCH   4  11
ATOM     11  O   UNL     1      50.297   0.534  35.243  1.00  0.00    -0.387 OA
ATOM     12  H   UNL     1      51.007   1.211  35.093  1.00  0.00     0.211 HD
ENDBRANCH   4  11
BRANCH   6  13
ATOM     13  O   UNL     1      48.966   3.088  34.885  1.00  0.00    -0.387 OA
ATOM     14  H   UNL     1      48.698   3.952  34.476  1.00  0.00     0.211 HD
ENDBRANCH   6  13
BRANCH   7  15
ATOM     15  O   UNL     1      47.113   2.553  32.931  1.00  0.00    -0.385 OA
ATOM     16  H   UNL     1      47.044   2.788  33.893  1.00  0.00     0.211 HD
ENDBRANCH   7  15
ENDBRANCH   1   2
BRANCH   1  17
ATOM     17  C   UNL     1      48.489   1.802  29.188  1.00  0.00     0.224 C 
ATOM     18  C   UNL     1      47.555   1.433  28.004  1.00  0.00     0.208 C 
ATOM     19  O   UNL     1      48.926   3.144  29.032  1.00  0.00    -0.337 OA
ATOM     20  C   UNL     1      47.354   2.751  27.292  1.00  0.00     0.180 C 
ATOM     21  C   UNL     1      48.560   3.575  27.742  1.00  0.00     0.179 C 
BRANCH  17  22
ATOM     22  C   UNL     1      49.744   0.908  29.184  1.00  0.00     0.225 C 
BRANCH  22  23
ATOM     23  O   UNL     1      50.105   0.556  27.873  1.00  0.00    -0.391 OA
ATOM     24  H   UNL     1      49.448  -0.120  27.561  1.00  0.00     0.210 HD
ENDBRANCH  22  23
ENDBRANCH  17  22
BRANCH  18  25
ATOM     25  O   UNL     1      46.322   0.913  28.432  1.00  0.00    -0.385 OA
ATOM     26  H   UNL     1      46.471  -0.053  28.609  1.00  0.00     0.211 HD
ENDBRANCH  18  25
BRANCH  20  27
ATOM     27  O   UNL     1      47.288   2.604  25.892  1.00  0.00    -0.387 OA
ATOM     28  H   UNL     1      46.377   2.860  25.593  1.00  0.00     0.211 HD
ENDBRANCH  20  27
BRANCH  21  29
ATOM     29  C   UNL     1      48.264   5.080  27.770  1.00  0.00     0.191 C 
BRANCH  29  30
ATOM     30  O   UNL     1      49.396   5.815  27.389  1.00  0.00    -0.394 OA
ATOM     31  H   UNL     1      49.753   5.386  26.567  1.00  0.00     0.210 HD
ENDBRANCH  29  30
ENDBRANCH  21  29
ENDBRANCH   1  17
TORSDOF 13
ENDMDL
MODEL 3
REMARK VINA RESULT:    -4.683      1.394      2.566
REMARK INTER + INTRA:          -8.391
REMARK INTER:                  -7.315
REMARK INTRA:                  -1.075
REMARK UNBOUND:                -1.244
REMARK SMILES OC[C@H]1O[C@@](CO)(O[C@@H]2O[C@H](CO)[C@@H](O)[C@H](O)[C@@H]2O)[C@@H](O)[C@@H]1O
REMARK SMILES IDX 8 1 9 2 11 3 14 4 10 5 16 6 18 7 12 8 13 9 15 11 17 13 19 15
REMARK SMILES IDX 5 17 20 18 4 19 22 20 3 21 6 22 7 23 21 25 23 27 2 29 1 30
REMARK H PARENT 13 10 15 12 17 14 19 16 7 24 21 26 23 28 1 31
REMARK Flexibility Score: inf
ROOT
ATOM      1  O   UNL     1      40.360  -5.029  23.450  1.00  0.00    -0.313 OA
ENDROOT
BRANCH   1   2
ATOM      2  C   UNL     1      38.974  -5.318  23.345  1.00  0.00     0.285 C 
ATOM      3  C   UNL     1      36.843  -4.414  23.617  1.00  0.00     0.178 C 
ATOM      4  C   UNL     1      36.340  -5.575  24.507  1.00  0.00     0.177 C 
ATOM      5  O   UNL     1      38.231  -4.207  23.816  1.00  0.00    -0.341 OA
ATOM      6  C   UNL     1      37.152  -6.851  24.212  1.00  0.00     0.179 C 
ATOM      7  C   UNL     1      38.670  -6.561  24.207  1.00  0.00     0.202 C 
BRANCH   3   8
ATOM      8  C   UNL     1      36.105  -3.110  23.952  1.00  0.00     0.191 C 
BRANCH   8   9
ATOM      9  O   UNL     1      34.927  -3.007  23.198  1.00  0.00    -0.394 OA
ATOM     10  H   UNL     1      34.783  -2.039  23.029  1.00  0.00     0.210 HD
ENDBRANCH   8   9
ENDBRANCH   3   8
BRANCH   4  11
ATOM     11  O   UNL     1      34.980  -5.813  24.245  1.00  0.00    -0.387 OA
ATOM     12  H   UNL     1      34.865  -5.771  23.260  1.00  0.00     0.211 HD
ENDBRANCH   4  11
BRANCH   6  13
ATOM     13  O   UNL     1      36.847  -7.835  25.165  1.00  0.00    -0.387 OA
ATOM     14  H   UNL     1      36.066  -8.339  24.816  1.00  0.00     0.211 HD
ENDBRANCH   6  13
BRANCH   7  15
ATOM     15  O   UNL     1      39.173  -6.419  25.515  1.00  0.00    -0.385 OA
ATOM     16  H   UNL     1      38.490  -6.760  26.149  1.00  0.00     0.211 HD
ENDBRANCH   7  15
ENDBRANCH   1   2
BRANCH   1  17
ATOM     17  C   UNL     1      41.132  -5.520  22.355  1.00  0.00     0.224 C 
ATOM     18  C   UNL     1      42.405  -4.662  22.123  1.00  0.00     0.208 C 
ATOM     19  O   UNL     1      41.516  -6.872  22.557  1.00  0.00    -0.337 OA
ATOM     20  C   UNL     1      43.534  -5.622  22.417  1.00  0.00     0.180 C 
ATOM     21  C   UNL     1      42.881  -6.992  22.230  1.00  0.00     0.179 C 
BRANCH  17  22
ATOM     22  C   UNL     1      40.223  -5.483  21.111  1.00  0.00     0.225 C 
BRANCH  22  23
ATOM     23  O   UNL     1      40.933  -5.043  19.983  1.00  0.00    -0.391 OA
ATOM     24  H   UNL     1      41.791  -5.542  19.965  1.00  0.00     0.210 HD
ENDBRANCH  22  23
ENDBRANCH  17  22
BRANCH  18  25
ATOM     25  O   UNL     1      42.469  -3.551  22.981  1.00  0.00    -0.385 OA
ATOM     26  H   UNL     1      41.745  -2.934  22.698  1.00  0.00     0.211 HD
ENDBRANCH  18  25
BRANCH  20  27
ATOM     27  O   UNL     1      44.642  -5.429  21.568  1.00  0.00    -0.387 OA
ATOM     28  H   UNL     1      44.352  -5.595  20.633  1.00  0.00     0.211 HD
ENDBRANCH  20  27
BRANCH  21  29
ATOM     29  C   UNL     1      43.524  -8.072  23.108  1.00  0.00     0.191 C 
BRANCH  29  30
ATOM     30  O   UNL     1      44.842  -7.725  23.437  1.00  0.00    -0.394 OA
ATOM     31  H   UNL     1      45.149  -7.078  22.749  1.00  0.00     0.210 HD
ENDBRANCH  29  30
ENDBRANCH  21  29
ENDBRANCH   1  17
TORSDOF 13
ENDMDL
MODEL 4
REMARK VINA RESULT:    -4.659     12.260     14.862
REMARK INTER + INTRA:          -8.354
REMARK INTER:                  -7.295
REMARK INTRA:                  -1.059
REMARK UNBOUND:                -1.244
REMARK SMILES OC[C@H]1O[C@@](CO)(O[C@@H]2O[C@H](CO)[C@@H](O)[C@H](O)[C@@H]2O)[C@@H](O)[C@@H]1O
REMARK SMILES IDX 8 1 9 2 11 3 14 4 10 5 16 6 18 7 12 8 13 9 15 11 17 13 19 15
REMARK SMILES IDX 5 17 20 18 4 19 22 20 3 21 6 22 7 23 21 25 23 27 2 29 1 30
REMARK H PARENT 13 10 15 12 17 14 19 16 7 24 21 26 23 28 1 31
REMARK Flexibility Score: inf
ROOT
ATOM      1  O   UNL     1      49.354  -0.219  29.848  1.00  0.00    -0.313 OA
ENDROOT
BRANCH   1   2
ATOM      2  C   UNL     1      48.895   1.095  29.572  1.00  0.00     0.285 C 
ATOM      3  C   UNL     1      47.366   2.322  28.310  1.00  0.00     0.178 C 
ATOM      4  C   UNL     1      48.433   3.291  27.750  1.00  0.00     0.177 C 
ATOM      5  O   UNL     1      47.932   1.041  28.533  1.00  0.00    -0.341 OA
ATOM      6  C   UNL     1      49.634   3.361  28.714  1.00  0.00     0.179 C 
ATOM      7  C   UNL     1      50.101   1.949  29.131  1.00  0.00     0.202 C 
BRANCH   3   8
ATOM      8  C   UNL     1      46.197   2.171  27.327  1.00  0.00     0.191 C 
BRANCH   8   9
ATOM      9  O   UNL     1      46.614   2.466  26.021  1.00  0.00    -0.394 OA
ATOM     10  H   UNL     1      45.886   2.995  25.603  1.00  0.00     0.210 HD
ENDBRANCH   8   9
ENDBRANCH   3   8
BRANCH   4  11
ATOM     11  O   UNL     1      47.874   4.571  27.603  1.00  0.00    -0.387 OA
ATOM     12  H   UNL     1      46.904   4.486  27.796  1.00  0.00     0.211 HD
ENDBRANCH   4  11
BRANCH   6  13
ATOM     13  O   UNL     1      50.687   4.063  28.106  1.00  0.00    -0.387 OA
ATOM     14  H   UNL     1      50.573   5.019  28.350  1.00  0.00     0.211 HD
ENDBRANCH   6  13
BRANCH   7  15
ATOM     15  O   UNL     1      50.831   1.322  28.104  1.00  0.00    -0.385 OA
ATOM     16  H   UNL     1      51.460   1.986  27.719  1.00  0.00     0.211 HD
ENDBRANCH   7  15
ENDBRANCH   1   2
BRANCH   1  17
ATOM     17  C   UNL     1      48.814  -0.774  31.049  1.00  0.00     0.224 C 
ATOM     18  C   UNL     1      49.735  -1.880  31.630  1.00  0.00     0.208 C 
ATOM     19  O   UNL     1      48.613   0.227  32.036  1.00  0.00    -0.337 OA
ATOM     20  C   UNL     1      50.186  -1.302  32.952  1.00  0.00     0.180 C 
ATOM     21  C   UNL     1      49.110  -0.261  33.260  1.00  0.00     0.179 C 
BRANCH  17  22
ATOM     22  C   UNL     1      47.432  -1.354  30.694  1.00  0.00     0.225 C 
BRANCH  22  23
ATOM     23  O   UNL     1      47.560  -2.545  29.962  1.00  0.00    -0.391 OA
ATOM     24  H   UNL     1      48.508  -2.829  30.031  1.00  0.00     0.210 HD
ENDBRANCH  22  23
ENDBRANCH  17  22
BRANCH  18  25
ATOM     25  O   UNL     1      50.842  -2.148  30.808  1.00  0.00    -0.385 OA
ATOM     26  H   UNL     1      51.441  -1.359  30.878  1.00  0.00     0.211 HD
ENDBRANCH  18  25
BRANCH  20  27
ATOM     27  O   UNL     1      50.298  -2.281  33.959  1.00  0.00    -0.387 OA
ATOM     28  H   UNL     1      50.771  -3.068  33.580  1.00  0.00     0.211 HD
ENDBRANCH  20  27
BRANCH  21  29
ATOM     29  C   UNL     1      49.647   0.907  34.096  1.00  0.00     0.191 C 
BRANCH  29  30
ATOM     30  O   UNL     1      50.272   0.438  35.260  1.00  0.00    -0.394 OA
ATOM     31  H   UNL     1      49.593  -0.088  35.758  1.00  0.00     0.210 HD
ENDBRANCH  29  30
ENDBRANCH  21  29
ENDBRANCH   1  17
TORSDOF 13
ENDMDL
MODEL 5
REMARK VINA RESULT:    -4.616      3.624      6.303
REMARK INTER + INTRA:          -8.289
REMARK INTER:                  -7.024
REMARK INTRA:                  -1.265
REMARK UNBOUND:                -1.244
REMARK SMILES OC[C@H]1O[C@@](CO)(O[C@@H]2O[C@H](CO)[C@@H](O)[C@H](O)[C@@H]2O)[C@@H](O)[C@@H]1O
REMARK SMILES IDX 8 1 9 2 11 3 14 4 10 5 16 6 18 7 12 8 13 9 15 11 17 13 19 15
REMARK SMILES IDX 5 17 20 18 4 19 22 20 3 21 6 22 7 23 21 25 23 27 2 29 1 30
REMARK H PARENT 13 10 15 12 17 14 19 16 7 24 21 26 23 28 1 31
REMARK Flexibility Score: inf
ROOT
ATOM      1  O   UNL     1      38.703  -7.020  25.861  1.00  0.00    -0.313 OA
ENDROOT
BRANCH   1   2
ATOM      2  C   UNL     1      39.172  -6.686  27.158  1.00  0.00     0.285 C 
ATOM      3  C   UNL     1      41.098  -6.383  28.436  1.00  0.00     0.178 C 
ATOM      4  C   UNL     1      40.631  -7.324  29.570  1.00  0.00     0.177 C 
ATOM      5  O   UNL     1      40.583  -6.820  27.190  1.00  0.00    -0.341 OA
ATOM      6  C   UNL     1      39.091  -7.399  29.588  1.00  0.00     0.179 C 
ATOM      7  C   UNL     1      38.527  -7.652  28.172  1.00  0.00     0.202 C 
BRANCH   3   8
ATOM      8  C   UNL     1      42.631  -6.357  28.345  1.00  0.00     0.191 C 
BRANCH   8   9
ATOM      9  O   UNL     1      43.176  -7.496  28.954  1.00  0.00    -0.394 OA
ATOM     10  H   UNL     1      43.097  -8.235  28.296  1.00  0.00     0.210 HD
ENDBRANCH   8   9
ENDBRANCH   3   8
BRANCH   4  11
ATOM     11  O   UNL     1      41.091  -6.836  30.805  1.00  0.00    -0.387 OA
ATOM     12  H   UNL     1      40.356  -6.291  31.191  1.00  0.00     0.211 HD
ENDBRANCH   4  11
BRANCH   6  13
ATOM     13  O   UNL     1      38.678  -8.413  30.466  1.00  0.00    -0.387 OA
ATOM     14  H   UNL     1      37.692  -8.335  30.551  1.00  0.00     0.211 HD
ENDBRANCH   6  13
BRANCH   7  15
ATOM     15  O   UNL     1      38.690  -8.996  27.783  1.00  0.00    -0.385 OA
ATOM     16  H   UNL     1      37.982  -9.218  27.125  1.00  0.00     0.211 HD
ENDBRANCH   7  15
ENDBRANCH   1   2
BRANCH   1  17
ATOM     17  C   UNL     1      38.747  -5.931  24.938  1.00  0.00     0.224 C 
ATOM     18  C   UNL     1      37.432  -5.822  24.120  1.00  0.00     0.208 C 
ATOM     19  O   UNL     1      38.982  -4.699  25.603  1.00  0.00    -0.337 OA
ATOM     20  C   UNL     1      36.859  -4.492  24.553  1.00  0.00     0.180 C 
ATOM     21  C   UNL     1      38.081  -3.746  25.088  1.00  0.00     0.179 C 
BRANCH  17  22
ATOM     22  C   UNL     1      39.945  -6.183  24.003  1.00  0.00     0.225 C 
BRANCH  22  23
ATOM     23  O   UNL     1      41.111  -5.586  24.509  1.00  0.00    -0.391 OA
ATOM     24  H   UNL     1      41.597  -5.195  23.737  1.00  0.00     0.210 HD
ENDBRANCH  22  23
ENDBRANCH  17  22
BRANCH  18  25
ATOM     25  O   UNL     1      36.532  -6.862  24.406  1.00  0.00    -0.385 OA
ATOM     26  H   UNL     1      36.827  -7.644  23.871  1.00  0.00     0.211 HD
ENDBRANCH  18  25
BRANCH  20  27
ATOM     27  O   UNL     1      36.225  -3.809  23.497  1.00  0.00    -0.387 OA
ATOM     28  H   UNL     1      36.873  -3.714  22.751  1.00  0.00     0.211 HD
ENDBRANCH  20  27
BRANCH  21  29
ATOM     29  C   UNL     1      37.718  -2.740  26.187  1.00  0.00     0.191 C 
BRANCH  29  30
ATOM     30  O   UNL     1      36.668  -1.909  25.772  1.00  0.00    -0.394 OA
ATOM     31  H   UNL     1      35.908  -2.077  26.388  1.00  0.00     0.210 HD
ENDBRANCH  29  30
ENDBRANCH  21  29
ENDBRANCH   1  17
TORSDOF 13
ENDMDL
MODEL 6
REMARK VINA RESULT:    -4.606      3.475      5.804
REMARK INTER + INTRA:          -8.273
REMARK INTER:                  -7.205
REMARK INTRA:                  -1.068
REMARK UNBOUND:                -1.244
REMARK SMILES OC[C@H]1O[C@@](CO)(O[C@@H]2O[C@H](CO)[C@@H](O)[C@H](O)[C@@H]2O)[C@@H](O)[C@@H]1O
REMARK SMILES IDX 8 1 9 2 11 3 14 4 10 5 16 6 18 7 12 8 13 9 15 11 17 13 19 15
REMARK SMILES IDX 5 17 20 18 4 19 22 20 3 21 6 22 7 23 21 25 23 27 2 29 1 30
REMARK H PARENT 13 10 15 12 17 14 19 16 7 24 21 26 23 28 1 31
REMARK Flexibility Score: inf
ROOT
ATOM      1  O   UNL     1      38.404  -5.375  26.039  1.00  0.00    -0.313 OA
ENDROOT
BRANCH   1   2
ATOM      2  C   UNL     1      39.201  -6.111  26.954  1.00  0.00     0.285 C 
ATOM      3  C   UNL     1      39.131  -7.365  28.918  1.00  0.00     0.178 C 
ATOM      4  C   UNL     1      40.260  -6.563  29.605  1.00  0.00     0.177 C 
ATOM      5  O   UNL     1      38.394  -6.528  28.042  1.00  0.00    -0.341 OA
ATOM      6  C   UNL     1      41.168  -5.918  28.539  1.00  0.00     0.179 C 
ATOM      7  C   UNL     1      40.336  -5.195  27.457  1.00  0.00     0.202 C 
BRANCH   3   8
ATOM      8  C   UNL     1      38.164  -7.947  29.959  1.00  0.00     0.191 C 
BRANCH   8   9
ATOM      9  O   UNL     1      38.751  -9.037  30.616  1.00  0.00    -0.394 OA
ATOM     10  H   UNL     1      38.867  -9.750  29.935  1.00  0.00     0.210 HD
ENDBRANCH   8   9
ENDBRANCH   3   8
BRANCH   4  11
ATOM     11  O   UNL     1      41.022  -7.423  30.414  1.00  0.00    -0.387 OA
ATOM     12  H   UNL     1      41.610  -7.943  29.806  1.00  0.00     0.211 HD
ENDBRANCH   4  11
BRANCH   6  13
ATOM     13  O   UNL     1      42.053  -5.019  29.155  1.00  0.00    -0.387 OA
ATOM     14  H   UNL     1      42.742  -5.566  29.616  1.00  0.00     0.211 HD
ENDBRANCH   6  13
BRANCH   7  15
ATOM     15  O   UNL     1      39.838  -3.964  27.925  1.00  0.00    -0.385 OA
ATOM     16  H   UNL     1      39.411  -3.492  27.164  1.00  0.00     0.211 HD
ENDBRANCH   7  15
ENDBRANCH   1   2
BRANCH   1  17
ATOM     17  C   UNL     1      38.316  -5.973  24.746  1.00  0.00     0.224 C 
ATOM     18  C   UNL     1      37.713  -4.994  23.703  1.00  0.00     0.208 C 
ATOM     19  O   UNL     1      39.588  -6.410  24.290  1.00  0.00    -0.337 OA
ATOM     20  C   UNL     1      38.850  -4.772  22.732  1.00  0.00     0.180 C 
ATOM     21  C   UNL     1      39.736  -5.998  22.951  1.00  0.00     0.179 C 
BRANCH  17  22
ATOM     22  C   UNL     1      37.426  -7.223  24.889  1.00  0.00     0.225 C 
BRANCH  22  23
ATOM     23  O   UNL     1      36.067  -6.887  24.782  1.00  0.00    -0.391 OA
ATOM     24  H   UNL     1      35.992  -5.914  24.962  1.00  0.00     0.210 HD
ENDBRANCH  22  23
ENDBRANCH  17  22
BRANCH  18  25
ATOM     25  O   UNL     1      37.312  -3.775  24.277  1.00  0.00    -0.385 OA
ATOM     26  H   UNL     1      38.145  -3.291  24.517  1.00  0.00     0.211 HD
ENDBRANCH  18  25
BRANCH  20  27
ATOM     27  O   UNL     1      38.406  -4.653  21.400  1.00  0.00    -0.387 OA
ATOM     28  H   UNL     1      37.479  -5.003  21.347  1.00  0.00     0.211 HD
ENDBRANCH  20  27
BRANCH  21  29
ATOM     29  C   UNL     1      41.215  -5.710  22.666  1.00  0.00     0.191 C 
BRANCH  29  30
ATOM     30  O   UNL     1      41.348  -4.653  21.754  1.00  0.00    -0.394 OA
ATOM     31  H   UNL     1      41.448  -3.823  22.290  1.00  0.00     0.210 HD
ENDBRANCH  29  30
ENDBRANCH  21  29
ENDBRANCH   1  17
TORSDOF 13
ENDMDL
MODEL 7
REMARK VINA RESULT:    -4.590     11.825     14.313
REMARK INTER + INTRA:          -8.248
REMARK INTER:                  -6.887
REMARK INTRA:                  -1.362
REMARK UNBOUND:                -1.244
REMARK SMILES OC[C@H]1O[C@@](CO)(O[C@@H]2O[C@H](CO)[C@@H](O)[C@H](O)[C@@H]2O)[C@@H](O)[C@@H]1O
REMARK SMILES IDX 8 1 9 2 11 3 14 4 10 5 16 6 18 7 12 8 13 9 15 11 17 13 19 15
REMARK SMILES IDX 5 17 20 18 4 19 22 20 3 21 6 22 7 23 21 25 23 27 2 29 1 30
REMARK H PARENT 13 10 15 12 17 14 19 16 7 24 21 26 23 28 1 31
REMARK Flexibility Score: inf
ROOT
ATOM      1  O   UNL     1      47.914   1.126  28.693  1.00  0.00    -0.313 OA
ENDROOT
BRANCH   1   2
ATOM      2  C   UNL     1      48.166   1.707  29.962  1.00  0.00     0.285 C 
ATOM      3  C   UNL     1      49.613   3.114  31.128  1.00  0.00     0.178 C 
ATOM      4  C   UNL     1      49.844   2.110  32.281  1.00  0.00     0.177 C 
ATOM      5  O   UNL     1      49.388   2.424  29.911  1.00  0.00    -0.341 OA
ATOM      6  C   UNL     1      48.642   1.151  32.388  1.00  0.00     0.179 C 
ATOM      7  C   UNL     1      48.260   0.575  31.006  1.00  0.00     0.202 C 
BRANCH   3   8
ATOM      8  C   UNL     1      50.835   4.028  30.948  1.00  0.00     0.191 C 
BRANCH   8   9
ATOM      9  O   UNL     1      50.883   4.986  31.970  1.00  0.00    -0.394 OA
ATOM     10  H   UNL     1      51.699   4.793  32.501  1.00  0.00     0.210 HD
ENDBRANCH   8   9
ENDBRANCH   3   8
BRANCH   4  11
ATOM     11  O   UNL     1      49.994   2.810  33.490  1.00  0.00    -0.387 OA
ATOM     12  H   UNL     1      50.879   2.556  33.862  1.00  0.00     0.211 HD
ENDBRANCH   4  11
BRANCH   6  13
ATOM     13  O   UNL     1      48.946   0.112  33.282  1.00  0.00    -0.387 OA
ATOM     14  H   UNL     1      49.763   0.387  33.773  1.00  0.00     0.211 HD
ENDBRANCH   6  13
BRANCH   7  15
ATOM     15  O   UNL     1      49.158  -0.430  30.599  1.00  0.00    -0.385 OA
ATOM     16  H   UNL     1      49.850  -0.014  30.023  1.00  0.00     0.211 HD
ENDBRANCH   7  15
ENDBRANCH   1   2
BRANCH   1  17
ATOM     17  C   UNL     1      46.937   1.829  27.924  1.00  0.00     0.224 C 
ATOM     18  C   UNL     1      45.832   0.875  27.396  1.00  0.00     0.208 C 
ATOM     19  O   UNL     1      46.330   2.865  28.683  1.00  0.00    -0.337 OA
ATOM     20  C   UNL     1      44.584   1.361  28.096  1.00  0.00     0.180 C 
ATOM     21  C   UNL     1      44.938   2.799  28.477  1.00  0.00     0.179 C 
BRANCH  17  22
ATOM     22  C   UNL     1      47.681   2.495  26.751  1.00  0.00     0.225 C 
BRANCH  22  23
ATOM     23  O   UNL     1      48.468   3.568  27.201  1.00  0.00    -0.391 OA
ATOM     24  H   UNL     1      48.471   4.250  26.479  1.00  0.00     0.210 HD
ENDBRANCH  22  23
ENDBRANCH  17  22
BRANCH  18  25
ATOM     25  O   UNL     1      46.082  -0.470  27.716  1.00  0.00    -0.385 OA
ATOM     26  H   UNL     1      45.675  -1.012  26.990  1.00  0.00     0.211 HD
ENDBRANCH  18  25
BRANCH  20  27
ATOM     27  O   UNL     1      43.440   1.282  27.278  1.00  0.00    -0.387 OA
ATOM     28  H   UNL     1      43.651   1.702  26.404  1.00  0.00     0.211 HD
ENDBRANCH  20  27
BRANCH  21  29
ATOM     29  C   UNL     1      44.211   3.266  29.743  1.00  0.00     0.191 C 
BRANCH  29  30
ATOM     30  O   UNL     1      43.210   2.354  30.106  1.00  0.00    -0.394 OA
ATOM     31  H   UNL     1      43.668   1.515  30.372  1.00  0.00     0.210 HD
ENDBRANCH  29  30
ENDBRANCH  21  29
ENDBRANCH   1  17
TORSDOF 13
ENDMDL
MODEL 8
REMARK VINA RESULT:    -4.536      3.781      5.898
REMARK INTER + INTRA:          -8.167
REMARK INTER:                  -6.998
REMARK INTRA:                  -1.169
REMARK UNBOUND:                -1.244
REMARK SMILES OC[C@H]1O[C@@](CO)(O[C@@H]2O[C@H](CO)[C@@H](O)[C@H](O)[C@@H]2O)[C@@H](O)[C@@H]1O
REMARK SMILES IDX 8 1 9 2 11 3 14 4 10 5 16 6 18 7 12 8 13 9 15 11 17 13 19 15
REMARK SMILES IDX 5 17 20 18 4 19 22 20 3 21 6 22 7 23 21 25 23 27 2 29 1 30
REMARK H PARENT 13 10 15 12 17 14 19 16 7 24 21 26 23 28 1 31
REMARK Flexibility Score: inf
ROOT
ATOM      1  O   UNL     1      39.848  -5.813  25.758  1.00  0.00    -0.313 OA
ENDROOT
BRANCH   1   2
ATOM      2  C   UNL     1      39.896  -6.171  27.130  1.00  0.00     0.285 C 
ATOM      3  C   UNL     1      39.973  -5.307  29.293  1.00  0.00     0.178 C 
ATOM      4  C   UNL     1      41.193  -6.160  29.713  1.00  0.00     0.177 C 
ATOM      5  O   UNL     1      40.039  -4.998  27.912  1.00  0.00    -0.341 OA
ATOM      6  C   UNL     1      41.263  -7.434  28.849  1.00  0.00     0.179 C 
ATOM      7  C   UNL     1      41.105  -7.103  27.348  1.00  0.00     0.202 C 
BRANCH   3   8
ATOM      8  C   UNL     1      39.930  -3.991  30.083  1.00  0.00     0.191 C 
BRANCH   8   9
ATOM      9  O   UNL     1      41.190  -3.707  30.629  1.00  0.00    -0.394 OA
ATOM     10  H   UNL     1      41.598  -3.011  30.051  1.00  0.00     0.210 HD
ENDBRANCH   8   9
ENDBRANCH   3   8
BRANCH   4  11
ATOM     11  O   UNL     1      41.075  -6.516  31.066  1.00  0.00    -0.387 OA
ATOM     12  H   UNL     1      41.216  -5.688  31.596  1.00  0.00     0.211 HD
ENDBRANCH   4  11
BRANCH   6  13
ATOM     13  O   UNL     1      42.482  -8.093  29.077  1.00  0.00    -0.387 OA
ATOM     14  H   UNL     1      42.419  -8.509  29.976  1.00  0.00     0.211 HD
ENDBRANCH   6  13
BRANCH   7  15
ATOM     15  O   UNL     1      42.286  -6.553  26.813  1.00  0.00    -0.385 OA
ATOM     16  H   UNL     1      42.054  -5.701  26.360  1.00  0.00     0.211 HD
ENDBRANCH   7  15
ENDBRANCH   1   2
BRANCH   1  17
ATOM     17  C   UNL     1      38.545  -5.916  25.183  1.00  0.00     0.224 C 
ATOM     18  C   UNL     1      37.884  -4.522  25.013  1.00  0.00     0.208 C 
ATOM     19  O   UNL     1      38.586  -6.566  23.922  1.00  0.00    -0.337 OA
ATOM     20  C   UNL     1      37.748  -4.378  23.515  1.00  0.00     0.180 C 
ATOM     21  C   UNL     1      37.794  -5.825  23.023  1.00  0.00     0.179 C 
BRANCH  17  22
ATOM     22  C   UNL     1      37.706  -6.799  26.128  1.00  0.00     0.225 C 
BRANCH  22  23
ATOM     23  O   UNL     1      36.333  -6.624  25.890  1.00  0.00    -0.391 OA
ATOM     24  H   UNL     1      35.904  -6.460  26.769  1.00  0.00     0.210 HD
ENDBRANCH  22  23
ENDBRANCH  17  22
BRANCH  18  25
ATOM     25  O   UNL     1      38.673  -3.484  25.537  1.00  0.00    -0.385 OA
ATOM     26  H   UNL     1      38.238  -3.199  26.382  1.00  0.00     0.211 HD
ENDBRANCH  18  25
BRANCH  20  27
ATOM     27  O   UNL     1      36.564  -3.714  23.141  1.00  0.00    -0.387 OA
ATOM     28  H   UNL     1      36.663  -3.400  22.205  1.00  0.00     0.211 HD
ENDBRANCH  20  27
BRANCH  21  29
ATOM     29  C   UNL     1      38.376  -5.946  21.610  1.00  0.00     0.191 C 
BRANCH  29  30
ATOM     30  O   UNL     1      38.511  -4.681  21.019  1.00  0.00    -0.394 OA
ATOM     31  H   UNL     1      37.875  -4.650  20.257  1.00  0.00     0.210 HD
ENDBRANCH  29  30
ENDBRANCH  21  29
ENDBRANCH   1  17
TORSDOF 13
ENDMDL
MODEL 9
REMARK VINA RESULT:    -4.517      3.099      4.736
REMARK INTER + INTRA:          -8.137
REMARK INTER:                  -7.036
REMARK INTRA:                  -1.102
REMARK UNBOUND:                -1.244
REMARK SMILES OC[C@H]1O[C@@](CO)(O[C@@H]2O[C@H](CO)[C@@H](O)[C@H](O)[C@@H]2O)[C@@H](O)[C@@H]1O
REMARK SMILES IDX 8 1 9 2 11 3 14 4 10 5 16 6 18 7 12 8 13 9 15 11 17 13 19 15
REMARK SMILES IDX 5 17 20 18 4 19 22 20 3 21 6 22 7 23 21 25 23 27 2 29 1 30
REMARK H PARENT 13 10 15 12 17 14 19 16 7 24 21 26 23 28 1 31
REMARK Flexibility Score: inf
ROOT
ATOM      1  O   UNL     1      38.990  -7.261  24.954  1.00  0.00    -0.313 OA
ENDROOT
BRANCH   1   2
ATOM      2  C   UNL     1      38.815  -6.827  26.293  1.00  0.00     0.285 C 
ATOM      3  C   UNL     1      39.863  -5.732  28.064  1.00  0.00     0.178 C 
ATOM      4  C   UNL     1      39.557  -6.850  29.087  1.00  0.00     0.177 C 
ATOM      5  O   UNL     1      40.034  -6.282  26.769  1.00  0.00    -0.341 OA
ATOM      6  C   UNL     1      38.313  -7.643  28.639  1.00  0.00     0.179 C 
ATOM      7  C   UNL     1      38.410  -8.044  27.150  1.00  0.00     0.202 C 
BRANCH   3   8
ATOM      8  C   UNL     1      41.147  -4.981  28.445  1.00  0.00     0.191 C 
BRANCH   8   9
ATOM      9  O   UNL     1      40.945  -4.224  29.607  1.00  0.00    -0.394 OA
ATOM     10  H   UNL     1      39.990  -3.952  29.606  1.00  0.00     0.210 HD
ENDBRANCH   8   9
ENDBRANCH   3   8
BRANCH   4  11
ATOM     11  O   UNL     1      39.321  -6.281  30.350  1.00  0.00    -0.387 OA
ATOM     12  H   UNL     1      38.422  -6.586  30.639  1.00  0.00     0.211 HD
ENDBRANCH   4  11
BRANCH   6  13
ATOM     13  O   UNL     1      38.166  -8.785  29.443  1.00  0.00    -0.387 OA
ATOM     14  H   UNL     1      38.066  -9.557  28.828  1.00  0.00     0.211 HD
ENDBRANCH   6  13
BRANCH   7  15
ATOM     15  O   UNL     1      39.293  -9.125  26.963  1.00  0.00    -0.385 OA
ATOM     16  H   UNL     1      39.997  -9.076  27.661  1.00  0.00     0.211 HD
ENDBRANCH   7  15
ENDBRANCH   1   2
BRANCH   1  17
ATOM     17  C   UNL     1      38.416  -6.381  23.987  1.00  0.00     0.224 C 
ATOM     18  C   UNL     1      39.464  -5.376  23.436  1.00  0.00     0.208 C 
ATOM     19  O   UNL     1      37.852  -7.103  22.902  1.00  0.00    -0.337 OA
ATOM     20  C   UNL     1      39.573  -5.749  21.975  1.00  0.00     0.180 C 
ATOM     21  C   UNL     1      38.258  -6.480  21.705  1.00  0.00     0.179 C 
BRANCH  17  22
ATOM     22  C   UNL     1      37.266  -5.632  24.687  1.00  0.00     0.225 C 
BRANCH  22  23
ATOM     23  O   UNL     1      36.023  -6.184  24.339  1.00  0.00    -0.391 OA
ATOM     24  H   UNL     1      35.454  -6.156  25.152  1.00  0.00     0.210 HD
ENDBRANCH  22  23
ENDBRANCH  17  22
BRANCH  18  25
ATOM     25  O   UNL     1      40.713  -5.499  24.069  1.00  0.00    -0.385 OA
ATOM     26  H   UNL     1      40.756  -6.423  24.428  1.00  0.00     0.211 HD
ENDBRANCH  18  25
BRANCH  20  27
ATOM     27  O   UNL     1      39.751  -4.626  21.144  1.00  0.00    -0.387 OA
ATOM     28  H   UNL     1      39.663  -3.808  21.700  1.00  0.00     0.211 HD
ENDBRANCH  20  27
BRANCH  21  29
ATOM     29  C   UNL     1      38.390  -7.535  20.600  1.00  0.00     0.191 C 
BRANCH  29  30
ATOM     30  O   UNL     1      39.650  -7.458  19.989  1.00  0.00    -0.394 OA
ATOM     31  H   UNL     1      40.117  -6.679  20.390  1.00  0.00     0.210 HD
ENDBRANCH  29  30
ENDBRANCH  21  29
ENDBRANCH   1  17
TORSDOF 13
ENDMDL
