MODEL 1
REMARK VINA RESULT:    -4.936      0.000      0.000
REMARK INTER + INTRA:          -9.938
REMARK INTER:                  -8.110
REMARK INTRA:                  -1.827
REMARK UNBOUND:                -1.827
REMARK SMILES COc1ccc([C@H]2CC(=O)c3c(O)cc(O[C@@H]4O[C@H](CO[C@@H]5O[C@H](C)[C@H](O)[C@H](O)[C@H]5O)[C@@H](O)[C@H](O)[C@@H]4O)cc3O2)cc1O
REMARK SMILES IDX 19 1 32 2 34 3 36 4 17 5 18 6 20 7 21 8 22 9 25 10 24 11
REMARK SMILES IDX 26 12 23 13 28 14 30 15 27 16 29 18 31 20 33 22 35 24 16 26
REMARK SMILES IDX 15 27 14 28 38 29 12 30 39 31 11 32 40 33 9 34 7 35 10 36
REMARK SMILES IDX 8 37 13 38 6 40 41 41 5 42 42 43 4 44 3 45 43 46 2 48 1 49
REMARK SMILES IDX 37 50
REMARK H PARENT 27 17 29 19 31 21 33 23 35 25 13 39 43 47 37 51
REMARK Flexibility Score: inf
ROOT
ATOM      1  C   UNL     1      47.264  17.229  -5.059  1.00  0.00     0.180 C 
ATOM      2  C   UNL     1      46.869  15.864  -4.367  1.00  0.00     0.177 C 
ATOM      3  C   UNL     1      45.432  15.992  -3.617  1.00  0.00     0.180 C 
ATOM      4  C   UNL     1      44.392  17.001  -4.359  1.00  0.00     0.214 C 
ATOM      5  C   UNL     1      45.174  18.217  -4.967  1.00  0.00     0.339 C 
ATOM      6  O   UNL     1      46.163  17.686  -5.814  1.00  0.00    -0.332 OA
ENDROOT
BRANCH   1   7
ATOM      7  C   UNL     1      48.515  17.189  -5.987  1.00  0.00     0.198 C 
BRANCH   7   8
ATOM      8  O   UNL     1      49.645  16.784  -5.212  1.00  0.00    -0.347 OA
BRANCH   8   9
ATOM      9  C   UNL     1      50.313  15.759  -5.999  1.00  0.00     0.281 C 
ATOM     10  C   UNL     1      49.139  12.835  -4.541  1.00  0.00     0.041 C 
ATOM     11  C   UNL     1      49.939  13.334  -5.747  1.00  0.00     0.150 C 
ATOM     12  C   UNL     1      51.493  13.077  -5.682  1.00  0.00     0.174 C 
ATOM     13  O   UNL     1      49.467  14.633  -6.125  1.00  0.00    -0.344 OA
ATOM     14  C   UNL     1      52.288  14.308  -6.103  1.00  0.00     0.179 C 
ATOM     15  C   UNL     1      51.701  15.513  -5.398  1.00  0.00     0.202 C 
BRANCH  12  16
ATOM     16  O   UNL     1      51.914  12.644  -4.422  1.00  0.00    -0.388 OA
ATOM     17  H   UNL     1      51.520  11.755  -4.279  1.00  0.00     0.211 HD
ENDBRANCH  12  16
BRANCH  14  18
ATOM     18  O   UNL     1      53.656  14.195  -5.834  1.00  0.00    -0.387 OA
ATOM     19  H   UNL     1      53.770  14.505  -4.920  1.00  0.00     0.211 HD
ENDBRANCH  14  18
BRANCH  15  20
ATOM     20  O   UNL     1      52.480  16.641  -5.673  1.00  0.00    -0.385 OA
ATOM     21  H   UNL     1      52.151  17.366  -5.144  1.00  0.00     0.211 HD
ENDBRANCH  15  20
ENDBRANCH   8   9
ENDBRANCH   7   8
ENDBRANCH   1   7
BRANCH   2  22
ATOM     22  O   UNL     1      47.905  15.549  -3.488  1.00  0.00    -0.387 OA
ATOM     23  H   UNL     1      47.642  14.735  -2.960  1.00  0.00     0.211 HD
ENDBRANCH   2  22
BRANCH   3  24
ATOM     24  O   UNL     1      44.738  14.774  -3.444  1.00  0.00    -0.387 OA
ATOM     25  H   UNL     1      43.759  14.868  -3.726  1.00  0.00     0.211 HD
ENDBRANCH   3  24
BRANCH   5  26
ATOM     26  O   UNL     1      44.513  19.319  -5.644  1.00  0.00    -0.462 OA
BRANCH  26  27
ATOM     27  C   UNL     1      43.307  19.798  -5.010  1.00  0.00     0.130 A 
ATOM     28  C   UNL     1      43.428  20.551  -3.822  1.00  0.00     0.093 A 
ATOM     29  C   UNL     1      42.031  19.229  -5.315  1.00  0.00     0.094 A 
ATOM     30  C   UNL     1      42.563  20.283  -2.745  1.00  0.00     0.133 A 
ATOM     31  C   UNL     1      41.035  19.175  -4.316  1.00  0.00     0.138 A 
ATOM     32  C   UNL     1      41.312  19.675  -3.017  1.00  0.00     0.102 A 
ATOM     33  O   UNL     1      39.824  18.562  -4.574  1.00  0.00    -0.484 OA
ATOM     34  C   UNL     1      40.299  19.487  -1.946  1.00  0.00     0.174 C 
ATOM     35  C   UNL     1      38.875  18.181  -3.561  1.00  0.00     0.211 C 
ATOM     36  O   UNL     1      40.533  19.805  -0.755  1.00  0.00    -0.294 OA
ATOM     37  C   UNL     1      38.915  19.140  -2.325  1.00  0.00     0.131 C 
BRANCH  30  38
ATOM     38  O   UNL     1      42.996  20.574  -1.456  1.00  0.00    -0.507 OA
ATOM     39  H   UNL     1      43.993  20.629  -1.272  1.00  0.00     0.293 HD
ENDBRANCH  30  38
BRANCH  35  40
ATOM     40  C   UNL     1      38.964  16.666  -3.297  1.00  0.00    -0.003 A 
ATOM     41  C   UNL     1      39.177  15.678  -4.311  1.00  0.00     0.057 A 
ATOM     42  C   UNL     1      39.015  16.285  -1.965  1.00  0.00     0.011 A 
ATOM     43  C   UNL     1      39.321  14.327  -3.950  1.00  0.00     0.158 A 
ATOM     44  C   UNL     1      39.150  14.952  -1.628  1.00  0.00     0.051 A 
ATOM     45  C   UNL     1      39.300  13.969  -2.606  1.00  0.00     0.160 A 
BRANCH  43  46
ATOM     46  O   UNL     1      39.676  13.351  -4.889  1.00  0.00    -0.504 OA
ATOM     47  H   UNL     1      39.240  13.309  -5.801  1.00  0.00     0.293 HD
ENDBRANCH  43  46
BRANCH  45  48
ATOM     48  O   UNL     1      39.556  12.649  -2.194  1.00  0.00    -0.493 OA
ATOM     49  C   UNL     1      38.920  12.053  -1.069  1.00  0.00     0.278 C 
ENDBRANCH  45  48
ENDBRANCH  35  40
ENDBRANCH  26  27
ENDBRANCH   5  26
BRANCH   4  50
ATOM     50  O   UNL     1      43.681  16.306  -5.373  1.00  0.00    -0.384 OA
ATOM     51  H   UNL     1      44.368  15.960  -6.008  1.00  0.00     0.211 HD
ENDBRANCH   4  50
TORSDOF 15
ENDMDL
MODEL 2
REMARK VINA RESULT:    -4.657      2.640      6.386
REMARK INTER + INTRA:          -9.479
REMARK INTER:                  -6.818
REMARK INTRA:                  -2.662
REMARK UNBOUND:                -1.827
REMARK SMILES COc1ccc([C@H]2CC(=O)c3c(O)cc(O[C@@H]4O[C@H](CO[C@@H]5O[C@H](C)[C@H](O)[C@H](O)[C@H]5O)[C@@H](O)[C@H](O)[C@@H]4O)cc3O2)cc1O
REMARK SMILES IDX 19 1 32 2 34 3 36 4 17 5 18 6 20 7 21 8 22 9 25 10 24 11
REMARK SMILES IDX 26 12 23 13 28 14 30 15 27 16 29 18 31 20 33 22 35 24 16 26
REMARK SMILES IDX 15 27 14 28 38 29 12 30 39 31 11 32 40 33 9 34 7 35 10 36
REMARK SMILES IDX 8 37 13 38 6 40 41 41 5 42 42 43 4 44 3 45 43 46 2 48 1 49
REMARK SMILES IDX 37 50
REMARK H PARENT 27 17 29 19 31 21 33 23 35 25 13 39 43 47 37 51
REMARK Flexibility Score: inf
ROOT
ATOM      1  C   UNL     1      42.795  18.648  -4.823  1.00  0.00     0.180 C 
ATOM      2  C   UNL     1      42.947  20.207  -4.615  1.00  0.00     0.177 C 
ATOM      3  C   UNL     1      41.890  20.746  -3.504  1.00  0.00     0.180 C 
ATOM      4  C   UNL     1      41.573  19.671  -2.324  1.00  0.00     0.214 C 
ATOM      5  C   UNL     1      41.555  18.220  -2.919  1.00  0.00     0.339 C 
ATOM      6  O   UNL     1      42.792  18.023  -3.558  1.00  0.00    -0.332 OA
ENDROOT
BRANCH   1   7
ATOM      7  C   UNL     1      43.884  17.966  -5.706  1.00  0.00     0.198 C 
BRANCH   7   8
ATOM      8  O   UNL     1      45.141  18.064  -5.036  1.00  0.00    -0.347 OA
BRANCH   8   9
ATOM      9  C   UNL     1      45.786  16.773  -5.219  1.00  0.00     0.281 C 
ATOM     10  C   UNL     1      44.793  15.046  -2.376  1.00  0.00     0.041 C 
ATOM     11  C   UNL     1      45.498  14.837  -3.718  1.00  0.00     0.150 C 
ATOM     12  C   UNL     1      47.060  14.637  -3.638  1.00  0.00     0.174 C 
ATOM     13  O   UNL     1      44.966  15.753  -4.682  1.00  0.00    -0.344 OA
ATOM     14  C   UNL     1      47.791  15.461  -4.692  1.00  0.00     0.179 C 
ATOM     15  C   UNL     1      47.217  16.862  -4.677  1.00  0.00     0.202 C 
BRANCH  12  16
ATOM     16  O   UNL     1      47.574  14.918  -2.370  1.00  0.00    -0.388 OA
ATOM     17  H   UNL     1      46.826  14.850  -1.736  1.00  0.00     0.211 HD
ENDBRANCH  12  16
BRANCH  14  18
ATOM     18  O   UNL     1      49.176  15.491  -4.500  1.00  0.00    -0.387 OA
ATOM     19  H   UNL     1      49.535  14.792  -5.073  1.00  0.00     0.211 HD
ENDBRANCH  14  18
BRANCH  15  20
ATOM     20  O   UNL     1      47.944  17.676  -5.552  1.00  0.00    -0.385 OA
ATOM     21  H   UNL     1      47.915  18.570  -5.220  1.00  0.00     0.211 HD
ENDBRANCH  15  20
ENDBRANCH   8   9
ENDBRANCH   7   8
ENDBRANCH   1   7
BRANCH   2  22
ATOM     22  O   UNL     1      42.757  20.796  -5.866  1.00  0.00    -0.387 OA
ATOM     23  H   UNL     1      41.773  20.802  -6.071  1.00  0.00     0.211 HD
ENDBRANCH   2  22
BRANCH   3  24
ATOM     24  O   UNL     1      42.267  21.941  -2.851  1.00  0.00    -0.387 OA
ATOM     25  H   UNL     1      43.239  22.180  -3.060  1.00  0.00     0.211 HD
ENDBRANCH   3  24
BRANCH   5  26
ATOM     26  O   UNL     1      41.242  17.046  -2.122  1.00  0.00    -0.462 OA
BRANCH  26  27
ATOM     27  C   UNL     1      40.812  15.889  -2.871  1.00  0.00     0.130 A 
ATOM     28  C   UNL     1      39.728  15.133  -2.373  1.00  0.00     0.093 A 
ATOM     29  C   UNL     1      41.658  15.281  -3.851  1.00  0.00     0.094 A 
ATOM     30  C   UNL     1      39.808  13.727  -2.381  1.00  0.00     0.133 A 
ATOM     31  C   UNL     1      41.582  13.890  -4.071  1.00  0.00     0.138 A 
ATOM     32  C   UNL     1      40.676  13.105  -3.312  1.00  0.00     0.102 A 
ATOM     33  O   UNL     1      42.445  13.278  -4.961  1.00  0.00    -0.484 OA
ATOM     34  C   UNL     1      40.708  11.627  -3.463  1.00  0.00     0.174 C 
ATOM     35  C   UNL     1      42.663  11.857  -5.033  1.00  0.00     0.211 C 
ATOM     36  O   UNL     1      40.012  10.875  -2.738  1.00  0.00    -0.294 OA
ATOM     37  C   UNL     1      41.387  11.043  -4.637  1.00  0.00     0.131 C 
BRANCH  30  38
ATOM     38  O   UNL     1      39.074  13.016  -1.439  1.00  0.00    -0.507 OA
ATOM     39  H   UNL     1      38.672  12.121  -1.701  1.00  0.00     0.293 HD
ENDBRANCH  30  38
BRANCH  35  40
ATOM     40  C   UNL     1      43.990  11.491  -4.342  1.00  0.00    -0.003 A 
ATOM     41  C   UNL     1      45.246  11.359  -5.017  1.00  0.00     0.057 A 
ATOM     42  C   UNL     1      43.966  11.470  -2.956  1.00  0.00     0.011 A 
ATOM     43  C   UNL     1      46.412  11.099  -4.278  1.00  0.00     0.158 A 
ATOM     44  C   UNL     1      45.121  11.206  -2.245  1.00  0.00     0.051 A 
ATOM     45  C   UNL     1      46.343  11.017  -2.891  1.00  0.00     0.160 A 
BRANCH  43  46
ATOM     46  O   UNL     1      47.677  11.108  -4.877  1.00  0.00    -0.504 OA
ATOM     47  H   UNL     1      48.138  10.252  -5.158  1.00  0.00     0.293 HD
ENDBRANCH  43  46
BRANCH  45  48
ATOM     48  O   UNL     1      47.500  10.875  -2.105  1.00  0.00    -0.493 OA
ATOM     49  C   UNL     1      47.843  11.783  -1.063  1.00  0.00     0.278 C 
ENDBRANCH  45  48
ENDBRANCH  35  40
ENDBRANCH  26  27
ENDBRANCH   5  26
BRANCH   4  50
ATOM     50  O   UNL     1      42.546  19.777  -1.295  1.00  0.00    -0.384 OA
ATOM     51  H   UNL     1      43.350  19.284  -1.620  1.00  0.00     0.211 HD
ENDBRANCH   4  50
TORSDOF 15
ENDMDL
MODEL 3
REMARK VINA RESULT:    -4.456      1.707      9.737
REMARK INTER + INTRA:          -9.148
REMARK INTER:                  -6.939
REMARK INTRA:                  -2.209
REMARK UNBOUND:                -1.827
REMARK SMILES COc1ccc([C@H]2CC(=O)c3c(O)cc(O[C@@H]4O[C@H](CO[C@@H]5O[C@H](C)[C@H](O)[C@H](O)[C@H]5O)[C@@H](O)[C@H](O)[C@@H]4O)cc3O2)cc1O
REMARK SMILES IDX 19 1 32 2 34 3 36 4 17 5 18 6 20 7 21 8 22 9 25 10 24 11
REMARK SMILES IDX 26 12 23 13 28 14 30 15 27 16 29 18 31 20 33 22 35 24 16 26
REMARK SMILES IDX 15 27 14 28 38 29 12 30 39 31 11 32 40 33 9 34 7 35 10 36
REMARK SMILES IDX 8 37 13 38 6 40 41 41 5 42 42 43 4 44 3 45 43 46 2 48 1 49
REMARK SMILES IDX 37 50
REMARK H PARENT 27 17 29 19 31 21 33 23 35 25 13 39 43 47 37 51
REMARK Flexibility Score: inf
ROOT
ATOM      1  C   UNL     1      40.862  18.465  -4.477  1.00  0.00     0.180 C 
ATOM      2  C   UNL     1      40.423  19.787  -3.730  1.00  0.00     0.177 C 
ATOM      3  C   UNL     1      41.628  20.346  -2.792  1.00  0.00     0.180 C 
ATOM      4  C   UNL     1      43.113  20.059  -3.391  1.00  0.00     0.214 C 
ATOM      5  C   UNL     1      43.137  18.664  -4.108  1.00  0.00     0.339 C 
ATOM      6  O   UNL     1      42.120  18.685  -5.079  1.00  0.00    -0.332 OA
ENDROOT
BRANCH   1   7
ATOM      7  C   UNL     1      39.881  17.937  -5.567  1.00  0.00     0.198 C 
BRANCH   7   8
ATOM      8  O   UNL     1      39.121  16.862  -5.014  1.00  0.00    -0.347 OA
BRANCH   8   9
ATOM      9  C   UNL     1      40.014  16.187  -4.084  1.00  0.00     0.281 C 
ATOM     10  C   UNL     1      39.951  12.918  -5.249  1.00  0.00     0.041 C 
ATOM     11  C   UNL     1      40.685  13.820  -4.254  1.00  0.00     0.150 C 
ATOM     12  C   UNL     1      40.328  13.586  -2.737  1.00  0.00     0.174 C 
ATOM     13  O   UNL     1      40.713  15.160  -4.760  1.00  0.00    -0.344 OA
ATOM     14  C   UNL     1      40.105  14.901  -1.998  1.00  0.00     0.179 C 
ATOM     15  C   UNL     1      39.207  15.773  -2.849  1.00  0.00     0.202 C 
BRANCH  12  16
ATOM     16  O   UNL     1      39.222  12.748  -2.568  1.00  0.00    -0.388 OA
ATOM     17  H   UNL     1      39.476  12.070  -1.903  1.00  0.00     0.211 HD
ENDBRANCH  12  16
BRANCH  14  18
ATOM     18  O   UNL     1      39.560  14.726  -0.722  1.00  0.00    -0.387 OA
ATOM     19  H   UNL     1      39.372  13.775  -0.646  1.00  0.00     0.211 HD
ENDBRANCH  14  18
BRANCH  15  20
ATOM     20  O   UNL     1      38.888  16.941  -2.149  1.00  0.00    -0.385 OA
ATOM     21  H   UNL     1      38.159  17.366  -2.596  1.00  0.00     0.211 HD
ENDBRANCH  15  20
ENDBRANCH   8   9
ENDBRANCH   7   8
ENDBRANCH   1   7
BRANCH   2  22
ATOM     22  O   UNL     1      39.278  19.468  -2.998  1.00  0.00    -0.387 OA
ATOM     23  H   UNL     1      39.263  20.031  -2.165  1.00  0.00     0.211 HD
ENDBRANCH   2  22
BRANCH   3  24
ATOM     24  O   UNL     1      41.578  21.731  -2.518  1.00  0.00    -0.387 OA
ATOM     25  H   UNL     1      42.245  21.983  -1.786  1.00  0.00     0.211 HD
ENDBRANCH   3  24
BRANCH   5  26
ATOM     26  O   UNL     1      44.341  18.101  -4.695  1.00  0.00    -0.462 OA
BRANCH  26  27
ATOM     27  C   UNL     1      44.496  16.675  -4.534  1.00  0.00     0.130 A 
ATOM     28  C   UNL     1      44.329  16.123  -3.245  1.00  0.00     0.093 A 
ATOM     29  C   UNL     1      45.168  15.884  -5.518  1.00  0.00     0.094 A 
ATOM     30  C   UNL     1      45.241  15.155  -2.787  1.00  0.00     0.133 A 
ATOM     31  C   UNL     1      45.892  14.741  -5.118  1.00  0.00     0.138 A 
ATOM     32  C   UNL     1      45.955  14.392  -3.745  1.00  0.00     0.102 A 
ATOM     33  O   UNL     1      46.607  14.011  -6.048  1.00  0.00    -0.484 OA
ATOM     34  C   UNL     1      46.831  13.265  -3.331  1.00  0.00     0.174 C 
ATOM     35  C   UNL     1      47.609  13.033  -5.715  1.00  0.00     0.211 C 
ATOM     36  O   UNL     1      47.015  12.982  -2.122  1.00  0.00    -0.294 OA
ATOM     37  C   UNL     1      47.305  12.315  -4.358  1.00  0.00     0.131 C 
BRANCH  30  38
ATOM     38  O   UNL     1      45.443  15.027  -1.418  1.00  0.00    -0.507 OA
ATOM     39  H   UNL     1      45.195  14.154  -0.962  1.00  0.00     0.293 HD
ENDBRANCH  30  38
BRANCH  35  40
ATOM     40  C   UNL     1      49.016  13.629  -5.912  1.00  0.00    -0.003 A 
ATOM     41  C   UNL     1      49.322  15.026  -5.837  1.00  0.00     0.057 A 
ATOM     42  C   UNL     1      50.057  12.716  -5.987  1.00  0.00     0.011 A 
ATOM     43  C   UNL     1      50.654  15.456  -5.954  1.00  0.00     0.158 A 
ATOM     44  C   UNL     1      51.360  13.156  -6.108  1.00  0.00     0.051 A 
ATOM     45  C   UNL     1      51.670  14.516  -6.096  1.00  0.00     0.160 A 
BRANCH  43  46
ATOM     46  O   UNL     1      51.015  16.792  -5.740  1.00  0.00    -0.504 OA
ATOM     47  H   UNL     1      51.809  17.209  -6.210  1.00  0.00     0.293 HD
ENDBRANCH  43  46
BRANCH  45  48
ATOM     48  O   UNL     1      53.025  14.894  -6.098  1.00  0.00    -0.493 OA
ATOM     49  C   UNL     1      54.089  13.950  -6.046  1.00  0.00     0.278 C 
ENDBRANCH  45  48
ENDBRANCH  35  40
ENDBRANCH  26  27
ENDBRANCH   5  26
BRANCH   4  50
ATOM     50  O   UNL     1      43.480  21.092  -4.295  1.00  0.00    -0.384 OA
ATOM     51  H   UNL     1      42.816  21.825  -4.164  1.00  0.00     0.211 HD
ENDBRANCH   4  50
TORSDOF 15
ENDMDL
MODEL 4
REMARK VINA RESULT:    -3.636      2.361      4.364
REMARK INTER + INTRA:          -7.802
REMARK INTER:                  -6.684
REMARK INTRA:                  -1.118
REMARK UNBOUND:                -1.827
REMARK SMILES COc1ccc([C@H]2CC(=O)c3c(O)cc(O[C@@H]4O[C@H](CO[C@@H]5O[C@H](C)[C@H](O)[C@H](O)[C@H]5O)[C@@H](O)[C@H](O)[C@@H]4O)cc3O2)cc1O
REMARK SMILES IDX 19 1 32 2 34 3 36 4 17 5 18 6 20 7 21 8 22 9 25 10 24 11
REMARK SMILES IDX 26 12 23 13 28 14 30 15 27 16 29 18 31 20 33 22 35 24 16 26
REMARK SMILES IDX 15 27 14 28 38 29 12 30 39 31 11 32 40 33 9 34 7 35 10 36
REMARK SMILES IDX 8 37 13 38 6 40 41 41 5 42 42 43 4 44 3 45 43 46 2 48 1 49
REMARK SMILES IDX 37 50
REMARK H PARENT 27 17 29 19 31 21 33 23 35 25 13 39 43 47 37 51
REMARK Flexibility Score: inf
ROOT
ATOM      1  C   UNL     1      46.505  14.472  -3.250  1.00  0.00     0.180 C 
ATOM      2  C   UNL     1      46.791  13.506  -2.033  1.00  0.00     0.177 C 
ATOM      3  C   UNL     1      45.468  12.636  -1.665  1.00  0.00     0.180 C 
ATOM      4  C   UNL     1      44.544  12.270  -2.954  1.00  0.00     0.214 C 
ATOM      5  C   UNL     1      44.551  13.465  -3.969  1.00  0.00     0.339 C 
ATOM      6  O   UNL     1      45.896  13.728  -4.283  1.00  0.00    -0.332 OA
ENDROOT
BRANCH   1   7
ATOM      7  C   UNL     1      47.743  15.213  -3.841  1.00  0.00     0.198 C 
BRANCH   7   8
ATOM      8  O   UNL     1      47.496  15.482  -5.222  1.00  0.00    -0.347 OA
BRANCH   8   9
ATOM      9  C   UNL     1      48.672  15.002  -5.932  1.00  0.00     0.281 C 
ATOM     10  C   UNL     1      49.123  11.848  -4.552  1.00  0.00     0.041 C 
ATOM     11  C   UNL     1      49.631  12.742  -5.686  1.00  0.00     0.150 C 
ATOM     12  C   UNL     1      51.070  13.351  -5.476  1.00  0.00     0.174 C 
ATOM     13  O   UNL     1      48.572  13.604  -6.121  1.00  0.00    -0.344 OA
ATOM     14  C   UNL     1      51.117  14.831  -5.837  1.00  0.00     0.179 C 
ATOM     15  C   UNL     1      49.921  15.509  -5.204  1.00  0.00     0.202 C 
BRANCH  12  16
ATOM     16  O   UNL     1      51.550  13.160  -4.177  1.00  0.00    -0.388 OA
ATOM     17  H   UNL     1      52.195  12.418  -4.217  1.00  0.00     0.211 HD
ENDBRANCH  12  16
BRANCH  14  18
ATOM     18  O   UNL     1      52.306  15.453  -5.443  1.00  0.00    -0.387 OA
ATOM     19  H   UNL     1      52.409  16.219  -6.034  1.00  0.00     0.211 HD
ENDBRANCH  14  18
BRANCH  15  20
ATOM     20  O   UNL     1      49.996  16.889  -5.419  1.00  0.00    -0.385 OA
ATOM     21  H   UNL     1      50.114  17.039  -6.355  1.00  0.00     0.211 HD
ENDBRANCH  15  20
ENDBRANCH   8   9
ENDBRANCH   7   8
ENDBRANCH   1   7
BRANCH   2  22
ATOM     22  O   UNL     1      47.213  14.312  -0.975  1.00  0.00    -0.387 OA
ATOM     23  H   UNL     1      46.994  13.848  -0.111  1.00  0.00     0.211 HD
ENDBRANCH   2  22
BRANCH   3  24
ATOM     24  O   UNL     1      45.723  11.411  -1.008  1.00  0.00    -0.387 OA
ATOM     25  H   UNL     1      46.611  11.009  -1.316  1.00  0.00     0.211 HD
ENDBRANCH   3  24
BRANCH   5  26
ATOM     26  O   UNL     1      43.770  13.462  -5.194  1.00  0.00    -0.462 OA
BRANCH  26  27
ATOM     27  C   UNL     1      43.583  14.756  -5.809  1.00  0.00     0.130 A 
ATOM     28  C   UNL     1      44.728  15.520  -6.125  1.00  0.00     0.093 A 
ATOM     29  C   UNL     1      42.323  15.429  -5.755  1.00  0.00     0.094 A 
ATOM     30  C   UNL     1      44.740  16.896  -5.832  1.00  0.00     0.133 A 
ATOM     31  C   UNL     1      42.288  16.839  -5.719  1.00  0.00     0.138 A 
ATOM     32  C   UNL     1      43.501  17.575  -5.726  1.00  0.00     0.102 A 
ATOM     33  O   UNL     1      41.081  17.501  -5.591  1.00  0.00    -0.484 OA
ATOM     34  C   UNL     1      43.445  19.050  -5.551  1.00  0.00     0.174 C 
ATOM     35  C   UNL     1      40.951  18.891  -5.239  1.00  0.00     0.211 C 
ATOM     36  O   UNL     1      44.487  19.740  -5.436  1.00  0.00    -0.294 OA
ATOM     37  C   UNL     1      42.158  19.745  -5.753  1.00  0.00     0.131 C 
BRANCH  30  38
ATOM     38  O   UNL     1      45.963  17.516  -5.605  1.00  0.00    -0.507 OA
ATOM     39  H   UNL     1      46.772  16.945  -5.380  1.00  0.00     0.293 HD
ENDBRANCH  30  38
BRANCH  35  40
ATOM     40  C   UNL     1      40.557  19.025  -3.756  1.00  0.00    -0.003 A 
ATOM     41  C   UNL     1      41.446  18.797  -2.657  1.00  0.00     0.057 A 
ATOM     42  C   UNL     1      39.308  19.576  -3.508  1.00  0.00     0.011 A 
ATOM     43  C   UNL     1      41.004  19.026  -1.343  1.00  0.00     0.158 A 
ATOM     44  C   UNL     1      38.887  19.787  -2.210  1.00  0.00     0.051 A 
ATOM     45  C   UNL     1      39.721  19.515  -1.125  1.00  0.00     0.160 A 
BRANCH  43  46
ATOM     46  O   UNL     1      41.880  18.958  -0.253  1.00  0.00    -0.504 OA
ATOM     47  H   UNL     1      41.565  18.665   0.663  1.00  0.00     0.293 HD
ENDBRANCH  43  46
BRANCH  45  48
ATOM     48  O   UNL     1      39.278  19.868   0.163  1.00  0.00    -0.493 OA
ATOM     49  C   UNL     1      38.875  21.189   0.506  1.00  0.00     0.278 C 
ENDBRANCH  45  48
ENDBRANCH  35  40
ENDBRANCH  26  27
ENDBRANCH   5  26
BRANCH   4  50
ATOM     50  O   UNL     1      45.021  11.084  -3.573  1.00  0.00    -0.384 OA
ATOM     51  H   UNL     1      45.124  10.411  -2.845  1.00  0.00     0.211 HD
ENDBRANCH   4  50
TORSDOF 15
ENDMDL
MODEL 5
REMARK VINA RESULT:    -3.173      2.869      8.850
REMARK INTER + INTRA:          -7.041
REMARK INTER:                  -6.712
REMARK INTRA:                  -0.329
REMARK UNBOUND:                -1.827
REMARK SMILES COc1ccc([C@H]2CC(=O)c3c(O)cc(O[C@@H]4O[C@H](CO[C@@H]5O[C@H](C)[C@H](O)[C@H](O)[C@H]5O)[C@@H](O)[C@H](O)[C@@H]4O)cc3O2)cc1O
REMARK SMILES IDX 19 1 32 2 34 3 36 4 17 5 18 6 20 7 21 8 22 9 25 10 24 11
REMARK SMILES IDX 26 12 23 13 28 14 30 15 27 16 29 18 31 20 33 22 35 24 16 26
REMARK SMILES IDX 15 27 14 28 38 29 12 30 39 31 11 32 40 33 9 34 7 35 10 36
REMARK SMILES IDX 8 37 13 38 6 40 41 41 5 42 42 43 4 44 3 45 43 46 2 48 1 49
REMARK SMILES IDX 37 50
REMARK H PARENT 27 17 29 19 31 21 33 23 35 25 13 39 43 47 37 51
REMARK Flexibility Score: inf
ROOT
ATOM      1  C   UNL     1      41.223  18.603  -5.182  1.00  0.00     0.180 C 
ATOM      2  C   UNL     1      41.111  20.048  -5.811  1.00  0.00     0.177 C 
ATOM      3  C   UNL     1      42.243  21.036  -5.189  1.00  0.00     0.180 C 
ATOM      4  C   UNL     1      43.637  20.283  -4.814  1.00  0.00     0.214 C 
ATOM      5  C   UNL     1      43.333  18.846  -4.266  1.00  0.00     0.339 C 
ATOM      6  O   UNL     1      42.570  18.186  -5.246  1.00  0.00    -0.332 OA
ENDROOT
BRANCH   1   7
ATOM      7  C   UNL     1      40.335  17.501  -5.836  1.00  0.00     0.198 C 
BRANCH   7   8
ATOM      8  O   UNL     1      39.011  17.612  -5.313  1.00  0.00    -0.347 OA
BRANCH   8   9
ATOM      9  C   UNL     1      38.909  16.592  -4.281  1.00  0.00     0.281 C 
ATOM     10  C   UNL     1      40.878  17.915  -1.746  1.00  0.00     0.041 C 
ATOM     11  C   UNL     1      39.895  16.776  -2.027  1.00  0.00     0.150 C 
ATOM     12  C   UNL     1      40.539  15.344  -2.167  1.00  0.00     0.174 C 
ATOM     13  O   UNL     1      38.940  17.204  -3.006  1.00  0.00    -0.344 OA
ATOM     14  C   UNL     1      39.974  14.583  -3.362  1.00  0.00     0.179 C 
ATOM     15  C   UNL     1      39.965  15.516  -4.554  1.00  0.00     0.202 C 
BRANCH  12  16
ATOM     16  O   UNL     1      41.934  15.387  -2.244  1.00  0.00    -0.388 OA
ATOM     17  H   UNL     1      42.231  14.498  -2.541  1.00  0.00     0.211 HD
ENDBRANCH  12  16
BRANCH  14  18
ATOM     18  O   UNL     1      40.686  13.415  -3.653  1.00  0.00    -0.387 OA
ATOM     19  H   UNL     1      41.545  13.710  -3.998  1.00  0.00     0.211 HD
ENDBRANCH  14  18
BRANCH  15  20
ATOM     20  O   UNL     1      39.561  14.815  -5.694  1.00  0.00    -0.385 OA
ATOM     21  H   UNL     1      39.712  15.372  -6.455  1.00  0.00     0.211 HD
ENDBRANCH  15  20
ENDBRANCH   8   9
ENDBRANCH   7   8
ENDBRANCH   1   7
BRANCH   2  22
ATOM     22  O   UNL     1      39.813  20.494  -5.556  1.00  0.00    -0.387 OA
ATOM     23  H   UNL     1      39.578  20.272  -4.605  1.00  0.00     0.211 HD
ENDBRANCH   2  22
BRANCH   3  24
ATOM     24  O   UNL     1      42.599  22.128  -6.012  1.00  0.00    -0.387 OA
ATOM     25  H   UNL     1      42.725  21.829  -6.982  1.00  0.00     0.211 HD
ENDBRANCH   3  24
BRANCH   5  26
ATOM     26  O   UNL     1      44.372  17.948  -3.792  1.00  0.00    -0.462 OA
BRANCH  26  27
ATOM     27  C   UNL     1      44.737  16.890  -4.705  1.00  0.00     0.130 A 
ATOM     28  C   UNL     1      43.721  16.303  -5.491  1.00  0.00     0.093 A 
ATOM     29  C   UNL     1      45.970  16.180  -4.565  1.00  0.00     0.094 A 
ATOM     30  C   UNL     1      43.684  14.904  -5.634  1.00  0.00     0.133 A 
ATOM     31  C   UNL     1      46.039  14.823  -4.945  1.00  0.00     0.138 A 
ATOM     32  C   UNL     1      44.884  14.173  -5.453  1.00  0.00     0.102 A 
ATOM     33  O   UNL     1      47.202  14.103  -4.746  1.00  0.00    -0.484 OA
ATOM     34  C   UNL     1      44.943  12.712  -5.720  1.00  0.00     0.174 C 
ATOM     35  C   UNL     1      47.289  12.668  -4.806  1.00  0.00     0.211 C 
ATOM     36  O   UNL     1      43.924  12.063  -6.060  1.00  0.00    -0.294 OA
ATOM     37  C   UNL     1      46.262  12.056  -5.816  1.00  0.00     0.131 C 
BRANCH  30  38
ATOM     38  O   UNL     1      42.461  14.295  -5.893  1.00  0.00    -0.507 OA
ATOM     39  H   UNL     1      41.681  14.470  -5.267  1.00  0.00     0.293 HD
ENDBRANCH  30  38
BRANCH  35  40
ATOM     40  C   UNL     1      47.331  12.081  -3.382  1.00  0.00    -0.003 A 
ATOM     41  C   UNL     1      48.533  11.749  -2.677  1.00  0.00     0.057 A 
ATOM     42  C   UNL     1      46.123  12.053  -2.702  1.00  0.00     0.011 A 
ATOM     43  C   UNL     1      48.460  11.294  -1.350  1.00  0.00     0.158 A 
ATOM     44  C   UNL     1      46.069  11.596  -1.400  1.00  0.00     0.051 A 
ATOM     45  C   UNL     1      47.224  11.213  -0.718  1.00  0.00     0.160 A 
BRANCH  43  46
ATOM     46  O   UNL     1      49.612  11.099  -0.578  1.00  0.00    -0.504 OA
ATOM     47  H   UNL     1      50.350  10.473  -0.874  1.00  0.00     0.293 HD
ENDBRANCH  43  46
BRANCH  45  48
ATOM     48  O   UNL     1      47.116  10.875   0.643  1.00  0.00    -0.493 OA
ATOM     49  C   UNL     1      45.876  10.875   1.343  1.00  0.00     0.278 C 
ENDBRANCH  45  48
ENDBRANCH  35  40
ENDBRANCH  26  27
ENDBRANCH   5  26
BRANCH   4  50
ATOM     50  O   UNL     1      44.475  20.215  -5.959  1.00  0.00    -0.384 OA
ATOM     51  H   UNL     1      43.981  20.673  -6.694  1.00  0.00     0.211 HD
ENDBRANCH   4  50
TORSDOF 15
ENDMDL
MODEL 6
REMARK VINA RESULT:    -2.433      2.451      8.605
REMARK INTER + INTRA:          -5.825
REMARK INTER:                  -4.912
REMARK INTRA:                  -0.913
REMARK UNBOUND:                -1.827
REMARK SMILES COc1ccc([C@H]2CC(=O)c3c(O)cc(O[C@@H]4O[C@H](CO[C@@H]5O[C@H](C)[C@H](O)[C@H](O)[C@H]5O)[C@@H](O)[C@H](O)[C@@H]4O)cc3O2)cc1O
REMARK SMILES IDX 19 1 32 2 34 3 36 4 17 5 18 6 20 7 21 8 22 9 25 10 24 11
REMARK SMILES IDX 26 12 23 13 28 14 30 15 27 16 29 18 31 20 33 22 35 24 16 26
REMARK SMILES IDX 15 27 14 28 38 29 12 30 39 31 11 32 40 33 9 34 7 35 10 36
REMARK SMILES IDX 8 37 13 38 6 40 41 41 5 42 42 43 4 44 3 45 43 46 2 48 1 49
REMARK SMILES IDX 37 50
REMARK H PARENT 27 17 29 19 31 21 33 23 35 25 13 39 43 47 37 51
REMARK Flexibility Score: inf
ROOT
ATOM      1  C   UNL     1      39.827  19.080  -3.229  1.00  0.00     0.180 C 
ATOM      2  C   UNL     1      40.932  18.975  -2.104  1.00  0.00     0.177 C 
ATOM      3  C   UNL     1      40.973  17.476  -1.474  1.00  0.00     0.180 C 
ATOM      4  C   UNL     1      40.613  16.304  -2.546  1.00  0.00     0.214 C 
ATOM      5  C   UNL     1      39.504  16.809  -3.533  1.00  0.00     0.339 C 
ATOM      6  O   UNL     1      39.984  17.995  -4.117  1.00  0.00    -0.332 OA
ENDROOT
BRANCH   1   7
ATOM      7  C   UNL     1      39.819  20.398  -4.060  1.00  0.00     0.198 C 
BRANCH   7   8
ATOM      8  O   UNL     1      39.614  20.070  -5.434  1.00  0.00    -0.347 OA
BRANCH   8   9
ATOM      9  C   UNL     1      40.822  20.496  -6.124  1.00  0.00     0.281 C 
ATOM     10  C   UNL     1      43.305  18.857  -4.336  1.00  0.00     0.041 C 
ATOM     11  C   UNL     1      43.092  19.682  -5.607  1.00  0.00     0.150 C 
ATOM     12  C   UNL     1      43.636  21.160  -5.555  1.00  0.00     0.174 C 
ATOM     13  O   UNL     1      41.771  19.448  -6.109  1.00  0.00    -0.344 OA
ATOM     14  C   UNL     1      42.630  22.154  -6.124  1.00  0.00     0.179 C 
ATOM     15  C   UNL     1      41.271  21.838  -5.536  1.00  0.00     0.202 C 
BRANCH  12  16
ATOM     16  O   UNL     1      44.016  21.548  -4.267  1.00  0.00    -0.388 OA
ATOM     17  H   UNL     1      44.506  20.793  -3.873  1.00  0.00     0.211 HD
ENDBRANCH  12  16
BRANCH  14  18
ATOM     18  O   UNL     1      42.978  23.487  -5.879  1.00  0.00    -0.387 OA
ATOM     19  H   UNL     1      42.198  24.011  -6.130  1.00  0.00     0.211 HD
ENDBRANCH  14  18
BRANCH  15  20
ATOM     20  O   UNL     1      40.346  22.803  -5.948  1.00  0.00    -0.385 OA
ATOM     21  H   UNL     1      39.478  22.405  -5.946  1.00  0.00     0.211 HD
ENDBRANCH  15  20
ENDBRANCH   8   9
ENDBRANCH   7   8
ENDBRANCH   1   7
BRANCH   2  22
ATOM     22  O   UNL     1      40.624  19.947  -1.151  1.00  0.00    -0.387 OA
ATOM     23  H   UNL     1      40.574  20.840  -1.610  1.00  0.00     0.211 HD
ENDBRANCH   2  22
BRANCH   3  24
ATOM     24  O   UNL     1      42.206  17.106  -0.892  1.00  0.00    -0.387 OA
ATOM     25  H   UNL     1      42.961  17.146  -1.580  1.00  0.00     0.211 HD
ENDBRANCH   3  24
BRANCH   5  26
ATOM     26  O   UNL     1      38.930  15.969  -4.569  1.00  0.00    -0.462 OA
BRANCH  26  27
ATOM     27  C   UNL     1      39.409  14.607  -4.594  1.00  0.00     0.130 A 
ATOM     28  C   UNL     1      39.012  13.737  -3.554  1.00  0.00     0.093 A 
ATOM     29  C   UNL     1      40.538  14.230  -5.386  1.00  0.00     0.094 A 
ATOM     30  C   UNL     1      39.966  12.889  -2.962  1.00  0.00     0.133 A 
ATOM     31  C   UNL     1      41.386  13.192  -4.943  1.00  0.00     0.138 A 
ATOM     32  C   UNL     1      41.117  12.541  -3.712  1.00  0.00     0.102 A 
ATOM     33  O   UNL     1      42.521  12.868  -5.661  1.00  0.00    -0.484 OA
ATOM     34  C   UNL     1      42.096  11.546  -3.199  1.00  0.00     0.174 C 
ATOM     35  C   UNL     1      43.599  12.060  -5.153  1.00  0.00     0.211 C 
ATOM     36  O   UNL     1      41.970  11.022  -2.066  1.00  0.00    -0.294 OA
ATOM     37  C   UNL     1      43.100  10.989  -4.127  1.00  0.00     0.131 C 
BRANCH  30  38
ATOM     38  O   UNL     1      39.765  12.477  -1.650  1.00  0.00    -0.507 OA
ATOM     39  H   UNL     1      39.571  13.174  -0.938  1.00  0.00     0.293 HD
ENDBRANCH  30  38
BRANCH  35  40
ATOM     40  C   UNL     1      44.781  12.956  -4.738  1.00  0.00    -0.003 A 
ATOM     41  C   UNL     1      44.647  14.266  -4.176  1.00  0.00     0.057 A 
ATOM     42  C   UNL     1      46.031  12.356  -4.755  1.00  0.00     0.011 A 
ATOM     43  C   UNL     1      45.791  14.967  -3.758  1.00  0.00     0.158 A 
ATOM     44  C   UNL     1      47.146  13.062  -4.347  1.00  0.00     0.051 A 
ATOM     45  C   UNL     1      47.040  14.362  -3.852  1.00  0.00     0.160 A 
BRANCH  43  46
ATOM     46  O   UNL     1      45.695  16.183  -3.072  1.00  0.00    -0.504 OA
ATOM     47  H   UNL     1      46.518  16.685  -2.763  1.00  0.00     0.293 HD
ENDBRANCH  43  46
BRANCH  45  48
ATOM     48  O   UNL     1      48.195  14.979  -3.339  1.00  0.00    -0.493 OA
ATOM     49  C   UNL     1      49.408  15.083  -4.076  1.00  0.00     0.278 C 
ENDBRANCH  45  48
ENDBRANCH  35  40
ENDBRANCH  26  27
ENDBRANCH   5  26
BRANCH   4  50
ATOM     50  O   UNL     1      41.781  15.922  -3.258  1.00  0.00    -0.384 OA
ATOM     51  H   UNL     1      41.474  15.637  -4.164  1.00  0.00     0.211 HD
ENDBRANCH   4  50
TORSDOF 15
ENDMDL
MODEL 7
REMARK VINA RESULT:    -2.427      1.905      9.408
REMARK INTER + INTRA:          -5.816
REMARK INTER:                  -4.158
REMARK INTRA:                  -1.658
REMARK UNBOUND:                -1.827
REMARK SMILES COc1ccc([C@H]2CC(=O)c3c(O)cc(O[C@@H]4O[C@H](CO[C@@H]5O[C@H](C)[C@H](O)[C@H](O)[C@H]5O)[C@@H](O)[C@H](O)[C@@H]4O)cc3O2)cc1O
REMARK SMILES IDX 19 1 32 2 34 3 36 4 17 5 18 6 20 7 21 8 22 9 25 10 24 11
REMARK SMILES IDX 26 12 23 13 28 14 30 15 27 16 29 18 31 20 33 22 35 24 16 26
REMARK SMILES IDX 15 27 14 28 38 29 12 30 39 31 11 32 40 33 9 34 7 35 10 36
REMARK SMILES IDX 8 37 13 38 6 40 41 41 5 42 42 43 4 44 3 45 43 46 2 48 1 49
REMARK SMILES IDX 37 50
REMARK H PARENT 27 17 29 19 31 21 33 23 35 25 13 39 43 47 37 51
REMARK Flexibility Score: inf
ROOT
ATOM      1  C   UNL     1      40.583  18.196  -1.793  1.00  0.00     0.180 C 
ATOM      2  C   UNL     1      40.048  19.669  -1.593  1.00  0.00     0.177 C 
ATOM      3  C   UNL     1      41.171  20.598  -0.874  1.00  0.00     0.180 C 
ATOM      4  C   UNL     1      42.700  20.203  -1.269  1.00  0.00     0.214 C 
ATOM      5  C   UNL     1      42.823  18.648  -1.430  1.00  0.00     0.339 C 
ATOM      6  O   UNL     1      41.864  18.259  -2.383  1.00  0.00    -0.332 OA
ENDROOT
BRANCH   1   7
ATOM      7  C   UNL     1      39.691  17.254  -2.657  1.00  0.00     0.198 C 
BRANCH   7   8
ATOM      8  O   UNL     1      40.425  16.869  -3.819  1.00  0.00    -0.347 OA
BRANCH   8   9
ATOM      9  C   UNL     1      39.872  15.587  -4.226  1.00  0.00     0.281 C 
ATOM     10  C   UNL     1      39.193  14.080  -1.174  1.00  0.00     0.041 C 
ATOM     11  C   UNL     1      38.961  13.898  -2.675  1.00  0.00     0.150 C 
ATOM     12  C   UNL     1      39.822  12.770  -3.361  1.00  0.00     0.174 C 
ATOM     13  O   UNL     1      38.880  15.184  -3.302  1.00  0.00    -0.344 OA
ATOM     14  C   UNL     1      40.424  13.240  -4.681  1.00  0.00     0.179 C 
ATOM     15  C   UNL     1      41.029  14.610  -4.461  1.00  0.00     0.202 C 
BRANCH  12  16
ATOM     16  O   UNL     1      40.828  12.277  -2.526  1.00  0.00    -0.388 OA
ATOM     17  H   UNL     1      41.344  13.053  -2.212  1.00  0.00     0.211 HD
ENDBRANCH  12  16
BRANCH  14  18
ATOM     18  O   UNL     1      41.376  12.354  -5.195  1.00  0.00    -0.387 OA
ATOM     19  H   UNL     1      40.975  11.471  -5.130  1.00  0.00     0.211 HD
ENDBRANCH  14  18
BRANCH  15  20
ATOM     20  O   UNL     1      41.692  15.022  -5.623  1.00  0.00    -0.385 OA
ATOM     21  H   UNL     1      41.632  15.973  -5.678  1.00  0.00     0.211 HD
ENDBRANCH  15  20
ENDBRANCH   8   9
ENDBRANCH   7   8
ENDBRANCH   1   7
BRANCH   2  22
ATOM     22  O   UNL     1      38.876  19.568  -0.843  1.00  0.00    -0.387 OA
ATOM     23  H   UNL     1      38.952  18.773  -0.233  1.00  0.00     0.211 HD
ENDBRANCH   2  22
BRANCH   3  24
ATOM     24  O   UNL     1      41.050  21.984  -1.123  1.00  0.00    -0.387 OA
ATOM     25  H   UNL     1      41.900  22.480  -0.849  1.00  0.00     0.211 HD
ENDBRANCH   3  24
BRANCH   5  26
ATOM     26  O   UNL     1      44.080  17.984  -1.724  1.00  0.00    -0.462 OA
BRANCH  26  27
ATOM     27  C   UNL     1      44.015  16.963  -2.743  1.00  0.00     0.130 A 
ATOM     28  C   UNL     1      43.446  15.715  -2.407  1.00  0.00     0.093 A 
ATOM     29  C   UNL     1      44.825  17.033  -3.920  1.00  0.00     0.094 A 
ATOM     30  C   UNL     1      44.080  14.532  -2.830  1.00  0.00     0.133 A 
ATOM     31  C   UNL     1      45.273  15.842  -4.530  1.00  0.00     0.138 A 
ATOM     32  C   UNL     1      44.926  14.588  -3.965  1.00  0.00     0.102 A 
ATOM     33  O   UNL     1      46.117  15.896  -5.622  1.00  0.00    -0.484 OA
ATOM     34  C   UNL     1      45.518  13.354  -4.543  1.00  0.00     0.174 C 
ATOM     35  C   UNL     1      46.869  14.776  -6.123  1.00  0.00     0.211 C 
ATOM     36  O   UNL     1      45.339  12.228  -4.018  1.00  0.00    -0.294 OA
ATOM     37  C   UNL     1      46.131  13.416  -5.885  1.00  0.00     0.131 C 
BRANCH  30  38
ATOM     38  O   UNL     1      43.893  13.375  -2.083  1.00  0.00    -0.507 OA
ATOM     39  H   UNL     1      44.502  13.195  -1.292  1.00  0.00     0.293 HD
ENDBRANCH  30  38
BRANCH  35  40
ATOM     40  C   UNL     1      48.339  14.882  -5.672  1.00  0.00    -0.003 A 
ATOM     41  C   UNL     1      49.139  13.773  -5.247  1.00  0.00     0.057 A 
ATOM     42  C   UNL     1      48.947  16.112  -5.873  1.00  0.00     0.011 A 
ATOM     43  C   UNL     1      50.494  13.970  -4.932  1.00  0.00     0.158 A 
ATOM     44  C   UNL     1      50.279  16.289  -5.552  1.00  0.00     0.051 A 
ATOM     45  C   UNL     1      51.057  15.233  -5.081  1.00  0.00     0.160 A 
BRANCH  43  46
ATOM     46  O   UNL     1      51.345  12.894  -4.655  1.00  0.00    -0.504 OA
ATOM     47  H   UNL     1      51.032  12.092  -4.123  1.00  0.00     0.293 HD
ENDBRANCH  43  46
BRANCH  45  48
ATOM     48  O   UNL     1      52.434  15.450  -4.890  1.00  0.00    -0.493 OA
ATOM     49  C   UNL     1      53.417  15.054  -5.840  1.00  0.00     0.278 C 
ENDBRANCH  45  48
ENDBRANCH  35  40
ENDBRANCH  26  27
ENDBRANCH   5  26
BRANCH   4  50
ATOM     50  O   UNL     1      43.077  20.862  -2.469  1.00  0.00    -0.384 OA
ATOM     51  H   UNL     1      42.230  21.068  -2.953  1.00  0.00     0.211 HD
ENDBRANCH   4  50
TORSDOF 15
ENDMDL
MODEL 8
REMARK VINA RESULT:    -1.966      2.646      6.324
REMARK INTER + INTRA:          -5.057
REMARK INTER:                  -5.376
REMARK INTRA:                   0.319
REMARK UNBOUND:                -1.827
REMARK SMILES COc1ccc([C@H]2CC(=O)c3c(O)cc(O[C@@H]4O[C@H](CO[C@@H]5O[C@H](C)[C@H](O)[C@H](O)[C@H]5O)[C@@H](O)[C@H](O)[C@@H]4O)cc3O2)cc1O
REMARK SMILES IDX 19 1 32 2 34 3 36 4 17 5 18 6 20 7 21 8 22 9 25 10 24 11
REMARK SMILES IDX 26 12 23 13 28 14 30 15 27 16 29 18 31 20 33 22 35 24 16 26
REMARK SMILES IDX 15 27 14 28 38 29 12 30 39 31 11 32 40 33 9 34 7 35 10 36
REMARK SMILES IDX 8 37 13 38 6 40 41 41 5 42 42 43 4 44 3 45 43 46 2 48 1 49
REMARK SMILES IDX 37 50
REMARK H PARENT 27 17 29 19 31 21 33 23 35 25 13 39 43 47 37 51
REMARK Flexibility Score: inf
ROOT
ATOM      1  C   UNL     1      42.510  18.449  -3.282  1.00  0.00     0.180 C 
ATOM      2  C   UNL     1      41.621  19.318  -2.306  1.00  0.00     0.177 C 
ATOM      3  C   UNL     1      40.230  19.752  -3.028  1.00  0.00     0.180 C 
ATOM      4  C   UNL     1      39.661  18.645  -4.077  1.00  0.00     0.214 C 
ATOM      5  C   UNL     1      40.857  17.957  -4.823  1.00  0.00     0.339 C 
ATOM      6  O   UNL     1      41.707  17.429  -3.836  1.00  0.00    -0.332 OA
ENDROOT
BRANCH   1   7
ATOM      7  C   UNL     1      43.775  17.792  -2.652  1.00  0.00     0.198 C 
BRANCH   7   8
ATOM      8  O   UNL     1      43.949  16.496  -3.226  1.00  0.00    -0.347 OA
BRANCH   8   9
ATOM      9  C   UNL     1      45.374  16.217  -3.143  1.00  0.00     0.281 C 
ATOM     10  C   UNL     1      46.555  17.554  -6.122  1.00  0.00     0.041 C 
ATOM     11  C   UNL     1      47.045  16.964  -4.798  1.00  0.00     0.150 C 
ATOM     12  C   UNL     1      47.643  15.509  -4.885  1.00  0.00     0.174 C 
ATOM     13  O   UNL     1      46.097  17.262  -3.766  1.00  0.00    -0.344 OA
ATOM     14  C   UNL     1      47.124  14.615  -3.764  1.00  0.00     0.179 C 
ATOM     15  C   UNL     1      45.625  14.800  -3.669  1.00  0.00     0.202 C 
BRANCH  12  16
ATOM     16  O   UNL     1      47.411  14.905  -6.124  1.00  0.00    -0.388 OA
ATOM     17  H   UNL     1      46.482  15.108  -6.371  1.00  0.00     0.211 HD
ENDBRANCH  12  16
BRANCH  14  18
ATOM     18  O   UNL     1      47.446  13.266  -3.946  1.00  0.00    -0.387 OA
ATOM     19  H   UNL     1      46.883  12.958  -4.676  1.00  0.00     0.211 HD
ENDBRANCH  14  18
BRANCH  15  20
ATOM     20  O   UNL     1      45.101  13.908  -2.728  1.00  0.00    -0.385 OA
ATOM     21  H   UNL     1      44.150  13.996  -2.731  1.00  0.00     0.211 HD
ENDBRANCH  15  20
ENDBRANCH   8   9
ENDBRANCH   7   8
ENDBRANCH   1   7
BRANCH   2  22
ATOM     22  O   UNL     1      42.396  20.417  -1.933  1.00  0.00    -0.387 OA
ATOM     23  H   UNL     1      42.825  20.220  -1.046  1.00  0.00     0.211 HD
ENDBRANCH   2  22
BRANCH   3  24
ATOM     24  O   UNL     1      39.163  20.037  -2.146  1.00  0.00    -0.387 OA
ATOM     25  H   UNL     1      38.444  20.596  -2.611  1.00  0.00     0.211 HD
ENDBRANCH   3  24
BRANCH   5  26
ATOM     26  O   UNL     1      40.667  16.964  -5.866  1.00  0.00    -0.462 OA
BRANCH  26  27
ATOM     27  C   UNL     1      40.015  15.746  -5.445  1.00  0.00     0.130 A 
ATOM     28  C   UNL     1      39.166  15.795  -4.318  1.00  0.00     0.093 A 
ATOM     29  C   UNL     1      40.483  14.465  -5.876  1.00  0.00     0.094 A 
ATOM     30  C   UNL     1      39.245  14.774  -3.352  1.00  0.00     0.133 A 
ATOM     31  C   UNL     1      40.343  13.350  -5.023  1.00  0.00     0.138 A 
ATOM     32  C   UNL     1      39.751  13.510  -3.744  1.00  0.00     0.102 A 
ATOM     33  O   UNL     1      40.858  12.122  -5.395  1.00  0.00    -0.484 OA
ATOM     34  C   UNL     1      39.736  12.353  -2.811  1.00  0.00     0.174 C 
ATOM     35  C   UNL     1      41.045  11.014  -4.495  1.00  0.00     0.211 C 
ATOM     36  O   UNL     1      39.329  12.465  -1.629  1.00  0.00    -0.294 OA
ATOM     37  C   UNL     1      39.981  10.999  -3.348  1.00  0.00     0.131 C 
BRANCH  30  38
ATOM     38  O   UNL     1      38.875  15.067  -2.045  1.00  0.00    -0.507 OA
ATOM     39  H   UNL     1      37.921  14.887  -1.750  1.00  0.00     0.293 HD
ENDBRANCH  30  38
BRANCH  35  40
ATOM     40  C   UNL     1      42.529  10.902  -4.098  1.00  0.00    -0.003 A 
ATOM     41  C   UNL     1      43.622  10.969  -5.020  1.00  0.00     0.057 A 
ATOM     42  C   UNL     1      42.796  10.916  -2.737  1.00  0.00     0.011 A 
ATOM     43  C   UNL     1      44.943  10.934  -4.541  1.00  0.00     0.158 A 
ATOM     44  C   UNL     1      44.100  10.875  -2.284  1.00  0.00     0.051 A 
ATOM     45  C   UNL     1      45.176  10.881  -3.171  1.00  0.00     0.160 A 
BRANCH  43  46
ATOM     46  O   UNL     1      46.036  11.145  -5.390  1.00  0.00    -0.504 OA
ATOM     47  H   UNL     1      46.061  11.918  -6.043  1.00  0.00     0.293 HD
ENDBRANCH  43  46
BRANCH  45  48
ATOM     48  O   UNL     1      46.477  10.963  -2.644  1.00  0.00    -0.493 OA
ATOM     49  C   UNL     1      46.741  11.305  -1.288  1.00  0.00     0.278 C 
ENDBRANCH  45  48
ENDBRANCH  35  40
ENDBRANCH  26  27
ENDBRANCH   5  26
BRANCH   4  50
ATOM     50  O   UNL     1      38.879  17.680  -3.389  1.00  0.00    -0.384 OA
ATOM     51  H   UNL     1      38.917  16.848  -3.937  1.00  0.00     0.211 HD
ENDBRANCH   4  50
TORSDOF 15
ENDMDL
