MODEL 1
REMARK VINA RESULT:    -3.607      0.000      0.000
REMARK INTER + INTRA:          -9.606
REMARK INTER:                  -6.981
REMARK INTRA:                  -2.625
REMARK UNBOUND:                -2.625
REMARK SMILES CCCCCCCCCCCCCCCCCC(=O)[O-]
REMARK SMILES IDX 10 1 11 2 12 3 13 4 14 5 15 6 16 7 17 8 18 9 19 10 20 11
REMARK SMILES IDX 9 12 8 13 7 14 6 15 5 16 4 17 3 18 2 19 1 20
REMARK H PARENT
REMARK Flexibility Score: inf
ROOT
ATOM      1  C   UNL     1      15.950  15.912  29.407  1.00  0.00     0.000 C 
ENDROOT
BRANCH   1   2
ATOM      2  C   UNL     1      16.338  15.484  27.983  1.00  0.00     0.000 C 
BRANCH   2   3
ATOM      3  C   UNL     1      15.237  14.671  27.279  1.00  0.00     0.000 C 
BRANCH   3   4
ATOM      4  C   UNL     1      15.173  13.183  27.671  1.00  0.00     0.000 C 
BRANCH   4   5
ATOM      5  C   UNL     1      14.005  12.865  28.621  1.00  0.00     0.000 C 
BRANCH   5   6
ATOM      6  C   UNL     1      12.686  13.519  28.177  1.00  0.00     0.000 C 
BRANCH   6   7
ATOM      7  C   UNL     1      12.148  14.526  29.207  1.00  0.00     0.006 C 
BRANCH   7   8
ATOM      8  C   UNL     1      12.698  14.226  30.605  1.00  0.00     0.053 C 
BRANCH   8   9
ATOM      9  C   UNL     1      11.617  14.361  31.631  1.00  0.00     0.041 C 
ATOM     10  O   UNL     1      10.670  15.172  31.450  1.00  0.00    -0.550 OA
ATOM     11  O   UNL     1      11.685  13.634  32.813  1.00  0.00    -0.550 OA
ENDBRANCH   8   9
ENDBRANCH   7   8
ENDBRANCH   6   7
ENDBRANCH   5   6
ENDBRANCH   4   5
ENDBRANCH   3   4
ENDBRANCH   2   3
ENDBRANCH   1   2
BRANCH   1  12
ATOM     12  C   UNL     1      16.954  15.371  30.435  1.00  0.00     0.000 C 
BRANCH  12  13
ATOM     13  C   UNL     1      16.480  14.074  31.117  1.00  0.00    -0.000 C 
BRANCH  13  14
ATOM     14  C   UNL     1      17.601  13.175  31.671  1.00  0.00    -0.000 C 
BRANCH  14  15
ATOM     15  C   UNL     1      18.613  13.943  32.538  1.00  0.00    -0.000 C 
BRANCH  15  16
ATOM     16  C   UNL     1      20.074  13.710  32.107  1.00  0.00    -0.000 C 
BRANCH  16  17
ATOM     17  C   UNL     1      20.472  14.342  30.761  1.00  0.00    -0.000 C 
BRANCH  17  18
ATOM     18  C   UNL     1      20.483  13.330  29.602  1.00  0.00    -0.000 C 
BRANCH  18  19
ATOM     19  C   UNL     1      19.666  13.812  28.393  1.00  0.00    -0.003 C 
ATOM     20  C   UNL     1      18.823  12.700  27.768  1.00  0.00     0.004 C 
ENDBRANCH  18  19
ENDBRANCH  17  18
ENDBRANCH  16  17
ENDBRANCH  15  16
ENDBRANCH  14  15
ENDBRANCH  13  14
ENDBRANCH  12  13
ENDBRANCH   1  12
TORSDOF 16
ENDMDL
MODEL 2
REMARK VINA RESULT:    -3.540      3.064      6.423
REMARK INTER + INTRA:          -9.477
REMARK INTER:                  -7.042
REMARK INTRA:                  -2.435
REMARK UNBOUND:                -2.625
REMARK SMILES CCCCCCCCCCCCCCCCCC(=O)[O-]
REMARK SMILES IDX 10 1 11 2 12 3 13 4 14 5 15 6 16 7 17 8 18 9 19 10 20 11
REMARK SMILES IDX 9 12 8 13 7 14 6 15 5 16 4 17 3 18 2 19 1 20
REMARK H PARENT
REMARK Flexibility Score: inf
ROOT
ATOM      1  C   UNL     1      16.348  12.334  30.600  1.00  0.00     0.000 C 
ENDROOT
BRANCH   1   2
ATOM      2  C   UNL     1      16.793  12.986  31.919  1.00  0.00     0.000 C 
BRANCH   2   3
ATOM      3  C   UNL     1      17.582  14.291  31.707  1.00  0.00     0.000 C 
BRANCH   3   4
ATOM      4  C   UNL     1      17.591  14.820  30.261  1.00  0.00     0.000 C 
BRANCH   4   5
ATOM      5  C   UNL     1      16.521  15.898  30.013  1.00  0.00     0.000 C 
BRANCH   5   6
ATOM      6  C   UNL     1      15.676  15.615  28.760  1.00  0.00     0.000 C 
BRANCH   6   7
ATOM      7  C   UNL     1      16.505  15.032  27.605  1.00  0.00     0.006 C 
BRANCH   7   8
ATOM      8  C   UNL     1      16.407  15.918  26.359  1.00  0.00     0.053 C 
BRANCH   8   9
ATOM      9  C   UNL     1      15.694  15.196  25.259  1.00  0.00     0.041 C 
ATOM     10  O   UNL     1      15.561  15.735  24.129  1.00  0.00    -0.550 OA
ATOM     11  O   UNL     1      15.124  13.951  25.499  1.00  0.00    -0.550 OA
ENDBRANCH   8   9
ENDBRANCH   7   8
ENDBRANCH   6   7
ENDBRANCH   5   6
ENDBRANCH   4   5
ENDBRANCH   3   4
ENDBRANCH   2   3
ENDBRANCH   1   2
BRANCH   1  12
ATOM     12  C   UNL     1      14.833  12.084  30.596  1.00  0.00     0.000 C 
BRANCH  12  13
ATOM     13  C   UNL     1      14.026  13.256  31.184  1.00  0.00    -0.000 C 
BRANCH  13  14
ATOM     14  C   UNL     1      12.664  12.876  31.794  1.00  0.00    -0.000 C 
BRANCH  14  15
ATOM     15  C   UNL     1      11.708  14.074  31.921  1.00  0.00    -0.000 C 
BRANCH  15  16
ATOM     16  C   UNL     1      11.631  14.922  30.638  1.00  0.00    -0.000 C 
BRANCH  16  17
ATOM     17  C   UNL     1      10.429  14.625  29.723  1.00  0.00    -0.000 C 
BRANCH  17  18
ATOM     18  C   UNL     1      10.841  14.265  28.286  1.00  0.00    -0.000 C 
BRANCH  18  19
ATOM     19  C   UNL     1      12.340  13.947  28.167  1.00  0.00    -0.003 C 
ATOM     20  C   UNL     1      12.605  12.540  27.627  1.00  0.00     0.004 C 
ENDBRANCH  18  19
ENDBRANCH  17  18
ENDBRANCH  16  17
ENDBRANCH  15  16
ENDBRANCH  14  15
ENDBRANCH  13  14
ENDBRANCH  12  13
ENDBRANCH   1  12
TORSDOF 16
ENDMDL
MODEL 3
REMARK VINA RESULT:    -3.539      3.329      4.680
REMARK INTER + INTRA:          -9.473
REMARK INTER:                  -6.737
REMARK INTRA:                  -2.736
REMARK UNBOUND:                -2.625
REMARK SMILES CCCCCCCCCCCCCCCCCC(=O)[O-]
REMARK SMILES IDX 10 1 11 2 12 3 13 4 14 5 15 6 16 7 17 8 18 9 19 10 20 11
REMARK SMILES IDX 9 12 8 13 7 14 6 15 5 16 4 17 3 18 2 19 1 20
REMARK H PARENT
REMARK Flexibility Score: inf
ROOT
ATOM      1  C   UNL     1      16.571  13.761  31.273  1.00  0.00     0.000 C 
ENDROOT
BRANCH   1   2
ATOM      2  C   UNL     1      17.058  15.175  30.917  1.00  0.00     0.000 C 
BRANCH   2   3
ATOM      3  C   UNL     1      16.249  15.819  29.777  1.00  0.00     0.000 C 
BRANCH   3   4
ATOM      4  C   UNL     1      15.141  14.931  29.181  1.00  0.00     0.000 C 
BRANCH   4   5
ATOM      5  C   UNL     1      15.313  14.694  27.670  1.00  0.00     0.000 C 
BRANCH   5   6
ATOM      6  C   UNL     1      15.951  15.896  26.953  1.00  0.00     0.000 C 
BRANCH   6   7
ATOM      7  C   UNL     1      17.115  15.489  26.035  1.00  0.00     0.006 C 
BRANCH   7   8
ATOM      8  C   UNL     1      16.703  15.568  24.561  1.00  0.00     0.053 C 
BRANCH   8   9
ATOM      9  C   UNL     1      15.807  14.422  24.207  1.00  0.00     0.041 C 
ATOM     10  O   UNL     1      14.611  14.633  23.876  1.00  0.00    -0.550 OA
ATOM     11  O   UNL     1      16.277  13.117  24.300  1.00  0.00    -0.550 OA
ENDBRANCH   8   9
ENDBRANCH   7   8
ENDBRANCH   6   7
ENDBRANCH   5   6
ENDBRANCH   4   5
ENDBRANCH   3   4
ENDBRANCH   2   3
ENDBRANCH   1   2
BRANCH   1  12
ATOM     12  C   UNL     1      17.506  13.101  32.296  1.00  0.00     0.000 C 
BRANCH  12  13
ATOM     13  C   UNL     1      18.785  13.916  32.559  1.00  0.00    -0.000 C 
BRANCH  13  14
ATOM     14  C   UNL     1      20.107  13.168  32.303  1.00  0.00    -0.000 C 
BRANCH  14  15
ATOM     15  C   UNL     1      20.469  13.082  30.811  1.00  0.00    -0.000 C 
BRANCH  15  16
ATOM     16  C   UNL     1      20.258  14.411  30.062  1.00  0.00    -0.000 C 
BRANCH  16  17
ATOM     17  C   UNL     1      19.556  14.293  28.697  1.00  0.00    -0.000 C 
BRANCH  17  18
ATOM     18  C   UNL     1      19.518  12.851  28.163  1.00  0.00    -0.000 C 
BRANCH  18  19
ATOM     19  C   UNL     1      18.084  12.345  27.939  1.00  0.00    -0.003 C 
ATOM     20  C   UNL     1      17.656  11.305  28.976  1.00  0.00     0.004 C 
ENDBRANCH  18  19
ENDBRANCH  17  18
ENDBRANCH  16  17
ENDBRANCH  15  16
ENDBRANCH  14  15
ENDBRANCH  13  14
ENDBRANCH  12  13
ENDBRANCH   1  12
TORSDOF 16
ENDMDL
MODEL 4
REMARK VINA RESULT:    -3.533      2.149      3.752
REMARK INTER + INTRA:          -9.461
REMARK INTER:                  -7.389
REMARK INTRA:                  -2.072
REMARK UNBOUND:                -2.625
REMARK SMILES CCCCCCCCCCCCCCCCCC(=O)[O-]
REMARK SMILES IDX 10 1 11 2 12 3 13 4 14 5 15 6 16 7 17 8 18 9 19 10 20 11
REMARK SMILES IDX 9 12 8 13 7 14 6 15 5 16 4 17 3 18 2 19 1 20
REMARK H PARENT
REMARK Flexibility Score: inf
ROOT
ATOM      1  C   UNL     1      14.044  12.746  30.437  1.00  0.00     0.000 C 
ENDROOT
BRANCH   1   2
ATOM      2  C   UNL     1      13.566  14.168  30.104  1.00  0.00     0.000 C 
BRANCH   2   3
ATOM      3  C   UNL     1      12.548  14.205  28.950  1.00  0.00     0.000 C 
BRANCH   3   4
ATOM      4  C   UNL     1      11.226  14.927  29.270  1.00  0.00     0.000 C 
BRANCH   4   5
ATOM      5  C   UNL     1      10.970  15.062  30.781  1.00  0.00     0.000 C 
BRANCH   5   6
ATOM      6  C   UNL     1      10.007  13.988  31.316  1.00  0.00     0.000 C 
BRANCH   6   7
ATOM      7  C   UNL     1      10.682  13.028  32.308  1.00  0.00     0.006 C 
BRANCH   7   8
ATOM      8  C   UNL     1      11.525  13.800  33.330  1.00  0.00     0.053 C 
BRANCH   8   9
ATOM      9  C   UNL     1      11.434  13.152  34.676  1.00  0.00     0.041 C 
ATOM     10  O   UNL     1      10.368  13.223  35.343  1.00  0.00    -0.550 OA
ATOM     11  O   UNL     1      12.545  12.518  35.219  1.00  0.00    -0.550 OA
ENDBRANCH   8   9
ENDBRANCH   7   8
ENDBRANCH   6   7
ENDBRANCH   5   6
ENDBRANCH   4   5
ENDBRANCH   3   4
ENDBRANCH   2   3
ENDBRANCH   1   2
BRANCH   1  12
ATOM     12  C   UNL     1      14.985  12.754  31.650  1.00  0.00     0.000 C 
BRANCH  12  13
ATOM     13  C   UNL     1      16.474  12.751  31.259  1.00  0.00    -0.000 C 
BRANCH  13  14
ATOM     14  C   UNL     1      17.253  14.028  31.625  1.00  0.00    -0.000 C 
BRANCH  14  15
ATOM     15  C   UNL     1      16.941  15.210  30.692  1.00  0.00    -0.000 C 
BRANCH  15  16
ATOM     16  C   UNL     1      17.765  15.183  29.391  1.00  0.00    -0.000 C 
BRANCH  16  17
ATOM     17  C   UNL     1      17.009  14.690  28.143  1.00  0.00    -0.000 C 
BRANCH  17  18
ATOM     18  C   UNL     1      15.894  15.651  27.697  1.00  0.00    -0.000 C 
BRANCH  18  19
ATOM     19  C   UNL     1      16.119  16.195  26.278  1.00  0.00    -0.003 C 
ATOM     20  C   UNL     1      17.486  15.813  25.708  1.00  0.00     0.004 C 
ENDBRANCH  18  19
ENDBRANCH  17  18
ENDBRANCH  16  17
ENDBRANCH  15  16
ENDBRANCH  14  15
ENDBRANCH  13  14
ENDBRANCH  12  13
ENDBRANCH   1  12
TORSDOF 16
ENDMDL
MODEL 5
REMARK VINA RESULT:    -3.517      3.176      6.220
REMARK INTER + INTRA:          -9.432
REMARK INTER:                  -7.131
REMARK INTRA:                  -2.301
REMARK UNBOUND:                -2.625
REMARK SMILES CCCCCCCCCCCCCCCCCC(=O)[O-]
REMARK SMILES IDX 10 1 11 2 12 3 13 4 14 5 15 6 16 7 17 8 18 9 19 10 20 11
REMARK SMILES IDX 9 12 8 13 7 14 6 15 5 16 4 17 3 18 2 19 1 20
REMARK H PARENT
REMARK Flexibility Score: inf
ROOT
ATOM      1  C   UNL     1      19.394  13.256  31.125  1.00  0.00     0.000 C 
ENDROOT
BRANCH   1   2
ATOM      2  C   UNL     1      20.227  14.126  30.171  1.00  0.00     0.000 C 
BRANCH   2   3
ATOM      3  C   UNL     1      19.965  13.810  28.687  1.00  0.00     0.000 C 
BRANCH   3   4
ATOM      4  C   UNL     1      18.714  12.954  28.414  1.00  0.00     0.000 C 
BRANCH   4   5
ATOM      5  C   UNL     1      17.901  13.453  27.207  1.00  0.00     0.000 C 
BRANCH   5   6
ATOM      6  C   UNL     1      18.300  14.873  26.771  1.00  0.00     0.000 C 
BRANCH   6   7
ATOM      7  C   UNL     1      17.099  15.710  26.305  1.00  0.00     0.006 C 
BRANCH   7   8
ATOM      8  C   UNL     1      15.946  14.809  25.850  1.00  0.00     0.053 C 
BRANCH   8   9
ATOM      9  C   UNL     1      15.655  15.026  24.399  1.00  0.00     0.041 C 
ATOM     10  O   UNL     1      15.613  16.194  23.929  1.00  0.00    -0.550 OA
ATOM     11  O   UNL     1      15.372  13.942  23.576  1.00  0.00    -0.550 OA
ENDBRANCH   8   9
ENDBRANCH   7   8
ENDBRANCH   6   7
ENDBRANCH   5   6
ENDBRANCH   4   5
ENDBRANCH   3   4
ENDBRANCH   2   3
ENDBRANCH   1   2
BRANCH   1  12
ATOM     12  C   UNL     1      18.457  14.122  31.979  1.00  0.00     0.000 C 
BRANCH  12  13
ATOM     13  C   UNL     1      17.092  14.372  31.313  1.00  0.00    -0.000 C 
BRANCH  13  14
ATOM     14  C   UNL     1      16.998  15.655  30.467  1.00  0.00    -0.000 C 
BRANCH  14  15
ATOM     15  C   UNL     1      15.762  15.682  29.552  1.00  0.00    -0.000 C 
BRANCH  15  16
ATOM     16  C   UNL     1      14.874  14.433  29.703  1.00  0.00    -0.000 C 
BRANCH  16  17
ATOM     17  C   UNL     1      13.814  14.241  28.602  1.00  0.00    -0.000 C 
BRANCH  17  18
ATOM     18  C   UNL     1      12.385  14.124  29.158  1.00  0.00    -0.000 C 
BRANCH  18  19
ATOM     19  C   UNL     1      12.315  14.414  30.666  1.00  0.00    -0.003 C 
ATOM     20  C   UNL     1      10.947  14.940  31.104  1.00  0.00     0.004 C 
ENDBRANCH  18  19
ENDBRANCH  17  18
ENDBRANCH  16  17
ENDBRANCH  15  16
ENDBRANCH  14  15
ENDBRANCH  13  14
ENDBRANCH  12  13
ENDBRANCH   1  12
TORSDOF 16
ENDMDL
MODEL 6
REMARK VINA RESULT:    -3.510      1.593      4.087
REMARK INTER + INTRA:          -9.417
REMARK INTER:                  -6.937
REMARK INTRA:                  -2.480
REMARK UNBOUND:                -2.625
REMARK SMILES CCCCCCCCCCCCCCCCCC(=O)[O-]
REMARK SMILES IDX 10 1 11 2 12 3 13 4 14 5 15 6 16 7 17 8 18 9 19 10 20 11
REMARK SMILES IDX 9 12 8 13 7 14 6 15 5 16 4 17 3 18 2 19 1 20
REMARK H PARENT
REMARK Flexibility Score: inf
ROOT
ATOM      1  C   UNL     1      19.537  13.375  31.770  1.00  0.00     0.000 C 
ENDROOT
BRANCH   1   2
ATOM      2  C   UNL     1      18.347  14.203  32.279  1.00  0.00     0.000 C 
BRANCH   2   3
ATOM      3  C   UNL     1      17.207  14.311  31.251  1.00  0.00     0.000 C 
BRANCH   3   4
ATOM      4  C   UNL     1      17.100  15.671  30.537  1.00  0.00     0.000 C 
BRANCH   4   5
ATOM      5  C   UNL     1      15.895  15.752  29.583  1.00  0.00     0.000 C 
BRANCH   5   6
ATOM      6  C   UNL     1      15.445  14.370  29.080  1.00  0.00     0.000 C 
BRANCH   6   7
ATOM      7  C   UNL     1      13.961  14.337  28.682  1.00  0.00     0.006 C 
BRANCH   7   8
ATOM      8  C   UNL     1      13.074  14.050  29.899  1.00  0.00     0.053 C 
BRANCH   8   9
ATOM      9  C   UNL     1      11.744  14.718  29.743  1.00  0.00     0.041 C 
ATOM     10  O   UNL     1      11.204  14.798  28.608  1.00  0.00    -0.550 OA
ATOM     11  O   UNL     1      11.126  15.303  30.842  1.00  0.00    -0.550 OA
ENDBRANCH   8   9
ENDBRANCH   7   8
ENDBRANCH   6   7
ENDBRANCH   5   6
ENDBRANCH   4   5
ENDBRANCH   3   4
ENDBRANCH   2   3
ENDBRANCH   1   2
BRANCH   1  12
ATOM     12  C   UNL     1      19.057  12.181  30.934  1.00  0.00     0.000 C 
BRANCH  12  13
ATOM     13  C   UNL     1      19.600  12.196  29.493  1.00  0.00    -0.000 C 
BRANCH  13  14
ATOM     14  C   UNL     1      20.216  13.530  29.036  1.00  0.00    -0.000 C 
BRANCH  14  15
ATOM     15  C   UNL     1      19.320  14.299  28.049  1.00  0.00    -0.000 C 
BRANCH  15  16
ATOM     16  C   UNL     1      18.482  13.372  27.149  1.00  0.00    -0.000 C 
BRANCH  16  17
ATOM     17  C   UNL     1      17.684  14.078  26.038  1.00  0.00    -0.000 C 
BRANCH  17  18
ATOM     18  C   UNL     1      17.635  15.606  26.211  1.00  0.00    -0.000 C 
BRANCH  18  19
ATOM     19  C   UNL     1      16.269  16.198  25.828  1.00  0.00    -0.003 C 
ATOM     20  C   UNL     1      15.875  15.888  24.383  1.00  0.00     0.004 C 
ENDBRANCH  18  19
ENDBRANCH  17  18
ENDBRANCH  16  17
ENDBRANCH  15  16
ENDBRANCH  14  15
ENDBRANCH  13  14
ENDBRANCH  12  13
ENDBRANCH   1  12
TORSDOF 16
ENDMDL
MODEL 7
REMARK VINA RESULT:    -3.483      3.134      6.730
REMARK INTER + INTRA:          -9.365
REMARK INTER:                  -6.789
REMARK INTRA:                  -2.577
REMARK UNBOUND:                -2.625
REMARK SMILES CCCCCCCCCCCCCCCCCC(=O)[O-]
REMARK SMILES IDX 10 1 11 2 12 3 13 4 14 5 15 6 16 7 17 8 18 9 19 10 20 11
REMARK SMILES IDX 9 12 8 13 7 14 6 15 5 16 4 17 3 18 2 19 1 20
REMARK H PARENT
REMARK Flexibility Score: inf
ROOT
ATOM      1  C   UNL     1      14.946  12.867  31.257  1.00  0.00     0.000 C 
ENDROOT
BRANCH   1   2
ATOM      2  C   UNL     1      16.477  12.778  31.345  1.00  0.00     0.000 C 
BRANCH   2   3
ATOM      3  C   UNL     1      17.146  14.146  31.569  1.00  0.00     0.000 C 
BRANCH   3   4
ATOM      4  C   UNL     1      17.552  14.892  30.285  1.00  0.00     0.000 C 
BRANCH   4   5
ATOM      5  C   UNL     1      16.541  15.981  29.883  1.00  0.00     0.000 C 
BRANCH   5   6
ATOM      6  C   UNL     1      15.873  15.696  28.527  1.00  0.00     0.000 C 
BRANCH   6   7
ATOM      7  C   UNL     1      16.791  14.927  27.564  1.00  0.00     0.006 C 
BRANCH   7   8
ATOM      8  C   UNL     1      16.998  15.709  26.262  1.00  0.00     0.053 C 
BRANCH   8   9
ATOM      9  C   UNL     1      15.944  15.347  25.263  1.00  0.00     0.041 C 
ATOM     10  O   UNL     1      15.637  16.154  24.346  1.00  0.00    -0.550 OA
ATOM     11  O   UNL     1      15.260  14.143  25.378  1.00  0.00    -0.550 OA
ENDBRANCH   8   9
ENDBRANCH   7   8
ENDBRANCH   6   7
ENDBRANCH   5   6
ENDBRANCH   4   5
ENDBRANCH   3   4
ENDBRANCH   2   3
ENDBRANCH   1   2
BRANCH   1  12
ATOM     12  C   UNL     1      14.455  12.494  29.851  1.00  0.00     0.000 C 
BRANCH  12  13
ATOM     13  C   UNL     1      13.163  13.229  29.448  1.00  0.00    -0.000 C 
BRANCH  13  14
ATOM     14  C   UNL     1      12.884  14.536  30.212  1.00  0.00    -0.000 C 
BRANCH  14  15
ATOM     15  C   UNL     1      11.383  14.823  30.383  1.00  0.00    -0.000 C 
BRANCH  15  16
ATOM     16  C   UNL     1      10.729  13.975  31.489  1.00  0.00    -0.000 C 
BRANCH  16  17
ATOM     17  C   UNL     1      11.399  14.066  32.872  1.00  0.00    -0.000 C 
BRANCH  17  18
ATOM     18  C   UNL     1      11.835  12.696  33.421  1.00  0.00    -0.000 C 
BRANCH  18  19
ATOM     19  C   UNL     1      11.683  11.572  32.384  1.00  0.00    -0.003 C 
ATOM     20  C   UNL     1      12.419  10.293  32.786  1.00  0.00     0.004 C 
ENDBRANCH  18  19
ENDBRANCH  17  18
ENDBRANCH  16  17
ENDBRANCH  15  16
ENDBRANCH  14  15
ENDBRANCH  13  14
ENDBRANCH  12  13
ENDBRANCH   1  12
TORSDOF 16
ENDMDL
MODEL 8
REMARK VINA RESULT:    -3.471      2.948      4.901
REMARK INTER + INTRA:          -9.343
REMARK INTER:                  -6.713
REMARK INTRA:                  -2.629
REMARK UNBOUND:                -2.625
REMARK SMILES CCCCCCCCCCCCCCCCCC(=O)[O-]
REMARK SMILES IDX 10 1 11 2 12 3 13 4 14 5 15 6 16 7 17 8 18 9 19 10 20 11
REMARK SMILES IDX 9 12 8 13 7 14 6 15 5 16 4 17 3 18 2 19 1 20
REMARK H PARENT
REMARK Flexibility Score: inf
ROOT
ATOM      1  C   UNL     1      18.888  12.742  28.640  1.00  0.00     0.000 C 
ENDROOT
BRANCH   1   2
ATOM      2  C   UNL     1      18.122  13.346  27.453  1.00  0.00     0.000 C 
BRANCH   2   3
ATOM      3  C   UNL     1      18.534  14.798  27.150  1.00  0.00     0.000 C 
BRANCH   3   4
ATOM      4  C   UNL     1      18.447  15.205  25.668  1.00  0.00     0.000 C 
BRANCH   4   5
ATOM      5  C   UNL     1      17.482  16.379  25.426  1.00  0.00     0.000 C 
BRANCH   5   6
ATOM      6  C   UNL     1      16.006  15.969  25.567  1.00  0.00     0.000 C 
BRANCH   6   7
ATOM      7  C   UNL     1      15.604  14.854  24.588  1.00  0.00     0.006 C 
BRANCH   7   8
ATOM      8  C   UNL     1      14.800  13.762  25.302  1.00  0.00     0.053 C 
BRANCH   8   9
ATOM      9  C   UNL     1      13.463  13.591  24.654  1.00  0.00     0.041 C 
ATOM     10  O   UNL     1      13.282  13.967  23.465  1.00  0.00    -0.550 OA
ATOM     11  O   UNL     1      12.399  13.069  25.380  1.00  0.00    -0.550 OA
ENDBRANCH   8   9
ENDBRANCH   7   8
ENDBRANCH   6   7
ENDBRANCH   5   6
ENDBRANCH   4   5
ENDBRANCH   3   4
ENDBRANCH   2   3
ENDBRANCH   1   2
BRANCH   1  12
ATOM     12  C   UNL     1      20.230  13.458  28.850  1.00  0.00     0.000 C 
BRANCH  12  13
ATOM     13  C   UNL     1      20.364  14.093  30.246  1.00  0.00    -0.000 C 
BRANCH  13  14
ATOM     14  C   UNL     1      19.825  13.241  31.410  1.00  0.00    -0.000 C 
BRANCH  14  15
ATOM     15  C   UNL     1      18.750  13.966  32.237  1.00  0.00    -0.000 C 
BRANCH  15  16
ATOM     16  C   UNL     1      17.364  13.300  32.139  1.00  0.00    -0.000 C 
BRANCH  16  17
ATOM     17  C   UNL     1      16.407  13.919  31.104  1.00  0.00    -0.000 C 
BRANCH  17  18
ATOM     18  C   UNL     1      16.913  15.259  30.543  1.00  0.00    -0.000 C 
BRANCH  18  19
ATOM     19  C   UNL     1      15.998  15.819  29.443  1.00  0.00    -0.003 C 
ATOM     20  C   UNL     1      15.042  14.768  28.877  1.00  0.00     0.004 C 
ENDBRANCH  18  19
ENDBRANCH  17  18
ENDBRANCH  16  17
ENDBRANCH  15  16
ENDBRANCH  14  15
ENDBRANCH  13  14
ENDBRANCH  12  13
ENDBRANCH   1  12
TORSDOF 16
ENDMDL
MODEL 9
REMARK VINA RESULT:    -3.464      2.005      4.002
REMARK INTER + INTRA:          -9.329
REMARK INTER:                  -7.456
REMARK INTRA:                  -1.873
REMARK UNBOUND:                -2.625
REMARK SMILES CCCCCCCCCCCCCCCCCC(=O)[O-]
REMARK SMILES IDX 10 1 11 2 12 3 13 4 14 5 15 6 16 7 17 8 18 9 19 10 20 11
REMARK SMILES IDX 9 12 8 13 7 14 6 15 5 16 4 17 3 18 2 19 1 20
REMARK H PARENT
REMARK Flexibility Score: inf
ROOT
ATOM      1  C   UNL     1      16.535  12.819  30.877  1.00  0.00     0.000 C 
ENDROOT
BRANCH   1   2
ATOM      2  C   UNL     1      15.656  12.144  31.941  1.00  0.00     0.000 C 
BRANCH   2   3
ATOM      3  C   UNL     1      14.155  12.421  31.744  1.00  0.00     0.000 C 
BRANCH   3   4
ATOM      4  C   UNL     1      13.759  12.893  30.332  1.00  0.00     0.000 C 
BRANCH   4   5
ATOM      5  C   UNL     1      13.115  14.290  30.329  1.00  0.00     0.000 C 
BRANCH   5   6
ATOM      6  C   UNL     1      12.092  14.467  29.194  1.00  0.00     0.000 C 
BRANCH   6   7
ATOM      7  C   UNL     1      10.668  14.722  29.713  1.00  0.00     0.006 C 
BRANCH   7   8
ATOM      8  C   UNL     1      10.643  14.765  31.244  1.00  0.00     0.053 C 
BRANCH   8   9
ATOM      9  C   UNL     1       9.789  13.661  31.783  1.00  0.00     0.041 C 
ATOM     10  O   UNL     1       8.751  13.304  31.165  1.00  0.00    -0.550 OA
ATOM     11  O   UNL     1      10.107  13.064  32.997  1.00  0.00    -0.550 OA
ENDBRANCH   8   9
ENDBRANCH   7   8
ENDBRANCH   6   7
ENDBRANCH   5   6
ENDBRANCH   4   5
ENDBRANCH   3   4
ENDBRANCH   2   3
ENDBRANCH   1   2
BRANCH   1  12
ATOM     12  C   UNL     1      17.133  14.129  31.409  1.00  0.00     0.000 C 
BRANCH  12  13
ATOM     13  C   UNL     1      17.481  15.131  30.293  1.00  0.00    -0.000 C 
BRANCH  13  14
ATOM     14  C   UNL     1      16.310  16.000  29.800  1.00  0.00    -0.000 C 
BRANCH  14  15
ATOM     15  C   UNL     1      15.835  15.621  28.387  1.00  0.00    -0.000 C 
BRANCH  15  16
ATOM     16  C   UNL     1      16.864  14.778  27.611  1.00  0.00    -0.000 C 
BRANCH  16  17
ATOM     17  C   UNL     1      17.304  15.360  26.255  1.00  0.00    -0.000 C 
BRANCH  17  18
ATOM     18  C   UNL     1      16.291  16.362  25.674  1.00  0.00    -0.000 C 
BRANCH  18  19
ATOM     19  C   UNL     1      15.746  15.921  24.307  1.00  0.00    -0.003 C 
ATOM     20  C   UNL     1      15.185  14.497  24.326  1.00  0.00     0.004 C 
ENDBRANCH  18  19
ENDBRANCH  17  18
ENDBRANCH  16  17
ENDBRANCH  15  16
ENDBRANCH  14  15
ENDBRANCH  13  14
ENDBRANCH  12  13
ENDBRANCH   1  12
TORSDOF 16
ENDMDL
