MODEL 1
REMARK VINA RESULT:    -3.851      0.000      0.000
REMARK INTER + INTRA:          -7.483
REMARK INTER:                  -6.102
REMARK INTRA:                  -1.381
REMARK UNBOUND:                -1.381
REMARK SMILES CCCCCCCCCCCC(=O)[O-]
REMARK SMILES IDX 7 1 8 2 9 3 10 4 11 5 12 6 13 7 14 8 6 9 5 10 4 11 3 12 2 13
REMARK SMILES IDX 1 14
REMARK H PARENT
REMARK Flexibility Score: inf
ROOT
ATOM      1  C   UNL     1     129.844 144.449 108.035  1.00  0.00     0.000 C 
ENDROOT
BRANCH   1   2
ATOM      2  C   UNL     1     130.808 144.611 106.848  1.00  0.00     0.000 C 
BRANCH   2   3
ATOM      3  C   UNL     1     130.619 145.948 106.110  1.00  0.00     0.000 C 
BRANCH   3   4
ATOM      4  C   UNL     1     131.920 146.762 106.022  1.00  0.00     0.006 C 
BRANCH   4   5
ATOM      5  C   UNL     1     132.830 146.560 107.241  1.00  0.00     0.053 C 
BRANCH   5   6
ATOM      6  C   UNL     1     134.212 146.188 106.804  1.00  0.00     0.041 C 
ATOM      7  O   UNL     1     135.210 146.557 107.477  1.00  0.00    -0.550 OA
ATOM      8  O   UNL     1     134.395 145.392 105.681  1.00  0.00    -0.550 OA
ENDBRANCH   5   6
ENDBRANCH   4   5
ENDBRANCH   3   4
ENDBRANCH   2   3
ENDBRANCH   1   2
BRANCH   1   9
ATOM      9  C   UNL     1     129.246 145.789 108.499  1.00  0.00     0.000 C 
BRANCH   9  10
ATOM     10  C   UNL     1     127.714 145.740 108.618  1.00  0.00    -0.000 C 
BRANCH  10  11
ATOM     11  C   UNL     1     127.050 145.064 107.407  1.00  0.00    -0.000 C 
BRANCH  11  12
ATOM     12  C   UNL     1     126.911 146.007 106.197  1.00  0.00    -0.000 C 
BRANCH  12  13
ATOM     13  C   UNL     1     127.165 145.351 104.829  1.00  0.00    -0.003 C 
ATOM     14  C   UNL     1     127.654 143.907 104.939  1.00  0.00     0.004 C 
ENDBRANCH  12  13
ENDBRANCH  11  12
ENDBRANCH  10  11
ENDBRANCH   9  10
ENDBRANCH   1   9
TORSDOF 10
ENDMDL
MODEL 2
REMARK VINA RESULT:    -3.687      2.008      3.859
REMARK INTER + INTRA:          -7.224
REMARK INTER:                  -5.739
REMARK INTRA:                  -1.485
REMARK UNBOUND:                -1.381
REMARK SMILES CCCCCCCCCCCC(=O)[O-]
REMARK SMILES IDX 7 1 8 2 9 3 10 4 11 5 12 6 13 7 14 8 6 9 5 10 4 11 3 12 2 13
REMARK SMILES IDX 1 14
REMARK H PARENT
REMARK Flexibility Score: inf
ROOT
ATOM      1  C   UNL     1     126.913 146.032 106.276  1.00  0.00     0.000 C 
ENDROOT
BRANCH   1   2
ATOM      2  C   UNL     1     127.179 145.299 107.601  1.00  0.00     0.000 C 
BRANCH   2   3
ATOM      3  C   UNL     1     127.772 146.222 108.680  1.00  0.00     0.000 C 
BRANCH   3   4
ATOM      4  C   UNL     1     129.206 145.830 109.069  1.00  0.00     0.006 C 
BRANCH   4   5
ATOM      5  C   UNL     1     129.900 144.979 107.996  1.00  0.00     0.053 C 
BRANCH   5   6
ATOM      6  C   UNL     1     130.871 145.811 107.219  1.00  0.00     0.041 C 
ATOM      7  O   UNL     1     131.615 146.636 107.811  1.00  0.00    -0.550 OA
ATOM      8  O   UNL     1     130.989 145.639 105.845  1.00  0.00    -0.550 OA
ENDBRANCH   5   6
ENDBRANCH   4   5
ENDBRANCH   3   4
ENDBRANCH   2   3
ENDBRANCH   1   2
BRANCH   1   9
ATOM      9  C   UNL     1     127.499 145.292 105.061  1.00  0.00     0.000 C 
BRANCH   9  10
ATOM     10  C   UNL     1     127.383 143.764 105.190  1.00  0.00    -0.000 C 
BRANCH  10  11
ATOM     11  C   UNL     1     128.750 143.062 105.124  1.00  0.00    -0.000 C 
BRANCH  11  12
ATOM     12  C   UNL     1     128.889 141.924 106.153  1.00  0.00    -0.000 C 
BRANCH  12  13
ATOM     13  C   UNL     1     127.666 141.720 107.064  1.00  0.00    -0.003 C 
ATOM     14  C   UNL     1     128.018 141.739 108.552  1.00  0.00     0.004 C 
ENDBRANCH  12  13
ENDBRANCH  11  12
ENDBRANCH  10  11
ENDBRANCH   9  10
ENDBRANCH   1   9
TORSDOF 10
ENDMDL
MODEL 3
REMARK VINA RESULT:    -3.648      3.879      5.718
REMARK INTER + INTRA:          -7.161
REMARK INTER:                  -5.844
REMARK INTRA:                  -1.317
REMARK UNBOUND:                -1.381
REMARK SMILES CCCCCCCCCCCC(=O)[O-]
REMARK SMILES IDX 7 1 8 2 9 3 10 4 11 5 12 6 13 7 14 8 6 9 5 10 4 11 3 12 2 13
REMARK SMILES IDX 1 14
REMARK H PARENT
REMARK Flexibility Score: inf
ROOT
ATOM      1  C   UNL     1     127.273 145.118 104.980  1.00  0.00     0.000 C 
ENDROOT
BRANCH   1   2
ATOM      2  C   UNL     1     127.308 143.626 105.349  1.00  0.00     0.000 C 
BRANCH   2   3
ATOM      3  C   UNL     1     128.728 143.038 105.304  1.00  0.00     0.000 C 
BRANCH   3   4
ATOM      4  C   UNL     1     128.847 141.721 106.088  1.00  0.00     0.006 C 
BRANCH   4   5
ATOM      5  C   UNL     1     127.531 141.312 106.764  1.00  0.00     0.053 C 
BRANCH   5   6
ATOM      6  C   UNL     1     127.774 140.224 107.762  1.00  0.00     0.041 C 
ATOM      7  O   UNL     1     128.380 140.474 108.836  1.00  0.00    -0.550 OA
ATOM      8  O   UNL     1     127.287 138.944 107.527  1.00  0.00    -0.550 OA
ENDBRANCH   5   6
ENDBRANCH   4   5
ENDBRANCH   3   4
ENDBRANCH   2   3
ENDBRANCH   1   2
BRANCH   1   9
ATOM      9  C   UNL     1     127.035 146.024 106.201  1.00  0.00     0.000 C 
BRANCH   9  10
ATOM     10  C   UNL     1     127.118 145.255 107.530  1.00  0.00    -0.000 C 
BRANCH  10  11
ATOM     11  C   UNL     1     128.252 145.765 108.436  1.00  0.00    -0.000 C 
BRANCH  11  12
ATOM     12  C   UNL     1     129.579 145.016 108.211  1.00  0.00    -0.000 C 
BRANCH  12  13
ATOM     13  C   UNL     1     130.727 145.880 107.661  1.00  0.00    -0.003 C 
ATOM     14  C   UNL     1     130.881 145.775 106.144  1.00  0.00     0.004 C 
ENDBRANCH  12  13
ENDBRANCH  11  12
ENDBRANCH  10  11
ENDBRANCH   9  10
ENDBRANCH   1   9
TORSDOF 10
ENDMDL
MODEL 4
REMARK VINA RESULT:    -3.608      0.810      2.491
REMARK INTER + INTRA:          -7.098
REMARK INTER:                  -5.891
REMARK INTRA:                  -1.207
REMARK UNBOUND:                -1.381
REMARK SMILES CCCCCCCCCCCC(=O)[O-]
REMARK SMILES IDX 7 1 8 2 9 3 10 4 11 5 12 6 13 7 14 8 6 9 5 10 4 11 3 12 2 13
REMARK SMILES IDX 1 14
REMARK H PARENT
REMARK Flexibility Score: inf
ROOT
ATOM      1  C   UNL     1     130.284 143.469 105.586  1.00  0.00     0.000 C 
ENDROOT
BRANCH   1   2
ATOM      2  C   UNL     1     130.784 144.567 106.539  1.00  0.00     0.000 C 
BRANCH   2   3
ATOM      3  C   UNL     1     130.746 145.967 105.900  1.00  0.00     0.000 C 
BRANCH   3   4
ATOM      4  C   UNL     1     131.947 146.834 106.309  1.00  0.00     0.006 C 
BRANCH   4   5
ATOM      5  C   UNL     1     132.771 146.211 107.444  1.00  0.00     0.053 C 
BRANCH   5   6
ATOM      6  C   UNL     1     134.211 146.112 107.049  1.00  0.00     0.041 C 
ATOM      7  O   UNL     1     134.546 145.436 106.041  1.00  0.00    -0.550 OA
ATOM      8  O   UNL     1     135.177 146.805 107.766  1.00  0.00    -0.550 OA
ENDBRANCH   5   6
ENDBRANCH   4   5
ENDBRANCH   3   4
ENDBRANCH   2   3
ENDBRANCH   1   2
BRANCH   1   9
ATOM      9  C   UNL     1     128.811 143.099 105.829  1.00  0.00     0.000 C 
BRANCH   9  10
ATOM     10  C   UNL     1     127.854 143.830 104.872  1.00  0.00    -0.000 C 
BRANCH  10  11
ATOM     11  C   UNL     1     127.099 144.980 105.560  1.00  0.00    -0.000 C 
BRANCH  11  12
ATOM     12  C   UNL     1     127.012 144.809 107.088  1.00  0.00    -0.000 C 
BRANCH  12  13
ATOM     13  C   UNL     1     127.152 146.110 107.897  1.00  0.00    -0.003 C 
ATOM     14  C   UNL     1     128.337 146.091 108.862  1.00  0.00     0.004 C 
ENDBRANCH  12  13
ENDBRANCH  11  12
ENDBRANCH  10  11
ENDBRANCH   9  10
ENDBRANCH   1   9
TORSDOF 10
ENDMDL
MODEL 5
REMARK VINA RESULT:    -3.563      1.318      2.226
REMARK INTER + INTRA:          -7.027
REMARK INTER:                  -5.656
REMARK INTRA:                  -1.371
REMARK UNBOUND:                -1.381
REMARK SMILES CCCCCCCCCCCC(=O)[O-]
REMARK SMILES IDX 7 1 8 2 9 3 10 4 11 5 12 6 13 7 14 8 6 9 5 10 4 11 3 12 2 13
REMARK SMILES IDX 1 14
REMARK H PARENT
REMARK Flexibility Score: inf
ROOT
ATOM      1  C   UNL     1     129.730 143.247 107.821  1.00  0.00     0.000 C 
ENDROOT
BRANCH   1   2
ATOM      2  C   UNL     1     130.363 144.640 107.669  1.00  0.00     0.000 C 
BRANCH   2   3
ATOM      3  C   UNL     1     130.833 144.923 106.232  1.00  0.00     0.000 C 
BRANCH   3   4
ATOM      4  C   UNL     1     131.355 146.358 106.054  1.00  0.00     0.006 C 
BRANCH   4   5
ATOM      5  C   UNL     1     132.856 146.408 105.733  1.00  0.00     0.053 C 
BRANCH   5   6
ATOM      6  C   UNL     1     133.662 146.215 106.979  1.00  0.00     0.041 C 
ATOM      7  O   UNL     1     133.547 147.023 107.938  1.00  0.00    -0.550 OA
ATOM      8  O   UNL     1     134.503 145.117 107.099  1.00  0.00    -0.550 OA
ENDBRANCH   5   6
ENDBRANCH   4   5
ENDBRANCH   3   4
ENDBRANCH   2   3
ENDBRANCH   1   2
BRANCH   1   9
ATOM      9  C   UNL     1     129.815 142.414 106.530  1.00  0.00     0.000 C 
BRANCH   9  10
ATOM     10  C   UNL     1     128.452 141.838 106.110  1.00  0.00    -0.000 C 
BRANCH  10  11
ATOM     11  C   UNL     1     127.371 142.923 105.974  1.00  0.00    -0.000 C 
BRANCH  11  12
ATOM     12  C   UNL     1     127.635 143.887 104.802  1.00  0.00    -0.000 C 
BRANCH  12  13
ATOM     13  C   UNL     1     127.284 145.359 105.080  1.00  0.00    -0.003 C 
ATOM     14  C   UNL     1     126.918 145.622 106.541  1.00  0.00     0.004 C 
ENDBRANCH  12  13
ENDBRANCH  11  12
ENDBRANCH  10  11
ENDBRANCH   9  10
ENDBRANCH   1   9
TORSDOF 10
ENDMDL
MODEL 6
REMARK VINA RESULT:    -3.558      1.533      2.733
REMARK INTER + INTRA:          -7.019
REMARK INTER:                  -5.942
REMARK INTRA:                  -1.078
REMARK UNBOUND:                -1.381
REMARK SMILES CCCCCCCCCCCC(=O)[O-]
REMARK SMILES IDX 7 1 8 2 9 3 10 4 11 5 12 6 13 7 14 8 6 9 5 10 4 11 3 12 2 13
REMARK SMILES IDX 1 14
REMARK H PARENT
REMARK Flexibility Score: inf
ROOT
ATOM      1  C   UNL     1     129.203 142.855 106.452  1.00  0.00     0.000 C 
ENDROOT
BRANCH   1   2
ATOM      2  C   UNL     1     130.263 142.881 105.338  1.00  0.00     0.000 C 
BRANCH   2   3
ATOM      3  C   UNL     1     131.602 143.476 105.809  1.00  0.00     0.000 C 
BRANCH   3   4
ATOM      4  C   UNL     1     131.506 144.980 106.111  1.00  0.00     0.006 C 
BRANCH   4   5
ATOM      5  C   UNL     1     132.872 145.679 106.080  1.00  0.00     0.053 C 
BRANCH   5   6
ATOM      6  C   UNL     1     133.160 146.321 107.400  1.00  0.00     0.041 C 
ATOM      7  O   UNL     1     134.297 146.808 107.634  1.00  0.00    -0.550 OA
ATOM      8  O   UNL     1     132.156 146.426 108.355  1.00  0.00    -0.550 OA
ENDBRANCH   5   6
ENDBRANCH   4   5
ENDBRANCH   3   4
ENDBRANCH   2   3
ENDBRANCH   1   2
BRANCH   1   9
ATOM      9  C   UNL     1     127.776 143.063 105.915  1.00  0.00     0.000 C 
BRANCH   9  10
ATOM     10  C   UNL     1     127.665 144.289 104.993  1.00  0.00    -0.000 C 
BRANCH  10  11
ATOM     11  C   UNL     1     127.995 145.603 105.720  1.00  0.00    -0.000 C 
BRANCH  11  12
ATOM     12  C   UNL     1     126.881 146.047 106.687  1.00  0.00    -0.000 C 
BRANCH  12  13
ATOM     13  C   UNL     1     127.213 145.881 108.180  1.00  0.00    -0.003 C 
ATOM     14  C   UNL     1     128.708 145.994 108.478  1.00  0.00     0.004 C 
ENDBRANCH  12  13
ENDBRANCH  11  12
ENDBRANCH  10  11
ENDBRANCH   9  10
ENDBRANCH   1   9
TORSDOF 10
ENDMDL
MODEL 7
REMARK VINA RESULT:    -3.499      3.329      5.862
REMARK INTER + INTRA:          -6.925
REMARK INTER:                  -6.024
REMARK INTRA:                  -0.902
REMARK UNBOUND:                -1.381
REMARK SMILES CCCCCCCCCCCC(=O)[O-]
REMARK SMILES IDX 7 1 8 2 9 3 10 4 11 5 12 6 13 7 14 8 6 9 5 10 4 11 3 12 2 13
REMARK SMILES IDX 1 14
REMARK H PARENT
REMARK Flexibility Score: inf
ROOT
ATOM      1  C   UNL     1     130.562 144.506 106.161  1.00  0.00     0.000 C 
ENDROOT
BRANCH   1   2
ATOM      2  C   UNL     1     129.135 144.221 105.661  1.00  0.00     0.000 C 
BRANCH   2   3
ATOM      3  C   UNL     1     128.263 145.486 105.606  1.00  0.00     0.000 C 
BRANCH   3   4
ATOM      4  C   UNL     1     126.981 145.356 106.443  1.00  0.00     0.006 C 
BRANCH   4   5
ATOM      5  C   UNL     1     127.098 146.029 107.818  1.00  0.00     0.053 C 
BRANCH   5   6
ATOM      6  C   UNL     1     127.427 145.016 108.869  1.00  0.00     0.041 C 
ATOM      7  O   UNL     1     127.176 143.798 108.674  1.00  0.00    -0.550 OA
ATOM      8  O   UNL     1     128.055 145.411 110.042  1.00  0.00    -0.550 OA
ENDBRANCH   5   6
ENDBRANCH   4   5
ENDBRANCH   3   4
ENDBRANCH   2   3
ENDBRANCH   1   2
BRANCH   1   9
ATOM      9  C   UNL     1     130.747 145.963 106.620  1.00  0.00     0.000 C 
BRANCH   9  10
ATOM     10  C   UNL     1     131.902 146.668 105.890  1.00  0.00    -0.000 C 
BRANCH  10  11
ATOM     11  C   UNL     1     133.255 145.974 106.118  1.00  0.00    -0.000 C 
BRANCH  11  12
ATOM     12  C   UNL     1     134.224 146.148 104.933  1.00  0.00    -0.000 C 
BRANCH  12  13
ATOM     13  C   UNL     1     134.628 144.842 104.227  1.00  0.00    -0.003 C 
ATOM     14  C   UNL     1     133.818 143.633 104.695  1.00  0.00     0.004 C 
ENDBRANCH  12  13
ENDBRANCH  11  12
ENDBRANCH  10  11
ENDBRANCH   9  10
ENDBRANCH   1   9
TORSDOF 10
ENDMDL
MODEL 8
REMARK VINA RESULT:    -3.414      2.664      4.644
REMARK INTER + INTRA:          -6.791
REMARK INTER:                  -5.335
REMARK INTRA:                  -1.456
REMARK UNBOUND:                -1.381
REMARK SMILES CCCCCCCCCCCC(=O)[O-]
REMARK SMILES IDX 7 1 8 2 9 3 10 4 11 5 12 6 13 7 14 8 6 9 5 10 4 11 3 12 2 13
REMARK SMILES IDX 1 14
REMARK H PARENT
REMARK Flexibility Score: inf
ROOT
ATOM      1  C   UNL     1     127.530 145.599 105.684  1.00  0.00     0.000 C 
ENDROOT
BRANCH   1   2
ATOM      2  C   UNL     1     126.879 145.456 107.069  1.00  0.00     0.000 C 
BRANCH   2   3
ATOM      3  C   UNL     1     127.765 146.008 108.199  1.00  0.00     0.000 C 
BRANCH   3   4
ATOM      4  C   UNL     1     127.973 144.995 109.336  1.00  0.00     0.006 C 
BRANCH   4   5
ATOM      5  C   UNL     1     129.439 144.566 109.488  1.00  0.00     0.053 C 
BRANCH   5   6
ATOM      6  C   UNL     1     130.124 145.407 110.519  1.00  0.00     0.041 C 
ATOM      7  O   UNL     1     130.548 144.884 111.582  1.00  0.00    -0.550 OA
ATOM      8  O   UNL     1     130.337 146.759 110.283  1.00  0.00    -0.550 OA
ENDBRANCH   5   6
ENDBRANCH   4   5
ENDBRANCH   3   4
ENDBRANCH   2   3
ENDBRANCH   1   2
BRANCH   1   9
ATOM      9  C   UNL     1     127.670 144.251 104.953  1.00  0.00     0.000 C 
BRANCH   9  10
ATOM     10  C   UNL     1     127.592 143.051 105.912  1.00  0.00    -0.000 C 
BRANCH  10  11
ATOM     11  C   UNL     1     128.981 142.548 106.339  1.00  0.00    -0.000 C 
BRANCH  11  12
ATOM     12  C   UNL     1     130.112 143.071 105.433  1.00  0.00    -0.000 C 
BRANCH  12  13
ATOM     13  C   UNL     1     131.246 143.806 106.169  1.00  0.00    -0.003 C 
ATOM     14  C   UNL     1     131.093 145.327 106.138  1.00  0.00     0.004 C 
ENDBRANCH  12  13
ENDBRANCH  11  12
ENDBRANCH  10  11
ENDBRANCH   9  10
ENDBRANCH   1   9
TORSDOF 10
ENDMDL
MODEL 9
REMARK VINA RESULT:    -2.119      1.598      2.924
REMARK INTER + INTRA:          -4.738
REMARK INTER:                  -3.333
REMARK INTRA:                  -1.405
REMARK UNBOUND:                -1.381
REMARK SMILES CCCCCCCCCCCC(=O)[O-]
REMARK SMILES IDX 7 1 8 2 9 3 10 4 11 5 12 6 13 7 14 8 6 9 5 10 4 11 3 12 2 13
REMARK SMILES IDX 1 14
REMARK H PARENT
REMARK Flexibility Score: inf
ROOT
ATOM      1  C   UNL     1     127.248 144.376 107.870  1.00  0.00     0.000 C 
ENDROOT
BRANCH   1   2
ATOM      2  C   UNL     1     128.552 144.461 108.681  1.00  0.00     0.000 C 
BRANCH   2   3
ATOM      3  C   UNL     1     129.449 145.630 108.240  1.00  0.00     0.000 C 
BRANCH   3   4
ATOM      4  C   UNL     1     130.755 145.156 107.584  1.00  0.00     0.006 C 
BRANCH   4   5
ATOM      5  C   UNL     1     131.165 146.022 106.384  1.00  0.00     0.053 C 
BRANCH   5   6
ATOM      6  C   UNL     1     132.599 146.432 106.503  1.00  0.00     0.041 C 
ATOM      7  O   UNL     1     133.407 146.190 105.568  1.00  0.00    -0.550 OA
ATOM      8  O   UNL     1     133.033 147.125 107.626  1.00  0.00    -0.550 OA
ENDBRANCH   5   6
ENDBRANCH   4   5
ENDBRANCH   3   4
ENDBRANCH   2   3
ENDBRANCH   1   2
BRANCH   1   9
ATOM      9  C   UNL     1     127.117 145.512 106.840  1.00  0.00     0.000 C 
BRANCH   9  10
ATOM     10  C   UNL     1     127.571 145.087 105.433  1.00  0.00    -0.000 C 
BRANCH  10  11
ATOM     11  C   UNL     1     127.685 143.560 105.288  1.00  0.00    -0.000 C 
BRANCH  11  12
ATOM     12  C   UNL     1     129.141 143.081 105.137  1.00  0.00    -0.000 C 
BRANCH  12  13
ATOM     13  C   UNL     1     129.553 141.944 106.088  1.00  0.00    -0.003 C 
ATOM     14  C   UNL     1     128.389 141.027 106.464  1.00  0.00     0.004 C 
ENDBRANCH  12  13
ENDBRANCH  11  12
ENDBRANCH  10  11
ENDBRANCH   9  10
ENDBRANCH   1   9
TORSDOF 10
ENDMDL
