MODEL 1
REMARK VINA RESULT:    -6.066      0.000      0.000
REMARK INTER + INTRA:          -7.448
REMARK INTER:                  -7.130
REMARK INTRA:                  -0.317
REMARK UNBOUND:                -0.317
REMARK SMILES O=c1cc(-c2ccc(O)c(O)c2)oc2cc(O)cc(O)c12
REMARK SMILES IDX 4 1 3 2 2 3 1 4 21 5 19 6 18 7 16 8 15 9 14 10 13 11 5 12
REMARK SMILES IDX 6 13 7 14 8 15 12 16 10 17 9 18 11 20 20 22 17 24
REMARK H PARENT 9 19 11 21 20 23 17 25
REMARK Flexibility Score: inf
ROOT
ATOM      1  C   UNL     1      -5.609 -37.546  13.634  1.00  0.00     0.138 A 
ATOM      2  C   UNL     1      -4.976 -36.530  12.899  1.00  0.00     0.100 A 
ATOM      3  C   UNL     1      -5.633 -35.959  11.809  1.00  0.00     0.197 A 
ATOM      4  O   UNL     1      -5.057 -35.046  11.157  1.00  0.00    -0.289 OA
ATOM      5  C   UNL     1      -6.923 -36.406  11.461  1.00  0.00     0.107 A 
ATOM      6  C   UNL     1      -7.659 -35.883  10.372  1.00  0.00     0.134 A 
ATOM      7  C   UNL     1      -8.941 -36.379  10.096  1.00  0.00     0.093 A 
ATOM      8  C   UNL     1      -9.501 -37.386  10.886  1.00  0.00     0.123 A 
ATOM      9  C   UNL     1      -8.778 -37.907  11.965  1.00  0.00     0.094 A 
ATOM     10  C   UNL     1      -7.499 -37.427  12.257  1.00  0.00     0.146 A 
ATOM     11  O   UNL     1      -6.832 -37.939  13.286  1.00  0.00    -0.456 OA
ENDROOT
BRANCH   1  12
ATOM     12  C   UNL     1      -4.959 -38.188  14.804  1.00  0.00     0.021 A 
ATOM     13  C   UNL     1      -3.615 -37.894  15.095  1.00  0.00     0.016 A 
ATOM     14  C   UNL     1      -2.982 -38.478  16.195  1.00  0.00     0.051 A 
ATOM     15  C   UNL     1      -3.683 -39.358  17.028  1.00  0.00     0.157 A 
ATOM     16  C   UNL     1      -5.662 -39.065  15.653  1.00  0.00     0.062 A 
ATOM     17  C   UNL     1      -5.026 -39.650  16.758  1.00  0.00     0.158 A 
BRANCH  15  18
ATOM     18  O   UNL     1      -3.055 -39.944  18.125  1.00  0.00    -0.504 OA
ATOM     19  H   UNL     1      -2.813 -39.405  18.948  1.00  0.00     0.293 HD
ENDBRANCH  15  18
BRANCH  17  20
ATOM     20  O   UNL     1      -5.723 -40.518  17.596  1.00  0.00    -0.504 OA
ATOM     21  H   UNL     1      -5.806 -41.506  17.386  1.00  0.00     0.293 HD
ENDBRANCH  17  20
ENDBRANCH   1  12
BRANCH   6  22
ATOM     22  O   UNL     1      -7.126 -34.877   9.565  1.00  0.00    -0.507 OA
ATOM     23  H   UNL     1      -7.670 -34.439   8.830  1.00  0.00     0.293 HD
ENDBRANCH   6  22
BRANCH   8  24
ATOM     24  O   UNL     1     -10.776 -37.862  10.591  1.00  0.00    -0.508 OA
ATOM     25  H   UNL     1     -11.308 -37.503   9.807  1.00  0.00     0.293 HD
ENDBRANCH   8  24
TORSDOF 5
ENDMDL
MODEL 2
REMARK VINA RESULT:    -5.545     10.432     10.703
REMARK INTER + INTRA:          -6.835
REMARK INTER:                  -6.524
REMARK INTRA:                  -0.312
REMARK UNBOUND:                -0.317
REMARK SMILES O=c1cc(-c2ccc(O)c(O)c2)oc2cc(O)cc(O)c12
REMARK SMILES IDX 4 1 3 2 2 3 1 4 21 5 19 6 18 7 16 8 15 9 14 10 13 11 5 12
REMARK SMILES IDX 6 13 7 14 8 15 12 16 10 17 9 18 11 20 20 22 17 24
REMARK H PARENT 9 19 11 21 20 23 17 25
REMARK Flexibility Score: inf
ROOT
ATOM      1  C   UNL     1     -12.069 -45.673  15.533  1.00  0.00     0.138 A 
ATOM      2  C   UNL     1     -12.447 -44.999  16.706  1.00  0.00     0.100 A 
ATOM      3  C   UNL     1     -13.470 -44.051  16.654  1.00  0.00     0.197 A 
ATOM      4  O   UNL     1     -13.803 -43.452  17.712  1.00  0.00    -0.289 OA
ATOM      5  C   UNL     1     -14.112 -43.786  15.428  1.00  0.00     0.107 A 
ATOM      6  C   UNL     1     -15.156 -42.842  15.287  1.00  0.00     0.134 A 
ATOM      7  C   UNL     1     -15.748 -42.641  14.032  1.00  0.00     0.093 A 
ATOM      8  C   UNL     1     -15.317 -43.365  12.918  1.00  0.00     0.123 A 
ATOM      9  C   UNL     1     -14.285 -44.301  13.050  1.00  0.00     0.094 A 
ATOM     10  C   UNL     1     -13.682 -44.515  14.292  1.00  0.00     0.146 A 
ATOM     11  O   UNL     1     -12.702 -45.408  14.393  1.00  0.00    -0.456 OA
ENDROOT
BRANCH   1  12
ATOM     12  C   UNL     1     -10.990 -46.692  15.529  1.00  0.00     0.021 A 
ATOM     13  C   UNL     1     -10.645 -47.339  16.729  1.00  0.00     0.016 A 
ATOM     14  C   UNL     1      -9.638 -48.307  16.751  1.00  0.00     0.051 A 
ATOM     15  C   UNL     1      -8.965 -48.653  15.573  1.00  0.00     0.157 A 
ATOM     16  C   UNL     1     -10.317 -47.055  14.345  1.00  0.00     0.062 A 
ATOM     17  C   UNL     1      -9.308 -48.029  14.367  1.00  0.00     0.158 A 
BRANCH  15  18
ATOM     18  O   UNL     1      -7.960 -49.618  15.591  1.00  0.00    -0.504 OA
ATOM     19  H   UNL     1      -8.149 -50.576  15.862  1.00  0.00     0.293 HD
ENDBRANCH  15  18
BRANCH  17  20
ATOM     20  O   UNL     1      -8.643 -48.384  13.195  1.00  0.00    -0.504 OA
ATOM     21  H   UNL     1      -8.403 -47.694  12.492  1.00  0.00     0.293 HD
ENDBRANCH  17  20
ENDBRANCH   1  12
BRANCH   6  22
ATOM     22  O   UNL     1     -15.608 -42.104  16.383  1.00  0.00    -0.507 OA
ATOM     23  H   UNL     1     -16.351 -42.443  16.983  1.00  0.00     0.293 HD
ENDBRANCH   6  22
BRANCH   8  24
ATOM     24  O   UNL     1     -15.921 -43.147  11.681  1.00  0.00    -0.508 OA
ATOM     25  H   UNL     1     -16.710 -42.519  11.579  1.00  0.00     0.293 HD
ENDBRANCH   8  24
TORSDOF 5
ENDMDL
MODEL 3
REMARK VINA RESULT:    -5.523      1.684      6.994
REMARK INTER + INTRA:          -6.809
REMARK INTER:                  -6.515
REMARK INTRA:                  -0.294
REMARK UNBOUND:                -0.317
REMARK SMILES O=c1cc(-c2ccc(O)c(O)c2)oc2cc(O)cc(O)c12
REMARK SMILES IDX 4 1 3 2 2 3 1 4 21 5 19 6 18 7 16 8 15 9 14 10 13 11 5 12
REMARK SMILES IDX 6 13 7 14 8 15 12 16 10 17 9 18 11 20 20 22 17 24
REMARK H PARENT 9 19 11 21 20 23 17 25
REMARK Flexibility Score: inf
ROOT
ATOM      1  C   UNL     1      -6.010 -37.164  13.814  1.00  0.00     0.138 A 
ATOM      2  C   UNL     1      -5.211 -36.104  14.276  1.00  0.00     0.100 A 
ATOM      3  C   UNL     1      -4.480 -36.259  15.454  1.00  0.00     0.197 A 
ATOM      4  O   UNL     1      -3.764 -35.303  15.860  1.00  0.00    -0.289 OA
ATOM      5  C   UNL     1      -4.549 -37.475  16.162  1.00  0.00     0.107 A 
ATOM      6  C   UNL     1      -3.842 -37.715  17.364  1.00  0.00     0.134 A 
ATOM      7  C   UNL     1      -3.961 -38.957  18.005  1.00  0.00     0.093 A 
ATOM      8  C   UNL     1      -4.770 -39.961  17.468  1.00  0.00     0.123 A 
ATOM      9  C   UNL     1      -5.472 -39.730  16.280  1.00  0.00     0.094 A 
ATOM     10  C   UNL     1      -5.368 -38.499  15.626  1.00  0.00     0.146 A 
ATOM     11  O   UNL     1      -6.046 -38.303  14.500  1.00  0.00    -0.456 OA
ENDROOT
BRANCH   1  12
ATOM     12  C   UNL     1      -6.807 -37.056  12.567  1.00  0.00     0.021 A 
ATOM     13  C   UNL     1      -7.849 -37.971  12.331  1.00  0.00     0.016 A 
ATOM     14  C   UNL     1      -8.620 -37.886  11.168  1.00  0.00     0.051 A 
ATOM     15  C   UNL     1      -8.370 -36.881  10.227  1.00  0.00     0.157 A 
ATOM     16  C   UNL     1      -6.569 -36.039  11.620  1.00  0.00     0.062 A 
ATOM     17  C   UNL     1      -7.345 -35.954  10.455  1.00  0.00     0.158 A 
BRANCH  15  18
ATOM     18  O   UNL     1      -9.135 -36.795   9.066  1.00  0.00    -0.504 OA
ATOM     19  H   UNL     1      -9.729 -35.995   8.881  1.00  0.00     0.293 HD
ENDBRANCH  15  18
BRANCH  17  20
ATOM     20  O   UNL     1      -7.106 -34.949   9.520  1.00  0.00    -0.504 OA
ATOM     21  H   UNL     1      -6.928 -33.992   9.803  1.00  0.00     0.293 HD
ENDBRANCH  17  20
ENDBRANCH   1  12
BRANCH   6  22
ATOM     22  O   UNL     1      -3.025 -36.731  17.923  1.00  0.00    -0.507 OA
ATOM     23  H   UNL     1      -3.086 -35.762  17.635  1.00  0.00     0.293 HD
ENDBRANCH   6  22
BRANCH   8  24
ATOM     24  O   UNL     1      -4.871 -41.186  18.125  1.00  0.00    -0.508 OA
ATOM     25  H   UNL     1      -5.334 -41.980  17.698  1.00  0.00     0.293 HD
ENDBRANCH   8  24
TORSDOF 5
ENDMDL
MODEL 4
REMARK VINA RESULT:    -5.442      1.279      7.292
REMARK INTER + INTRA:          -6.714
REMARK INTER:                  -6.422
REMARK INTRA:                  -0.292
REMARK UNBOUND:                -0.317
REMARK SMILES O=c1cc(-c2ccc(O)c(O)c2)oc2cc(O)cc(O)c12
REMARK SMILES IDX 4 1 3 2 2 3 1 4 21 5 19 6 18 7 16 8 15 9 14 10 13 11 5 12
REMARK SMILES IDX 6 13 7 14 8 15 12 16 10 17 9 18 11 20 20 22 17 24
REMARK H PARENT 9 19 11 21 20 23 17 25
REMARK Flexibility Score: inf
ROOT
ATOM      1  C   UNL     1      -6.471 -37.921  13.930  1.00  0.00     0.138 A 
ATOM      2  C   UNL     1      -7.484 -38.633  14.593  1.00  0.00     0.100 A 
ATOM      3  C   UNL     1      -7.174 -39.356  15.746  1.00  0.00     0.197 A 
ATOM      4  O   UNL     1      -8.091 -39.990  16.335  1.00  0.00    -0.289 OA
ATOM      5  C   UNL     1      -5.851 -39.358  16.231  1.00  0.00     0.107 A 
ATOM      6  C   UNL     1      -5.451 -40.063  17.391  1.00  0.00     0.134 A 
ATOM      7  C   UNL     1      -4.115 -40.010  17.811  1.00  0.00     0.093 A 
ATOM      8  C   UNL     1      -3.173 -39.266  17.097  1.00  0.00     0.123 A 
ATOM      9  C   UNL     1      -3.562 -38.566  15.949  1.00  0.00     0.094 A 
ATOM     10  C   UNL     1      -4.888 -38.607  15.513  1.00  0.00     0.146 A 
ATOM     11  O   UNL     1      -5.233 -37.935  14.419  1.00  0.00    -0.456 OA
ENDROOT
BRANCH   1  12
ATOM     12  C   UNL     1      -6.743 -37.134  12.701  1.00  0.00     0.021 A 
ATOM     13  C   UNL     1      -5.870 -36.092  12.339  1.00  0.00     0.016 A 
ATOM     14  C   UNL     1      -6.099 -35.342  11.183  1.00  0.00     0.051 A 
ATOM     15  C   UNL     1      -7.198 -35.626  10.363  1.00  0.00     0.157 A 
ATOM     16  C   UNL     1      -7.839 -37.423  11.864  1.00  0.00     0.062 A 
ATOM     17  C   UNL     1      -8.067 -36.670  10.702  1.00  0.00     0.158 A 
BRANCH  15  18
ATOM     18  O   UNL     1      -7.430 -34.879   9.210  1.00  0.00    -0.504 OA
ATOM     19  H   UNL     1      -8.304 -34.387   9.064  1.00  0.00     0.293 HD
ENDBRANCH  15  18
BRANCH  17  20
ATOM     20  O   UNL     1      -9.153 -36.956   9.878  1.00  0.00    -0.504 OA
ATOM     21  H   UNL     1      -9.720 -36.220   9.472  1.00  0.00     0.293 HD
ENDBRANCH  17  20
ENDBRANCH   1  12
BRANCH   6  22
ATOM     22  O   UNL     1      -6.371 -40.814  18.125  1.00  0.00    -0.507 OA
ATOM     23  H   UNL     1      -7.057 -41.406  17.672  1.00  0.00     0.293 HD
ENDBRANCH   6  22
BRANCH   8  24
ATOM     24  O   UNL     1      -1.850 -39.229  17.536  1.00  0.00    -0.508 OA
ATOM     25  H   UNL     1      -1.615 -38.991  18.492  1.00  0.00     0.293 HD
ENDBRANCH   8  24
TORSDOF 5
ENDMDL
MODEL 5
REMARK VINA RESULT:    -5.351      1.727      6.792
REMARK INTER + INTRA:          -6.606
REMARK INTER:                  -6.296
REMARK INTRA:                  -0.310
REMARK UNBOUND:                -0.317
REMARK SMILES O=c1cc(-c2ccc(O)c(O)c2)oc2cc(O)cc(O)c12
REMARK SMILES IDX 4 1 3 2 2 3 1 4 21 5 19 6 18 7 16 8 15 9 14 10 13 11 5 12
REMARK SMILES IDX 6 13 7 14 8 15 12 16 10 17 9 18 11 20 20 22 17 24
REMARK H PARENT 9 19 11 21 20 23 17 25
REMARK Flexibility Score: inf
ROOT
ATOM      1  C   UNL     1      -6.243 -36.764  13.503  1.00  0.00     0.138 A 
ATOM      2  C   UNL     1      -5.493 -35.686  14.004  1.00  0.00     0.100 A 
ATOM      3  C   UNL     1      -4.750 -35.851  15.174  1.00  0.00     0.197 A 
ATOM      4  O   UNL     1      -4.079 -34.879  15.615  1.00  0.00    -0.289 OA
ATOM      5  C   UNL     1      -4.760 -37.096  15.835  1.00  0.00     0.107 A 
ATOM      6  C   UNL     1      -4.037 -37.348  17.024  1.00  0.00     0.134 A 
ATOM      7  C   UNL     1      -4.095 -38.617  17.617  1.00  0.00     0.093 A 
ATOM      8  C   UNL     1      -4.858 -39.637  17.045  1.00  0.00     0.123 A 
ATOM      9  C   UNL     1      -5.575 -39.394  15.868  1.00  0.00     0.094 A 
ATOM     10  C   UNL     1      -5.532 -38.136  15.261  1.00  0.00     0.146 A 
ATOM     11  O   UNL     1      -6.222 -37.929  14.145  1.00  0.00    -0.456 OA
ENDROOT
BRANCH   1  12
ATOM     12  C   UNL     1      -7.049 -36.646  12.262  1.00  0.00     0.021 A 
ATOM     13  C   UNL     1      -6.700 -35.683  11.300  1.00  0.00     0.016 A 
ATOM     14  C   UNL     1      -7.438 -35.557  10.120  1.00  0.00     0.051 A 
ATOM     15  C   UNL     1      -8.530 -36.398   9.877  1.00  0.00     0.157 A 
ATOM     16  C   UNL     1      -8.142 -37.498  12.006  1.00  0.00     0.062 A 
ATOM     17  C   UNL     1      -8.880 -37.373  10.820  1.00  0.00     0.158 A 
BRANCH  15  18
ATOM     18  O   UNL     1      -9.269 -36.275   8.702  1.00  0.00    -0.504 OA
ATOM     19  H   UNL     1      -9.679 -35.391   8.423  1.00  0.00     0.293 HD
ENDBRANCH  15  18
BRANCH  17  20
ATOM     20  O   UNL     1      -9.962 -38.215  10.569  1.00  0.00    -0.504 OA
ATOM     21  H   UNL     1     -10.332 -38.830  11.285  1.00  0.00     0.293 HD
ENDBRANCH  17  20
ENDBRANCH   1  12
BRANCH   6  22
ATOM     22  O   UNL     1      -3.266 -36.349  17.620  1.00  0.00    -0.507 OA
ATOM     23  H   UNL     1      -2.899 -36.448  18.559  1.00  0.00     0.293 HD
ENDBRANCH   6  22
BRANCH   8  24
ATOM     24  O   UNL     1      -4.899 -40.890  17.654  1.00  0.00    -0.508 OA
ATOM     25  H   UNL     1      -4.190 -41.591  17.472  1.00  0.00     0.293 HD
ENDBRANCH   8  24
TORSDOF 5
ENDMDL
MODEL 6
REMARK VINA RESULT:    -5.314      2.204      7.665
REMARK INTER + INTRA:          -6.563
REMARK INTER:                  -6.266
REMARK INTRA:                  -0.297
REMARK UNBOUND:                -0.317
REMARK SMILES O=c1cc(-c2ccc(O)c(O)c2)oc2cc(O)cc(O)c12
REMARK SMILES IDX 4 1 3 2 2 3 1 4 21 5 19 6 18 7 16 8 15 9 14 10 13 11 5 12
REMARK SMILES IDX 6 13 7 14 8 15 12 16 10 17 9 18 11 20 20 22 17 24
REMARK H PARENT 9 19 11 21 20 23 17 25
REMARK Flexibility Score: inf
ROOT
ATOM      1  C   UNL     1      -8.028 -37.029  11.364  1.00  0.00     0.138 A 
ATOM      2  C   UNL     1      -8.835 -37.447  12.436  1.00  0.00     0.100 A 
ATOM      3  C   UNL     1      -8.235 -37.882  13.619  1.00  0.00     0.197 A 
ATOM      4  O   UNL     1      -8.968 -38.252  14.575  1.00  0.00    -0.289 OA
ATOM      5  C   UNL     1      -6.830 -37.893  13.723  1.00  0.00     0.107 A 
ATOM      6  C   UNL     1      -6.142 -38.318  14.884  1.00  0.00     0.134 A 
ATOM      7  C   UNL     1      -4.740 -38.294  14.910  1.00  0.00     0.093 A 
ATOM      8  C   UNL     1      -4.015 -37.852  13.801  1.00  0.00     0.123 A 
ATOM      9  C   UNL     1      -4.689 -37.430  12.650  1.00  0.00     0.094 A 
ATOM     10  C   UNL     1      -6.086 -37.447  12.604  1.00  0.00     0.146 A 
ATOM     11  O   UNL     1      -6.704 -37.043  11.499  1.00  0.00    -0.456 OA
ENDROOT
BRANCH   1  12
ATOM     12  C   UNL     1      -8.610 -36.556  10.084  1.00  0.00     0.021 A 
ATOM     13  C   UNL     1      -9.750 -35.732  10.106  1.00  0.00     0.016 A 
ATOM     14  C   UNL     1     -10.313 -35.266   8.915  1.00  0.00     0.051 A 
ATOM     15  C   UNL     1      -9.742 -35.606   7.683  1.00  0.00     0.157 A 
ATOM     16  C   UNL     1      -8.033 -36.883   8.841  1.00  0.00     0.062 A 
ATOM     17  C   UNL     1      -8.598 -36.413   7.646  1.00  0.00     0.158 A 
BRANCH  15  18
ATOM     18  O   UNL     1     -10.301 -35.144   6.493  1.00  0.00    -0.504 OA
ATOM     19  H   UNL     1     -10.233 -35.677   5.634  1.00  0.00     0.293 HD
ENDBRANCH  15  18
BRANCH  17  20
ATOM     20  O   UNL     1      -8.026 -36.741   6.418  1.00  0.00    -0.504 OA
ATOM     21  H   UNL     1      -8.447 -37.426   5.803  1.00  0.00     0.293 HD
ENDBRANCH  17  20
ENDBRANCH   1  12
BRANCH   6  22
ATOM     22  O   UNL     1      -6.840 -38.765  16.008  1.00  0.00    -0.507 OA
ATOM     23  H   UNL     1      -7.569 -39.465  15.938  1.00  0.00     0.293 HD
ENDBRANCH   6  22
BRANCH   8  24
ATOM     24  O   UNL     1      -2.622 -37.838  13.852  1.00  0.00    -0.508 OA
ATOM     25  H   UNL     1      -2.085 -37.078  13.452  1.00  0.00     0.293 HD
ENDBRANCH   8  24
TORSDOF 5
ENDMDL
MODEL 7
REMARK VINA RESULT:    -5.101      1.872      7.080
REMARK INTER + INTRA:          -6.313
REMARK INTER:                  -6.035
REMARK INTRA:                  -0.278
REMARK UNBOUND:                -0.317
REMARK SMILES O=c1cc(-c2ccc(O)c(O)c2)oc2cc(O)cc(O)c12
REMARK SMILES IDX 4 1 3 2 2 3 1 4 21 5 19 6 18 7 16 8 15 9 14 10 13 11 5 12
REMARK SMILES IDX 6 13 7 14 8 15 12 16 10 17 9 18 11 20 20 22 17 24
REMARK H PARENT 9 19 11 21 20 23 17 25
REMARK Flexibility Score: inf
ROOT
ATOM      1  C   UNL     1      -7.090 -36.823  11.787  1.00  0.00     0.138 A 
ATOM      2  C   UNL     1      -5.721 -36.732  11.482  1.00  0.00     0.100 A 
ATOM      3  C   UNL     1      -4.781 -37.211  12.394  1.00  0.00     0.197 A 
ATOM      4  O   UNL     1      -3.555 -37.127  12.111  1.00  0.00    -0.289 OA
ATOM      5  C   UNL     1      -5.216 -37.782  13.607  1.00  0.00     0.107 A 
ATOM      6  C   UNL     1      -4.330 -38.291  14.587  1.00  0.00     0.134 A 
ATOM      7  C   UNL     1      -4.844 -38.849  15.766  1.00  0.00     0.093 A 
ATOM      8  C   UNL     1      -6.223 -38.910  15.983  1.00  0.00     0.123 A 
ATOM      9  C   UNL     1      -7.103 -38.409  15.018  1.00  0.00     0.094 A 
ATOM     10  C   UNL     1      -6.612 -37.848  13.837  1.00  0.00     0.146 A 
ATOM     11  O   UNL     1      -7.468 -37.378  12.936  1.00  0.00    -0.456 OA
ENDROOT
BRANCH   1  12
ATOM     12  C   UNL     1      -8.134 -36.332  10.853  1.00  0.00     0.021 A 
ATOM     13  C   UNL     1      -9.198 -35.559  11.351  1.00  0.00     0.016 A 
ATOM     14  C   UNL     1     -10.189 -35.078  10.492  1.00  0.00     0.051 A 
ATOM     15  C   UNL     1     -10.130 -35.353   9.120  1.00  0.00     0.157 A 
ATOM     16  C   UNL     1      -8.074 -36.594   9.470  1.00  0.00     0.062 A 
ATOM     17  C   UNL     1      -9.069 -36.109   8.608  1.00  0.00     0.158 A 
BRANCH  15  18
ATOM     18  O   UNL     1     -11.117 -34.876   8.261  1.00  0.00    -0.504 OA
ATOM     19  H   UNL     1     -11.577 -35.483   7.593  1.00  0.00     0.293 HD
ENDBRANCH  15  18
BRANCH  17  20
ATOM     20  O   UNL     1      -9.007 -36.371   7.241  1.00  0.00    -0.504 OA
ATOM     21  H   UNL     1      -8.667 -35.680   6.583  1.00  0.00     0.293 HD
ENDBRANCH  17  20
ENDBRANCH   1  12
BRANCH   6  22
ATOM     22  O   UNL     1      -2.948 -38.244  14.397  1.00  0.00    -0.507 OA
ATOM     23  H   UNL     1      -2.401 -37.434  14.666  1.00  0.00     0.293 HD
ENDBRANCH   6  22
BRANCH   8  24
ATOM     24  O   UNL     1      -6.708 -39.470  17.164  1.00  0.00    -0.508 OA
ATOM     25  H   UNL     1      -7.518 -40.078  17.168  1.00  0.00     0.293 HD
ENDBRANCH   8  24
TORSDOF 5
ENDMDL
