MODEL 1
REMARK VINA RESULT:    -5.325      0.000      0.000
REMARK INTER + INTRA:          -5.730
REMARK INTER:                  -5.637
REMARK INTRA:                  -0.093
REMARK UNBOUND:                -0.093
REMARK SMILES C=C(C)[C@@H]1CC=C(C)C(=O)C1
REMARK SMILES IDX 8 1 7 2 6 3 5 4 4 5 11 6 9 7 10 8 2 9 1 10 3 11
REMARK H PARENT
REMARK Flexibility Score: inf
ROOT
ATOM      1  C   UNL     1       2.718   6.010   9.439  1.00  0.00     0.048 C 
ATOM      2  C   UNL     1       2.997   5.290  10.729  1.00  0.00    -0.012 C 
ATOM      3  C   UNL     1       4.253   5.221  11.198  1.00  0.00    -0.019 C 
ATOM      4  C   UNL     1       4.586   4.529  12.494  1.00  0.00     0.036 C 
ATOM      5  C   UNL     1       3.644   3.335  12.742  1.00  0.00     0.025 C 
ATOM      6  C   UNL     1       2.175   3.794  12.685  1.00  0.00     0.089 C 
ATOM      7  C   UNL     1       1.906   4.552  11.415  1.00  0.00     0.158 C 
ATOM      8  O   UNL     1       0.732   4.585  10.956  1.00  0.00    -0.295 OA
ENDROOT
BRANCH   5   9
ATOM      9  C   UNL     1       3.962   2.630  14.054  1.00  0.00    -0.077 C 
ATOM     10  C   UNL     1       3.972   3.297  15.221  1.00  0.00     0.008 C 
ATOM     11  C   UNL     1       4.274   1.156  14.064  1.00  0.00     0.039 C 
ENDBRANCH   5   9
TORSDOF 1
ENDMDL
MODEL 2
REMARK VINA RESULT:    -5.157     15.983     17.243
REMARK INTER + INTRA:          -5.551
REMARK INTER:                  -5.455
REMARK INTRA:                  -0.096
REMARK UNBOUND:                -0.093
REMARK SMILES C=C(C)[C@@H]1CC=C(C)C(=O)C1
REMARK SMILES IDX 8 1 7 2 6 3 5 4 4 5 11 6 9 7 10 8 2 9 1 10 3 11
REMARK H PARENT
REMARK Flexibility Score: inf
ROOT
ATOM      1  C   UNL     1      -5.448  -8.129  11.092  1.00  0.00     0.048 C 
ATOM      2  C   UNL     1      -6.645  -8.357  11.973  1.00  0.00    -0.012 C 
ATOM      3  C   UNL     1      -7.428  -9.430  11.772  1.00  0.00    -0.019 C 
ATOM      4  C   UNL     1      -8.627  -9.718  12.637  1.00  0.00     0.036 C 
ATOM      5  C   UNL     1      -9.283  -8.412  13.126  1.00  0.00     0.025 C 
ATOM      6  C   UNL     1      -8.245  -7.529  13.842  1.00  0.00     0.089 C 
ATOM      7  C   UNL     1      -7.029  -7.335  12.980  1.00  0.00     0.158 C 
ATOM      8  O   UNL     1      -6.315  -6.309  13.144  1.00  0.00    -0.295 OA
ENDROOT
BRANCH   5   9
ATOM      9  C   UNL     1     -10.493  -8.687  14.009  1.00  0.00    -0.077 C 
ATOM     10  C   UNL     1     -11.124  -9.873  13.982  1.00  0.00     0.008 C 
ATOM     11  C   UNL     1     -11.008  -7.619  14.939  1.00  0.00     0.039 C 
ENDBRANCH   5   9
TORSDOF 1
ENDMDL
MODEL 3
REMARK VINA RESULT:    -5.128     16.555     17.766
REMARK INTER + INTRA:          -5.521
REMARK INTER:                  -5.428
REMARK INTRA:                  -0.093
REMARK UNBOUND:                -0.093
REMARK SMILES C=C(C)[C@@H]1CC=C(C)C(=O)C1
REMARK SMILES IDX 8 1 7 2 6 3 5 4 4 5 11 6 9 7 10 8 2 9 1 10 3 11
REMARK H PARENT
REMARK Flexibility Score: inf
ROOT
ATOM      1  C   UNL     1     -11.093  -7.267  15.121  1.00  0.00     0.048 C 
ATOM      2  C   UNL     1      -9.956  -7.850  14.329  1.00  0.00    -0.012 C 
ATOM      3  C   UNL     1      -8.877  -7.098  14.053  1.00  0.00    -0.019 C 
ATOM      4  C   UNL     1      -7.703  -7.638  13.280  1.00  0.00     0.036 C 
ATOM      5  C   UNL     1      -8.157  -8.679  12.238  1.00  0.00     0.025 C 
ATOM      6  C   UNL     1      -8.970  -9.795  12.919  1.00  0.00     0.089 C 
ATOM      7  C   UNL     1     -10.081  -9.211  13.747  1.00  0.00     0.158 C 
ATOM      8  O   UNL     1     -11.109  -9.905  13.974  1.00  0.00    -0.295 OA
ENDROOT
BRANCH   5   9
ATOM      9  C   UNL     1      -6.978  -9.240  11.454  1.00  0.00    -0.077 C 
ATOM     10  C   UNL     1      -6.079 -10.056  12.031  1.00  0.00     0.008 C 
ATOM     11  C   UNL     1      -6.800  -8.885  10.000  1.00  0.00     0.039 C 
ENDBRANCH   5   9
TORSDOF 1
ENDMDL
MODEL 4
REMARK VINA RESULT:    -5.111     16.283     17.449
REMARK INTER + INTRA:          -5.503
REMARK INTER:                  -5.414
REMARK INTRA:                  -0.090
REMARK UNBOUND:                -0.093
REMARK SMILES C=C(C)[C@@H]1CC=C(C)C(=O)C1
REMARK SMILES IDX 8 1 7 2 6 3 5 4 4 5 11 6 9 7 10 8 2 9 1 10 3 11
REMARK H PARENT
REMARK Flexibility Score: inf
ROOT
ATOM      1  C   UNL     1     -11.063  -7.495  15.377  1.00  0.00     0.048 C 
ATOM      2  C   UNL     1     -10.124  -7.899  14.274  1.00  0.00    -0.012 C 
ATOM      3  C   UNL     1      -9.976  -9.197  13.964  1.00  0.00    -0.019 C 
ATOM      4  C   UNL     1      -9.064  -9.656  12.857  1.00  0.00     0.036 C 
ATOM      5  C   UNL     1      -7.843  -8.726  12.724  1.00  0.00     0.025 C 
ATOM      6  C   UNL     1      -8.301  -7.268  12.537  1.00  0.00     0.089 C 
ATOM      7  C   UNL     1      -9.273  -6.876  13.615  1.00  0.00     0.158 C 
ATOM      8  O   UNL     1      -9.384  -5.660  13.930  1.00  0.00    -0.295 OA
ENDROOT
BRANCH   5   9
ATOM      9  C   UNL     1      -6.915  -9.172  11.601  1.00  0.00    -0.077 C 
ATOM     10  C   UNL     1      -5.988 -10.125  11.797  1.00  0.00     0.008 C 
ATOM     11  C   UNL     1      -7.025  -8.544  10.235  1.00  0.00     0.039 C 
ENDBRANCH   5   9
TORSDOF 1
ENDMDL
MODEL 5
REMARK VINA RESULT:    -5.059      1.665      2.300
REMARK INTER + INTRA:          -5.448
REMARK INTER:                  -5.353
REMARK INTRA:                  -0.095
REMARK UNBOUND:                -0.093
REMARK SMILES C=C(C)[C@@H]1CC=C(C)C(=O)C1
REMARK SMILES IDX 8 1 7 2 6 3 5 4 4 5 11 6 9 7 10 8 2 9 1 10 3 11
REMARK H PARENT
REMARK Flexibility Score: inf
ROOT
ATOM      1  C   UNL     1       2.712   6.307   9.920  1.00  0.00     0.048 C 
ATOM      2  C   UNL     1       2.872   5.228  10.955  1.00  0.00    -0.012 C 
ATOM      3  C   UNL     1       1.866   4.368  11.186  1.00  0.00    -0.019 C 
ATOM      4  C   UNL     1       1.979   3.258  12.197  1.00  0.00     0.036 C 
ATOM      5  C   UNL     1       2.872   3.676  13.381  1.00  0.00     0.025 C 
ATOM      6  C   UNL     1       4.248   4.145  12.872  1.00  0.00     0.089 C 
ATOM      7  C   UNL     1       4.089   5.193  11.805  1.00  0.00     0.158 C 
ATOM      8  O   UNL     1       5.019   6.023  11.615  1.00  0.00    -0.295 OA
ENDROOT
BRANCH   5   9
ATOM      9  C   UNL     1       3.004   2.559  14.409  1.00  0.00    -0.077 C 
ATOM     10  C   UNL     1       2.033   1.644  14.574  1.00  0.00     0.008 C 
ATOM     11  C   UNL     1       4.239   2.463  15.266  1.00  0.00     0.039 C 
ENDBRANCH   5   9
TORSDOF 1
ENDMDL
MODEL 6
REMARK VINA RESULT:    -5.012     15.879     17.083
REMARK INTER + INTRA:          -5.398
REMARK INTER:                  -5.300
REMARK INTRA:                  -0.098
REMARK UNBOUND:                -0.093
REMARK SMILES C=C(C)[C@@H]1CC=C(C)C(=O)C1
REMARK SMILES IDX 8 1 7 2 6 3 5 4 4 5 11 6 9 7 10 8 2 9 1 10 3 11
REMARK H PARENT
REMARK Flexibility Score: inf
ROOT
ATOM      1  C   UNL     1      -5.113  -7.364  12.040  1.00  0.00     0.048 C 
ATOM      2  C   UNL     1      -6.542  -7.557  12.466  1.00  0.00    -0.012 C 
ATOM      3  C   UNL     1      -7.151  -6.618  13.209  1.00  0.00    -0.019 C 
ATOM      4  C   UNL     1      -8.586  -6.751  13.647  1.00  0.00     0.036 C 
ATOM      5  C   UNL     1      -8.958  -8.228  13.882  1.00  0.00     0.025 C 
ATOM      6  C   UNL     1      -8.651  -9.062  12.626  1.00  0.00     0.089 C 
ATOM      7  C   UNL     1      -7.235  -8.837  12.173  1.00  0.00     0.158 C 
ATOM      8  O   UNL     1      -6.651  -9.735  11.508  1.00  0.00    -0.295 OA
ENDROOT
BRANCH   5   9
ATOM      9  C   UNL     1     -10.410  -8.380  14.318  1.00  0.00    -0.077 C 
ATOM     10  C   UNL     1     -11.125  -9.471  13.996  1.00  0.00     0.008 C 
ATOM     11  C   UNL     1     -11.074  -7.295  15.125  1.00  0.00     0.039 C 
ENDBRANCH   5   9
TORSDOF 1
ENDMDL
MODEL 7
REMARK VINA RESULT:    -4.885     14.867     15.940
REMARK INTER + INTRA:          -5.264
REMARK INTER:                  -5.170
REMARK INTRA:                  -0.094
REMARK UNBOUND:                -0.093
REMARK SMILES C=C(C)[C@@H]1CC=C(C)C(=O)C1
REMARK SMILES IDX 8 1 7 2 6 3 5 4 4 5 11 6 9 7 10 8 2 9 1 10 3 11
REMARK H PARENT
REMARK Flexibility Score: inf
ROOT
ATOM      1  C   UNL     1      -5.729  -4.446  12.391  1.00  0.00     0.048 C 
ATOM      2  C   UNL     1      -6.916  -5.288  12.770  1.00  0.00    -0.012 C 
ATOM      3  C   UNL     1      -8.047  -4.698  13.192  1.00  0.00    -0.019 C 
ATOM      4  C   UNL     1      -9.271  -5.492  13.566  1.00  0.00     0.036 C 
ATOM      5  C   UNL     1      -8.883  -6.854  14.172  1.00  0.00     0.025 C 
ATOM      6  C   UNL     1      -7.960  -7.623  13.210  1.00  0.00     0.089 C 
ATOM      7  C   UNL     1      -6.795  -6.767  12.796  1.00  0.00     0.158 C 
ATOM      8  O   UNL     1      -5.722  -7.322  12.436  1.00  0.00    -0.295 OA
ENDROOT
BRANCH   5   9
ATOM      9  C   UNL     1     -10.112  -7.673  14.548  1.00  0.00    -0.077 C 
ATOM     10  C   UNL     1     -11.125  -7.133  15.247  1.00  0.00     0.008 C 
ATOM     11  C   UNL     1     -10.212  -9.119  14.135  1.00  0.00     0.039 C 
ENDBRANCH   5   9
TORSDOF 1
ENDMDL
MODEL 8
REMARK VINA RESULT:    -4.253     16.147     17.361
REMARK INTER + INTRA:          -4.595
REMARK INTER:                  -4.506
REMARK INTRA:                  -0.089
REMARK UNBOUND:                -0.093
REMARK SMILES C=C(C)[C@@H]1CC=C(C)C(=O)C1
REMARK SMILES IDX 8 1 7 2 6 3 5 4 4 5 11 6 9 7 10 8 2 9 1 10 3 11
REMARK H PARENT
REMARK Flexibility Score: inf
ROOT
ATOM      1  C   UNL     1     -11.125  -4.234  15.108  1.00  0.00     0.048 C 
ATOM      2  C   UNL     1     -10.601  -5.561  14.632  1.00  0.00    -0.012 C 
ATOM      3  C   UNL     1     -11.116  -6.700  15.125  1.00  0.00    -0.019 C 
ATOM      4  C   UNL     1     -10.642  -8.055  14.670  1.00  0.00     0.036 C 
ATOM      5  C   UNL     1      -9.146  -8.024  14.305  1.00  0.00     0.025 C 
ATOM      6  C   UNL     1      -8.874  -6.928  13.258  1.00  0.00     0.089 C 
ATOM      7  C   UNL     1      -9.436  -5.610  13.713  1.00  0.00     0.158 C 
ATOM      8  O   UNL     1      -8.927  -4.542  13.278  1.00  0.00    -0.295 OA
ENDROOT
BRANCH   5   9
ATOM      9  C   UNL     1      -8.653  -9.386  13.834  1.00  0.00    -0.077 C 
ATOM     10  C   UNL     1      -7.566  -9.962  14.374  1.00  0.00     0.008 C 
ATOM     11  C   UNL     1      -9.388 -10.119  12.740  1.00  0.00     0.039 C 
ENDBRANCH   5   9
TORSDOF 1
ENDMDL
MODEL 9
REMARK VINA RESULT:    -2.763     15.778     17.086
REMARK INTER + INTRA:          -3.017
REMARK INTER:                  -2.923
REMARK INTRA:                  -0.094
REMARK UNBOUND:                -0.093
REMARK SMILES C=C(C)[C@@H]1CC=C(C)C(=O)C1
REMARK SMILES IDX 8 1 7 2 6 3 5 4 4 5 11 6 9 7 10 8 2 9 1 10 3 11
REMARK H PARENT
REMARK Flexibility Score: inf
ROOT
ATOM      1  C   UNL     1     -11.026 -10.125  13.997  1.00  0.00     0.048 C 
ATOM      2  C   UNL     1      -9.989  -9.116  13.585  1.00  0.00    -0.012 C 
ATOM      3  C   UNL     1      -9.056  -9.448  12.677  1.00  0.00    -0.019 C 
ATOM      4  C   UNL     1      -8.007  -8.472  12.216  1.00  0.00     0.036 C 
ATOM      5  C   UNL     1      -7.616  -7.502  13.348  1.00  0.00     0.025 C 
ATOM      6  C   UNL     1      -8.868  -6.796  13.901  1.00  0.00     0.089 C 
ATOM      7  C   UNL     1      -9.922  -7.802  14.273  1.00  0.00     0.158 C 
ATOM      8  O   UNL     1     -10.775  -7.502  15.152  1.00  0.00    -0.295 OA
ENDROOT
BRANCH   5   9
ATOM      9  C   UNL     1      -6.561  -6.502  12.893  1.00  0.00    -0.077 C 
ATOM     10  C   UNL     1      -5.503  -6.887  12.159  1.00  0.00     0.008 C 
ATOM     11  C   UNL     1      -6.689  -5.047  13.264  1.00  0.00     0.039 C 
ENDBRANCH   5   9
TORSDOF 1
ENDMDL
