MODEL 1
REMARK VINA RESULT:    -5.005      0.000      0.000
REMARK INTER + INTRA:          -7.042
REMARK INTER:                  -6.760
REMARK INTRA:                  -0.282
REMARK UNBOUND:                -0.282
REMARK SMILES CCCCCCC=CC(=O)[O-]
REMARK SMILES IDX 5 1 6 2 7 3 8 4 9 5 10 6 11 7 4 8 3 9 2 10 1 11
REMARK H PARENT
REMARK Flexibility Score: inf
ROOT
ATOM      1  C   UNL     1     -10.049 -65.214 -33.382  1.00  0.00     0.004 C 
ENDROOT
BRANCH   1   2
ATOM      2  C   UNL     1     -10.701 -66.547 -32.993  1.00  0.00     0.027 C 
BRANCH   2   3
ATOM      3  C   UNL     1     -11.926 -66.815 -33.819  1.00  0.00    -0.025 C 
ATOM      4  C   UNL     1     -11.841 -67.339 -35.046  1.00  0.00     0.020 C 
BRANCH   4   5
ATOM      5  C   UNL     1     -13.032 -67.593 -35.871  1.00  0.00     0.064 C 
ATOM      6  O   UNL     1     -14.116 -67.908 -35.315  1.00  0.00    -0.545 OA
ATOM      7  O   UNL     1     -12.980 -67.489 -37.256  1.00  0.00    -0.545 OA
ENDBRANCH   4   5
ENDBRANCH   2   3
ENDBRANCH   1   2
BRANCH   1   8
ATOM      8  C   UNL     1      -8.588 -65.160 -32.911  1.00  0.00     0.000 C 
BRANCH   8   9
ATOM      9  C   UNL     1      -7.698 -64.289 -33.817  1.00  0.00    -0.000 C 
BRANCH   9  10
ATOM     10  C   UNL     1      -8.403 -63.721 -35.063  1.00  0.00    -0.003 C 
ATOM     11  C   UNL     1      -7.793 -62.407 -35.549  1.00  0.00     0.004 C 
ENDBRANCH   9  10
ENDBRANCH   8   9
ENDBRANCH   1   8
TORSDOF 6
ENDMDL
MODEL 2
REMARK VINA RESULT:    -4.870      2.679      4.493
REMARK INTER + INTRA:          -6.861
REMARK INTER:                  -6.651
REMARK INTRA:                  -0.209
REMARK UNBOUND:                -0.282
REMARK SMILES CCCCCCC=CC(=O)[O-]
REMARK SMILES IDX 5 1 6 2 7 3 8 4 9 5 10 6 11 7 4 8 3 9 2 10 1 11
REMARK H PARENT
REMARK Flexibility Score: inf
ROOT
ATOM      1  C   UNL     1     -10.544 -67.298 -31.612  1.00  0.00     0.004 C 
ENDROOT
BRANCH   1   2
ATOM      2  C   UNL     1     -10.651 -66.483 -32.907  1.00  0.00     0.027 C 
BRANCH   2   3
ATOM      3  C   UNL     1     -11.863 -66.880 -33.700  1.00  0.00    -0.025 C 
ATOM      4  C   UNL     1     -11.780 -67.178 -35.000  1.00  0.00     0.020 C 
BRANCH   4   5
ATOM      5  C   UNL     1     -12.961 -67.555 -35.792  1.00  0.00     0.064 C 
ATOM      6  O   UNL     1     -14.008 -67.931 -35.204  1.00  0.00    -0.545 OA
ATOM      7  O   UNL     1     -12.940 -67.501 -37.181  1.00  0.00    -0.545 OA
ENDBRANCH   4   5
ENDBRANCH   2   3
ENDBRANCH   1   2
BRANCH   1   8
ATOM      8  C   UNL     1      -9.107 -67.278 -31.068  1.00  0.00     0.000 C 
BRANCH   8   9
ATOM      9  C   UNL     1      -8.993 -67.876 -29.654  1.00  0.00    -0.000 C 
BRANCH   9  10
ATOM     10  C   UNL     1     -10.142 -68.820 -29.256  1.00  0.00    -0.003 C 
ATOM     11  C   UNL     1     -10.181 -69.116 -27.757  1.00  0.00     0.004 C 
ENDBRANCH   9  10
ENDBRANCH   8   9
ENDBRANCH   1   8
TORSDOF 6
ENDMDL
MODEL 3
REMARK VINA RESULT:    -4.864      2.026      3.372
REMARK INTER + INTRA:          -6.852
REMARK INTER:                  -6.677
REMARK INTRA:                  -0.175
REMARK UNBOUND:                -0.282
REMARK SMILES CCCCCCC=CC(=O)[O-]
REMARK SMILES IDX 5 1 6 2 7 3 8 4 9 5 10 6 11 7 4 8 3 9 2 10 1 11
REMARK H PARENT
REMARK Flexibility Score: inf
ROOT
ATOM      1  C   UNL     1     -11.664 -67.310 -34.725  1.00  0.00     0.004 C 
ENDROOT
BRANCH   1   2
ATOM      2  C   UNL     1     -13.057 -67.517 -35.333  1.00  0.00     0.027 C 
BRANCH   2   3
ATOM      3  C   UNL     1     -12.967 -67.879 -36.788  1.00  0.00    -0.025 C 
ATOM      4  C   UNL     1     -13.745 -67.295 -37.703  1.00  0.00     0.020 C 
BRANCH   4   5
ATOM      5  C   UNL     1     -13.676 -67.650 -39.129  1.00  0.00     0.064 C 
ATOM      6  O   UNL     1     -12.591 -68.062 -39.614  1.00  0.00    -0.545 OA
ATOM      7  O   UNL     1     -14.793 -67.540 -39.949  1.00  0.00    -0.545 OA
ENDBRANCH   4   5
ENDBRANCH   2   3
ENDBRANCH   1   2
BRANCH   1   8
ATOM      8  C   UNL     1     -11.756 -66.558 -33.389  1.00  0.00     0.000 C 
BRANCH   8   9
ATOM      9  C   UNL     1     -10.379 -66.126 -32.849  1.00  0.00    -0.000 C 
BRANCH   9  10
ATOM     10  C   UNL     1      -9.685 -65.018 -33.661  1.00  0.00    -0.003 C 
ATOM     11  C   UNL     1      -8.255 -64.743 -33.197  1.00  0.00     0.004 C 
ENDBRANCH   9  10
ENDBRANCH   8   9
ENDBRANCH   1   8
TORSDOF 6
ENDMDL
MODEL 4
REMARK VINA RESULT:    -4.826      2.337      3.654
REMARK INTER + INTRA:          -6.801
REMARK INTER:                  -6.496
REMARK INTRA:                  -0.305
REMARK UNBOUND:                -0.282
REMARK SMILES CCCCCCC=CC(=O)[O-]
REMARK SMILES IDX 5 1 6 2 7 3 8 4 9 5 10 6 11 7 4 8 3 9 2 10 1 11
REMARK H PARENT
REMARK Flexibility Score: inf
ROOT
ATOM      1  C   UNL     1     -11.733 -67.316 -34.948  1.00  0.00     0.004 C 
ENDROOT
BRANCH   1   2
ATOM      2  C   UNL     1     -13.004 -67.665 -35.732  1.00  0.00     0.027 C 
BRANCH   2   3
ATOM      3  C   UNL     1     -14.237 -67.243 -34.985  1.00  0.00    -0.025 C 
ATOM      4  C   UNL     1     -15.379 -67.933 -35.074  1.00  0.00     0.020 C 
BRANCH   4   5
ATOM      5  C   UNL     1     -16.596 -67.523 -34.358  1.00  0.00     0.064 C 
ATOM      6  O   UNL     1     -16.536 -67.264 -33.128  1.00  0.00    -0.545 OA
ATOM      7  O   UNL     1     -17.814 -67.415 -35.020  1.00  0.00    -0.545 OA
ENDBRANCH   4   5
ENDBRANCH   2   3
ENDBRANCH   1   2
BRANCH   1   8
ATOM      8  C   UNL     1     -12.080 -66.713 -33.579  1.00  0.00     0.000 C 
BRANCH   8   9
ATOM      9  C   UNL     1     -10.852 -66.138 -32.849  1.00  0.00    -0.000 C 
BRANCH   9  10
ATOM     10  C   UNL     1     -10.008 -65.154 -33.678  1.00  0.00    -0.003 C 
ATOM     11  C   UNL     1      -8.597 -64.960 -33.124  1.00  0.00     0.004 C 
ENDBRANCH   9  10
ENDBRANCH   8   9
ENDBRANCH   1   8
TORSDOF 6
ENDMDL
MODEL 5
REMARK VINA RESULT:    -4.806      1.478      2.540
REMARK INTER + INTRA:          -6.774
REMARK INTER:                  -6.564
REMARK INTRA:                  -0.210
REMARK UNBOUND:                -0.282
REMARK SMILES CCCCCCC=CC(=O)[O-]
REMARK SMILES IDX 5 1 6 2 7 3 8 4 9 5 10 6 11 7 4 8 3 9 2 10 1 11
REMARK H PARENT
REMARK Flexibility Score: inf
ROOT
ATOM      1  C   UNL     1     -11.919 -66.557 -33.502  1.00  0.00     0.004 C 
ENDROOT
BRANCH   1   2
ATOM      2  C   UNL     1     -11.796 -67.281 -34.848  1.00  0.00     0.027 C 
BRANCH   2   3
ATOM      3  C   UNL     1     -13.136 -67.747 -35.340  1.00  0.00    -0.025 C 
ATOM      4  C   UNL     1     -14.274 -67.231 -34.863  1.00  0.00     0.020 C 
BRANCH   4   5
ATOM      5  C   UNL     1     -15.592 -67.688 -35.327  1.00  0.00     0.064 C 
ATOM      6  O   UNL     1     -16.188 -67.049 -36.232  1.00  0.00    -0.545 OA
ATOM      7  O   UNL     1     -16.191 -68.819 -34.782  1.00  0.00    -0.545 OA
ENDBRANCH   4   5
ENDBRANCH   2   3
ENDBRANCH   1   2
BRANCH   1   8
ATOM      8  C   UNL     1     -10.534 -66.223 -32.930  1.00  0.00     0.000 C 
BRANCH   8   9
ATOM      9  C   UNL     1      -9.850 -65.051 -33.659  1.00  0.00    -0.000 C 
BRANCH   9  10
ATOM     10  C   UNL     1      -8.388 -64.798 -33.249  1.00  0.00    -0.003 C 
ATOM     11  C   UNL     1      -7.580 -64.077 -34.327  1.00  0.00     0.004 C 
ENDBRANCH   9  10
ENDBRANCH   8   9
ENDBRANCH   1   8
TORSDOF 6
ENDMDL
MODEL 6
REMARK VINA RESULT:    -4.784      3.287      5.002
REMARK INTER + INTRA:          -6.745
REMARK INTER:                  -6.454
REMARK INTRA:                  -0.291
REMARK UNBOUND:                -0.282
REMARK SMILES CCCCCCC=CC(=O)[O-]
REMARK SMILES IDX 5 1 6 2 7 3 8 4 9 5 10 6 11 7 4 8 3 9 2 10 1 11
REMARK H PARENT
REMARK Flexibility Score: inf
ROOT
ATOM      1  C   UNL     1     -10.249 -67.242 -32.152  1.00  0.00     0.004 C 
ENDROOT
BRANCH   1   2
ATOM      2  C   UNL     1     -11.022 -66.040 -32.707  1.00  0.00     0.027 C 
BRANCH   2   3
ATOM      3  C   UNL     1     -12.483 -66.353 -32.854  1.00  0.00    -0.025 C 
ATOM      4  C   UNL     1     -13.416 -65.669 -32.184  1.00  0.00     0.020 C 
BRANCH   4   5
ATOM      5  C   UNL     1     -14.849 -65.975 -32.309  1.00  0.00     0.064 C 
ATOM      6  O   UNL     1     -15.340 -66.194 -33.446  1.00  0.00    -0.545 OA
ATOM      7  O   UNL     1     -15.670 -66.028 -31.188  1.00  0.00    -0.545 OA
ENDBRANCH   4   5
ENDBRANCH   2   3
ENDBRANCH   1   2
BRANCH   1   8
ATOM      8  C   UNL     1      -8.970 -66.789 -31.434  1.00  0.00     0.000 C 
BRANCH   8   9
ATOM      9  C   UNL     1      -8.734 -67.528 -30.104  1.00  0.00    -0.000 C 
BRANCH   9  10
ATOM     10  C   UNL     1      -9.932 -68.356 -29.603  1.00  0.00    -0.003 C 
ATOM     11  C   UNL     1      -9.973 -68.490 -28.081  1.00  0.00     0.004 C 
ENDBRANCH   9  10
ENDBRANCH   8   9
ENDBRANCH   1   8
TORSDOF 6
ENDMDL
MODEL 7
REMARK VINA RESULT:    -4.698      3.239      5.900
REMARK INTER + INTRA:          -6.628
REMARK INTER:                  -6.056
REMARK INTRA:                  -0.572
REMARK UNBOUND:                -0.282
REMARK SMILES CCCCCCC=CC(=O)[O-]
REMARK SMILES IDX 5 1 6 2 7 3 8 4 9 5 10 6 11 7 4 8 3 9 2 10 1 11
REMARK H PARENT
REMARK Flexibility Score: inf
ROOT
ATOM      1  C   UNL     1     -14.356 -67.281 -36.271  1.00  0.00     0.004 C 
ENDROOT
BRANCH   1   2
ATOM      2  C   UNL     1     -12.867 -67.646 -36.216  1.00  0.00     0.027 C 
BRANCH   2   3
ATOM      3  C   UNL     1     -12.297 -67.405 -34.848  1.00  0.00    -0.025 C 
ATOM      4  C   UNL     1     -11.369 -66.467 -34.633  1.00  0.00     0.020 C 
BRANCH   4   5
ATOM      5  C   UNL     1     -10.793 -66.230 -33.301  1.00  0.00     0.064 C 
ATOM      6  O   UNL     1     -10.081 -65.211 -33.105  1.00  0.00    -0.545 OA
ATOM      7  O   UNL     1     -11.025 -67.113 -32.253  1.00  0.00    -0.545 OA
ENDBRANCH   4   5
ENDBRANCH   2   3
ENDBRANCH   1   2
BRANCH   1   8
ATOM      8  C   UNL     1     -15.092 -67.788 -35.022  1.00  0.00     0.000 C 
BRANCH   8   9
ATOM      9  C   UNL     1     -16.019 -66.728 -34.400  1.00  0.00    -0.000 C 
BRANCH   9  10
ATOM     10  C   UNL     1     -15.816 -66.494 -32.892  1.00  0.00    -0.003 C 
ATOM     11  C   UNL     1     -14.472 -65.844 -32.564  1.00  0.00     0.004 C 
ENDBRANCH   9  10
ENDBRANCH   8   9
ENDBRANCH   1   8
TORSDOF 6
ENDMDL
MODEL 8
REMARK VINA RESULT:    -4.688      3.047      4.544
REMARK INTER + INTRA:          -6.614
REMARK INTER:                  -6.309
REMARK INTRA:                  -0.305
REMARK UNBOUND:                -0.282
REMARK SMILES CCCCCCC=CC(=O)[O-]
REMARK SMILES IDX 5 1 6 2 7 3 8 4 9 5 10 6 11 7 4 8 3 9 2 10 1 11
REMARK H PARENT
REMARK Flexibility Score: inf
ROOT
ATOM      1  C   UNL     1     -13.009 -67.672 -35.561  1.00  0.00     0.004 C 
ENDROOT
BRANCH   1   2
ATOM      2  C   UNL     1     -14.234 -67.259 -34.734  1.00  0.00     0.027 C 
BRANCH   2   3
ATOM      3  C   UNL     1     -15.391 -66.898 -35.620  1.00  0.00    -0.025 C 
ATOM      4  C   UNL     1     -15.276 -66.888 -36.952  1.00  0.00     0.020 C 
BRANCH   4   5
ATOM      5  C   UNL     1     -16.399 -66.524 -37.830  1.00  0.00     0.064 C 
ATOM      6  O   UNL     1     -16.239 -65.633 -38.704  1.00  0.00    -0.545 OA
ATOM      7  O   UNL     1     -17.634 -67.151 -37.710  1.00  0.00    -0.545 OA
ENDBRANCH   4   5
ENDBRANCH   2   3
ENDBRANCH   1   2
BRANCH   1   8
ATOM      8  C   UNL     1     -11.721 -67.085 -34.965  1.00  0.00     0.000 C 
BRANCH   8   9
ATOM      9  C   UNL     1     -11.895 -66.614 -33.509  1.00  0.00    -0.000 C 
BRANCH   9  10
ATOM     10  C   UNL     1     -10.584 -66.255 -32.785  1.00  0.00    -0.003 C 
ATOM     11  C   UNL     1     -10.159 -67.307 -31.760  1.00  0.00     0.004 C 
ENDBRANCH   9  10
ENDBRANCH   8   9
ENDBRANCH   1   8
TORSDOF 6
ENDMDL
MODEL 9
REMARK VINA RESULT:    -4.631      3.629      6.513
REMARK INTER + INTRA:          -6.537
REMARK INTER:                  -6.244
REMARK INTRA:                  -0.293
REMARK UNBOUND:                -0.282
REMARK SMILES CCCCCCC=CC(=O)[O-]
REMARK SMILES IDX 5 1 6 2 7 3 8 4 9 5 10 6 11 7 4 8 3 9 2 10 1 11
REMARK H PARENT
REMARK Flexibility Score: inf
ROOT
ATOM      1  C   UNL     1     -15.000 -66.463 -33.664  1.00  0.00     0.004 C 
ENDROOT
BRANCH   1   2
ATOM      2  C   UNL     1     -14.585 -65.862 -32.315  1.00  0.00     0.027 C 
BRANCH   2   3
ATOM      3  C   UNL     1     -13.091 -65.834 -32.169  1.00  0.00    -0.025 C 
ATOM      4  C   UNL     1     -12.287 -66.349 -33.104  1.00  0.00     0.020 C 
BRANCH   4   5
ATOM      5  C   UNL     1     -10.823 -66.340 -32.966  1.00  0.00     0.064 C 
ATOM      6  O   UNL     1     -10.150 -65.448 -33.545  1.00  0.00    -0.545 OA
ATOM      7  O   UNL     1     -10.169 -67.302 -32.204  1.00  0.00    -0.545 OA
ENDBRANCH   4   5
ENDBRANCH   2   3
ENDBRANCH   1   2
BRANCH   1   8
ATOM      8  C   UNL     1     -16.318 -67.241 -33.536  1.00  0.00     0.000 C 
BRANCH   8   9
ATOM      9  C   UNL     1     -17.052 -67.402 -34.881  1.00  0.00    -0.000 C 
BRANCH   9  10
ATOM     10  C   UNL     1     -17.109 -66.129 -35.744  1.00  0.00    -0.003 C 
ATOM     11  C   UNL     1     -16.633 -66.355 -37.178  1.00  0.00     0.004 C 
ENDBRANCH   9  10
ENDBRANCH   8   9
ENDBRANCH   1   8
TORSDOF 6
ENDMDL
