MODEL 1
REMARK VINA RESULT:    -4.223      0.000      0.000
REMARK INTER + INTRA:          -8.279
REMARK INTER:                  -6.691
REMARK INTRA:                  -1.587
REMARK UNBOUND:                -1.587
REMARK SMILES CCCCCCCCCCCC(=O)[O-]
REMARK SMILES IDX 7 1 8 2 9 3 10 4 11 5 12 6 13 7 14 8 6 9 5 10 4 11 3 12 2 13
REMARK SMILES IDX 1 14
REMARK H PARENT
REMARK Flexibility Score: inf
ROOT
ATOM      1  C   UNL     1      30.020  -7.273  -4.788  1.00  0.00     0.000 C 
ENDROOT
BRANCH   1   2
ATOM      2  C   UNL     1      29.738  -6.753  -3.368  1.00  0.00     0.000 C 
BRANCH   2   3
ATOM      3  C   UNL     1      29.844  -5.223  -3.268  1.00  0.00     0.000 C 
BRANCH   3   4
ATOM      4  C   UNL     1      29.982  -4.546  -4.643  1.00  0.00     0.006 C 
BRANCH   4   5
ATOM      5  C   UNL     1      30.009  -3.016  -4.535  1.00  0.00     0.053 C 
BRANCH   5   6
ATOM      6  C   UNL     1      28.669  -2.415  -4.833  1.00  0.00     0.041 C 
ATOM      7  O   UNL     1      28.285  -2.282  -6.025  1.00  0.00    -0.550 OA
ATOM      8  O   UNL     1      27.830  -2.035  -3.794  1.00  0.00    -0.550 OA
ENDBRANCH   5   6
ENDBRANCH   4   5
ENDBRANCH   3   4
ENDBRANCH   2   3
ENDBRANCH   1   2
BRANCH   1   9
ATOM      9  C   UNL     1      28.988  -8.314  -5.251  1.00  0.00     0.000 C 
BRANCH   9  10
ATOM     10  C   UNL     1      28.240  -7.880  -6.525  1.00  0.00    -0.000 C 
BRANCH  10  11
ATOM     11  C   UNL     1      26.838  -7.325  -6.227  1.00  0.00    -0.000 C 
BRANCH  11  12
ATOM     12  C   UNL     1      26.792  -5.787  -6.249  1.00  0.00    -0.000 C 
BRANCH  12  13
ATOM     13  C   UNL     1      26.340  -5.193  -4.906  1.00  0.00    -0.003 C 
ATOM     14  C   UNL     1      26.182  -6.248  -3.812  1.00  0.00     0.004 C 
ENDBRANCH  12  13
ENDBRANCH  11  12
ENDBRANCH  10  11
ENDBRANCH   9  10
ENDBRANCH   1   9
TORSDOF 10
ENDMDL
MODEL 2
REMARK VINA RESULT:    -4.176      9.764     11.946
REMARK INTER + INTRA:          -8.204
REMARK INTER:                  -6.836
REMARK INTRA:                  -1.368
REMARK UNBOUND:                -1.587
REMARK SMILES CCCCCCCCCCCC(=O)[O-]
REMARK SMILES IDX 7 1 8 2 9 3 10 4 11 5 12 6 13 7 14 8 6 9 5 10 4 11 3 12 2 13
REMARK SMILES IDX 1 14
REMARK H PARENT
REMARK Flexibility Score: inf
ROOT
ATOM      1  C   UNL     1      19.845   0.444  -7.710  1.00  0.00     0.000 C 
ENDROOT
BRANCH   1   2
ATOM      2  C   UNL     1      18.658   1.125  -7.007  1.00  0.00     0.000 C 
BRANCH   2   3
ATOM      3  C   UNL     1      17.329   0.390  -7.249  1.00  0.00     0.000 C 
BRANCH   3   4
ATOM      4  C   UNL     1      16.289   0.663  -6.148  1.00  0.00     0.006 C 
BRANCH   4   5
ATOM      5  C   UNL     1      16.848   0.394  -4.745  1.00  0.00     0.053 C 
BRANCH   5   6
ATOM      6  C   UNL     1      16.046  -0.641  -4.017  1.00  0.00     0.041 C 
ATOM      7  O   UNL     1      14.805  -0.733  -4.212  1.00  0.00    -0.550 OA
ATOM      8  O   UNL     1      16.673  -1.528  -3.152  1.00  0.00    -0.550 OA
ENDBRANCH   5   6
ENDBRANCH   4   5
ENDBRANCH   3   4
ENDBRANCH   2   3
ENDBRANCH   1   2
BRANCH   1   9
ATOM      9  C   UNL     1      21.203   0.931  -7.178  1.00  0.00     0.000 C 
BRANCH   9  10
ATOM     10  C   UNL     1      21.281   0.903  -5.641  1.00  0.00    -0.000 C 
BRANCH  10  11
ATOM     11  C   UNL     1      21.361  -0.527  -5.080  1.00  0.00    -0.000 C 
BRANCH  11  12
ATOM     12  C   UNL     1      20.097  -0.928  -4.301  1.00  0.00    -0.000 C 
BRANCH  12  13
ATOM     13  C   UNL     1      19.675  -2.380  -4.573  1.00  0.00    -0.003 C 
ATOM     14  C   UNL     1      19.101  -2.580  -5.975  1.00  0.00     0.004 C 
ENDBRANCH  12  13
ENDBRANCH  11  12
ENDBRANCH  10  11
ENDBRANCH   9  10
ENDBRANCH   1   9
TORSDOF 10
ENDMDL
MODEL 3
REMARK VINA RESULT:    -4.153      9.559     11.674
REMARK INTER + INTRA:          -8.168
REMARK INTER:                  -6.817
REMARK INTRA:                  -1.351
REMARK UNBOUND:                -1.587
REMARK SMILES CCCCCCCCCCCC(=O)[O-]
REMARK SMILES IDX 7 1 8 2 9 3 10 4 11 5 12 6 13 7 14 8 6 9 5 10 4 11 3 12 2 13
REMARK SMILES IDX 1 14
REMARK H PARENT
REMARK Flexibility Score: inf
ROOT
ATOM      1  C   UNL     1      16.018  -0.751  -5.091  1.00  0.00     0.000 C 
ENDROOT
BRANCH   1   2
ATOM      2  C   UNL     1      16.121   0.759  -5.369  1.00  0.00     0.000 C 
BRANCH   2   3
ATOM      3  C   UNL     1      16.949   1.072  -6.626  1.00  0.00     0.000 C 
BRANCH   3   4
ATOM      4  C   UNL     1      18.464   1.051  -6.361  1.00  0.00     0.006 C 
BRANCH   4   5
ATOM      5  C   UNL     1      19.277   0.914  -7.654  1.00  0.00     0.053 C 
BRANCH   5   6
ATOM      6  C   UNL     1      20.698   0.528  -7.379  1.00  0.00     0.041 C 
ATOM      7  O   UNL     1      21.173   0.647  -6.218  1.00  0.00    -0.550 OA
ATOM      8  O   UNL     1      21.487   0.003  -8.395  1.00  0.00    -0.550 OA
ENDBRANCH   5   6
ENDBRANCH   4   5
ENDBRANCH   3   4
ENDBRANCH   2   3
ENDBRANCH   1   2
BRANCH   1   9
ATOM      9  C   UNL     1      16.292  -1.100  -3.619  1.00  0.00     0.000 C 
BRANCH   9  10
ATOM     10  C   UNL     1      17.748  -0.817  -3.205  1.00  0.00    -0.000 C 
BRANCH  10  11
ATOM     11  C   UNL     1      18.489  -2.084  -2.747  1.00  0.00    -0.000 C 
BRANCH  11  12
ATOM     12  C   UNL     1      18.875  -3.001  -3.921  1.00  0.00    -0.000 C 
BRANCH  12  13
ATOM     13  C   UNL     1      19.627  -2.250  -5.030  1.00  0.00    -0.003 C 
ATOM     14  C   UNL     1      19.145  -2.622  -6.432  1.00  0.00     0.004 C 
ENDBRANCH  12  13
ENDBRANCH  11  12
ENDBRANCH  10  11
ENDBRANCH   9  10
ENDBRANCH   1   9
TORSDOF 10
ENDMDL
MODEL 4
REMARK VINA RESULT:    -4.054      9.688     11.718
REMARK INTER + INTRA:          -8.012
REMARK INTER:                  -6.733
REMARK INTRA:                  -1.279
REMARK UNBOUND:                -1.587
REMARK SMILES CCCCCCCCCCCC(=O)[O-]
REMARK SMILES IDX 7 1 8 2 9 3 10 4 11 5 12 6 13 7 14 8 6 9 5 10 4 11 3 12 2 13
REMARK SMILES IDX 1 14
REMARK H PARENT
REMARK Flexibility Score: inf
ROOT
ATOM      1  C   UNL     1      20.422  -0.155  -6.552  1.00  0.00     0.000 C 
ENDROOT
BRANCH   1   2
ATOM      2  C   UNL     1      19.878  -1.351  -7.353  1.00  0.00     0.000 C 
BRANCH   2   3
ATOM      3  C   UNL     1      19.249  -2.427  -6.452  1.00  0.00     0.000 C 
BRANCH   3   4
ATOM      4  C   UNL     1      19.718  -2.326  -4.990  1.00  0.00     0.006 C 
BRANCH   4   5
ATOM      5  C   UNL     1      18.552  -2.435  -3.999  1.00  0.00     0.053 C 
BRANCH   5   6
ATOM      6  C   UNL     1      18.553  -1.308  -3.012  1.00  0.00     0.041 C 
ATOM      7  O   UNL     1      18.101  -1.484  -1.849  1.00  0.00    -0.550 OA
ATOM      8  O   UNL     1      19.087  -0.075  -3.363  1.00  0.00    -0.550 OA
ENDBRANCH   5   6
ENDBRANCH   4   5
ENDBRANCH   3   4
ENDBRANCH   2   3
ENDBRANCH   1   2
BRANCH   1   9
ATOM      9  C   UNL     1      19.407   0.996  -6.448  1.00  0.00     0.000 C 
BRANCH   9  10
ATOM     10  C   UNL     1      18.527   1.124  -7.704  1.00  0.00    -0.000 C 
BRANCH  10  11
ATOM     11  C   UNL     1      17.025   1.084  -7.380  1.00  0.00    -0.000 C 
BRANCH  11  12
ATOM     12  C   UNL     1      16.661  -0.043  -6.397  1.00  0.00    -0.000 C 
BRANCH  12  13
ATOM     13  C   UNL     1      15.971   0.484  -5.129  1.00  0.00    -0.003 C 
ATOM     14  C   UNL     1      15.226  -0.608  -4.361  1.00  0.00     0.004 C 
ENDBRANCH  12  13
ENDBRANCH  11  12
ENDBRANCH  10  11
ENDBRANCH   9  10
ENDBRANCH   1   9
TORSDOF 10
ENDMDL
MODEL 5
REMARK VINA RESULT:    -4.042      2.785      4.865
REMARK INTER + INTRA:          -7.992
REMARK INTER:                  -6.732
REMARK INTRA:                  -1.260
REMARK UNBOUND:                -1.587
REMARK SMILES CCCCCCCCCCCC(=O)[O-]
REMARK SMILES IDX 7 1 8 2 9 3 10 4 11 5 12 6 13 7 14 8 6 9 5 10 4 11 3 12 2 13
REMARK SMILES IDX 1 14
REMARK H PARENT
REMARK Flexibility Score: inf
ROOT
ATOM      1  C   UNL     1      26.354  -4.479  -4.794  1.00  0.00     0.000 C 
ENDROOT
BRANCH   1   2
ATOM      2  C   UNL     1      26.759  -5.488  -3.705  1.00  0.00     0.000 C 
BRANCH   2   3
ATOM      3  C   UNL     1      28.198  -6.001  -3.882  1.00  0.00     0.000 C 
BRANCH   3   4
ATOM      4  C   UNL     1      28.259  -7.516  -4.146  1.00  0.00     0.006 C 
BRANCH   4   5
ATOM      5  C   UNL     1      28.985  -7.846  -5.457  1.00  0.00     0.053 C 
BRANCH   5   6
ATOM      6  C   UNL     1      28.053  -7.824  -6.629  1.00  0.00     0.041 C 
ATOM      7  O   UNL     1      28.483  -8.080  -7.785  1.00  0.00    -0.550 OA
ATOM      8  O   UNL     1      26.703  -7.559  -6.441  1.00  0.00    -0.550 OA
ENDBRANCH   5   6
ENDBRANCH   4   5
ENDBRANCH   3   4
ENDBRANCH   2   3
ENDBRANCH   1   2
BRANCH   1   9
ATOM      9  C   UNL     1      27.538  -4.065  -5.684  1.00  0.00     0.000 C 
BRANCH   9  10
ATOM     10  C   UNL     1      28.043  -2.644  -5.374  1.00  0.00    -0.000 C 
BRANCH  10  11
ATOM     11  C   UNL     1      27.035  -1.826  -4.551  1.00  0.00    -0.000 C 
BRANCH  11  12
ATOM     12  C   UNL     1      27.648  -1.259  -3.259  1.00  0.00    -0.000 C 
BRANCH  12  13
ATOM     13  C   UNL     1      28.149  -2.362  -2.313  1.00  0.00    -0.003 C 
ATOM     14  C   UNL     1      27.122  -2.744  -1.247  1.00  0.00     0.004 C 
ENDBRANCH  12  13
ENDBRANCH  11  12
ENDBRANCH  10  11
ENDBRANCH   9  10
ENDBRANCH   1   9
TORSDOF 10
ENDMDL
MODEL 6
REMARK VINA RESULT:    -4.002      3.058      5.148
REMARK INTER + INTRA:          -7.929
REMARK INTER:                  -6.699
REMARK INTRA:                  -1.230
REMARK UNBOUND:                -1.587
REMARK SMILES CCCCCCCCCCCC(=O)[O-]
REMARK SMILES IDX 7 1 8 2 9 3 10 4 11 5 12 6 13 7 14 8 6 9 5 10 4 11 3 12 2 13
REMARK SMILES IDX 1 14
REMARK H PARENT
REMARK Flexibility Score: inf
ROOT
ATOM      1  C   UNL     1      26.614  -3.709  -4.779  1.00  0.00     0.000 C 
ENDROOT
BRANCH   1   2
ATOM      2  C   UNL     1      26.413  -5.174  -5.204  1.00  0.00     0.000 C 
BRANCH   2   3
ATOM      3  C   UNL     1      26.434  -6.142  -4.009  1.00  0.00     0.000 C 
BRANCH   3   4
ATOM      4  C   UNL     1      27.728  -6.973  -3.941  1.00  0.00     0.006 C 
BRANCH   4   5
ATOM      5  C   UNL     1      28.622  -6.754  -5.168  1.00  0.00     0.053 C 
BRANCH   5   6
ATOM      6  C   UNL     1      28.568  -7.918  -6.109  1.00  0.00     0.041 C 
ATOM      7  O   UNL     1      29.230  -8.962  -5.864  1.00  0.00    -0.550 OA
ATOM      8  O   UNL     1      27.760  -7.865  -7.238  1.00  0.00    -0.550 OA
ENDBRANCH   5   6
ENDBRANCH   4   5
ENDBRANCH   3   4
ENDBRANCH   2   3
ENDBRANCH   1   2
BRANCH   1   9
ATOM      9  C   UNL     1      27.826  -3.056  -5.466  1.00  0.00     0.000 C 
BRANCH   9  10
ATOM     10  C   UNL     1      29.070  -3.021  -4.561  1.00  0.00    -0.000 C 
BRANCH  10  11
ATOM     11  C   UNL     1      28.729  -3.244  -3.079  1.00  0.00    -0.000 C 
BRANCH  11  12
ATOM     12  C   UNL     1      28.775  -1.943  -2.259  1.00  0.00    -0.000 C 
BRANCH  12  13
ATOM     13  C   UNL     1      27.697  -1.900  -1.165  1.00  0.00    -0.003 C 
ATOM     14  C   UNL     1      26.742  -3.092  -1.223  1.00  0.00     0.004 C 
ENDBRANCH  12  13
ENDBRANCH  11  12
ENDBRANCH  10  11
ENDBRANCH   9  10
ENDBRANCH   1   9
TORSDOF 10
ENDMDL
MODEL 7
REMARK VINA RESULT:    -3.977      9.796     11.705
REMARK INTER + INTRA:          -7.889
REMARK INTER:                  -6.677
REMARK INTRA:                  -1.212
REMARK UNBOUND:                -1.587
REMARK SMILES CCCCCCCCCCCC(=O)[O-]
REMARK SMILES IDX 7 1 8 2 9 3 10 4 11 5 12 6 13 7 14 8 6 9 5 10 4 11 3 12 2 13
REMARK SMILES IDX 1 14
REMARK H PARENT
REMARK Flexibility Score: inf
ROOT
ATOM      1  C   UNL     1      19.319  -2.322  -4.995  1.00  0.00     0.000 C 
ENDROOT
BRANCH   1   2
ATOM      2  C   UNL     1      18.818  -1.981  -6.409  1.00  0.00     0.000 C 
BRANCH   2   3
ATOM      3  C   UNL     1      17.341  -1.552  -6.424  1.00  0.00     0.000 C 
BRANCH   3   4
ATOM      4  C   UNL     1      17.168  -0.022  -6.415  1.00  0.00     0.006 C 
BRANCH   4   5
ATOM      5  C   UNL     1      16.988   0.531  -4.995  1.00  0.00     0.053 C 
BRANCH   5   6
ATOM      6  C   UNL     1      16.126  -0.362  -4.156  1.00  0.00     0.041 C 
ATOM      7  O   UNL     1      16.617  -0.968  -3.166  1.00  0.00    -0.550 OA
ATOM      8  O   UNL     1      14.774  -0.497  -4.443  1.00  0.00    -0.550 OA
ENDBRANCH   5   6
ENDBRANCH   4   5
ENDBRANCH   3   4
ENDBRANCH   2   3
ENDBRANCH   1   2
BRANCH   1   9
ATOM      9  C   UNL     1      20.040  -1.142  -4.323  1.00  0.00     0.000 C 
BRANCH   9  10
ATOM     10  C   UNL     1      21.104  -0.503  -5.234  1.00  0.00    -0.000 C 
BRANCH  10  11
ATOM     11  C   UNL     1      20.772   0.954  -5.597  1.00  0.00    -0.000 C 
BRANCH  11  12
ATOM     12  C   UNL     1      20.398   1.124  -7.080  1.00  0.00    -0.000 C 
BRANCH  12  13
ATOM     13  C   UNL     1      21.076   0.080  -7.980  1.00  0.00    -0.003 C 
ATOM     14  C   UNL     1      21.730   0.696  -9.217  1.00  0.00     0.004 C 
ENDBRANCH  12  13
ENDBRANCH  11  12
ENDBRANCH  10  11
ENDBRANCH   9  10
ENDBRANCH   1   9
TORSDOF 10
ENDMDL
MODEL 8
REMARK VINA RESULT:    -3.913      1.762      3.407
REMARK INTER + INTRA:          -7.787
REMARK INTER:                  -6.860
REMARK INTRA:                  -0.927
REMARK UNBOUND:                -1.587
REMARK SMILES CCCCCCCCCCCC(=O)[O-]
REMARK SMILES IDX 7 1 8 2 9 3 10 4 11 5 12 6 13 7 14 8 6 9 5 10 4 11 3 12 2 13
REMARK SMILES IDX 1 14
REMARK H PARENT
REMARK Flexibility Score: inf
ROOT
ATOM      1  C   UNL     1      26.920  -5.102  -3.958  1.00  0.00     0.000 C 
ENDROOT
BRANCH   1   2
ATOM      2  C   UNL     1      27.696  -3.789  -3.756  1.00  0.00     0.000 C 
BRANCH   2   3
ATOM      3  C   UNL     1      27.074  -2.611  -4.524  1.00  0.00     0.000 C 
BRANCH   3   4
ATOM      4  C   UNL     1      28.117  -1.565  -4.955  1.00  0.00     0.006 C 
BRANCH   4   5
ATOM      5  C   UNL     1      29.134  -2.138  -5.950  1.00  0.00     0.053 C 
BRANCH   5   6
ATOM      6  C   UNL     1      28.999  -1.511  -7.304  1.00  0.00     0.041 C 
ATOM      7  O   UNL     1      28.116  -0.636  -7.512  1.00  0.00    -0.550 OA
ATOM      8  O   UNL     1      29.871  -1.864  -8.326  1.00  0.00    -0.550 OA
ENDBRANCH   5   6
ENDBRANCH   4   5
ENDBRANCH   3   4
ENDBRANCH   2   3
ENDBRANCH   1   2
BRANCH   1   9
ATOM      9  C   UNL     1      26.087  -5.102  -5.251  1.00  0.00     0.000 C 
BRANCH   9  10
ATOM     10  C   UNL     1      26.806  -5.803  -6.417  1.00  0.00    -0.000 C 
BRANCH  10  11
ATOM     11  C   UNL     1      26.889  -7.327  -6.229  1.00  0.00    -0.000 C 
BRANCH  11  12
ATOM     12  C   UNL     1      28.241  -7.907  -6.681  1.00  0.00    -0.000 C 
BRANCH  12  13
ATOM     13  C   UNL     1      29.041  -8.507  -5.515  1.00  0.00    -0.003 C 
ATOM     14  C   UNL     1      29.764  -7.449  -4.682  1.00  0.00     0.004 C 
ENDBRANCH  12  13
ENDBRANCH  11  12
ENDBRANCH  10  11
ENDBRANCH   9  10
ENDBRANCH   1   9
TORSDOF 10
ENDMDL
MODEL 9
REMARK VINA RESULT:    -3.909      3.112      5.488
REMARK INTER + INTRA:          -7.782
REMARK INTER:                  -6.951
REMARK INTRA:                  -0.831
REMARK UNBOUND:                -1.587
REMARK SMILES CCCCCCCCCCCC(=O)[O-]
REMARK SMILES IDX 7 1 8 2 9 3 10 4 11 5 12 6 13 7 14 8 6 9 5 10 4 11 3 12 2 13
REMARK SMILES IDX 1 14
REMARK H PARENT
REMARK Flexibility Score: inf
ROOT
ATOM      1  C   UNL     1      26.744  -3.642  -4.187  1.00  0.00     0.000 C 
ENDROOT
BRANCH   1   2
ATOM      2  C   UNL     1      26.388  -4.863  -5.052  1.00  0.00     0.000 C 
BRANCH   2   3
ATOM      3  C   UNL     1      26.375  -6.173  -4.246  1.00  0.00     0.000 C 
BRANCH   3   4
ATOM      4  C   UNL     1      27.786  -6.737  -4.006  1.00  0.00     0.006 C 
BRANCH   4   5
ATOM      5  C   UNL     1      28.664  -6.654  -5.262  1.00  0.00     0.053 C 
BRANCH   5   6
ATOM      6  C   UNL     1      28.483  -7.850  -6.146  1.00  0.00     0.041 C 
ATOM      7  O   UNL     1      27.692  -7.801  -7.125  1.00  0.00    -0.550 OA
ATOM      8  O   UNL     1      29.214  -9.008  -5.910  1.00  0.00    -0.550 OA
ENDBRANCH   5   6
ENDBRANCH   4   5
ENDBRANCH   3   4
ENDBRANCH   2   3
ENDBRANCH   1   2
BRANCH   1   9
ATOM      9  C   UNL     1      27.439  -2.531  -4.991  1.00  0.00     0.000 C 
BRANCH   9  10
ATOM     10  C   UNL     1      28.633  -3.053  -5.811  1.00  0.00    -0.000 C 
BRANCH  10  11
ATOM     11  C   UNL     1      29.519  -1.919  -6.352  1.00  0.00    -0.000 C 
BRANCH  11  12
ATOM     12  C   UNL     1      29.472  -1.811  -7.886  1.00  0.00    -0.000 C 
BRANCH  12  13
ATOM     13  C   UNL     1      29.054  -0.412  -8.364  1.00  0.00    -0.003 C 
ATOM     14  C   UNL     1      27.758   0.076  -7.715  1.00  0.00     0.004 C 
ENDBRANCH  12  13
ENDBRANCH  11  12
ENDBRANCH  10  11
ENDBRANCH   9  10
ENDBRANCH   1   9
TORSDOF 10
ENDMDL
