MODEL 1
REMARK VINA RESULT:    -5.184      0.000      0.000
REMARK INTER + INTRA:          -5.907
REMARK INTER:                  -5.639
REMARK INTRA:                  -0.268
REMARK UNBOUND:                -0.268
REMARK SMILES C=C1C[C@@]2(O)O[C@@]3(C[C@@H]2C(C)C)[C@@H](C)CC[C@@H]13
REMARK SMILES IDX 14 1 13 2 15 3 16 4 17 5 7 6 8 7 9 8 4 9 6 10 3 11 2 12 1 13
REMARK SMILES IDX 10 14 11 15 12 16 5 17
REMARK H PARENT 5 18
REMARK Flexibility Score: inf
ROOT
ATOM      1  C   UNL     1       5.737 -17.150  -6.110  1.00  0.00     0.011 C 
ATOM      2  C   UNL     1       6.219 -18.597  -6.284  1.00  0.00     0.019 C 
ATOM      3  C   UNL     1       5.057 -19.580  -6.488  1.00  0.00     0.007 C 
ATOM      4  C   UNL     1       5.508 -20.594  -7.545  1.00  0.00     0.011 C 
ATOM      5  C   UNL     1       6.982 -20.299  -7.822  1.00  0.00     0.047 C 
ATOM      6  C   UNL     1       7.144 -18.806  -7.491  1.00  0.00     0.081 C 
ATOM      7  C   UNL     1       8.610 -18.432  -7.239  1.00  0.00     0.046 C 
ATOM      8  C   UNL     1       9.086 -17.971  -8.617  1.00  0.00     0.054 C 
ATOM      9  C   UNL     1       7.808 -18.115  -9.493  1.00  0.00     0.173 C 
ATOM     10  O   UNL     1       6.720 -18.044  -8.602  1.00  0.00    -0.342 OA
ATOM     11  C   UNL     1       7.754 -19.491 -10.212  1.00  0.00     0.096 C 
ATOM     12  C   UNL     1       7.390 -20.610  -9.255  1.00  0.00    -0.066 C 
ATOM     13  C   UNL     1       7.422 -21.881  -9.680  1.00  0.00     0.008 C 
ENDROOT
BRANCH   8  14
ATOM     14  C   UNL     1       9.731 -16.546  -8.619  1.00  0.00    -0.009 C 
ATOM     15  C   UNL     1      11.100 -16.561  -9.314  1.00  0.00     0.008 C 
ATOM     16  C   UNL     1       9.850 -15.894  -7.226  1.00  0.00     0.008 C 
ENDBRANCH   8  14
BRANCH   9  17
ATOM     17  O   UNL     1       7.725 -17.090 -10.452  1.00  0.00    -0.365 OA
ATOM     18  H   UNL     1       7.563 -16.239  -9.965  1.00  0.00     0.214 HD
ENDBRANCH   9  17
TORSDOF 2
ENDMDL
MODEL 2
REMARK VINA RESULT:    -4.965      1.622      5.240
REMARK INTER + INTRA:          -5.668
REMARK INTER:                  -5.385
REMARK INTRA:                  -0.283
REMARK UNBOUND:                -0.268
REMARK SMILES C=C1C[C@@]2(O)O[C@@]3(C[C@@H]2C(C)C)[C@@H](C)CC[C@@H]13
REMARK SMILES IDX 14 1 13 2 15 3 16 4 17 5 7 6 8 7 9 8 4 9 6 10 3 11 2 12 1 13
REMARK SMILES IDX 10 14 11 15 12 16 5 17
REMARK H PARENT 5 18
REMARK Flexibility Score: inf
ROOT
ATOM      1  C   UNL     1       8.601 -20.819 -10.527  1.00  0.00     0.011 C 
ATOM      2  C   UNL     1       8.769 -20.133  -9.163  1.00  0.00     0.019 C 
ATOM      3  C   UNL     1       9.419 -18.747  -9.282  1.00  0.00     0.007 C 
ATOM      4  C   UNL     1       8.704 -17.829  -8.286  1.00  0.00     0.011 C 
ATOM      5  C   UNL     1       7.764 -18.723  -7.477  1.00  0.00     0.047 C 
ATOM      6  C   UNL     1       7.449 -19.899  -8.415  1.00  0.00     0.081 C 
ATOM      7  C   UNL     1       6.930 -21.120  -7.647  1.00  0.00     0.046 C 
ATOM      8  C   UNL     1       5.412 -20.936  -7.699  1.00  0.00     0.054 C 
ATOM      9  C   UNL     1       5.249 -19.628  -8.525  1.00  0.00     0.173 C 
ATOM     10  O   UNL     1       6.419 -19.512  -9.301  1.00  0.00    -0.342 OA
ATOM     11  C   UNL     1       5.152 -18.376  -7.610  1.00  0.00     0.096 C 
ATOM     12  C   UNL     1       6.501 -18.002  -7.027  1.00  0.00    -0.066 C 
ATOM     13  C   UNL     1       6.579 -17.023  -6.114  1.00  0.00     0.008 C 
ENDROOT
BRANCH   8  14
ATOM     14  C   UNL     1       4.644 -22.174  -8.266  1.00  0.00    -0.009 C 
ATOM     15  C   UNL     1       4.349 -23.196  -7.158  1.00  0.00     0.008 C 
ATOM     16  C   UNL     1       5.336 -22.869  -9.457  1.00  0.00     0.008 C 
ENDBRANCH   8  14
BRANCH   9  17
ATOM     17  O   UNL     1       4.113 -19.681  -9.353  1.00  0.00    -0.365 OA
ATOM     18  H   UNL     1       4.427 -19.593 -10.292  1.00  0.00     0.214 HD
ENDBRANCH   9  17
TORSDOF 2
ENDMDL
MODEL 3
REMARK VINA RESULT:    -4.851      1.155      1.326
REMARK INTER + INTRA:          -5.544
REMARK INTER:                  -5.226
REMARK INTRA:                  -0.317
REMARK UNBOUND:                -0.268
REMARK SMILES C=C1C[C@@]2(O)O[C@@]3(C[C@@H]2C(C)C)[C@@H](C)CC[C@@H]13
REMARK SMILES IDX 14 1 13 2 15 3 16 4 17 5 7 6 8 7 9 8 4 9 6 10 3 11 2 12 1 13
REMARK SMILES IDX 10 14 11 15 12 16 5 17
REMARK H PARENT 5 18
REMARK Flexibility Score: inf
ROOT
ATOM      1  C   UNL     1       5.370 -17.498  -7.123  1.00  0.00     0.011 C 
ATOM      2  C   UNL     1       5.955 -18.880  -7.452  1.00  0.00     0.019 C 
ATOM      3  C   UNL     1       5.026 -19.709  -8.352  1.00  0.00     0.007 C 
ATOM      4  C   UNL     1       5.917 -20.445  -9.358  1.00  0.00     0.011 C 
ATOM      5  C   UNL     1       7.360 -20.177  -8.931  1.00  0.00     0.047 C 
ATOM      6  C   UNL     1       7.298 -18.830  -8.193  1.00  0.00     0.081 C 
ATOM      7  C   UNL     1       8.516 -18.619  -7.285  1.00  0.00     0.046 C 
ATOM      8  C   UNL     1       9.484 -17.851  -8.186  1.00  0.00     0.054 C 
ATOM      9  C   UNL     1       8.679 -17.692  -9.507  1.00  0.00     0.173 C 
ATOM     10  O   UNL     1       7.321 -17.786  -9.145  1.00  0.00    -0.342 OA
ATOM     11  C   UNL     1       8.990 -18.834 -10.514  1.00  0.00     0.096 C 
ATOM     12  C   UNL     1       8.328 -20.137 -10.106  1.00  0.00    -0.066 C 
ATOM     13  C   UNL     1       8.594 -21.258 -10.791  1.00  0.00     0.008 C 
ENDROOT
BRANCH   8  14
ATOM     14  C   UNL     1      10.002 -16.513  -7.564  1.00  0.00    -0.009 C 
ATOM     15  C   UNL     1      11.467 -16.638  -7.125  1.00  0.00     0.008 C 
ATOM     16  C   UNL     1       9.144 -15.973  -6.401  1.00  0.00     0.008 C 
ENDBRANCH   8  14
BRANCH   9  17
ATOM     17  O   UNL     1       8.938 -16.454 -10.122  1.00  0.00    -0.365 OA
ATOM     18  H   UNL     1       9.883 -16.468 -10.430  1.00  0.00     0.214 HD
ENDBRANCH   9  17
TORSDOF 2
ENDMDL
MODEL 4
REMARK VINA RESULT:    -4.815      1.970      5.016
REMARK INTER + INTRA:          -5.505
REMARK INTER:                  -5.184
REMARK INTRA:                  -0.321
REMARK UNBOUND:                -0.268
REMARK SMILES C=C1C[C@@]2(O)O[C@@]3(C[C@@H]2C(C)C)[C@@H](C)CC[C@@H]13
REMARK SMILES IDX 14 1 13 2 15 3 16 4 17 5 7 6 8 7 9 8 4 9 6 10 3 11 2 12 1 13
REMARK SMILES IDX 10 14 11 15 12 16 5 17
REMARK H PARENT 5 18
REMARK Flexibility Score: inf
ROOT
ATOM      1  C   UNL     1       9.956 -19.530  -7.691  1.00  0.00     0.011 C 
ATOM      2  C   UNL     1       9.379 -18.755  -6.498  1.00  0.00     0.019 C 
ATOM      3  C   UNL     1       9.890 -17.308  -6.437  1.00  0.00     0.007 C 
ATOM      4  C   UNL     1       8.708 -16.431  -6.013  1.00  0.00     0.011 C 
ATOM      5  C   UNL     1       7.567 -17.388  -5.665  1.00  0.00     0.047 C 
ATOM      6  C   UNL     1       7.848 -18.643  -6.506  1.00  0.00     0.081 C 
ATOM      7  C   UNL     1       7.118 -19.875  -5.956  1.00  0.00     0.046 C 
ATOM      8  C   UNL     1       5.812 -19.881  -6.750  1.00  0.00     0.054 C 
ATOM      9  C   UNL     1       5.969 -18.650  -7.689  1.00  0.00     0.173 C 
ATOM     10  O   UNL     1       7.355 -18.435  -7.814  1.00  0.00    -0.342 OA
ATOM     11  C   UNL     1       5.336 -17.371  -7.073  1.00  0.00     0.096 C 
ATOM     12  C   UNL     1       6.192 -16.803  -5.958  1.00  0.00    -0.066 C 
ATOM     13  C   UNL     1       5.735 -15.774  -5.231  1.00  0.00     0.008 C 
ENDROOT
BRANCH   8  14
ATOM     14  C   UNL     1       5.521 -21.234  -7.480  1.00  0.00    -0.009 C 
ATOM     15  C   UNL     1       4.629 -22.143  -6.622  1.00  0.00     0.008 C 
ATOM     16  C   UNL     1       6.780 -22.001  -7.934  1.00  0.00     0.008 C 
ENDBRANCH   8  14
BRANCH   9  17
ATOM     17  O   UNL     1       5.393 -18.888  -8.949  1.00  0.00    -0.365 OA
ATOM     18  H   UNL     1       5.362 -19.872  -9.081  1.00  0.00     0.214 HD
ENDBRANCH   9  17
TORSDOF 2
ENDMDL
MODEL 5
REMARK VINA RESULT:    -4.630      1.499      3.385
REMARK INTER + INTRA:          -5.303
REMARK INTER:                  -5.014
REMARK INTRA:                  -0.290
REMARK UNBOUND:                -0.268
REMARK SMILES C=C1C[C@@]2(O)O[C@@]3(C[C@@H]2C(C)C)[C@@H](C)CC[C@@H]13
REMARK SMILES IDX 14 1 13 2 15 3 16 4 17 5 7 6 8 7 9 8 4 9 6 10 3 11 2 12 1 13
REMARK SMILES IDX 10 14 11 15 12 16 5 17
REMARK H PARENT 5 18
REMARK Flexibility Score: inf
ROOT
ATOM      1  C   UNL     1       7.289 -21.484  -9.726  1.00  0.00     0.011 C 
ATOM      2  C   UNL     1       6.333 -20.348  -9.334  1.00  0.00     0.019 C 
ATOM      3  C   UNL     1       5.288 -20.793  -8.300  1.00  0.00     0.007 C 
ATOM      4  C   UNL     1       5.114 -19.637  -7.311  1.00  0.00     0.011 C 
ATOM      5  C   UNL     1       5.926 -18.468  -7.869  1.00  0.00     0.047 C 
ATOM      6  C   UNL     1       7.031 -19.133  -8.706  1.00  0.00     0.081 C 
ATOM      7  C   UNL     1       7.644 -18.160  -9.721  1.00  0.00     0.046 C 
ATOM      8  C   UNL     1       8.843 -17.588  -8.963  1.00  0.00     0.054 C 
ATOM      9  C   UNL     1       8.782 -18.335  -7.600  1.00  0.00     0.173 C 
ATOM     10  O   UNL     1       8.079 -19.530  -7.846  1.00  0.00    -0.342 OA
ATOM     11  C   UNL     1       7.996 -17.524  -6.532  1.00  0.00     0.096 C 
ATOM     12  C   UNL     1       6.500 -17.572  -6.781  1.00  0.00    -0.066 C 
ATOM     13  C   UNL     1       5.680 -16.822  -6.031  1.00  0.00     0.008 C 
ENDROOT
BRANCH   8  14
ATOM     14  C   UNL     1      10.199 -17.723  -9.729  1.00  0.00    -0.009 C 
ATOM     15  C   UNL     1      10.844 -16.349  -9.959  1.00  0.00     0.008 C 
ATOM     16  C   UNL     1      10.108 -18.495 -11.062  1.00  0.00     0.008 C 
ENDBRANCH   8  14
BRANCH   9  17
ATOM     17  O   UNL     1      10.070 -18.615  -7.109  1.00  0.00    -0.365 OA
ATOM     18  H   UNL     1      10.014 -19.465  -6.597  1.00  0.00     0.214 HD
ENDBRANCH   9  17
TORSDOF 2
ENDMDL
MODEL 6
REMARK VINA RESULT:    -4.471      1.703      2.342
REMARK INTER + INTRA:          -5.131
REMARK INTER:                  -4.807
REMARK INTRA:                  -0.324
REMARK UNBOUND:                -0.268
REMARK SMILES C=C1C[C@@]2(O)O[C@@]3(C[C@@H]2C(C)C)[C@@H](C)CC[C@@H]13
REMARK SMILES IDX 14 1 13 2 15 3 16 4 17 5 7 6 8 7 9 8 4 9 6 10 3 11 2 12 1 13
REMARK SMILES IDX 10 14 11 15 12 16 5 17
REMARK H PARENT 5 18
REMARK Flexibility Score: inf
ROOT
ATOM      1  C   UNL     1       8.759 -16.472  -6.273  1.00  0.00     0.011 C 
ATOM      2  C   UNL     1       7.744 -17.625  -6.248  1.00  0.00     0.019 C 
ATOM      3  C   UNL     1       6.296 -17.127  -6.129  1.00  0.00     0.007 C 
ATOM      4  C   UNL     1       5.440 -18.015  -7.038  1.00  0.00     0.011 C 
ATOM      5  C   UNL     1       6.361 -19.125  -7.545  1.00  0.00     0.047 C 
ATOM      6  C   UNL     1       7.768 -18.506  -7.504  1.00  0.00     0.081 C 
ATOM      7  C   UNL     1       8.865 -19.578  -7.507  1.00  0.00     0.046 C 
ATOM      8  C   UNL     1       9.193 -19.727  -8.993  1.00  0.00     0.054 C 
ATOM      9  C   UNL     1       8.249 -18.688  -9.664  1.00  0.00     0.173 C 
ATOM     10  O   UNL     1       7.959 -17.732  -8.671  1.00  0.00    -0.342 OA
ATOM     11  C   UNL     1       6.910 -19.333 -10.117  1.00  0.00     0.096 C 
ATOM     12  C   UNL     1       5.994 -19.610  -8.940  1.00  0.00    -0.066 C 
ATOM     13  C   UNL     1       4.850 -20.282  -9.135  1.00  0.00     0.008 C 
ENDROOT
BRANCH   8  14
ATOM     14  C   UNL     1      10.710 -19.551  -9.327  1.00  0.00    -0.009 C 
ATOM     15  C   UNL     1      11.414 -20.911  -9.433  1.00  0.00     0.008 C 
ATOM     16  C   UNL     1      11.479 -18.631  -8.355  1.00  0.00     0.008 C 
ENDBRANCH   8  14
BRANCH   9  17
ATOM     17  O   UNL     1       8.863 -18.075 -10.771  1.00  0.00    -0.365 OA
ATOM     18  H   UNL     1       9.834 -18.276 -10.720  1.00  0.00     0.214 HD
ENDBRANCH   9  17
TORSDOF 2
ENDMDL
MODEL 7
REMARK VINA RESULT:    -4.436      1.946      3.917
REMARK INTER + INTRA:          -5.092
REMARK INTER:                  -4.769
REMARK INTRA:                  -0.323
REMARK UNBOUND:                -0.268
REMARK SMILES C=C1C[C@@]2(O)O[C@@]3(C[C@@H]2C(C)C)[C@@H](C)CC[C@@H]13
REMARK SMILES IDX 14 1 13 2 15 3 16 4 17 5 7 6 8 7 9 8 4 9 6 10 3 11 2 12 1 13
REMARK SMILES IDX 10 14 11 15 12 16 5 17
REMARK H PARENT 5 18
REMARK Flexibility Score: inf
ROOT
ATOM      1  C   UNL     1       9.927 -19.211  -8.828  1.00  0.00     0.011 C 
ATOM      2  C   UNL     1       8.617 -19.519  -9.568  1.00  0.00     0.019 C 
ATOM      3  C   UNL     1       8.652 -20.881 -10.278  1.00  0.00     0.007 C 
ATOM      4  C   UNL     1       7.271 -21.518 -10.094  1.00  0.00     0.011 C 
ATOM      5  C   UNL     1       6.393 -20.457  -9.430  1.00  0.00     0.047 C 
ATOM      6  C   UNL     1       7.382 -19.568  -8.658  1.00  0.00     0.081 C 
ATOM      7  C   UNL     1       6.781 -18.195  -8.330  1.00  0.00     0.046 C 
ATOM      8  C   UNL     1       6.193 -18.405  -6.935  1.00  0.00     0.054 C 
ATOM      9  C   UNL     1       6.559 -19.885  -6.622  1.00  0.00     0.173 C 
ATOM     10  O   UNL     1       7.678 -20.183  -7.422  1.00  0.00    -0.342 OA
ATOM     11  C   UNL     1       5.412 -20.858  -7.014  1.00  0.00     0.096 C 
ATOM     12  C   UNL     1       5.331 -21.052  -8.516  1.00  0.00    -0.066 C 
ATOM     13  C   UNL     1       4.320 -21.760  -9.039  1.00  0.00     0.008 C 
ENDROOT
BRANCH   8  14
ATOM     14  C   UNL     1       6.687 -17.365  -5.877  1.00  0.00    -0.009 C 
ATOM     15  C   UNL     1       5.684 -16.214  -5.723  1.00  0.00     0.008 C 
ATOM     16  C   UNL     1       8.101 -16.805  -6.140  1.00  0.00     0.008 C 
ENDBRANCH   8  14
BRANCH   9  17
ATOM     17  O   UNL     1       6.866 -20.061  -5.261  1.00  0.00    -0.365 OA
ATOM     18  H   UNL     1       6.164 -19.594  -4.735  1.00  0.00     0.214 HD
ENDBRANCH   9  17
TORSDOF 2
ENDMDL
MODEL 8
REMARK VINA RESULT:    -4.411      2.003      4.950
REMARK INTER + INTRA:          -5.066
REMARK INTER:                  -4.750
REMARK INTRA:                  -0.316
REMARK UNBOUND:                -0.268
REMARK SMILES C=C1C[C@@]2(O)O[C@@]3(C[C@@H]2C(C)C)[C@@H](C)CC[C@@H]13
REMARK SMILES IDX 14 1 13 2 15 3 16 4 17 5 7 6 8 7 9 8 4 9 6 10 3 11 2 12 1 13
REMARK SMILES IDX 10 14 11 15 12 16 5 17
REMARK H PARENT 5 18
REMARK Flexibility Score: inf
ROOT
ATOM      1  C   UNL     1       8.970 -21.549 -11.252  1.00  0.00     0.011 C 
ATOM      2  C   UNL     1      10.000 -21.080 -10.213  1.00  0.00     0.019 C 
ATOM      3  C   UNL     1      11.398 -20.889 -10.820  1.00  0.00     0.007 C 
ATOM      4  C   UNL     1      11.996 -19.631 -10.182  1.00  0.00     0.011 C 
ATOM      5  C   UNL     1      11.018 -19.197  -9.090  1.00  0.00     0.047 C 
ATOM      6  C   UNL     1       9.656 -19.735  -9.557  1.00  0.00     0.081 C 
ATOM      7  C   UNL     1       8.652 -19.831  -8.401  1.00  0.00     0.046 C 
ATOM      8  C   UNL     1       7.920 -18.491  -8.473  1.00  0.00     0.054 C 
ATOM      9  C   UNL     1       8.587 -17.795  -9.694  1.00  0.00     0.173 C 
ATOM     10  O   UNL     1       9.106 -18.832 -10.493  1.00  0.00    -0.342 OA
ATOM     11  C   UNL     1       9.767 -16.881  -9.264  1.00  0.00     0.096 C 
ATOM     12  C   UNL     1      10.993 -17.689  -8.882  1.00  0.00    -0.066 C 
ATOM     13  C   UNL     1      12.062 -17.067  -8.365  1.00  0.00     0.008 C 
ENDROOT
BRANCH   8  14
ATOM     14  C   UNL     1       6.365 -18.623  -8.557  1.00  0.00    -0.009 C 
ATOM     15  C   UNL     1       5.701 -18.189  -7.243  1.00  0.00     0.008 C 
ATOM     16  C   UNL     1       5.861 -20.023  -8.968  1.00  0.00     0.008 C 
ENDBRANCH   8  14
BRANCH   9  17
ATOM     17  O   UNL     1       7.656 -17.032 -10.423  1.00  0.00    -0.365 OA
ATOM     18  H   UNL     1       7.208 -17.645 -11.064  1.00  0.00     0.214 HD
ENDBRANCH   9  17
TORSDOF 2
ENDMDL
MODEL 9
REMARK VINA RESULT:    -4.402      1.768      3.402
REMARK INTER + INTRA:          -5.056
REMARK INTER:                  -4.735
REMARK INTRA:                  -0.320
REMARK UNBOUND:                -0.268
REMARK SMILES C=C1C[C@@]2(O)O[C@@]3(C[C@@H]2C(C)C)[C@@H](C)CC[C@@H]13
REMARK SMILES IDX 14 1 13 2 15 3 16 4 17 5 7 6 8 7 9 8 4 9 6 10 3 11 2 12 1 13
REMARK SMILES IDX 10 14 11 15 12 16 5 17
REMARK H PARENT 5 18
REMARK Flexibility Score: inf
ROOT
ATOM      1  C   UNL     1       4.398 -21.479  -9.004  1.00  0.00     0.011 C 
ATOM      2  C   UNL     1       5.809 -22.077  -8.896  1.00  0.00     0.019 C 
ATOM      3  C   UNL     1       6.130 -23.031 -10.056  1.00  0.00     0.007 C 
ATOM      4  C   UNL     1       7.590 -22.784 -10.449  1.00  0.00     0.011 C 
ATOM      5  C   UNL     1       8.157 -21.816  -9.410  1.00  0.00     0.047 C 
ATOM      6  C   UNL     1       6.933 -21.032  -8.907  1.00  0.00     0.081 C 
ATOM      7  C   UNL     1       7.197 -20.369  -7.550  1.00  0.00     0.046 C 
ATOM      8  C   UNL     1       7.679 -18.971  -7.941  1.00  0.00     0.054 C 
ATOM      9  C   UNL     1       7.604 -18.999  -9.495  1.00  0.00     0.173 C 
ATOM     10  O   UNL     1       6.655 -19.988  -9.818  1.00  0.00    -0.342 OA
ATOM     11  C   UNL     1       8.962 -19.408 -10.129  1.00  0.00     0.096 C 
ATOM     12  C   UNL     1       9.227 -20.895  -9.979  1.00  0.00    -0.066 C 
ATOM     13  C   UNL     1      10.410 -21.398 -10.356  1.00  0.00     0.008 C 
ENDROOT
BRANCH   8  14
ATOM     14  C   UNL     1       6.877 -17.813  -7.263  1.00  0.00    -0.009 C 
ATOM     15  C   UNL     1       7.562 -17.349  -5.969  1.00  0.00     0.008 C 
ATOM     16  C   UNL     1       5.392 -18.134  -6.991  1.00  0.00     0.008 C 
ENDBRANCH   8  14
BRANCH   9  17
ATOM     17  O   UNL     1       7.211 -17.752 -10.013  1.00  0.00    -0.365 OA
ATOM     18  H   UNL     1       6.696 -17.285  -9.303  1.00  0.00     0.214 HD
ENDBRANCH   9  17
TORSDOF 2
ENDMDL
