MODEL 1
REMARK VINA RESULT:    -5.049      0.000      0.000
REMARK INTER + INTRA:          -5.770
REMARK INTER:                  -5.640
REMARK INTRA:                  -0.130
REMARK UNBOUND:                -0.130
REMARK SMILES O=C([O-])C=Cc1ccccc1
REMARK SMILES IDX 4 1 5 2 2 3 1 4 3 5 6 6 7 7 11 8 8 9 10 10 9 11
REMARK H PARENT
REMARK Flexibility Score: inf
ROOT
ATOM      1  C   UNL     1      50.884  33.374   3.944  1.00  0.00     0.025 C 
ATOM      2  C   UNL     1      49.714  33.452   4.599  1.00  0.00     0.010 C 
ENDROOT
BRANCH   1   3
ATOM      3  C   UNL     1      50.971  33.483   2.478  1.00  0.00     0.064 C 
ATOM      4  O   UNL     1      52.046  33.238   1.867  1.00  0.00    -0.545 OA
ATOM      5  O   UNL     1      49.849  33.863   1.755  1.00  0.00    -0.545 OA
ENDBRANCH   1   3
BRANCH   2   6
ATOM      6  C   UNL     1      49.558  33.350   6.074  1.00  0.00    -0.026 A 
ATOM      7  C   UNL     1      49.773  34.507   6.846  1.00  0.00     0.008 A 
ATOM      8  C   UNL     1      49.207  32.152   6.737  1.00  0.00     0.008 A 
ATOM      9  C   UNL     1      49.642  34.474   8.238  1.00  0.00     0.001 A 
ATOM     10  C   UNL     1      49.077  32.127   8.130  1.00  0.00     0.001 A 
ATOM     11  C   UNL     1      49.294  33.285   8.879  1.00  0.00     0.000 A 
ENDBRANCH   2   6
TORSDOF 2
ENDMDL
MODEL 2
REMARK VINA RESULT:    -5.045      0.128      1.463
REMARK INTER + INTRA:          -5.765
REMARK INTER:                  -5.637
REMARK INTRA:                  -0.129
REMARK UNBOUND:                -0.130
REMARK SMILES O=C([O-])C=Cc1ccccc1
REMARK SMILES IDX 4 1 5 2 2 3 1 4 3 5 6 6 7 7 11 8 8 9 10 10 9 11
REMARK H PARENT
REMARK Flexibility Score: inf
ROOT
ATOM      1  C   UNL     1      50.905  33.388   4.009  1.00  0.00     0.025 C 
ATOM      2  C   UNL     1      49.723  33.434   4.643  1.00  0.00     0.010 C 
ENDROOT
BRANCH   1   3
ATOM      3  C   UNL     1      51.012  33.463   2.542  1.00  0.00     0.064 C 
ATOM      4  O   UNL     1      52.079  33.151   1.948  1.00  0.00    -0.545 OA
ATOM      5  O   UNL     1      49.917  33.885   1.800  1.00  0.00    -0.545 OA
ENDBRANCH   1   3
BRANCH   2   6
ATOM      6  C   UNL     1      49.546  33.363   6.118  1.00  0.00    -0.026 A 
ATOM      7  C   UNL     1      49.186  32.126   6.684  1.00  0.00     0.008 A 
ATOM      8  C   UNL     1      49.721  34.473   6.976  1.00  0.00     0.008 A 
ATOM      9  C   UNL     1      49.005  31.996   8.065  1.00  0.00     0.001 A 
ATOM     10  C   UNL     1      49.538  34.335   8.356  1.00  0.00     0.001 A 
ATOM     11  C   UNL     1      49.181  33.100   8.900  1.00  0.00     0.000 A 
ENDBRANCH   2   6
TORSDOF 2
ENDMDL
MODEL 3
REMARK VINA RESULT:    -5.010      2.706      5.693
REMARK INTER + INTRA:          -5.726
REMARK INTER:                  -5.597
REMARK INTRA:                  -0.129
REMARK UNBOUND:                -0.130
REMARK SMILES O=C([O-])C=Cc1ccccc1
REMARK SMILES IDX 4 1 5 2 2 3 1 4 3 5 6 6 7 7 11 8 8 9 10 10 9 11
REMARK H PARENT
REMARK Flexibility Score: inf
ROOT
ATOM      1  C   UNL     1      49.544  33.357   5.048  1.00  0.00     0.025 C 
ATOM      2  C   UNL     1      50.632  33.657   4.320  1.00  0.00     0.010 C 
ENDROOT
BRANCH   1   3
ATOM      3  C   UNL     1      49.444  33.684   6.481  1.00  0.00     0.064 C 
ATOM      4  O   UNL     1      49.866  34.784   6.931  1.00  0.00    -0.545 OA
ATOM      5  O   UNL     1      48.875  32.765   7.352  1.00  0.00    -0.545 OA
ENDBRANCH   1   3
BRANCH   2   6
ATOM      6  C   UNL     1      50.795  33.354   2.873  1.00  0.00    -0.026 A 
ATOM      7  C   UNL     1      51.907  32.588   2.477  1.00  0.00     0.008 A 
ATOM      8  C   UNL     1      49.893  33.797   1.880  1.00  0.00     0.008 A 
ATOM      9  C   UNL     1      52.115  32.271   1.132  1.00  0.00     0.001 A 
ATOM     10  C   UNL     1      50.108  33.477   0.535  1.00  0.00     0.001 A 
ATOM     11  C   UNL     1      51.216  32.714   0.161  1.00  0.00     0.000 A 
ENDBRANCH   2   6
TORSDOF 2
ENDMDL
MODEL 4
REMARK VINA RESULT:    -4.984      1.334      2.336
REMARK INTER + INTRA:          -5.697
REMARK INTER:                  -5.552
REMARK INTRA:                  -0.146
REMARK UNBOUND:                -0.130
REMARK SMILES O=C([O-])C=Cc1ccccc1
REMARK SMILES IDX 4 1 5 2 2 3 1 4 3 5 6 6 7 7 11 8 8 9 10 10 9 11
REMARK H PARENT
REMARK Flexibility Score: inf
ROOT
ATOM      1  C   UNL     1      51.499  32.999   2.436  1.00  0.00     0.025 C 
ATOM      2  C   UNL     1      50.694  33.697   3.253  1.00  0.00     0.010 C 
ENDROOT
BRANCH   1   3
ATOM      3  C   UNL     1      51.714  33.385   1.031  1.00  0.00     0.064 C 
ATOM      4  O   UNL     1      50.788  33.299   0.180  1.00  0.00    -0.545 OA
ATOM      5  O   UNL     1      52.960  33.852   0.636  1.00  0.00    -0.545 OA
ENDBRANCH   1   3
BRANCH   2   6
ATOM      6  C   UNL     1      50.434  33.361   4.679  1.00  0.00    -0.026 A 
ATOM      7  C   UNL     1      51.088  32.241   5.226  1.00  0.00     0.008 A 
ATOM      8  C   UNL     1      49.566  34.108   5.507  1.00  0.00     0.008 A 
ATOM      9  C   UNL     1      50.884  31.875   6.560  1.00  0.00     0.001 A 
ATOM     10  C   UNL     1      49.367  33.735   6.840  1.00  0.00     0.001 A 
ATOM     11  C   UNL     1      50.024  32.621   7.367  1.00  0.00     0.000 A 
ENDBRANCH   2   6
TORSDOF 2
ENDMDL
MODEL 5
REMARK VINA RESULT:    -4.952      2.712      5.633
REMARK INTER + INTRA:          -5.661
REMARK INTER:                  -5.530
REMARK INTRA:                  -0.131
REMARK UNBOUND:                -0.130
REMARK SMILES O=C([O-])C=Cc1ccccc1
REMARK SMILES IDX 4 1 5 2 2 3 1 4 3 5 6 6 7 7 11 8 8 9 10 10 9 11
REMARK H PARENT
REMARK Flexibility Score: inf
ROOT
ATOM      1  C   UNL     1      49.696  33.098   5.125  1.00  0.00     0.025 C 
ATOM      2  C   UNL     1      50.503  33.769   4.287  1.00  0.00     0.010 C 
ENDROOT
BRANCH   1   3
ATOM      3  C   UNL     1      49.453  33.546   6.507  1.00  0.00     0.064 C 
ATOM      4  O   UNL     1      49.819  34.687   6.898  1.00  0.00    -0.545 OA
ATOM      5  O   UNL     1      48.810  32.695   7.395  1.00  0.00    -0.545 OA
ENDBRANCH   1   3
BRANCH   2   6
ATOM      6  C   UNL     1      50.790  33.371   2.883  1.00  0.00    -0.026 A 
ATOM      7  C   UNL     1      49.895  33.786   1.880  1.00  0.00     0.008 A 
ATOM      8  C   UNL     1      51.913  32.599   2.509  1.00  0.00     0.008 A 
ATOM      9  C   UNL     1      50.111  33.444   0.542  1.00  0.00     0.001 A 
ATOM     10  C   UNL     1      52.122  32.259   1.168  1.00  0.00     0.001 A 
ATOM     11  C   UNL     1      51.224  32.681   0.186  1.00  0.00     0.000 A 
ENDBRANCH   2   6
TORSDOF 2
ENDMDL
MODEL 6
REMARK VINA RESULT:    -4.925     13.634     15.085
REMARK INTER + INTRA:          -5.631
REMARK INTER:                  -5.499
REMARK INTRA:                  -0.132
REMARK UNBOUND:                -0.130
REMARK SMILES O=C([O-])C=Cc1ccccc1
REMARK SMILES IDX 4 1 5 2 2 3 1 4 3 5 6 6 7 7 11 8 8 9 10 10 9 11
REMARK H PARENT
REMARK Flexibility Score: inf
ROOT
ATOM      1  C   UNL     1      51.024  47.603  10.683  1.00  0.00     0.025 C 
ATOM      2  C   UNL     1      51.765  47.134  11.699  1.00  0.00     0.010 C 
ENDROOT
BRANCH   1   3
ATOM      3  C   UNL     1      50.094  48.733  10.847  1.00  0.00     0.064 C 
ATOM      4  O   UNL     1      48.846  48.567  10.784  1.00  0.00    -0.545 OA
ATOM      5  O   UNL     1      50.600  50.005  11.075  1.00  0.00    -0.545 OA
ENDBRANCH   1   3
BRANCH   2   6
ATOM      6  C   UNL     1      52.721  45.999  11.600  1.00  0.00    -0.026 A 
ATOM      7  C   UNL     1      53.491  45.679  12.734  1.00  0.00     0.008 A 
ATOM      8  C   UNL     1      52.895  45.230  10.428  1.00  0.00     0.008 A 
ATOM      9  C   UNL     1      54.406  44.623  12.703  1.00  0.00     0.001 A 
ATOM     10  C   UNL     1      53.813  44.175  10.404  1.00  0.00     0.001 A 
ATOM     11  C   UNL     1      54.568  43.871  11.539  1.00  0.00     0.000 A 
ENDBRANCH   2   6
TORSDOF 2
ENDMDL
MODEL 7
REMARK VINA RESULT:    -4.898     18.043     18.919
REMARK INTER + INTRA:          -5.601
REMARK INTER:                  -5.462
REMARK INTRA:                  -0.139
REMARK UNBOUND:                -0.130
REMARK SMILES O=C([O-])C=Cc1ccccc1
REMARK SMILES IDX 4 1 5 2 2 3 1 4 3 5 6 6 7 7 11 8 8 9 10 10 9 11
REMARK H PARENT
REMARK Flexibility Score: inf
ROOT
ATOM      1  C   UNL     1      47.318  51.596   1.026  1.00  0.00     0.025 C 
ATOM      2  C   UNL     1      48.305  50.803   1.474  1.00  0.00     0.010 C 
ENDROOT
BRANCH   1   3
ATOM      3  C   UNL     1      45.907  51.173   1.037  1.00  0.00     0.064 C 
ATOM      4  O   UNL     1      45.487  50.319   1.864  1.00  0.00    -0.545 OA
ATOM      5  O   UNL     1      45.024  51.726   0.120  1.00  0.00    -0.545 OA
ENDBRANCH   1   3
BRANCH   2   6
ATOM      6  C   UNL     1      49.747  51.169   1.491  1.00  0.00    -0.026 A 
ATOM      7  C   UNL     1      50.295  51.759   0.337  1.00  0.00     0.008 A 
ATOM      8  C   UNL     1      50.591  50.952   2.603  1.00  0.00     0.008 A 
ATOM      9  C   UNL     1      51.643  52.125   0.291  1.00  0.00     0.001 A 
ATOM     10  C   UNL     1      51.940  51.320   2.550  1.00  0.00     0.001 A 
ATOM     11  C   UNL     1      52.465  51.905   1.397  1.00  0.00     0.000 A 
ENDBRANCH   2   6
TORSDOF 2
ENDMDL
MODEL 8
REMARK VINA RESULT:    -4.803     17.914     18.645
REMARK INTER + INTRA:          -5.495
REMARK INTER:                  -5.366
REMARK INTRA:                  -0.129
REMARK UNBOUND:                -0.130
REMARK SMILES O=C([O-])C=Cc1ccccc1
REMARK SMILES IDX 4 1 5 2 2 3 1 4 3 5 6 6 7 7 11 8 8 9 10 10 9 11
REMARK H PARENT
REMARK Flexibility Score: inf
ROOT
ATOM      1  C   UNL     1      48.064  51.016   1.948  1.00  0.00     0.025 C 
ATOM      2  C   UNL     1      47.110  50.971   1.005  1.00  0.00     0.010 C 
ENDROOT
BRANCH   1   3
ATOM      3  C   UNL     1      49.497  51.072   1.612  1.00  0.00     0.064 C 
ATOM      4  O   UNL     1      50.379  50.763   2.458  1.00  0.00    -0.545 OA
ATOM      5  O   UNL     1      49.884  51.473   0.340  1.00  0.00    -0.545 OA
ENDBRANCH   1   3
BRANCH   2   6
ATOM      6  C   UNL     1      45.649  50.914   1.277  1.00  0.00    -0.026 A 
ATOM      7  C   UNL     1      44.948  49.756   0.891  1.00  0.00     0.008 A 
ATOM      8  C   UNL     1      44.933  51.960   1.901  1.00  0.00     0.008 A 
ATOM      9  C   UNL     1      43.573  49.643   1.120  1.00  0.00     0.001 A 
ATOM     10  C   UNL     1      43.557  51.840   2.126  1.00  0.00     0.001 A 
ATOM     11  C   UNL     1      42.878  50.683   1.736  1.00  0.00     0.000 A 
ENDBRANCH   2   6
TORSDOF 2
ENDMDL
