MODEL 1
REMARK VINA RESULT:    -3.985      0.000      0.000
REMARK INTER + INTRA:          -4.169
REMARK INTER:                  -4.917
REMARK INTRA:                   0.748
REMARK UNBOUND:                 0.748
REMARK SMILES CC1=CC=CC(C)(C)CC1=O
REMARK SMILES IDX 1 1 2 2 3 3 10 4 11 5 9 6 4 8 5 9 6 10 7 11 8 12
REMARK H PARENT
REMARK Flexibility Score: 80.00
ROOT
ATOM      1  C   UNL     1     -12.904  19.861   5.349  1.00  0.00     0.048 C 
ATOM      2  C   UNL     1     -11.513  19.338   5.621  1.00  0.00    -0.008 C 
ATOM      3  C   UNL     1     -11.200  18.116   5.138  1.00  0.00     0.007 C 
ENDROOT
BRANCH   2   4
ATOM      4  C   UNL     1     -10.578  20.243   6.333  1.00  0.00     0.159 C 
ATOM      5  O   UNL     1     -10.912  21.448   6.507  1.00  0.00    -0.295 OA
BRANCH   4   6
ATOM      6  C   UNL     1      -9.253  19.802   6.873  1.00  0.00     0.091 CG0
ATOM      7  G   UNL     1      -8.313  19.229   5.789  1.00  0.00     0.000 G0
ENDBRANCH   4   6
ENDBRANCH   2   4
BRANCH   3   8
ATOM      8  C   UNL     1      -9.928  17.360   5.218  1.00  0.00    -0.003 C 
ATOM      9  C   UNL     1      -8.694  17.809   5.481  1.00  0.00    -0.020 C 
BRANCH   9  10
ATOM     10  C   UNL     1      -8.306  19.233   5.796  1.00  0.00    -0.010 CG0
ATOM     11  C   UNL     1      -8.282  20.074   4.499  1.00  0.00     0.016 C 
ATOM     12  C   UNL     1      -6.877  19.227   6.386  1.00  0.00     0.016 C 
ATOM     13  G   UNL     1      -9.263  19.810   6.863  1.00  0.00     0.000 G0
ENDBRANCH   9  10
ENDBRANCH   3   8
TORSDOF 0
ENDMDL
MODEL 2
REMARK VINA RESULT:    -3.363      6.771      7.949
REMARK INTER + INTRA:          -3.401
REMARK INTER:                  -4.151
REMARK INTRA:                   0.750
REMARK UNBOUND:                 0.748
REMARK SMILES CC1=CC=CC(C)(C)CC1=O
REMARK SMILES IDX 1 1 2 2 3 3 10 4 11 5 9 6 4 8 5 9 6 10 7 11 8 12
REMARK H PARENT
REMARK Flexibility Score: 80.00
ROOT
ATOM      1  C   UNL     1      -8.125  20.224  13.250  1.00  0.00     0.048 C 
ATOM      2  C   UNL     1      -8.646  18.807  13.198  1.00  0.00    -0.008 C 
ATOM      3  C   UNL     1      -8.506  18.048  14.306  1.00  0.00     0.007 C 
ENDROOT
BRANCH   2   4
ATOM      4  C   UNL     1      -9.340  18.389  11.955  1.00  0.00     0.159 C 
ATOM      5  O   UNL     1      -9.624  19.265  11.091  1.00  0.00    -0.295 OA
BRANCH   4   6
ATOM      6  C   UNL     1      -9.716  16.970  11.657  1.00  0.00     0.091 CG0
ATOM      7  G   UNL     1     -10.657  16.354  12.716  1.00  0.00     0.000 G0
ENDBRANCH   4   6
ENDBRANCH   2   4
BRANCH   3   8
ATOM      8  C   UNL     1      -8.935  16.654  14.563  1.00  0.00    -0.003 C 
ATOM      9  C   UNL     1      -9.846  15.917  13.915  1.00  0.00    -0.020 C 
BRANCH   9  10
ATOM     10  C   UNL     1     -10.654  16.344  12.712  1.00  0.00    -0.010 CG0
ATOM     11  C   UNL     1     -11.796  17.290  13.151  1.00  0.00     0.016 C 
ATOM     12  C   UNL     1     -11.293  15.083  12.086  1.00  0.00     0.016 C 
ATOM     13  G   UNL     1      -9.721  16.984  11.659  1.00  0.00     0.000 G0
ENDBRANCH   9  10
ENDBRANCH   3   8
TORSDOF 0
ENDMDL
MODEL 3
REMARK VINA RESULT:    -3.347      1.564      2.432
REMARK INTER + INTRA:          -3.381
REMARK INTER:                  -4.135
REMARK INTRA:                   0.754
REMARK UNBOUND:                 0.748
REMARK SMILES CC1=CC=CC(C)(C)CC1=O
REMARK SMILES IDX 1 1 2 2 3 3 10 4 11 5 9 6 4 8 5 9 6 10 7 11 8 12
REMARK H PARENT
REMARK Flexibility Score: 80.00
ROOT
ATOM      1  C   UNL     1     -12.993  19.871   5.353  1.00  0.00     0.048 C 
ATOM      2  C   UNL     1     -11.539  19.741   5.743  1.00  0.00    -0.008 C 
ATOM      3  C   UNL     1     -11.160  20.266   6.927  1.00  0.00     0.007 C 
ENDROOT
BRANCH   2   4
ATOM      4  C   UNL     1     -10.659  18.978   4.823  1.00  0.00     0.159 C 
ATOM      5  O   UNL     1     -11.185  18.329   3.877  1.00  0.00    -0.295 OA
BRANCH   4   6
ATOM      6  C   UNL     1      -9.167  18.943   4.947  1.00  0.00     0.091 CG0
ATOM      7  G   UNL     1      -8.682  18.394   6.307  1.00  0.00     0.000 G0
ENDBRANCH   4   6
ENDBRANCH   2   4
BRANCH   3   8
ATOM      8  C   UNL     1      -9.831  20.272   7.583  1.00  0.00    -0.003 C 
ATOM      9  C   UNL     1      -8.771  19.487   7.350  1.00  0.00    -0.020 C 
BRANCH   9  10
ATOM     10  C   UNL     1      -8.673  18.398   6.309  1.00  0.00    -0.010 CG0
ATOM     11  C   UNL     1      -9.447  17.145   6.781  1.00  0.00     0.016 C 
ATOM     12  C   UNL     1      -7.185  18.008   6.154  1.00  0.00     0.016 C 
ATOM     13  G   UNL     1      -9.175  18.931   4.948  1.00  0.00     0.000 G0
ENDBRANCH   9  10
ENDBRANCH   3   8
TORSDOF 0
ENDMDL
MODEL 4
REMARK VINA RESULT:    -3.144      2.260      2.633
REMARK INTER + INTRA:          -3.131
REMARK INTER:                  -3.894
REMARK INTRA:                   0.762
REMARK UNBOUND:                 0.748
REMARK SMILES CC1=CC=CC(C)(C)CC1=O
REMARK SMILES IDX 1 1 2 2 3 3 10 4 11 5 9 6 4 8 5 9 6 10 7 11 8 12
REMARK H PARENT
REMARK Flexibility Score: 80.00
ROOT
ATOM      1  C   UNL     1     -11.124  20.069   5.800  1.00  0.00     0.048 C 
ATOM      2  C   UNL     1     -10.578  18.763   6.330  1.00  0.00    -0.008 C 
ATOM      3  C   UNL     1     -10.762  17.657   5.579  1.00  0.00     0.007 C 
ENDROOT
BRANCH   2   4
ATOM      4  C   UNL     1      -9.815  18.818   7.602  1.00  0.00     0.159 C 
ATOM      5  O   UNL     1      -9.491  19.944   8.070  1.00  0.00    -0.295 OA
BRANCH   4   6
ATOM      6  C   UNL     1      -9.415  17.601   8.377  1.00  0.00     0.091 CG0
ATOM      7  G   UNL     1      -8.508  16.640   7.577  1.00  0.00     0.000 G0
ENDBRANCH   4   6
ENDBRANCH   2   4
BRANCH   3   8
ATOM      8  C   UNL     1     -10.325  16.262   5.817  1.00  0.00    -0.003 C 
ATOM      9  C   UNL     1      -9.376  15.804   6.644  1.00  0.00    -0.020 C 
BRANCH   9  10
ATOM     10  C   UNL     1      -8.523  16.631   7.576  1.00  0.00    -0.010 CG0
ATOM     11  C   UNL     1      -7.418  17.359   6.775  1.00  0.00     0.016 C 
ATOM     12  C   UNL     1      -7.834  15.676   8.578  1.00  0.00     0.016 C 
ATOM     13  G   UNL     1      -9.418  17.604   8.376  1.00  0.00     0.000 G0
ENDBRANCH   9  10
ENDBRANCH   3   8
TORSDOF 0
ENDMDL
MODEL 5
REMARK VINA RESULT:    -3.125      1.844      2.997
REMARK INTER + INTRA:          -3.108
REMARK INTER:                  -3.866
REMARK INTRA:                   0.758
REMARK UNBOUND:                 0.748
REMARK SMILES CC1=CC=CC(C)(C)CC1=O
REMARK SMILES IDX 1 1 2 2 3 3 10 4 11 5 9 6 4 8 5 9 6 10 7 11 8 12
REMARK H PARENT
REMARK Flexibility Score: 80.00
ROOT
ATOM      1  C   UNL     1     -10.337  21.382   6.898  1.00  0.00     0.048 C 
ATOM      2  C   UNL     1      -9.846  19.956   6.988  1.00  0.00    -0.008 C 
ATOM      3  C   UNL     1      -9.988  19.319   8.170  1.00  0.00     0.007 C 
ENDROOT
BRANCH   2   4
ATOM      4  C   UNL     1      -9.315  19.344   5.745  1.00  0.00     0.159 C 
ATOM      5  O   UNL     1      -9.476  19.952   4.650  1.00  0.00    -0.295 OA
BRANCH   4   6
ATOM      6  C   UNL     1      -8.580  18.040   5.714  1.00  0.00     0.091 CG0
ATOM      7  G   UNL     1      -9.416  16.857   6.252  1.00  0.00     0.000 G0
ENDBRANCH   4   6
ENDBRANCH   2   4
BRANCH   3   8
ATOM      8  C   UNL     1      -9.633  17.933   8.552  1.00  0.00    -0.003 C 
ATOM      9  C   UNL     1      -9.394  16.875   7.766  1.00  0.00    -0.020 C 
BRANCH   9  10
ATOM     10  C   UNL     1      -9.403  16.860   6.256  1.00  0.00    -0.010 CG0
ATOM     11  C   UNL     1     -10.859  16.860   5.736  1.00  0.00     0.016 C 
ATOM     12  C   UNL     1      -8.727  15.553   5.780  1.00  0.00     0.016 C 
ATOM     13  G   UNL     1      -8.578  18.050   5.718  1.00  0.00     0.000 G0
ENDBRANCH   9  10
ENDBRANCH   3   8
TORSDOF 0
ENDMDL
MODEL 6
REMARK VINA RESULT:    -3.051      1.478      3.464
REMARK INTER + INTRA:          -3.016
REMARK INTER:                  -3.778
REMARK INTRA:                   0.763
REMARK UNBOUND:                 0.748
REMARK SMILES CC1=CC=CC(C)(C)CC1=O
REMARK SMILES IDX 1 1 2 2 3 3 10 4 11 5 9 6 4 8 5 9 6 10 7 11 8 12
REMARK H PARENT
REMARK Flexibility Score: 80.00
ROOT
ATOM      1  C   UNL     1      -6.693  19.559   6.838  1.00  0.00     0.048 C 
ATOM      2  C   UNL     1      -7.970  19.102   6.172  1.00  0.00    -0.008 C 
ATOM      3  C   UNL     1      -8.399  17.849   6.435  1.00  0.00     0.007 C 
ENDROOT
BRANCH   2   4
ATOM      4  C   UNL     1      -8.691  20.098   5.341  1.00  0.00     0.159 C 
ATOM      5  O   UNL     1      -8.321  21.304   5.378  1.00  0.00    -0.295 OA
BRANCH   4   6
ATOM      6  C   UNL     1      -9.835  19.748   4.440  1.00  0.00     0.091 CG0
ATOM      7  G   UNL     1     -11.020  19.096   5.187  1.00  0.00     0.000 G0
ENDBRANCH   4   6
ENDBRANCH   2   4
BRANCH   3   8
ATOM      8  C   UNL     1      -9.610  17.140   5.960  1.00  0.00    -0.003 C 
ATOM      9  C   UNL     1     -10.735  17.646   5.438  1.00  0.00    -0.020 C 
BRANCH   9  10
ATOM     10  C   UNL     1     -11.027  19.105   5.178  1.00  0.00    -0.010 CG0
ATOM     11  C   UNL     1     -11.364  19.821   6.506  1.00  0.00     0.016 C 
ATOM     12  C   UNL     1     -12.267  19.195   4.259  1.00  0.00     0.016 C 
ATOM     13  G   UNL     1      -9.833  19.751   4.439  1.00  0.00     0.000 G0
ENDBRANCH   9  10
ENDBRANCH   3   8
TORSDOF 0
ENDMDL
MODEL 7
REMARK VINA RESULT:    -3.023      6.984      7.936
REMARK INTER + INTRA:          -2.981
REMARK INTER:                  -3.737
REMARK INTRA:                   0.756
REMARK UNBOUND:                 0.748
REMARK SMILES CC1=CC=CC(C)(C)CC1=O
REMARK SMILES IDX 1 1 2 2 3 3 10 4 11 5 9 6 4 8 5 9 6 10 7 11 8 12
REMARK H PARENT
REMARK Flexibility Score: 80.00
ROOT
ATOM      1  C   UNL     1      -8.108  19.971  13.259  1.00  0.00     0.048 C 
ATOM      2  C   UNL     1      -8.880  18.678  13.132  1.00  0.00    -0.008 C 
ATOM      3  C   UNL     1     -10.169  18.756  12.738  1.00  0.00     0.007 C 
ENDROOT
BRANCH   2   4
ATOM      4  C   UNL     1      -8.135  17.419  13.379  1.00  0.00     0.159 C 
ATOM      5  O   UNL     1      -6.879  17.469  13.498  1.00  0.00    -0.295 OA
BRANCH   4   6
ATOM      6  C   UNL     1      -8.794  16.081  13.508  1.00  0.00     0.091 CG0
ATOM      7  G   UNL     1      -9.618  15.685  12.262  1.00  0.00     0.000 G0
ENDBRANCH   4   6
ENDBRANCH   2   4
BRANCH   3   8
ATOM      8  C   UNL     1     -11.158  17.679  12.501  1.00  0.00    -0.003 C 
ATOM      9  C   UNL     1     -10.949  16.373  12.286  1.00  0.00    -0.020 C 
BRANCH   9  10
ATOM     10  C   UNL     1      -9.612  15.671  12.263  1.00  0.00    -0.010 CG0
ATOM     11  C   UNL     1      -8.885  15.963  10.930  1.00  0.00     0.016 C 
ATOM     12  C   UNL     1      -9.864  14.147  12.344  1.00  0.00     0.016 C 
ATOM     13  G   UNL     1      -8.784  16.087  13.499  1.00  0.00     0.000 G0
ENDBRANCH   9  10
ENDBRANCH   3   8
TORSDOF 0
ENDMDL
MODEL 8
REMARK VINA RESULT:    -2.973      6.246      7.217
REMARK INTER + INTRA:          -2.920
REMARK INTER:                  -3.675
REMARK INTRA:                   0.755
REMARK UNBOUND:                 0.748
REMARK SMILES CC1=CC=CC(C)(C)CC1=O
REMARK SMILES IDX 1 1 2 2 3 3 10 4 11 5 9 6 4 8 5 9 6 10 7 11 8 12
REMARK H PARENT
REMARK Flexibility Score: 80.00
ROOT
ATOM      1  C   UNL     1      -9.067  17.740   8.603  1.00  0.00     0.048 C 
ATOM      2  C   UNL     1      -9.286  17.550  10.086  1.00  0.00    -0.008 C 
ATOM      3  C   UNL     1     -10.041  18.465  10.729  1.00  0.00     0.007 C 
ENDROOT
BRANCH   2   4
ATOM      4  C   UNL     1      -8.713  16.327  10.701  1.00  0.00     0.159 C 
ATOM      5  O   UNL     1      -8.262  15.421   9.948  1.00  0.00    -0.295 OA
BRANCH   4   6
ATOM      6  C   UNL     1      -8.626  16.110  12.180  1.00  0.00     0.091 CG0
ATOM      7  G   UNL     1     -10.003  16.128  12.881  1.00  0.00     0.000 G0
ENDBRANCH   4   6
ENDBRANCH   2   4
BRANCH   3   8
ATOM      8  C   UNL     1     -10.448  18.532  12.152  1.00  0.00    -0.003 C 
ATOM      9  C   UNL     1     -10.452  17.561  13.076  1.00  0.00    -0.020 C 
BRANCH   9  10
ATOM     10  C   UNL     1     -10.001  16.134  12.879  1.00  0.00    -0.010 CG0
ATOM     11  C   UNL     1     -11.083  15.339  12.111  1.00  0.00     0.016 C 
ATOM     12  C   UNL     1      -9.830  15.483  14.271  1.00  0.00     0.016 C 
ATOM     13  G   UNL     1      -8.629  16.115  12.167  1.00  0.00     0.000 G0
ENDBRANCH   9  10
ENDBRANCH   3   8
TORSDOF 0
ENDMDL
MODEL 9
REMARK VINA RESULT:    -2.891      5.608      6.054
REMARK INTER + INTRA:          -2.819
REMARK INTER:                  -3.578
REMARK INTRA:                   0.759
REMARK UNBOUND:                 0.748
REMARK SMILES CC1=CC=CC(C)(C)CC1=O
REMARK SMILES IDX 1 1 2 2 3 3 10 4 11 5 9 6 4 8 5 9 6 10 7 11 8 12
REMARK H PARENT
REMARK Flexibility Score: 80.00
ROOT
ATOM      1  C   UNL     1     -11.889  17.647  12.851  1.00  0.00     0.048 C 
ATOM      2  C   UNL     1     -10.747  16.916  12.186  1.00  0.00    -0.008 C 
ATOM      3  C   UNL     1     -10.842  15.574  12.077  1.00  0.00     0.007 C 
ENDROOT
BRANCH   2   4
ATOM      4  C   UNL     1      -9.644  17.743  11.637  1.00  0.00     0.159 C 
ATOM      5  O   UNL     1      -9.800  18.994  11.563  1.00  0.00    -0.295 OA
BRANCH   4   6
ATOM      6  C   UNL     1      -8.337  17.177  11.174  1.00  0.00     0.091 CG0
ATOM      7  G   UNL     1      -8.490  16.156  10.024  1.00  0.00     0.000 G0
ENDBRANCH   4   6
ENDBRANCH   2   4
BRANCH   3   8
ATOM      8  C   UNL     1      -9.910  14.601  11.461  1.00  0.00    -0.003 C 
ATOM      9  C   UNL     1      -8.917  14.819  10.588  1.00  0.00    -0.020 C 
BRANCH   9  10
ATOM     10  C   UNL     1      -8.487  16.156  10.034  1.00  0.00    -0.010 CG0
ATOM     11  C   UNL     1      -9.483  16.623   8.947  1.00  0.00     0.016 C 
ATOM     12  C   UNL     1      -7.103  15.983   9.369  1.00  0.00     0.016 C 
ATOM     13  G   UNL     1      -8.343  17.175  11.187  1.00  0.00     0.000 G0
ENDBRANCH   9  10
ENDBRANCH   3   8
TORSDOF 0
ENDMDL
