MODEL 1
REMARK VINA RESULT:    -2.846      0.000      0.000
REMARK INTER + INTRA:          -3.379
REMARK INTER:                  -3.345
REMARK INTRA:                  -0.034
REMARK UNBOUND:                -0.034
REMARK SMILES CCCCC(=O)[O-]
REMARK SMILES IDX 4 1 5 2 6 3 7 4 3 5 2 6 1 7
REMARK H PARENT
REMARK Flexibility Score: inf
ROOT
ATOM      1  C   UNL     1      19.271  23.447  45.568  1.00  0.00     0.053 C 
ENDROOT
BRANCH   1   2
ATOM      2  C   UNL     1      17.857  23.787  45.213  1.00  0.00     0.041 C 
ATOM      3  O   UNL     1      17.520  23.917  44.007  1.00  0.00    -0.550 OA
ATOM      4  O   UNL     1      16.900  23.912  46.212  1.00  0.00    -0.550 OA
ENDBRANCH   1   2
BRANCH   1   5
ATOM      5  C   UNL     1      19.327  22.757  46.937  1.00  0.00     0.006 C 
BRANCH   5   6
ATOM      6  C   UNL     1      20.467  21.733  47.034  1.00  0.00    -0.003 C 
ATOM      7  C   UNL     1      21.576  21.985  46.014  1.00  0.00     0.004 C 
ENDBRANCH   5   6
ENDBRANCH   1   5
TORSDOF 3
ENDMDL
MODEL 2
REMARK VINA RESULT:    -1.998     21.249     22.129
REMARK INTER + INTRA:          -2.383
REMARK INTER:                  -2.308
REMARK INTRA:                  -0.075
REMARK UNBOUND:                -0.034
REMARK SMILES CCCCC(=O)[O-]
REMARK SMILES IDX 4 1 5 2 6 3 7 4 3 5 2 6 1 7
REMARK H PARENT
REMARK Flexibility Score: inf
ROOT
ATOM      1  C   UNL     1      31.107  22.919  28.622  1.00  0.00     0.053 C 
ENDROOT
BRANCH   1   2
ATOM      2  C   UNL     1      31.000  21.773  27.666  1.00  0.00     0.041 C 
ATOM      3  O   UNL     1      32.034  21.295  27.131  1.00  0.00    -0.550 OA
ATOM      4  O   UNL     1      29.762  21.200  27.403  1.00  0.00    -0.550 OA
ENDBRANCH   1   2
BRANCH   1   5
ATOM      5  C   UNL     1      32.258  23.849  28.216  1.00  0.00     0.006 C 
BRANCH   5   6
ATOM      6  C   UNL     1      33.391  23.872  29.252  1.00  0.00    -0.003 C 
ATOM      7  C   UNL     1      34.775  23.752  28.616  1.00  0.00     0.004 C 
ENDBRANCH   5   6
ENDBRANCH   1   5
TORSDOF 3
ENDMDL
MODEL 3
REMARK VINA RESULT:    -1.050      2.697      3.543
REMARK INTER + INTRA:          -1.269
REMARK INTER:                  -1.249
REMARK INTRA:                  -0.019
REMARK UNBOUND:                -0.034
REMARK SMILES CCCCC(=O)[O-]
REMARK SMILES IDX 4 1 5 2 6 3 7 4 3 5 2 6 1 7
REMARK H PARENT
REMARK Flexibility Score: inf
ROOT
ATOM      1  C   UNL     1      21.397  22.695  45.385  1.00  0.00     0.053 C 
ENDROOT
BRANCH   1   2
ATOM      2  C   UNL     1      20.267  22.230  46.249  1.00  0.00     0.041 C 
ATOM      3  O   UNL     1      20.369  21.159  46.903  1.00  0.00    -0.550 OA
ATOM      4  O   UNL     1      19.120  23.004  46.371  1.00  0.00    -0.550 OA
ENDBRANCH   1   2
BRANCH   1   5
ATOM      5  C   UNL     1      22.737  22.507  46.108  1.00  0.00     0.006 C 
BRANCH   5   6
ATOM      6  C   UNL     1      23.937  22.919  45.243  1.00  0.00    -0.003 C 
ATOM      7  C   UNL     1      25.201  23.165  46.065  1.00  0.00     0.004 C 
ENDBRANCH   5   6
ENDBRANCH   1   5
TORSDOF 3
ENDMDL
MODEL 4
REMARK VINA RESULT:    -1.014     21.303     22.420
REMARK INTER + INTRA:          -1.226
REMARK INTER:                  -1.221
REMARK INTRA:                  -0.005
REMARK UNBOUND:                -0.034
REMARK SMILES CCCCC(=O)[O-]
REMARK SMILES IDX 4 1 5 2 6 3 7 4 3 5 2 6 1 7
REMARK H PARENT
REMARK Flexibility Score: inf
ROOT
ATOM      1  C   UNL     1      31.573  22.124  27.020  1.00  0.00     0.053 C 
ENDROOT
BRANCH   1   2
ATOM      2  C   UNL     1      30.872  22.478  28.294  1.00  0.00     0.041 C 
ATOM      3  O   UNL     1      29.627  22.325  28.396  1.00  0.00    -0.550 OA
ATOM      4  O   UNL     1      31.602  22.931  29.387  1.00  0.00    -0.550 OA
ENDBRANCH   1   2
BRANCH   1   5
ATOM      5  C   UNL     1      33.092  22.262  27.189  1.00  0.00     0.006 C 
BRANCH   5   6
ATOM      6  C   UNL     1      33.593  23.679  26.875  1.00  0.00    -0.003 C 
ATOM      7  C   UNL     1      34.723  24.125  27.803  1.00  0.00     0.004 C 
ENDBRANCH   5   6
ENDBRANCH   1   5
TORSDOF 3
ENDMDL
