MODEL 1
REMARK VINA RESULT:    -3.180      0.000      0.000
REMARK INTER + INTRA:          -3.273
REMARK INTER:                  -3.273
REMARK INTRA:                   0.000
REMARK UNBOUND:                 0.000
REMARK SMILES CC1(C)[C@H]2CC[C@](C)(C2)[C@@H]1O
REMARK SMILES IDX 1 1 2 2 4 3 5 4 6 5 7 6 9 7 10 8 8 9 3 10 11 11
REMARK H PARENT 11 12
REMARK Flexibility Score: inf
ROOT
ATOM      1  C   UNL     1     163.995 174.463 171.307  1.00  0.00     0.014 C 
ATOM      2  C   UNL     1     162.795 173.679 170.714  1.00  0.00    -0.006 C 
ATOM      3  C   UNL     1     162.707 172.260 171.375  1.00  0.00    -0.002 C 
ATOM      4  C   UNL     1     161.377 171.556 171.026  1.00  0.00     0.005 C 
ATOM      5  C   UNL     1     161.529 171.263 169.524  1.00  0.00     0.010 C 
ATOM      6  C   UNL     1     162.967 171.752 169.224  1.00  0.00    -0.006 C 
ATOM      7  C   UNL     1     163.666 171.439 170.529  1.00  0.00     0.013 C 
ATOM      8  C   UNL     1     162.963 173.310 169.199  1.00  0.00     0.126 C 
ATOM      9  C   UNL     1     163.584 171.077 167.991  1.00  0.00     0.014 C 
ATOM     10  C   UNL     1     161.530 174.543 170.939  1.00  0.00     0.014 C 
ENDROOT
BRANCH   8  11
ATOM     11  O   UNL     1     164.120 173.865 168.611  1.00  0.00    -0.392 OA
ATOM     12  H   UNL     1     164.883 173.252 168.759  1.00  0.00     0.211 HD
ENDBRANCH   8  11
TORSDOF 1
ENDMDL
MODEL 2
REMARK VINA RESULT:    -3.174     13.961     15.477
REMARK INTER + INTRA:          -3.267
REMARK INTER:                  -3.267
REMARK INTRA:                   0.000
REMARK UNBOUND:                 0.000
REMARK SMILES CC1(C)[C@H]2CC[C@](C)(C2)[C@@H]1O
REMARK SMILES IDX 1 1 2 2 4 3 5 4 6 5 7 6 9 7 10 8 8 9 3 10 11 11
REMARK H PARENT 11 12
REMARK Flexibility Score: inf
ROOT
ATOM      1  C   UNL     1     167.223 156.752 171.334  1.00  0.00     0.014 C 
ATOM      2  C   UNL     1     168.419 157.534 170.730  1.00  0.00    -0.006 C 
ATOM      3  C   UNL     1     168.505 158.959 171.379  1.00  0.00    -0.002 C 
ATOM      4  C   UNL     1     169.832 159.663 171.019  1.00  0.00     0.005 C 
ATOM      5  C   UNL     1     169.673 159.943 169.515  1.00  0.00     0.010 C 
ATOM      6  C   UNL     1     168.236 159.448 169.224  1.00  0.00    -0.006 C 
ATOM      7  C   UNL     1     167.540 159.770 170.530  1.00  0.00     0.013 C 
ATOM      8  C   UNL     1     168.244 157.889 169.212  1.00  0.00     0.126 C 
ATOM      9  C   UNL     1     167.612 160.110 167.988  1.00  0.00     0.014 C 
ATOM     10  C   UNL     1     169.687 156.675 170.958  1.00  0.00     0.014 C 
ENDROOT
BRANCH   8  11
ATOM     11  O   UNL     1     167.086 157.327 168.634  1.00  0.00    -0.392 OA
ATOM     12  H   UNL     1     167.301 156.421 168.296  1.00  0.00     0.211 HD
ENDBRANCH   8  11
TORSDOF 1
ENDMDL
MODEL 3
REMARK VINA RESULT:    -3.045      1.268      3.230
REMARK INTER + INTRA:          -3.134
REMARK INTER:                  -3.134
REMARK INTRA:                   0.000
REMARK UNBOUND:                 0.000
REMARK SMILES CC1(C)[C@H]2CC[C@](C)(C2)[C@@H]1O
REMARK SMILES IDX 1 1 2 2 4 3 5 4 6 5 7 6 9 7 10 8 8 9 3 10 11 11
REMARK H PARENT 11 12
REMARK Flexibility Score: inf
ROOT
ATOM      1  C   UNL     1     163.460 173.860 167.921  1.00  0.00     0.014 C 
ATOM      2  C   UNL     1     162.929 173.106 169.168  1.00  0.00    -0.006 C 
ATOM      3  C   UNL     1     161.456 173.550 169.471  1.00  0.00    -0.002 C 
ATOM      4  C   UNL     1     160.795 172.632 170.522  1.00  0.00     0.005 C 
ATOM      5  C   UNL     1     161.563 172.975 171.809  1.00  0.00     0.010 C 
ATOM      6  C   UNL     1     162.505 174.116 171.351  1.00  0.00    -0.006 C 
ATOM      7  C   UNL     1     161.652 174.804 170.307  1.00  0.00     0.013 C 
ATOM      8  C   UNL     1     163.656 173.495 170.503  1.00  0.00     0.126 C 
ATOM      9  C   UNL     1     162.955 175.021 172.506  1.00  0.00     0.014 C 
ATOM     10  C   UNL     1     163.069 171.591 168.880  1.00  0.00     0.014 C 
ENDROOT
BRANCH   8  11
ATOM     11  O   UNL     1     164.747 174.369 170.313  1.00  0.00    -0.392 OA
ATOM     12  H   UNL     1     164.845 174.943 171.114  1.00  0.00     0.211 HD
ENDBRANCH   8  11
TORSDOF 1
ENDMDL
MODEL 4
REMARK VINA RESULT:    -3.035      1.419      1.994
REMARK INTER + INTRA:          -3.124
REMARK INTER:                  -3.124
REMARK INTRA:                   0.000
REMARK UNBOUND:                 0.000
REMARK SMILES CC1(C)[C@H]2CC[C@](C)(C2)[C@@H]1O
REMARK SMILES IDX 1 1 2 2 4 3 5 4 6 5 7 6 9 7 10 8 8 9 3 10 11 11
REMARK H PARENT 11 12
REMARK Flexibility Score: inf
ROOT
ATOM      1  C   UNL     1     164.137 172.239 172.062  1.00  0.00     0.014 C 
ATOM      2  C   UNL     1     163.023 173.090 171.396  1.00  0.00    -0.006 C 
ATOM      3  C   UNL     1     162.121 172.174 170.497  1.00  0.00    -0.002 C 
ATOM      4  C   UNL     1     160.845 172.915 170.040  1.00  0.00     0.005 C 
ATOM      5  C   UNL     1     161.392 173.973 169.069  1.00  0.00     0.010 C 
ATOM      6  C   UNL     1     162.904 173.644 169.020  1.00  0.00    -0.006 C 
ATOM      7  C   UNL     1     162.885 172.138 169.184  1.00  0.00     0.013 C 
ATOM      8  C   UNL     1     163.558 174.128 170.349  1.00  0.00     0.126 C 
ATOM      9  C   UNL     1     163.584 174.137 167.735  1.00  0.00     0.014 C 
ATOM     10  C   UNL     1     162.246 173.795 172.533  1.00  0.00     0.014 C 
ENDROOT
BRANCH   8  11
ATOM     11  O   UNL     1     164.966 174.192 170.291  1.00  0.00    -0.392 OA
ATOM     12  H   UNL     1     165.305 174.621 171.116  1.00  0.00     0.211 HD
ENDBRANCH   8  11
TORSDOF 1
ENDMDL
MODEL 5
REMARK VINA RESULT:    -3.004      8.925     10.290
REMARK INTER + INTRA:          -3.092
REMARK INTER:                  -3.092
REMARK INTRA:                   0.000
REMARK UNBOUND:                 0.000
REMARK SMILES CC1(C)[C@H]2CC[C@](C)(C2)[C@@H]1O
REMARK SMILES IDX 1 1 2 2 4 3 5 4 6 5 7 6 9 7 10 8 8 9 3 10 11 11
REMARK H PARENT 11 12
REMARK Flexibility Score: inf
ROOT
ATOM      1  C   UNL     1     160.043 165.030 172.052  1.00  0.00     0.014 C 
ATOM      2  C   UNL     1     159.403 163.673 171.658  1.00  0.00    -0.006 C 
ATOM      3  C   UNL     1     160.387 162.869 170.738  1.00  0.00    -0.002 C 
ATOM      4  C   UNL     1     159.917 161.410 170.551  1.00  0.00     0.005 C 
ATOM      5  C   UNL     1     158.647 161.565 169.698  1.00  0.00     0.010 C 
ATOM      6  C   UNL     1     158.602 163.088 169.426  1.00  0.00    -0.006 C 
ATOM      7  C   UNL     1     160.077 163.422 169.356  1.00  0.00     0.013 C 
ATOM      8  C   UNL     1     158.146 163.810 170.730  1.00  0.00     0.126 C 
ATOM      9  C   UNL     1     157.806 163.448 168.164  1.00  0.00     0.014 C 
ATOM     10  C   UNL     1     159.048 162.937 172.972  1.00  0.00     0.014 C 
ENDROOT
BRANCH   8  11
ATOM     11  O   UNL     1     157.745 165.146 170.521  1.00  0.00    -0.392 OA
ATOM     12  H   UNL     1     156.771 165.169 170.345  1.00  0.00     0.211 HD
ENDBRANCH   8  11
TORSDOF 1
ENDMDL
MODEL 6
REMARK VINA RESULT:    -3.002     14.824     16.097
REMARK INTER + INTRA:          -3.089
REMARK INTER:                  -3.089
REMARK INTRA:                   0.000
REMARK UNBOUND:                 0.000
REMARK SMILES CC1(C)[C@H]2CC[C@](C)(C2)[C@@H]1O
REMARK SMILES IDX 1 1 2 2 4 3 5 4 6 5 7 6 9 7 10 8 8 9 3 10 11 11
REMARK H PARENT 11 12
REMARK Flexibility Score: inf
ROOT
ATOM      1  C   UNL     1     167.344 158.942 172.120  1.00  0.00     0.014 C 
ATOM      2  C   UNL     1     168.361 158.021 171.397  1.00  0.00    -0.006 C 
ATOM      3  C   UNL     1     169.300 158.881 170.482  1.00  0.00    -0.002 C 
ATOM      4  C   UNL     1     170.496 158.052 169.964  1.00  0.00     0.005 C 
ATOM      5  C   UNL     1     169.831 157.061 168.994  1.00  0.00     0.010 C 
ATOM      6  C   UNL     1     168.349 157.509 169.009  1.00  0.00    -0.006 C 
ATOM      7  C   UNL     1     168.493 159.005 169.200  1.00  0.00     0.013 C 
ATOM      8  C   UNL     1     167.708 157.050 170.353  1.00  0.00     0.126 C 
ATOM      9  C   UNL     1     167.586 157.098 167.742  1.00  0.00     0.014 C 
ATOM     10  C   UNL     1     169.121 157.232 172.491  1.00  0.00     0.014 C 
ENDROOT
BRANCH   8  11
ATOM     11  O   UNL     1     166.298 157.099 170.347  1.00  0.00    -0.392 OA
ATOM     12  H   UNL     1     165.942 156.214 170.613  1.00  0.00     0.211 HD
ENDBRANCH   8  11
TORSDOF 1
ENDMDL
MODEL 7
REMARK VINA RESULT:    -2.999      1.513      3.073
REMARK INTER + INTRA:          -3.086
REMARK INTER:                  -3.086
REMARK INTRA:                   0.000
REMARK UNBOUND:                 0.000
REMARK SMILES CC1(C)[C@H]2CC[C@](C)(C2)[C@@H]1O
REMARK SMILES IDX 1 1 2 2 4 3 5 4 6 5 7 6 9 7 10 8 8 9 3 10 11 11
REMARK H PARENT 11 12
REMARK Flexibility Score: inf
ROOT
ATOM      1  C   UNL     1     162.829 171.245 169.467  1.00  0.00     0.014 C 
ATOM      2  C   UNL     1     162.614 172.609 170.172  1.00  0.00    -0.006 C 
ATOM      3  C   UNL     1     161.159 172.683 170.753  1.00  0.00    -0.002 C 
ATOM      4  C   UNL     1     160.990 173.894 171.696  1.00  0.00     0.005 C 
ATOM      5  C   UNL     1     161.072 175.091 170.735  1.00  0.00     0.010 C 
ATOM      6  C   UNL     1     161.184 174.411 169.349  1.00  0.00    -0.006 C 
ATOM      7  C   UNL     1     160.348 173.166 169.561  1.00  0.00     0.013 C 
ATOM      8  C   UNL     1     162.625 173.838 169.196  1.00  0.00     0.126 C 
ATOM      9  C   UNL     1     160.710 175.310 168.200  1.00  0.00     0.014 C 
ATOM     10  C   UNL     1     163.716 172.745 171.250  1.00  0.00     0.014 C 
ENDROOT
BRANCH   8  11
ATOM     11  O   UNL     1     162.955 173.495 167.867  1.00  0.00    -0.392 OA
ATOM     12  H   UNL     1     162.796 172.527 167.734  1.00  0.00     0.211 HD
ENDBRANCH   8  11
TORSDOF 1
ENDMDL
MODEL 8
REMARK VINA RESULT:    -2.994     15.036     16.419
REMARK INTER + INTRA:          -3.081
REMARK INTER:                  -3.081
REMARK INTRA:                   0.000
REMARK UNBOUND:                 0.000
REMARK SMILES CC1(C)[C@H]2CC[C@](C)(C2)[C@@H]1O
REMARK SMILES IDX 1 1 2 2 4 3 5 4 6 5 7 6 9 7 10 8 8 9 3 10 11 11
REMARK H PARENT 11 12
REMARK Flexibility Score: inf
ROOT
ATOM      1  C   UNL     1     168.411 159.976 169.469  1.00  0.00     0.014 C 
ATOM      2  C   UNL     1     168.606 158.610 170.178  1.00  0.00    -0.006 C 
ATOM      3  C   UNL     1     170.059 158.516 170.760  1.00  0.00    -0.002 C 
ATOM      4  C   UNL     1     170.210 157.305 171.707  1.00  0.00     0.005 C 
ATOM      5  C   UNL     1     170.110 156.107 170.749  1.00  0.00     0.010 C 
ATOM      6  C   UNL     1     170.009 156.785 169.362  1.00  0.00    -0.006 C 
ATOM      7  C   UNL     1     170.863 158.017 169.570  1.00  0.00     0.013 C 
ATOM      8  C   UNL     1     168.576 157.379 169.207  1.00  0.00     0.126 C 
ATOM      9  C   UNL     1     170.470 155.875 168.215  1.00  0.00     0.014 C 
ATOM     10  C   UNL     1     167.502 158.494 171.257  1.00  0.00     0.014 C 
ENDROOT
BRANCH   8  11
ATOM     11  O   UNL     1     168.252 157.722 167.877  1.00  0.00    -0.392 OA
ATOM     12  H   UNL     1     169.075 157.699 167.327  1.00  0.00     0.211 HD
ENDBRANCH   8  11
TORSDOF 1
ENDMDL
MODEL 9
REMARK VINA RESULT:    -2.988      9.515     10.777
REMARK INTER + INTRA:          -3.075
REMARK INTER:                  -3.075
REMARK INTRA:                   0.000
REMARK UNBOUND:                 0.000
REMARK SMILES CC1(C)[C@H]2CC[C@](C)(C2)[C@@H]1O
REMARK SMILES IDX 1 1 2 2 4 3 5 4 6 5 7 6 9 7 10 8 8 9 3 10 11 11
REMARK H PARENT 11 12
REMARK Flexibility Score: inf
ROOT
ATOM      1  C   UNL     1     171.237 166.205 172.092  1.00  0.00     0.014 C 
ATOM      2  C   UNL     1     171.865 167.578 171.735  1.00  0.00    -0.006 C 
ATOM      3  C   UNL     1     170.855 168.418 170.878  1.00  0.00    -0.002 C 
ATOM      4  C   UNL     1     171.319 169.884 170.737  1.00  0.00     0.005 C 
ATOM      5  C   UNL     1     172.564 169.765 169.842  1.00  0.00     0.010 C 
ATOM      6  C   UNL     1     172.601 168.255 169.506  1.00  0.00    -0.006 C 
ATOM      7  C   UNL     1     171.124 167.923 169.466  1.00  0.00     0.013 C 
ATOM      8  C   UNL     1     173.095 167.481 170.766  1.00  0.00     0.126 C 
ATOM      9  C   UNL     1     173.359 167.947 168.208  1.00  0.00     0.014 C 
ATOM     10  C   UNL     1     172.259 168.260 173.067  1.00  0.00     0.014 C 
ENDROOT
BRANCH   8  11
ATOM     11  O   UNL     1     173.489 166.154 170.491  1.00  0.00    -0.392 OA
ATOM     12  H   UNL     1     174.469 166.131 170.349  1.00  0.00     0.211 HD
ENDBRANCH   8  11
TORSDOF 1
ENDMDL
