MODEL 1
REMARK VINA RESULT:    59.974      0.000      0.000
REMARK INTER + INTRA:          79.226
REMARK INTER:                  79.257
REMARK INTRA:                  -0.031
REMARK UNBOUND:                -0.031
REMARK SMILES CC[C@H](C=C[C@H](C)[C@@H]1CC[C@H]2C3=CC[C@@H]4C[C@@H](O)CC[C@@]4(C)[C@H]3CC[C@]21C)C(C)C
REMARK SMILES IDX 6 1 7 2 5 3 4 4 3 5 2 6 1 7 28 8 29 9 30 10 8 11 9 12 26 13
REMARK SMILES IDX 10 14 11 15 25 16 27 17 12 18 24 19 23 20 13 21 21 22 14 23
REMARK SMILES IDX 15 24 20 25 22 26 16 27 19 28 17 29 18 30
REMARK H PARENT 18 31
REMARK Flexibility Score: inf
ROOT
ATOM      1  C   UNL     1     -32.998  25.574   7.599  1.00  0.00     0.012 C 
ATOM      2  C   UNL     1     -33.215  25.424   9.114  1.00  0.00     0.012 C 
ENDROOT
BRANCH   1   3
ATOM      3  C   UNL     1     -31.865  24.635   7.212  1.00  0.00    -0.028 C 
ATOM      4  C   UNL     1     -30.625  25.002   6.829  1.00  0.00    -0.027 C 
BRANCH   4   5
ATOM      5  C   UNL     1     -30.104  26.432   6.768  1.00  0.00     0.014 C 
BRANCH   5   6
ATOM      6  C   UNL     1     -29.701  26.932   8.181  1.00  0.00     0.004 C 
ATOM      7  C   UNL     1     -30.659  27.935   8.822  1.00  0.00     0.004 C 
ENDBRANCH   5   6
BRANCH   5   8
ATOM      8  C   UNL     1     -29.064  26.655   5.616  1.00  0.00    -0.011 C 
ATOM      9  C   UNL     1     -29.089  28.097   5.086  1.00  0.00     0.008 C 
ATOM     10  C   UNL     1     -27.616  26.219   5.916  1.00  0.00     0.008 C 
ENDBRANCH   5   8
ENDBRANCH   4   5
ENDBRANCH   1   3
BRANCH   1  11
ATOM     11  C   UNL     1     -34.294  25.227   6.791  1.00  0.00     0.002 C 
ATOM     12  C   UNL     1     -34.423  26.028   5.497  1.00  0.00     0.005 C 
ATOM     13  C   UNL     1     -35.692  25.395   7.497  1.00  0.00    -0.023 C 
ATOM     14  C   UNL     1     -35.849  25.792   5.060  1.00  0.00     0.009 C 
ATOM     15  C   UNL     1     -36.664  25.865   6.353  1.00  0.00     0.021 C 
ATOM     16  C   UNL     1     -36.157  24.023   8.083  1.00  0.00     0.008 C 
ATOM     17  C   UNL     1     -35.667  26.475   8.612  1.00  0.00     0.012 C 
ATOM     18  C   UNL     1     -37.989  25.101   6.353  1.00  0.00    -0.067 C 
ATOM     19  C   UNL     1     -37.617  24.011   8.587  1.00  0.00     0.009 C 
ATOM     20  C   UNL     1     -38.596  24.872   7.735  1.00  0.00     0.021 C 
ATOM     21  C   UNL     1     -38.545  24.594   5.223  1.00  0.00    -0.027 C 
ATOM     22  C   UNL     1     -40.082  24.354   7.684  1.00  0.00    -0.023 C 
ATOM     23  C   UNL     1     -39.786  23.737   5.213  1.00  0.00     0.031 C 
ATOM     24  C   UNL     1     -40.142  23.215   6.615  1.00  0.00     0.002 C 
ATOM     25  C   UNL     1     -40.593  23.847   9.086  1.00  0.00     0.010 C 
ATOM     26  C   UNL     1     -40.994  25.551   7.274  1.00  0.00     0.012 C 
ATOM     27  C   UNL     1     -41.492  22.466   6.613  1.00  0.00     0.036 C 
ATOM     28  C   UNL     1     -40.917  22.348   9.124  1.00  0.00     0.032 C 
ATOM     29  C   UNL     1     -41.925  21.976   8.020  1.00  0.00     0.114 C 
BRANCH  29  30
ATOM     30  O   UNL     1     -42.103  20.583   7.997  1.00  0.00    -0.393 OA
ATOM     31  H   UNL     1     -42.061  20.302   7.045  1.00  0.00     0.210 HD
ENDBRANCH  29  30
ENDBRANCH   1  11
TORSDOF 6
ENDMDL
