MODEL 1
REMARK VINA RESULT:    -2.413      0.000      0.000
REMARK INTER + INTRA:          -2.413
REMARK INTER:                  -2.413
REMARK INTRA:                   0.000
REMARK UNBOUND:                 0.000
REMARK SMILES CC(=O)[O-]
REMARK SMILES IDX 1 1 2 2 3 3 4 4
REMARK H PARENT
REMARK Flexibility Score: inf
ROOT
ATOM      1  C   UNL     1      25.599  -0.239  62.065  1.00  0.00     0.063 C 
ATOM      2  C   UNL     1      25.768  -1.616  61.519  1.00  0.00     0.038 C 
ATOM      3  O   UNL     1      26.294  -1.789  60.389  1.00  0.00    -0.550 OA
ATOM      4  O   UNL     1      25.393  -2.717  62.280  1.00  0.00    -0.550 OA
ENDROOT
TORSDOF 0
ENDMDL
MODEL 2
REMARK VINA RESULT:    -2.397      0.105      1.621
REMARK INTER + INTRA:          -2.397
REMARK INTER:                  -2.397
REMARK INTRA:                   0.000
REMARK UNBOUND:                 0.000
REMARK SMILES CC(=O)[O-]
REMARK SMILES IDX 1 1 2 2 3 3 4 4
REMARK H PARENT
REMARK Flexibility Score: inf
ROOT
ATOM      1  C   UNL     1      25.604  -0.295  62.042  1.00  0.00     0.063 C 
ATOM      2  C   UNL     1      25.804  -1.683  61.537  1.00  0.00     0.038 C 
ATOM      3  O   UNL     1      25.450  -2.668  62.237  1.00  0.00    -0.550 OA
ATOM      4  O   UNL     1      26.333  -1.893  60.270  1.00  0.00    -0.550 OA
ENDROOT
TORSDOF 0
ENDMDL
MODEL 3
REMARK VINA RESULT:    -2.395      2.662      2.877
REMARK INTER + INTRA:          -2.395
REMARK INTER:                  -2.395
REMARK INTRA:                   0.000
REMARK UNBOUND:                 0.000
REMARK SMILES CC(=O)[O-]
REMARK SMILES IDX 1 1 2 2 3 3 4 4
REMARK H PARENT
REMARK Flexibility Score: inf
ROOT
ATOM      1  C   UNL     1      26.273  -2.259  59.720  1.00  0.00     0.063 C 
ATOM      2  C   UNL     1      25.116  -3.125  59.351  1.00  0.00     0.038 C 
ATOM      3  O   UNL     1      24.611  -3.049  58.201  1.00  0.00    -0.550 OA
ATOM      4  O   UNL     1      24.627  -4.057  60.259  1.00  0.00    -0.550 OA
ENDROOT
TORSDOF 0
ENDMDL
MODEL 4
REMARK VINA RESULT:    -2.389      3.361      3.689
REMARK INTER + INTRA:          -2.389
REMARK INTER:                  -2.389
REMARK INTRA:                   0.000
REMARK UNBOUND:                 0.000
REMARK SMILES CC(=O)[O-]
REMARK SMILES IDX 1 1 2 2 3 3 4 4
REMARK H PARENT
REMARK Flexibility Score: inf
ROOT
ATOM      1  C   UNL     1      26.186   2.047  64.181  1.00  0.00     0.063 C 
ATOM      2  C   UNL     1      25.779   1.670  62.797  1.00  0.00     0.038 C 
ATOM      3  O   UNL     1      25.373   2.551  61.995  1.00  0.00    -0.550 OA
ATOM      4  O   UNL     1      25.897   0.352  62.371  1.00  0.00    -0.550 OA
ENDROOT
TORSDOF 0
ENDMDL
MODEL 5
REMARK VINA RESULT:    -2.386      6.080      6.280
REMARK INTER + INTRA:          -2.386
REMARK INTER:                  -2.386
REMARK INTRA:                   0.000
REMARK UNBOUND:                 0.000
REMARK SMILES CC(=O)[O-]
REMARK SMILES IDX 1 1 2 2 3 3 4 4
REMARK H PARENT
REMARK Flexibility Score: inf
ROOT
ATOM      1  C   UNL     1      25.866   2.640  64.663  1.00  0.00     0.063 C 
ATOM      2  C   UNL     1      24.582   3.309  65.018  1.00  0.00     0.038 C 
ATOM      3  O   UNL     1      24.082   4.169  64.246  1.00  0.00    -0.550 OA
ATOM      4  O   UNL     1      23.905   2.947  66.177  1.00  0.00    -0.550 OA
ENDROOT
TORSDOF 0
ENDMDL
MODEL 6
REMARK VINA RESULT:    -2.383      4.813      5.183
REMARK INTER + INTRA:          -2.383
REMARK INTER:                  -2.383
REMARK INTRA:                   0.000
REMARK UNBOUND:                 0.000
REMARK SMILES CC(=O)[O-]
REMARK SMILES IDX 1 1 2 2 3 3 4 4
REMARK H PARENT
REMARK Flexibility Score: inf
ROOT
ATOM      1  C   UNL     1      25.789   1.796  63.200  1.00  0.00     0.063 C 
ATOM      2  C   UNL     1      26.217   2.212  64.566  1.00  0.00     0.038 C 
ATOM      3  O   UNL     1      27.371   1.928  64.982  1.00  0.00    -0.550 OA
ATOM      4  O   UNL     1      25.362   2.961  65.366  1.00  0.00    -0.550 OA
ENDROOT
TORSDOF 0
ENDMDL
MODEL 7
REMARK VINA RESULT:    -2.381      1.298      1.703
REMARK INTER + INTRA:          -2.381
REMARK INTER:                  -2.381
REMARK INTRA:                   0.000
REMARK UNBOUND:                 0.000
REMARK SMILES CC(=O)[O-]
REMARK SMILES IDX 1 1 2 2 3 3 4 4
REMARK H PARENT
REMARK Flexibility Score: inf
ROOT
ATOM      1  C   UNL     1      26.228  -1.978  60.162  1.00  0.00     0.063 C 
ATOM      2  C   UNL     1      25.776  -1.557  61.519  1.00  0.00     0.038 C 
ATOM      3  O   UNL     1      25.889  -0.356  61.879  1.00  0.00    -0.550 OA
ATOM      4  O   UNL     1      25.179  -2.478  62.371  1.00  0.00    -0.550 OA
ENDROOT
TORSDOF 0
ENDMDL
MODEL 8
REMARK VINA RESULT:    -2.379      4.425      4.862
REMARK INTER + INTRA:          -2.379
REMARK INTER:                  -2.379
REMARK INTRA:                   0.000
REMARK UNBOUND:                 0.000
REMARK SMILES CC(=O)[O-]
REMARK SMILES IDX 1 1 2 2 3 3 4 4
REMARK H PARENT
REMARK Flexibility Score: inf
ROOT
ATOM      1  C   UNL     1      25.495   1.323  62.405  1.00  0.00     0.063 C 
ATOM      2  C   UNL     1      25.081   2.744  62.222  1.00  0.00     0.038 C 
ATOM      3  O   UNL     1      24.046   3.020  61.561  1.00  0.00    -0.550 OA
ATOM      4  O   UNL     1      25.806   3.763  62.827  1.00  0.00    -0.550 OA
ENDROOT
TORSDOF 0
ENDMDL
MODEL 9
REMARK VINA RESULT:    -2.374      4.505      4.901
REMARK INTER + INTRA:          -2.374
REMARK INTER:                  -2.374
REMARK INTRA:                   0.000
REMARK UNBOUND:                 0.000
REMARK SMILES CC(=O)[O-]
REMARK SMILES IDX 1 1 2 2 3 3 4 4
REMARK H PARENT
REMARK Flexibility Score: inf
ROOT
ATOM      1  C   UNL     1      23.697   3.494  61.524  1.00  0.00     0.063 C 
ATOM      2  C   UNL     1      24.966   2.994  62.125  1.00  0.00     0.038 C 
ATOM      3  O   UNL     1      25.730   3.784  62.739  1.00  0.00    -0.550 OA
ATOM      4  O   UNL     1      25.284   1.643  62.056  1.00  0.00    -0.550 OA
ENDROOT
TORSDOF 0
ENDMDL
