MODEL 1
REMARK VINA RESULT:    -4.345      0.000      0.000
REMARK INTER + INTRA:          -6.800
REMARK INTER:                  -6.124
REMARK INTRA:                  -0.676
REMARK UNBOUND:                -0.676
REMARK SMILES CCCCCCCCC(=O)[O-]
REMARK SMILES IDX 6 1 7 2 8 3 9 4 10 5 11 6 5 7 4 8 3 9 2 10 1 11
REMARK H PARENT
REMARK Flexibility Score: inf
ROOT
ATOM      1  C   UNL     1     -11.288  -3.005  17.106  1.00  0.00     0.000 C 
ENDROOT
BRANCH   1   2
ATOM      2  C   UNL     1     -12.563  -3.543  16.434  1.00  0.00     0.006 C 
BRANCH   2   3
ATOM      3  C   UNL     1     -12.531  -3.371  14.910  1.00  0.00     0.053 C 
BRANCH   3   4
ATOM      4  C   UNL     1     -13.762  -2.684  14.404  1.00  0.00     0.041 C 
ATOM      5  O   UNL     1     -14.902  -3.157  14.655  1.00  0.00    -0.550 OA
ATOM      6  O   UNL     1     -13.648  -1.539  13.625  1.00  0.00    -0.550 OA
ENDBRANCH   3   4
ENDBRANCH   2   3
ENDBRANCH   1   2
BRANCH   1   7
ATOM      7  C   UNL     1     -10.063  -3.061  16.178  1.00  0.00     0.000 C 
BRANCH   7   8
ATOM      8  C   UNL     1      -8.977  -4.022  16.694  1.00  0.00    -0.000 C 
BRANCH   8   9
ATOM      9  C   UNL     1      -8.786  -5.242  15.778  1.00  0.00    -0.000 C 
BRANCH   9  10
ATOM     10  C   UNL     1      -9.988  -6.195  15.809  1.00  0.00    -0.003 C 
ATOM     11  C   UNL     1     -10.416  -6.585  14.396  1.00  0.00     0.004 C 
ENDBRANCH   9  10
ENDBRANCH   8   9
ENDBRANCH   7   8
ENDBRANCH   1   7
TORSDOF 7
ENDMDL
MODEL 2
REMARK VINA RESULT:    -4.274      1.654      3.181
REMARK INTER + INTRA:          -6.699
REMARK INTER:                  -5.946
REMARK INTRA:                  -0.753
REMARK UNBOUND:                -0.676
REMARK SMILES CCCCCCCCC(=O)[O-]
REMARK SMILES IDX 6 1 7 2 8 3 9 4 10 5 11 6 5 7 4 8 3 9 2 10 1 11
REMARK H PARENT
REMARK Flexibility Score: inf
ROOT
ATOM      1  C   UNL     1      -9.060  -5.540  15.885  1.00  0.00     0.000 C 
ENDROOT
BRANCH   1   2
ATOM      2  C   UNL     1     -10.348  -5.705  15.062  1.00  0.00     0.006 C 
BRANCH   2   3
ATOM      3  C   UNL     1     -11.572  -5.121  15.779  1.00  0.00     0.053 C 
BRANCH   3   4
ATOM      4  C   UNL     1     -12.055  -3.867  15.118  1.00  0.00     0.041 C 
ATOM      5  O   UNL     1     -13.157  -3.358  15.452  1.00  0.00    -0.550 OA
ATOM      6  O   UNL     1     -11.303  -3.280  14.108  1.00  0.00    -0.550 OA
ENDBRANCH   3   4
ENDBRANCH   2   3
ENDBRANCH   1   2
BRANCH   1   7
ATOM      7  C   UNL     1      -8.144  -4.434  15.335  1.00  0.00     0.000 C 
BRANCH   7   8
ATOM      8  C   UNL     1      -8.361  -3.084  16.041  1.00  0.00    -0.000 C 
BRANCH   8   9
ATOM      9  C   UNL     1      -7.828  -3.080  17.483  1.00  0.00    -0.000 C 
BRANCH   9  10
ATOM     10  C   UNL     1      -8.947  -2.928  18.523  1.00  0.00    -0.003 C 
ATOM     11  C   UNL     1     -10.239  -2.439  17.873  1.00  0.00     0.004 C 
ENDBRANCH   9  10
ENDBRANCH   8   9
ENDBRANCH   7   8
ENDBRANCH   1   7
TORSDOF 7
ENDMDL
MODEL 3
REMARK VINA RESULT:    -4.271      2.101      3.929
REMARK INTER + INTRA:          -6.694
REMARK INTER:                  -6.003
REMARK INTRA:                  -0.692
REMARK UNBOUND:                -0.676
REMARK SMILES CCCCCCCCC(=O)[O-]
REMARK SMILES IDX 6 1 7 2 8 3 9 4 10 5 11 6 5 7 4 8 3 9 2 10 1 11
REMARK H PARENT
REMARK Flexibility Score: inf
ROOT
ATOM      1  C   UNL     1      -9.167  -5.865  15.880  1.00  0.00     0.000 C 
ENDROOT
BRANCH   1   2
ATOM      2  C   UNL     1     -10.560  -6.486  15.679  1.00  0.00     0.006 C 
BRANCH   2   3
ATOM      3  C   UNL     1     -10.678  -7.222  14.338  1.00  0.00     0.053 C 
BRANCH   3   4
ATOM      4  C   UNL     1     -11.418  -6.407  13.323  1.00  0.00     0.041 C 
ATOM      5  O   UNL     1     -10.866  -5.411  12.784  1.00  0.00    -0.550 OA
ATOM      6  O   UNL     1     -12.730  -6.726  12.998  1.00  0.00    -0.550 OA
ENDBRANCH   3   4
ENDBRANCH   2   3
ENDBRANCH   1   2
BRANCH   1   7
ATOM      7  C   UNL     1      -9.231  -4.443  16.460  1.00  0.00     0.000 C 
BRANCH   7   8
ATOM      8  C   UNL     1     -10.350  -3.598  15.825  1.00  0.00    -0.000 C 
BRANCH   8   9
ATOM      9  C   UNL     1     -11.434  -3.197  16.839  1.00  0.00    -0.000 C 
BRANCH   9  10
ATOM     10  C   UNL     1     -12.839  -3.632  16.399  1.00  0.00    -0.003 C 
ATOM     11  C   UNL     1     -13.048  -3.388  14.907  1.00  0.00     0.004 C 
ENDBRANCH   9  10
ENDBRANCH   8   9
ENDBRANCH   7   8
ENDBRANCH   1   7
TORSDOF 7
ENDMDL
MODEL 4
REMARK VINA RESULT:    -4.263      3.110      4.352
REMARK INTER + INTRA:          -6.683
REMARK INTER:                  -6.184
REMARK INTRA:                  -0.500
REMARK UNBOUND:                -0.676
REMARK SMILES CCCCCCCCC(=O)[O-]
REMARK SMILES IDX 6 1 7 2 8 3 9 4 10 5 11 6 5 7 4 8 3 9 2 10 1 11
REMARK H PARENT
REMARK Flexibility Score: inf
ROOT
ATOM      1  C   UNL     1     -11.719  -4.888  15.895  1.00  0.00     0.000 C 
ENDROOT
BRANCH   1   2
ATOM      2  C   UNL     1     -11.727  -4.907  14.357  1.00  0.00     0.006 C 
BRANCH   2   3
ATOM      3  C   UNL     1     -10.312  -4.997  13.772  1.00  0.00     0.053 C 
BRANCH   3   4
ATOM      4  C   UNL     1     -10.077  -6.308  13.087  1.00  0.00     0.041 C 
ATOM      5  O   UNL     1      -9.458  -6.350  11.991  1.00  0.00    -0.550 OA
ATOM      6  O   UNL     1     -10.574  -7.481  13.642  1.00  0.00    -0.550 OA
ENDBRANCH   3   4
ENDBRANCH   2   3
ENDBRANCH   1   2
BRANCH   1   7
ATOM      7  C   UNL     1     -12.180  -3.539  16.472  1.00  0.00     0.000 C 
BRANCH   7   8
ATOM      8  C   UNL     1     -11.093  -2.861  17.325  1.00  0.00    -0.000 C 
BRANCH   8   9
ATOM      9  C   UNL     1      -9.767  -2.693  16.566  1.00  0.00    -0.000 C 
BRANCH   9  10
ATOM     10  C   UNL     1      -8.576  -3.301  17.321  1.00  0.00    -0.003 C 
ATOM     11  C   UNL     1      -8.653  -2.985  18.813  1.00  0.00     0.004 C 
ENDBRANCH   9  10
ENDBRANCH   8   9
ENDBRANCH   7   8
ENDBRANCH   1   7
TORSDOF 7
ENDMDL
MODEL 5
REMARK VINA RESULT:    -4.252      4.085      5.592
REMARK INTER + INTRA:          -6.668
REMARK INTER:                  -6.179
REMARK INTRA:                  -0.489
REMARK UNBOUND:                -0.676
REMARK SMILES CCCCCCCCC(=O)[O-]
REMARK SMILES IDX 6 1 7 2 8 3 9 4 10 5 11 6 5 7 4 8 3 9 2 10 1 11
REMARK H PARENT
REMARK Flexibility Score: inf
ROOT
ATOM      1  C   UNL     1      -7.954  -5.362  12.162  1.00  0.00     0.000 C 
ENDROOT
BRANCH   1   2
ATOM      2  C   UNL     1      -8.380  -4.333  13.223  1.00  0.00     0.006 C 
BRANCH   2   3
ATOM      3  C   UNL     1      -7.745  -2.957  12.984  1.00  0.00     0.053 C 
BRANCH   3   4
ATOM      4  C   UNL     1      -8.739  -1.851  13.159  1.00  0.00     0.041 C 
ATOM      5  O   UNL     1      -9.971  -2.107  13.206  1.00  0.00    -0.550 OA
ATOM      6  O   UNL     1      -8.306  -0.533  13.236  1.00  0.00    -0.550 OA
ENDBRANCH   3   4
ENDBRANCH   2   3
ENDBRANCH   1   2
BRANCH   1   7
ATOM      7  C   UNL     1      -9.147  -5.924  11.372  1.00  0.00     0.000 C 
BRANCH   7   8
ATOM      8  C   UNL     1     -10.500  -5.555  12.005  1.00  0.00    -0.000 C 
BRANCH   8   9
ATOM      9  C   UNL     1     -11.431  -4.824  11.024  1.00  0.00    -0.000 C 
BRANCH   9  10
ATOM     10  C   UNL     1     -11.241  -5.291   9.573  1.00  0.00    -0.003 C 
ATOM     11  C   UNL     1     -12.490  -6.001   9.057  1.00  0.00     0.004 C 
ENDBRANCH   9  10
ENDBRANCH   8   9
ENDBRANCH   7   8
ENDBRANCH   1   7
TORSDOF 7
ENDMDL
MODEL 6
REMARK VINA RESULT:    -4.195      3.667      4.765
REMARK INTER + INTRA:          -6.588
REMARK INTER:                  -6.071
REMARK INTRA:                  -0.517
REMARK UNBOUND:                -0.676
REMARK SMILES CCCCCCCCC(=O)[O-]
REMARK SMILES IDX 6 1 7 2 8 3 9 4 10 5 11 6 5 7 4 8 3 9 2 10 1 11
REMARK H PARENT
REMARK Flexibility Score: inf
ROOT
ATOM      1  C   UNL     1     -12.238  -6.420  13.151  1.00  0.00     0.000 C 
ENDROOT
BRANCH   1   2
ATOM      2  C   UNL     1     -11.752  -5.346  12.164  1.00  0.00     0.006 C 
BRANCH   2   3
ATOM      3  C   UNL     1     -12.766  -5.088  11.042  1.00  0.00     0.053 C 
BRANCH   3   4
ATOM      4  C   UNL     1     -12.244  -5.532   9.711  1.00  0.00     0.041 C 
ATOM      5  O   UNL     1     -13.024  -6.038   8.860  1.00  0.00    -0.550 OA
ATOM      6  O   UNL     1     -10.890  -5.419   9.422  1.00  0.00    -0.550 OA
ENDBRANCH   3   4
ENDBRANCH   2   3
ENDBRANCH   1   2
BRANCH   1   7
ATOM      7  C   UNL     1     -11.182  -6.771  14.211  1.00  0.00     0.000 C 
BRANCH   7   8
ATOM      8  C   UNL     1     -11.485  -6.134  15.579  1.00  0.00    -0.000 C 
BRANCH   8   9
ATOM      9  C   UNL     1     -10.893  -4.722  15.717  1.00  0.00    -0.000 C 
BRANCH   9  10
ATOM     10  C   UNL     1     -11.903  -3.714  16.284  1.00  0.00    -0.003 C 
ATOM     11  C   UNL     1     -12.962  -3.354  15.245  1.00  0.00     0.004 C 
ENDBRANCH   9  10
ENDBRANCH   8   9
ENDBRANCH   7   8
ENDBRANCH   1   7
TORSDOF 7
ENDMDL
MODEL 7
REMARK VINA RESULT:    -4.170      3.065      4.410
REMARK INTER + INTRA:          -6.552
REMARK INTER:                  -5.895
REMARK INTRA:                  -0.657
REMARK UNBOUND:                -0.676
REMARK SMILES CCCCCCCCC(=O)[O-]
REMARK SMILES IDX 6 1 7 2 8 3 9 4 10 5 11 6 5 7 4 8 3 9 2 10 1 11
REMARK H PARENT
REMARK Flexibility Score: inf
ROOT
ATOM      1  C   UNL     1      -9.650  -6.103  15.829  1.00  0.00     0.000 C 
ENDROOT
BRANCH   1   2
ATOM      2  C   UNL     1      -8.738  -4.865  15.871  1.00  0.00     0.006 C 
BRANCH   2   3
ATOM      3  C   UNL     1      -9.537  -3.561  15.984  1.00  0.00     0.053 C 
BRANCH   3   4
ATOM      4  C   UNL     1      -9.393  -2.939  17.339  1.00  0.00     0.041 C 
ATOM      5  O   UNL     1     -10.308  -2.207  17.802  1.00  0.00    -0.550 OA
ATOM      6  O   UNL     1      -8.233  -3.139  18.076  1.00  0.00    -0.550 OA
ENDBRANCH   3   4
ENDBRANCH   2   3
ENDBRANCH   1   2
BRANCH   1   7
ATOM      7  C   UNL     1     -11.114  -5.749  15.525  1.00  0.00     0.000 C 
BRANCH   7   8
ATOM      8  C   UNL     1     -11.562  -6.234  14.135  1.00  0.00    -0.000 C 
BRANCH   8   9
ATOM      9  C   UNL     1     -10.401  -6.814  13.310  1.00  0.00    -0.000 C 
BRANCH   9  10
ATOM     10  C   UNL     1     -10.054  -5.947  12.091  1.00  0.00    -0.003 C 
ATOM     11  C   UNL     1      -8.561  -5.631  12.050  1.00  0.00     0.004 C 
ENDBRANCH   9  10
ENDBRANCH   8   9
ENDBRANCH   7   8
ENDBRANCH   1   7
TORSDOF 7
ENDMDL
MODEL 8
REMARK VINA RESULT:    -4.163      3.708      4.989
REMARK INTER + INTRA:          -6.543
REMARK INTER:                  -5.876
REMARK INTRA:                  -0.667
REMARK UNBOUND:                -0.676
REMARK SMILES CCCCCCCCC(=O)[O-]
REMARK SMILES IDX 6 1 7 2 8 3 9 4 10 5 11 6 5 7 4 8 3 9 2 10 1 11
REMARK H PARENT
REMARK Flexibility Score: inf
ROOT
ATOM      1  C   UNL     1      -9.581  -6.027  15.778  1.00  0.00     0.000 C 
ENDROOT
BRANCH   1   2
ATOM      2  C   UNL     1      -9.834  -4.514  15.889  1.00  0.00     0.006 C 
BRANCH   2   3
ATOM      3  C   UNL     1      -8.613  -3.690  15.458  1.00  0.00     0.053 C 
BRANCH   3   4
ATOM      4  C   UNL     1      -7.866  -3.149  16.638  1.00  0.00     0.041 C 
ATOM      5  O   UNL     1      -6.694  -2.708  16.499  1.00  0.00    -0.550 OA
ATOM      6  O   UNL     1      -8.451  -3.162  17.897  1.00  0.00    -0.550 OA
ENDBRANCH   3   4
ENDBRANCH   2   3
ENDBRANCH   1   2
BRANCH   1   7
ATOM      7  C   UNL     1     -10.780  -6.784  15.184  1.00  0.00     0.000 C 
BRANCH   7   8
ATOM      8  C   UNL     1     -10.565  -7.161  13.707  1.00  0.00    -0.000 C 
BRANCH   8   9
ATOM      9  C   UNL     1     -11.147  -6.117  12.741  1.00  0.00    -0.000 C 
BRANCH   9  10
ATOM     10  C   UNL     1     -10.061  -5.251  12.086  1.00  0.00    -0.003 C 
ATOM     11  C   UNL     1      -8.816  -6.078  11.771  1.00  0.00     0.004 C 
ENDBRANCH   9  10
ENDBRANCH   8   9
ENDBRANCH   7   8
ENDBRANCH   1   7
TORSDOF 7
ENDMDL
MODEL 9
REMARK VINA RESULT:    -4.155      2.640      4.116
REMARK INTER + INTRA:          -6.531
REMARK INTER:                  -5.972
REMARK INTRA:                  -0.559
REMARK UNBOUND:                -0.676
REMARK SMILES CCCCCCCCC(=O)[O-]
REMARK SMILES IDX 6 1 7 2 8 3 9 4 10 5 11 6 5 7 4 8 3 9 2 10 1 11
REMARK H PARENT
REMARK Flexibility Score: inf
ROOT
ATOM      1  C   UNL     1     -11.217  -6.672  14.147  1.00  0.00     0.000 C 
ENDROOT
BRANCH   1   2
ATOM      2  C   UNL     1     -11.487  -6.111  15.554  1.00  0.00     0.006 C 
BRANCH   2   3
ATOM      3  C   UNL     1     -10.828  -4.742  15.767  1.00  0.00     0.053 C 
BRANCH   3   4
ATOM      4  C   UNL     1     -11.838  -3.689  16.106  1.00  0.00     0.041 C 
ATOM      5  O   UNL     1     -12.777  -3.429  15.308  1.00  0.00    -0.550 OA
ATOM      6  O   UNL     1     -11.722  -2.971  17.290  1.00  0.00    -0.550 OA
ENDBRANCH   3   4
ENDBRANCH   2   3
ENDBRANCH   1   2
BRANCH   1   7
ATOM      7  C   UNL     1     -12.470  -6.661  13.257  1.00  0.00     0.000 C 
BRANCH   7   8
ATOM      8  C   UNL     1     -12.261  -5.868  11.955  1.00  0.00    -0.000 C 
BRANCH   8   9
ATOM      9  C   UNL     1     -10.946  -5.072  11.953  1.00  0.00    -0.000 C 
BRANCH   9  10
ATOM     10  C   UNL     1      -9.927  -5.621  10.944  1.00  0.00    -0.003 C 
ATOM     11  C   UNL     1      -8.636  -6.042  11.642  1.00  0.00     0.004 C 
ENDBRANCH   9  10
ENDBRANCH   8   9
ENDBRANCH   7   8
ENDBRANCH   1   7
TORSDOF 7
ENDMDL
