MODEL 1
REMARK VINA RESULT:    -3.388      0.000      0.000
REMARK INTER + INTRA:          -8.830
REMARK INTER:                  -6.161
REMARK INTRA:                  -2.669
REMARK UNBOUND:                -2.669
REMARK SMILES CCCCCC=CCC=CCCCCCCCC(=O)[O-]
REMARK SMILES IDX 11 1 12 2 13 3 14 4 15 5 16 6 17 7 18 8 19 9 20 10 10 11
REMARK SMILES IDX 9 12 8 13 7 14 6 15 5 16 4 17 3 18 2 19 1 20
REMARK H PARENT
REMARK Flexibility Score: inf
ROOT
ATOM      1  C   UNL     1      55.417  29.658  54.204  1.00  0.00     0.027 C 
ENDROOT
BRANCH   1   2
ATOM      2  C   UNL     1      56.894  29.234  54.208  1.00  0.00     0.004 C 
BRANCH   2   3
ATOM      3  C   UNL     1      57.833  30.403  53.878  1.00  0.00     0.000 C 
BRANCH   3   4
ATOM      4  C   UNL     1      58.600  30.135  52.574  1.00  0.00     0.000 C 
BRANCH   4   5
ATOM      5  C   UNL     1      58.406  28.702  52.049  1.00  0.00     0.000 C 
BRANCH   5   6
ATOM      6  C   UNL     1      57.816  28.599  50.630  1.00  0.00     0.006 C 
BRANCH   6   7
ATOM      7  C   UNL     1      58.876  28.523  49.515  1.00  0.00     0.053 C 
BRANCH   7   8
ATOM      8  C   UNL     1      59.718  27.285  49.605  1.00  0.00     0.041 C 
ATOM      9  O   UNL     1      60.974  27.370  49.612  1.00  0.00    -0.550 OA
ATOM     10  O   UNL     1      59.116  26.033  49.637  1.00  0.00    -0.550 OA
ENDBRANCH   7   8
ENDBRANCH   6   7
ENDBRANCH   5   6
ENDBRANCH   4   5
ENDBRANCH   3   4
ENDBRANCH   2   3
ENDBRANCH   1   2
BRANCH   1  11
ATOM     11  C   UNL     1      54.653  29.072  53.047  1.00  0.00    -0.031 C 
ATOM     12  C   UNL     1      54.282  29.820  51.997  1.00  0.00    -0.027 C 
BRANCH  12  13
ATOM     13  C   UNL     1      53.571  29.222  50.816  1.00  0.00     0.054 C 
BRANCH  13  14
ATOM     14  C   UNL     1      54.276  27.974  50.369  1.00  0.00    -0.027 C 
ATOM     15  C   UNL     1      53.596  26.864  50.044  1.00  0.00    -0.031 C 
BRANCH  15  16
ATOM     16  C   UNL     1      54.300  25.575  49.720  1.00  0.00     0.027 C 
BRANCH  16  17
ATOM     17  C   UNL     1      55.671  25.491  50.409  1.00  0.00     0.004 C 
BRANCH  17  18
ATOM     18  C   UNL     1      55.635  24.875  51.820  1.00  0.00     0.000 C 
BRANCH  18  19
ATOM     19  C   UNL     1      56.245  25.795  52.888  1.00  0.00    -0.003 C 
ATOM     20  C   UNL     1      57.673  25.373  53.224  1.00  0.00     0.004 C 
ENDBRANCH  18  19
ENDBRANCH  17  18
ENDBRANCH  16  17
ENDBRANCH  15  16
ENDBRANCH  13  14
ENDBRANCH  12  13
ENDBRANCH   1  11
TORSDOF 14
ENDMDL
MODEL 2
REMARK VINA RESULT:    -3.331      5.237      7.704
REMARK INTER + INTRA:          -8.726
REMARK INTER:                  -7.836
REMARK INTRA:                  -0.890
REMARK UNBOUND:                -2.669
REMARK SMILES CCCCCC=CCC=CCCCCCCCC(=O)[O-]
REMARK SMILES IDX 11 1 12 2 13 3 14 4 15 5 16 6 17 7 18 8 19 9 20 10 10 11
REMARK SMILES IDX 9 12 8 13 7 14 6 15 5 16 4 17 3 18 2 19 1 20
REMARK H PARENT
REMARK Flexibility Score: inf
ROOT
ATOM      1  C   UNL     1      59.836  23.973  50.604  1.00  0.00     0.027 C 
ENDROOT
BRANCH   1   2
ATOM      2  C   UNL     1      61.078  23.100  50.368  1.00  0.00     0.004 C 
BRANCH   2   3
ATOM      3  C   UNL     1      60.713  21.635  50.087  1.00  0.00     0.000 C 
BRANCH   3   4
ATOM      4  C   UNL     1      61.475  20.693  51.031  1.00  0.00     0.000 C 
BRANCH   4   5
ATOM      5  C   UNL     1      60.684  19.420  51.375  1.00  0.00     0.000 C 
BRANCH   5   6
ATOM      6  C   UNL     1      59.706  18.942  50.284  1.00  0.00     0.006 C 
BRANCH   6   7
ATOM      7  C   UNL     1      59.577  17.410  50.186  1.00  0.00     0.053 C 
BRANCH   7   8
ATOM      8  C   UNL     1      58.259  16.979  49.615  1.00  0.00     0.041 C 
ATOM      9  O   UNL     1      57.186  17.274  50.203  1.00  0.00    -0.550 OA
ATOM     10  O   UNL     1      58.218  16.216  48.454  1.00  0.00    -0.550 OA
ENDBRANCH   7   8
ENDBRANCH   6   7
ENDBRANCH   5   6
ENDBRANCH   4   5
ENDBRANCH   3   4
ENDBRANCH   2   3
ENDBRANCH   1   2
BRANCH   1  11
ATOM     11  C   UNL     1      60.101  25.433  50.351  1.00  0.00    -0.031 C 
ATOM     12  C   UNL     1      59.196  26.218  49.746  1.00  0.00    -0.027 C 
BRANCH  12  13
ATOM     13  C   UNL     1      59.438  27.687  49.545  1.00  0.00     0.054 C 
BRANCH  13  14
ATOM     14  C   UNL     1      58.227  28.470  49.963  1.00  0.00    -0.027 C 
ATOM     15  C   UNL     1      57.176  27.875  50.548  1.00  0.00    -0.031 C 
BRANCH  15  16
ATOM     16  C   UNL     1      55.911  28.629  50.851  1.00  0.00     0.027 C 
BRANCH  16  17
ATOM     17  C   UNL     1      54.772  27.680  51.259  1.00  0.00     0.004 C 
BRANCH  17  18
ATOM     18  C   UNL     1      53.981  27.092  50.075  1.00  0.00     0.000 C 
BRANCH  18  19
ATOM     19  C   UNL     1      54.236  25.591  49.874  1.00  0.00    -0.003 C 
ATOM     20  C   UNL     1      55.021  25.007  51.045  1.00  0.00     0.004 C 
ENDBRANCH  18  19
ENDBRANCH  17  18
ENDBRANCH  16  17
ENDBRANCH  15  16
ENDBRANCH  13  14
ENDBRANCH  12  13
ENDBRANCH   1  11
TORSDOF 14
ENDMDL
MODEL 3
REMARK VINA RESULT:    -3.330      2.380      5.015
REMARK INTER + INTRA:          -8.724
REMARK INTER:                  -5.878
REMARK INTRA:                  -2.846
REMARK UNBOUND:                -2.669
REMARK SMILES CCCCCC=CCC=CCCCCCCCC(=O)[O-]
REMARK SMILES IDX 11 1 12 2 13 3 14 4 15 5 16 6 17 7 18 8 19 9 20 10 10 11
REMARK SMILES IDX 9 12 8 13 7 14 6 15 5 16 4 17 3 18 2 19 1 20
REMARK H PARENT
REMARK Flexibility Score: inf
ROOT
ATOM      1  C   UNL     1      60.443  25.551  50.825  1.00  0.00     0.027 C 
ENDROOT
BRANCH   1   2
ATOM      2  C   UNL     1      60.039  26.455  49.650  1.00  0.00     0.004 C 
BRANCH   2   3
ATOM      3  C   UNL     1      60.073  27.944  50.025  1.00  0.00     0.000 C 
BRANCH   3   4
ATOM      4  C   UNL     1      58.800  28.657  49.544  1.00  0.00     0.000 C 
BRANCH   4   5
ATOM      5  C   UNL     1      57.605  28.453  50.490  1.00  0.00     0.000 C 
BRANCH   5   6
ATOM      6  C   UNL     1      57.789  29.024  51.910  1.00  0.00     0.006 C 
BRANCH   6   7
ATOM      7  C   UNL     1      57.298  28.087  53.030  1.00  0.00     0.053 C 
BRANCH   7   8
ATOM      8  C   UNL     1      56.130  28.653  53.782  1.00  0.00     0.041 C 
ATOM      9  O   UNL     1      55.126  27.935  54.028  1.00  0.00    -0.550 OA
ATOM     10  O   UNL     1      56.133  29.986  54.173  1.00  0.00    -0.550 OA
ENDBRANCH   7   8
ENDBRANCH   6   7
ENDBRANCH   5   6
ENDBRANCH   4   5
ENDBRANCH   3   4
ENDBRANCH   2   3
ENDBRANCH   1   2
BRANCH   1  11
ATOM     11  C   UNL     1      59.295  25.271  51.757  1.00  0.00    -0.031 C 
ATOM     12  C   UNL     1      58.082  24.930  51.298  1.00  0.00    -0.027 C 
BRANCH  12  13
ATOM     13  C   UNL     1      56.952  24.594  52.231  1.00  0.00     0.054 C 
BRANCH  13  14
ATOM     14  C   UNL     1      55.653  25.092  51.666  1.00  0.00    -0.027 C 
ATOM     15  C   UNL     1      55.539  25.442  50.376  1.00  0.00    -0.031 C 
BRANCH  15  16
ATOM     16  C   UNL     1      54.280  26.062  49.835  1.00  0.00     0.027 C 
BRANCH  16  17
ATOM     17  C   UNL     1      53.562  26.905  50.901  1.00  0.00     0.004 C 
BRANCH  17  18
ATOM     18  C   UNL     1      53.126  28.301  50.417  1.00  0.00     0.000 C 
BRANCH  18  19
ATOM     19  C   UNL     1      54.132  29.401  50.787  1.00  0.00    -0.003 C 
ATOM     20  C   UNL     1      53.523  30.391  51.776  1.00  0.00     0.004 C 
ENDBRANCH  18  19
ENDBRANCH  17  18
ENDBRANCH  16  17
ENDBRANCH  15  16
ENDBRANCH  13  14
ENDBRANCH  12  13
ENDBRANCH   1  11
TORSDOF 14
ENDMDL
MODEL 4
REMARK VINA RESULT:    -3.328      2.897      5.409
REMARK INTER + INTRA:          -8.720
REMARK INTER:                  -6.515
REMARK INTRA:                  -2.205
REMARK UNBOUND:                -2.669
REMARK SMILES CCCCCC=CCC=CCCCCCCCC(=O)[O-]
REMARK SMILES IDX 11 1 12 2 13 3 14 4 15 5 16 6 17 7 18 8 19 9 20 10 10 11
REMARK SMILES IDX 9 12 8 13 7 14 6 15 5 16 4 17 3 18 2 19 1 20
REMARK H PARENT
REMARK Flexibility Score: inf
ROOT
ATOM      1  C   UNL     1      59.881  24.655  50.269  1.00  0.00     0.027 C 
ENDROOT
BRANCH   1   2
ATOM      2  C   UNL     1      60.396  24.704  51.716  1.00  0.00     0.004 C 
BRANCH   2   3
ATOM      3  C   UNL     1      61.842  24.202  51.835  1.00  0.00     0.000 C 
BRANCH   3   4
ATOM      4  C   UNL     1      62.589  24.369  50.503  1.00  0.00     0.000 C 
BRANCH   4   5
ATOM      5  C   UNL     1      63.564  25.558  50.508  1.00  0.00     0.000 C 
BRANCH   5   6
ATOM      6  C   UNL     1      63.302  26.626  49.429  1.00  0.00     0.006 C 
BRANCH   6   7
ATOM      7  C   UNL     1      63.466  28.074  49.927  1.00  0.00     0.053 C 
BRANCH   7   8
ATOM      8  C   UNL     1      64.012  28.988  48.870  1.00  0.00     0.041 C 
ATOM      9  O   UNL     1      64.407  28.520  47.770  1.00  0.00    -0.550 OA
ATOM     10  O   UNL     1      64.123  30.350  49.116  1.00  0.00    -0.550 OA
ENDBRANCH   7   8
ENDBRANCH   6   7
ENDBRANCH   5   6
ENDBRANCH   4   5
ENDBRANCH   3   4
ENDBRANCH   2   3
ENDBRANCH   1   2
BRANCH   1  11
ATOM     11  C   UNL     1      59.311  25.972  49.816  1.00  0.00    -0.031 C 
ATOM     12  C   UNL     1      59.818  27.141  50.237  1.00  0.00    -0.027 C 
BRANCH  12  13
ATOM     13  C   UNL     1      59.286  28.455  49.738  1.00  0.00     0.054 C 
BRANCH  13  14
ATOM     14  C   UNL     1      57.841  28.603  50.120  1.00  0.00    -0.027 C 
ATOM     15  C   UNL     1      57.456  28.628  51.404  1.00  0.00    -0.031 C 
BRANCH  15  16
ATOM     16  C   UNL     1      56.002  28.646  51.792  1.00  0.00     0.027 C 
BRANCH  16  17
ATOM     17  C   UNL     1      55.096  28.288  50.603  1.00  0.00     0.004 C 
BRANCH  17  18
ATOM     18  C   UNL     1      54.467  26.884  50.685  1.00  0.00     0.000 C 
BRANCH  18  19
ATOM     19  C   UNL     1      55.421  25.775  50.220  1.00  0.00    -0.003 C 
ATOM     20  C   UNL     1      56.074  25.079  51.411  1.00  0.00     0.004 C 
ENDBRANCH  18  19
ENDBRANCH  17  18
ENDBRANCH  16  17
ENDBRANCH  15  16
ENDBRANCH  13  14
ENDBRANCH  12  13
ENDBRANCH   1  11
TORSDOF 14
ENDMDL
MODEL 5
REMARK VINA RESULT:    -3.261     10.272     12.327
REMARK INTER + INTRA:          -8.598
REMARK INTER:                  -6.234
REMARK INTRA:                  -2.364
REMARK UNBOUND:                -2.669
REMARK SMILES CCCCCC=CCC=CCCCCCCCC(=O)[O-]
REMARK SMILES IDX 11 1 12 2 13 3 14 4 15 5 16 6 17 7 18 8 19 9 20 10 10 11
REMARK SMILES IDX 9 12 8 13 7 14 6 15 5 16 4 17 3 18 2 19 1 20
REMARK H PARENT
REMARK Flexibility Score: inf
ROOT
ATOM      1  C   UNL     1      60.204  35.456  60.155  1.00  0.00     0.027 C 
ENDROOT
BRANCH   1   2
ATOM      2  C   UNL     1      59.638  34.045  59.935  1.00  0.00     0.004 C 
BRANCH   2   3
ATOM      3  C   UNL     1      60.467  33.239  58.924  1.00  0.00     0.000 C 
BRANCH   3   4
ATOM      4  C   UNL     1      60.738  31.821  59.448  1.00  0.00     0.000 C 
BRANCH   4   5
ATOM      5  C   UNL     1      61.098  31.793  60.943  1.00  0.00     0.000 C 
BRANCH   5   6
ATOM      6  C   UNL     1      61.457  30.404  61.505  1.00  0.00     0.006 C 
BRANCH   6   7
ATOM      7  C   UNL     1      61.030  29.233  60.600  1.00  0.00     0.053 C 
BRANCH   7   8
ATOM      8  C   UNL     1      61.328  27.896  61.210  1.00  0.00     0.041 C 
ATOM      9  O   UNL     1      62.467  27.657  61.689  1.00  0.00    -0.550 OA
ATOM     10  O   UNL     1      60.360  26.899  61.212  1.00  0.00    -0.550 OA
ENDBRANCH   7   8
ENDBRANCH   6   7
ENDBRANCH   5   6
ENDBRANCH   4   5
ENDBRANCH   3   4
ENDBRANCH   2   3
ENDBRANCH   1   2
BRANCH   1  11
ATOM     11  C   UNL     1      61.707  35.489  60.099  1.00  0.00    -0.031 C 
ATOM     12  C   UNL     1      62.453  35.508  61.214  1.00  0.00    -0.027 C 
BRANCH  12  13
ATOM     13  C   UNL     1      63.955  35.482  61.158  1.00  0.00     0.054 C 
BRANCH  13  14
ATOM     14  C   UNL     1      64.452  34.075  61.324  1.00  0.00    -0.027 C 
ATOM     15  C   UNL     1      64.369  33.181  60.328  1.00  0.00    -0.031 C 
BRANCH  15  16
ATOM     16  C   UNL     1      64.746  31.739  60.529  1.00  0.00     0.027 C 
BRANCH  16  17
ATOM     17  C   UNL     1      64.557  30.921  59.241  1.00  0.00     0.004 C 
BRANCH  17  18
ATOM     18  C   UNL     1      64.537  29.396  59.456  1.00  0.00     0.000 C 
BRANCH  18  19
ATOM     19  C   UNL     1      65.583  28.923  60.476  1.00  0.00    -0.003 C 
ATOM     20  C   UNL     1      66.983  28.933  59.870  1.00  0.00     0.004 C 
ENDBRANCH  18  19
ENDBRANCH  17  18
ENDBRANCH  16  17
ENDBRANCH  15  16
ENDBRANCH  13  14
ENDBRANCH  12  13
ENDBRANCH   1  11
TORSDOF 14
ENDMDL
MODEL 6
REMARK VINA RESULT:    -3.225      2.438      5.471
REMARK INTER + INTRA:          -8.534
REMARK INTER:                  -6.077
REMARK INTRA:                  -2.457
REMARK UNBOUND:                -2.669
REMARK SMILES CCCCCC=CCC=CCCCCCCCC(=O)[O-]
REMARK SMILES IDX 11 1 12 2 13 3 14 4 15 5 16 6 17 7 18 8 19 9 20 10 10 11
REMARK SMILES IDX 9 12 8 13 7 14 6 15 5 16 4 17 3 18 2 19 1 20
REMARK H PARENT
REMARK Flexibility Score: inf
ROOT
ATOM      1  C   UNL     1      55.952  26.128  51.248  1.00  0.00     0.027 C 
ENDROOT
BRANCH   1   2
ATOM      2  C   UNL     1      54.870  25.424  50.416  1.00  0.00     0.004 C 
BRANCH   2   3
ATOM      3  C   UNL     1      53.853  26.415  49.829  1.00  0.00     0.000 C 
BRANCH   3   4
ATOM      4  C   UNL     1      53.404  27.428  50.893  1.00  0.00     0.000 C 
BRANCH   4   5
ATOM      5  C   UNL     1      53.734  28.881  50.513  1.00  0.00     0.000 C 
BRANCH   5   6
ATOM      6  C   UNL     1      53.892  29.849  51.702  1.00  0.00     0.006 C 
BRANCH   6   7
ATOM      7  C   UNL     1      54.093  29.147  53.059  1.00  0.00     0.053 C 
BRANCH   7   8
ATOM      8  C   UNL     1      55.485  29.317  53.593  1.00  0.00     0.041 C 
ATOM      9  O   UNL     1      56.200  30.277  53.205  1.00  0.00    -0.550 OA
ATOM     10  O   UNL     1      56.005  28.391  54.488  1.00  0.00    -0.550 OA
ENDBRANCH   7   8
ENDBRANCH   6   7
ENDBRANCH   5   6
ENDBRANCH   4   5
ENDBRANCH   3   4
ENDBRANCH   2   3
ENDBRANCH   1   2
BRANCH   1  11
ATOM     11  C   UNL     1      56.977  26.821  50.391  1.00  0.00    -0.031 C 
ATOM     12  C   UNL     1      57.352  28.088  50.629  1.00  0.00    -0.027 C 
BRANCH  12  13
ATOM     13  C   UNL     1      58.418  28.760  49.809  1.00  0.00     0.054 C 
BRANCH  13  14
ATOM     14  C   UNL     1      59.773  28.252  50.210  1.00  0.00    -0.027 C 
ATOM     15  C   UNL     1      60.345  27.214  49.583  1.00  0.00    -0.031 C 
BRANCH  15  16
ATOM     16  C   UNL     1      61.642  26.620  50.062  1.00  0.00     0.027 C 
BRANCH  16  17
ATOM     17  C   UNL     1      61.446  25.192  50.596  1.00  0.00     0.004 C 
BRANCH  17  18
ATOM     18  C   UNL     1      60.031  24.623  50.381  1.00  0.00     0.000 C 
BRANCH  18  19
ATOM     19  C   UNL     1      59.365  24.173  51.690  1.00  0.00    -0.003 C 
ATOM     20  C   UNL     1      59.379  25.294  52.725  1.00  0.00     0.004 C 
ENDBRANCH  18  19
ENDBRANCH  17  18
ENDBRANCH  16  17
ENDBRANCH  15  16
ENDBRANCH  13  14
ENDBRANCH  12  13
ENDBRANCH   1  11
TORSDOF 14
ENDMDL
MODEL 7
REMARK VINA RESULT:    -3.157      3.245      6.530
REMARK INTER + INTRA:          -8.409
REMARK INTER:                  -6.745
REMARK INTRA:                  -1.664
REMARK UNBOUND:                -2.669
REMARK SMILES CCCCCC=CCC=CCCCCCCCC(=O)[O-]
REMARK SMILES IDX 11 1 12 2 13 3 14 4 15 5 16 6 17 7 18 8 19 9 20 10 10 11
REMARK SMILES IDX 9 12 8 13 7 14 6 15 5 16 4 17 3 18 2 19 1 20
REMARK H PARENT
REMARK Flexibility Score: inf
ROOT
ATOM      1  C   UNL     1      59.458  27.509  49.581  1.00  0.00     0.027 C 
ENDROOT
BRANCH   1   2
ATOM      2  C   UNL     1      58.931  28.234  50.829  1.00  0.00     0.004 C 
BRANCH   2   3
ATOM      3  C   UNL     1      57.442  28.590  50.707  1.00  0.00     0.000 C 
BRANCH   3   4
ATOM      4  C   UNL     1      56.705  28.310  52.025  1.00  0.00     0.000 C 
BRANCH   4   5
ATOM      5  C   UNL     1      55.190  28.122  51.837  1.00  0.00     0.000 C 
BRANCH   5   6
ATOM      6  C   UNL     1      54.730  27.931  50.379  1.00  0.00     0.006 C 
BRANCH   6   7
ATOM      7  C   UNL     1      53.764  26.748  50.177  1.00  0.00     0.053 C 
BRANCH   7   8
ATOM      8  C   UNL     1      54.481  25.452  49.943  1.00  0.00     0.041 C 
ATOM      9  O   UNL     1      53.831  24.382  49.813  1.00  0.00    -0.550 OA
ATOM     10  O   UNL     1      55.870  25.420  49.910  1.00  0.00    -0.550 OA
ENDBRANCH   7   8
ENDBRANCH   6   7
ENDBRANCH   5   6
ENDBRANCH   4   5
ENDBRANCH   3   4
ENDBRANCH   2   3
ENDBRANCH   1   2
BRANCH   1  11
ATOM     11  C   UNL     1      59.450  26.012  49.739  1.00  0.00    -0.031 C 
ATOM     12  C   UNL     1      59.246  25.431  50.931  1.00  0.00    -0.027 C 
BRANCH  12  13
ATOM     13  C   UNL     1      59.180  23.936  51.077  1.00  0.00     0.054 C 
BRANCH  13  14
ATOM     14  C   UNL     1      60.444  23.313  50.560  1.00  0.00    -0.027 C 
ATOM     15  C   UNL     1      61.599  23.410  51.234  1.00  0.00    -0.031 C 
BRANCH  15  16
ATOM     16  C   UNL     1      62.893  22.900  50.661  1.00  0.00     0.027 C 
BRANCH  16  17
ATOM     17  C   UNL     1      63.893  24.041  50.418  1.00  0.00     0.004 C 
BRANCH  17  18
ATOM     18  C   UNL     1      63.256  25.443  50.374  1.00  0.00     0.000 C 
BRANCH  18  19
ATOM     19  C   UNL     1      63.958  26.385  49.384  1.00  0.00    -0.003 C 
ATOM     20  C   UNL     1      63.178  27.686  49.218  1.00  0.00     0.004 C 
ENDBRANCH  18  19
ENDBRANCH  17  18
ENDBRANCH  16  17
ENDBRANCH  15  16
ENDBRANCH  13  14
ENDBRANCH  12  13
ENDBRANCH   1  11
TORSDOF 14
ENDMDL
MODEL 8
REMARK VINA RESULT:    -3.156      1.637      4.163
REMARK INTER + INTRA:          -8.409
REMARK INTER:                  -5.699
REMARK INTRA:                  -2.709
REMARK UNBOUND:                -2.669
REMARK SMILES CCCCCC=CCC=CCCCCCCCC(=O)[O-]
REMARK SMILES IDX 11 1 12 2 13 3 14 4 15 5 16 6 17 7 18 8 19 9 20 10 10 11
REMARK SMILES IDX 9 12 8 13 7 14 6 15 5 16 4 17 3 18 2 19 1 20
REMARK H PARENT
REMARK Flexibility Score: inf
ROOT
ATOM      1  C   UNL     1      57.823  24.667  51.810  1.00  0.00     0.027 C 
ENDROOT
BRANCH   1   2
ATOM      2  C   UNL     1      58.879  24.842  50.708  1.00  0.00     0.004 C 
BRANCH   2   3
ATOM      3  C   UNL     1      59.599  26.195  50.804  1.00  0.00     0.000 C 
BRANCH   3   4
ATOM      4  C   UNL     1      59.299  27.061  49.571  1.00  0.00     0.000 C 
BRANCH   4   5
ATOM      5  C   UNL     1      58.784  28.464  49.935  1.00  0.00     0.000 C 
BRANCH   5   6
ATOM      6  C   UNL     1      58.196  28.598  51.353  1.00  0.00     0.006 C 
BRANCH   6   7
ATOM      7  C   UNL     1      58.813  29.742  52.181  1.00  0.00     0.053 C 
BRANCH   7   8
ATOM      8  C   UNL     1      60.303  29.622  52.306  1.00  0.00     0.041 C 
ATOM      9  O   UNL     1      61.057  30.438  51.714  1.00  0.00    -0.550 OA
ATOM     10  O   UNL     1      60.860  28.584  53.042  1.00  0.00    -0.550 OA
ENDBRANCH   7   8
ENDBRANCH   6   7
ENDBRANCH   5   6
ENDBRANCH   4   5
ENDBRANCH   3   4
ENDBRANCH   2   3
ENDBRANCH   1   2
BRANCH   1  11
ATOM     11  C   UNL     1      56.546  25.404  51.507  1.00  0.00    -0.031 C 
ATOM     12  C   UNL     1      55.981  25.361  50.291  1.00  0.00    -0.027 C 
BRANCH  12  13
ATOM     13  C   UNL     1      54.676  26.049  50.005  1.00  0.00     0.054 C 
BRANCH  13  14
ATOM     14  C   UNL     1      54.740  27.481  50.454  1.00  0.00    -0.027 C 
ATOM     15  C   UNL     1      53.627  28.204  50.648  1.00  0.00    -0.031 C 
BRANCH  15  16
ATOM     16  C   UNL     1      53.686  29.671  50.972  1.00  0.00     0.027 C 
BRANCH  16  17
ATOM     17  C   UNL     1      53.791  29.911  52.487  1.00  0.00     0.004 C 
BRANCH  17  18
ATOM     18  C   UNL     1      55.214  30.234  52.981  1.00  0.00     0.000 C 
BRANCH  18  19
ATOM     19  C   UNL     1      55.588  29.472  54.261  1.00  0.00    -0.003 C 
ATOM     20  C   UNL     1      55.600  27.965  54.018  1.00  0.00     0.004 C 
ENDBRANCH  18  19
ENDBRANCH  17  18
ENDBRANCH  16  17
ENDBRANCH  15  16
ENDBRANCH  13  14
ENDBRANCH  12  13
ENDBRANCH   1  11
TORSDOF 14
ENDMDL
MODEL 9
REMARK VINA RESULT:    -3.135      2.159      3.407
REMARK INTER + INTRA:          -8.370
REMARK INTER:                  -5.993
REMARK INTRA:                  -2.377
REMARK UNBOUND:                -2.669
REMARK SMILES CCCCCC=CCC=CCCCCCCCC(=O)[O-]
REMARK SMILES IDX 11 1 12 2 13 3 14 4 15 5 16 6 17 7 18 8 19 9 20 10 10 11
REMARK SMILES IDX 9 12 8 13 7 14 6 15 5 16 4 17 3 18 2 19 1 20
REMARK H PARENT
REMARK Flexibility Score: inf
ROOT
ATOM      1  C   UNL     1      58.536  28.408  52.683  1.00  0.00     0.027 C 
ENDROOT
BRANCH   1   2
ATOM      2  C   UNL     1      58.968  29.126  51.395  1.00  0.00     0.004 C 
BRANCH   2   3
ATOM      3  C   UNL     1      58.453  28.418  50.134  1.00  0.00     0.000 C 
BRANCH   3   4
ATOM      4  C   UNL     1      59.546  27.528  49.523  1.00  0.00     0.000 C 
BRANCH   4   5
ATOM      5  C   UNL     1      59.245  26.027  49.665  1.00  0.00     0.000 C 
BRANCH   5   6
ATOM      6  C   UNL     1      59.896  25.340  50.881  1.00  0.00     0.006 C 
BRANCH   6   7
ATOM      7  C   UNL     1      59.758  23.806  50.883  1.00  0.00     0.053 C 
BRANCH   7   8
ATOM      8  C   UNL     1      61.052  23.112  51.190  1.00  0.00     0.041 C 
ATOM      9  O   UNL     1      61.184  22.459  52.258  1.00  0.00    -0.550 OA
ATOM     10  O   UNL     1      62.126  23.223  50.316  1.00  0.00    -0.550 OA
ENDBRANCH   7   8
ENDBRANCH   6   7
ENDBRANCH   5   6
ENDBRANCH   4   5
ENDBRANCH   3   4
ENDBRANCH   2   3
ENDBRANCH   1   2
BRANCH   1  11
ATOM     11  C   UNL     1      57.046  28.449  52.892  1.00  0.00    -0.031 C 
ATOM     12  C   UNL     1      56.364  29.605  52.876  1.00  0.00    -0.027 C 
BRANCH  12  13
ATOM     13  C   UNL     1      54.869  29.639  53.027  1.00  0.00     0.054 C 
BRANCH  13  14
ATOM     14  C   UNL     1      54.244  28.553  52.200  1.00  0.00    -0.027 C 
ATOM     15  C   UNL     1      54.270  28.592  50.859  1.00  0.00    -0.031 C 
BRANCH  15  16
ATOM     16  C   UNL     1      53.536  27.577  50.026  1.00  0.00     0.027 C 
BRANCH  16  17
ATOM     17  C   UNL     1      53.944  26.142  50.395  1.00  0.00     0.004 C 
BRANCH  17  18
ATOM     18  C   UNL     1      55.418  25.806  50.102  1.00  0.00     0.000 C 
BRANCH  18  19
ATOM     19  C   UNL     1      56.168  25.287  51.338  1.00  0.00    -0.003 C 
ATOM     20  C   UNL     1      55.198  24.962  52.471  1.00  0.00     0.004 C 
ENDBRANCH  18  19
ENDBRANCH  17  18
ENDBRANCH  16  17
ENDBRANCH  15  16
ENDBRANCH  13  14
ENDBRANCH  12  13
ENDBRANCH   1  11
TORSDOF 14
ENDMDL
