MODEL 1
REMARK VINA RESULT:    -4.220      0.000      0.000
REMARK INTER + INTRA:          -5.475
REMARK INTER:                  -5.207
REMARK INTRA:                  -0.268
REMARK UNBOUND:                -0.268
REMARK SMILES CCCCC=CC(C)=O
REMARK SMILES IDX 4 1 3 2 2 3 1 4 5 5 6 6 7 7 9 8 8 9
REMARK H PARENT
REMARK Flexibility Score: inf
ROOT
ATOM      1  C   UNL     1      17.274 -10.011  66.202  1.00  0.00     0.027 C 
ENDROOT
BRANCH   1   2
ATOM      2  C   UNL     1      17.811 -10.626  64.897  1.00  0.00     0.004 C 
BRANCH   2   3
ATOM      3  C   UNL     1      18.645  -9.655  64.042  1.00  0.00    -0.003 C 
ATOM      4  C   UNL     1      20.150  -9.825  64.248  1.00  0.00     0.004 C 
ENDBRANCH   2   3
ENDBRANCH   1   2
BRANCH   1   5
ATOM      5  C   UNL     1      18.002 -10.511  67.418  1.00  0.00    -0.023 C 
ATOM      6  C   UNL     1      18.817  -9.717  68.122  1.00  0.00     0.042 C 
BRANCH   6   7
ATOM      7  C   UNL     1      19.536 -10.187  69.319  1.00  0.00     0.152 C 
ATOM      8  O   UNL     1      19.618  -9.463  70.349  1.00  0.00    -0.295 OA
ATOM      9  C   UNL     1      20.174 -11.538  69.316  1.00  0.00     0.093 C 
ENDBRANCH   6   7
ENDBRANCH   1   5
TORSDOF 4
ENDMDL
MODEL 2
REMARK VINA RESULT:    -4.210      1.588      2.442
REMARK INTER + INTRA:          -5.462
REMARK INTER:                  -5.364
REMARK INTRA:                  -0.098
REMARK UNBOUND:                -0.268
REMARK SMILES CCCCC=CC(C)=O
REMARK SMILES IDX 4 1 3 2 2 3 1 4 5 5 6 6 7 7 9 8 8 9
REMARK H PARENT
REMARK Flexibility Score: inf
ROOT
ATOM      1  C   UNL     1      17.278 -10.059  66.217  1.00  0.00     0.027 C 
ENDROOT
BRANCH   1   2
ATOM      2  C   UNL     1      16.259 -11.105  65.733  1.00  0.00     0.004 C 
BRANCH   2   3
ATOM      3  C   UNL     1      15.497 -10.697  64.459  1.00  0.00    -0.003 C 
ATOM      4  C   UNL     1      14.047 -11.179  64.455  1.00  0.00     0.004 C 
ENDBRANCH   2   3
ENDBRANCH   1   2
BRANCH   1   5
ATOM      5  C   UNL     1      18.068 -10.530  67.407  1.00  0.00    -0.023 C 
ATOM      6  C   UNL     1      18.776  -9.679  68.158  1.00  0.00     0.042 C 
BRANCH   6   7
ATOM      7  C   UNL     1      19.554 -10.121  69.330  1.00  0.00     0.152 C 
ATOM      8  O   UNL     1      19.662  -9.384  70.347  1.00  0.00    -0.295 OA
ATOM      9  C   UNL     1      20.219 -11.459  69.315  1.00  0.00     0.093 C 
ENDBRANCH   6   7
ENDBRANCH   1   5
TORSDOF 4
ENDMDL
MODEL 3
REMARK VINA RESULT:    -3.621      3.455      5.459
REMARK INTER + INTRA:          -4.735
REMARK INTER:                  -4.578
REMARK INTRA:                  -0.157
REMARK UNBOUND:                -0.268
REMARK SMILES CCCCC=CC(C)=O
REMARK SMILES IDX 4 1 3 2 2 3 1 4 5 5 6 6 7 7 9 8 8 9
REMARK H PARENT
REMARK Flexibility Score: inf
ROOT
ATOM      1  C   UNL     1      17.250 -11.263  66.781  1.00  0.00     0.027 C 
ENDROOT
BRANCH   1   2
ATOM      2  C   UNL     1      17.612  -9.869  67.324  1.00  0.00     0.004 C 
BRANCH   2   3
ATOM      3  C   UNL     1      19.103  -9.695  67.662  1.00  0.00    -0.003 C 
ATOM      4  C   UNL     1      19.402  -9.891  69.148  1.00  0.00     0.004 C 
ENDBRANCH   2   3
ENDBRANCH   1   2
BRANCH   1   5
ATOM      5  C   UNL     1      16.784 -11.223  65.352  1.00  0.00    -0.023 C 
ATOM      6  C   UNL     1      17.467 -11.830  64.375  1.00  0.00     0.042 C 
BRANCH   6   7
ATOM      7  C   UNL     1      17.024 -11.806  62.970  1.00  0.00     0.152 C 
ATOM      8  O   UNL     1      17.348 -12.729  62.175  1.00  0.00    -0.295 OA
ATOM      9  C   UNL     1      16.177 -10.676  62.480  1.00  0.00     0.093 C 
ENDBRANCH   6   7
ENDBRANCH   1   5
TORSDOF 4
ENDMDL
MODEL 4
REMARK VINA RESULT:    -3.547      1.407      1.500
REMARK INTER + INTRA:          -4.644
REMARK INTER:                  -4.382
REMARK INTRA:                  -0.262
REMARK UNBOUND:                -0.268
REMARK SMILES CCCCC=CC(C)=O
REMARK SMILES IDX 4 1 3 2 2 3 1 4 5 5 6 6 7 7 9 8 8 9
REMARK H PARENT
REMARK Flexibility Score: inf
ROOT
ATOM      1  C   UNL     1      16.872 -10.262  65.514  1.00  0.00     0.027 C 
ENDROOT
BRANCH   1   2
ATOM      2  C   UNL     1      17.816 -10.822  64.435  1.00  0.00     0.004 C 
BRANCH   2   3
ATOM      3  C   UNL     1      18.567  -9.742  63.636  1.00  0.00    -0.003 C 
ATOM      4  C   UNL     1      20.058  -9.688  63.967  1.00  0.00     0.004 C 
ENDBRANCH   2   3
ENDBRANCH   1   2
BRANCH   1   5
ATOM      5  C   UNL     1      17.301 -10.635  66.906  1.00  0.00    -0.023 C 
ATOM      6  C   UNL     1      18.573 -10.936  67.190  1.00  0.00     0.042 C 
BRANCH   6   7
ATOM      7  C   UNL     1      19.013 -11.299  68.549  1.00  0.00     0.152 C 
ATOM      8  O   UNL     1      18.962 -12.495  68.946  1.00  0.00    -0.295 OA
ATOM      9  C   UNL     1      19.529 -10.240  69.468  1.00  0.00     0.093 C 
ENDBRANCH   6   7
ENDBRANCH   1   5
TORSDOF 4
ENDMDL
MODEL 5
REMARK VINA RESULT:    -3.531      3.670      5.452
REMARK INTER + INTRA:          -4.624
REMARK INTER:                  -4.537
REMARK INTRA:                  -0.087
REMARK UNBOUND:                -0.268
REMARK SMILES CCCCC=CC(C)=O
REMARK SMILES IDX 4 1 3 2 2 3 1 4 5 5 6 6 7 7 9 8 8 9
REMARK H PARENT
REMARK Flexibility Score: inf
ROOT
ATOM      1  C   UNL     1      17.694 -10.401  65.802  1.00  0.00     0.027 C 
ENDROOT
BRANCH   1   2
ATOM      2  C   UNL     1      17.728  -9.949  67.273  1.00  0.00     0.004 C 
BRANCH   2   3
ATOM      3  C   UNL     1      19.110  -9.468  67.751  1.00  0.00    -0.003 C 
ATOM      4  C   UNL     1      19.467  -9.977  69.146  1.00  0.00     0.004 C 
ENDBRANCH   2   3
ENDBRANCH   1   2
BRANCH   1   5
ATOM      5  C   UNL     1      16.300 -10.444  65.243  1.00  0.00    -0.023 C 
ATOM      6  C   UNL     1      15.553 -11.552  65.308  1.00  0.00     0.042 C 
BRANCH   6   7
ATOM      7  C   UNL     1      14.182 -11.612  64.770  1.00  0.00     0.152 C 
ATOM      8  O   UNL     1      13.609 -10.571  64.345  1.00  0.00    -0.295 OA
ATOM      9  C   UNL     1      13.462 -12.920  64.723  1.00  0.00     0.093 C 
ENDBRANCH   6   7
ENDBRANCH   1   5
TORSDOF 4
ENDMDL
MODEL 6
REMARK VINA RESULT:    -3.520      2.231      3.058
REMARK INTER + INTRA:          -4.611
REMARK INTER:                  -4.443
REMARK INTRA:                  -0.168
REMARK UNBOUND:                -0.268
REMARK SMILES CCCCC=CC(C)=O
REMARK SMILES IDX 4 1 3 2 2 3 1 4 5 5 6 6 7 7 9 8 8 9
REMARK H PARENT
REMARK Flexibility Score: inf
ROOT
ATOM      1  C   UNL     1      16.869 -10.204  65.616  1.00  0.00     0.027 C 
ENDROOT
BRANCH   1   2
ATOM      2  C   UNL     1      16.235 -11.513  65.113  1.00  0.00     0.004 C 
BRANCH   2   3
ATOM      3  C   UNL     1      14.698 -11.538  65.195  1.00  0.00    -0.003 C 
ATOM      4  C   UNL     1      14.030 -10.732  64.081  1.00  0.00     0.004 C 
ENDBRANCH   2   3
ENDBRANCH   1   2
BRANCH   1   5
ATOM      5  C   UNL     1      17.561 -10.370  66.941  1.00  0.00    -0.023 C 
ATOM      6  C   UNL     1      18.419 -11.372  67.162  1.00  0.00     0.042 C 
BRANCH   6   7
ATOM      7  C   UNL     1      19.109 -11.549  68.452  1.00  0.00     0.152 C 
ATOM      8  O   UNL     1      19.353 -12.702  68.902  1.00  0.00    -0.295 OA
ATOM      9  C   UNL     1      19.530 -10.349  69.237  1.00  0.00     0.093 C 
ENDBRANCH   6   7
ENDBRANCH   1   5
TORSDOF 4
ENDMDL
MODEL 7
REMARK VINA RESULT:    -3.519      2.917      4.678
REMARK INTER + INTRA:          -4.610
REMARK INTER:                  -4.413
REMARK INTRA:                  -0.197
REMARK UNBOUND:                -0.268
REMARK SMILES CCCCC=CC(C)=O
REMARK SMILES IDX 4 1 3 2 2 3 1 4 5 5 6 6 7 7 9 8 8 9
REMARK H PARENT
REMARK Flexibility Score: inf
ROOT
ATOM      1  C   UNL     1      19.596  -9.555  67.366  1.00  0.00     0.027 C 
ENDROOT
BRANCH   1   2
ATOM      2  C   UNL     1      18.127  -9.820  67.743  1.00  0.00     0.004 C 
BRANCH   2   3
ATOM      3  C   UNL     1      17.239 -10.232  66.555  1.00  0.00    -0.003 C 
ATOM      4  C   UNL     1      16.404 -11.479  66.842  1.00  0.00     0.004 C 
ENDBRANCH   2   3
ENDBRANCH   1   2
BRANCH   1   5
ATOM      5  C   UNL     1      19.814  -9.522  65.879  1.00  0.00    -0.023 C 
ATOM      6  C   UNL     1      20.930 -10.008  65.325  1.00  0.00     0.042 C 
BRANCH   6   7
ATOM      7  C   UNL     1      21.161  -9.989  63.869  1.00  0.00     0.152 C 
ATOM      8  O   UNL     1      20.192 -10.012  63.062  1.00  0.00    -0.295 OA
ATOM      9  C   UNL     1      22.558  -9.939  63.342  1.00  0.00     0.093 C 
ENDBRANCH   6   7
ENDBRANCH   1   5
TORSDOF 4
ENDMDL
MODEL 8
REMARK VINA RESULT:    -3.458      1.987      2.745
REMARK INTER + INTRA:          -4.535
REMARK INTER:                  -4.323
REMARK INTRA:                  -0.212
REMARK UNBOUND:                -0.268
REMARK SMILES CCCCC=CC(C)=O
REMARK SMILES IDX 4 1 3 2 2 3 1 4 5 5 6 6 7 7 9 8 8 9
REMARK H PARENT
REMARK Flexibility Score: inf
ROOT
ATOM      1  C   UNL     1      15.799 -11.423  65.712  1.00  0.00     0.027 C 
ENDROOT
BRANCH   1   2
ATOM      2  C   UNL     1      15.474 -11.265  64.216  1.00  0.00     0.004 C 
BRANCH   2   3
ATOM      3  C   UNL     1      16.701 -11.363  63.293  1.00  0.00    -0.003 C 
ATOM      4  C   UNL     1      16.538 -12.417  62.198  1.00  0.00     0.004 C 
ENDBRANCH   2   3
ENDBRANCH   1   2
BRANCH   1   5
ATOM      5  C   UNL     1      17.158 -10.887  66.068  1.00  0.00    -0.023 C 
ATOM      6  C   UNL     1      17.359 -10.168  67.178  1.00  0.00     0.042 C 
BRANCH   6   7
ATOM      7  C   UNL     1      18.684  -9.638  67.545  1.00  0.00     0.152 C 
ATOM      8  O   UNL     1      18.963  -9.375  68.747  1.00  0.00    -0.295 OA
ATOM      9  C   UNL     1      19.711  -9.411  66.484  1.00  0.00     0.093 C 
ENDBRANCH   6   7
ENDBRANCH   1   5
TORSDOF 4
ENDMDL
MODEL 9
REMARK VINA RESULT:    -3.362     14.766     15.764
REMARK INTER + INTRA:          -4.416
REMARK INTER:                  -4.248
REMARK INTRA:                  -0.168
REMARK UNBOUND:                -0.268
REMARK SMILES CCCCC=CC(C)=O
REMARK SMILES IDX 4 1 3 2 2 3 1 4 5 5 6 6 7 7 9 8 8 9
REMARK H PARENT
REMARK Flexibility Score: inf
ROOT
ATOM      1  C   UNL     1       7.106  -9.972  56.513  1.00  0.00     0.027 C 
ENDROOT
BRANCH   1   2
ATOM      2  C   UNL     1       6.561  -9.120  57.673  1.00  0.00     0.004 C 
BRANCH   2   3
ATOM      3  C   UNL     1       5.488  -8.100  57.252  1.00  0.00    -0.003 C 
ATOM      4  C   UNL     1       6.082  -6.809  56.692  1.00  0.00     0.004 C 
ENDBRANCH   2   3
ENDBRANCH   1   2
BRANCH   1   5
ATOM      5  C   UNL     1       8.506  -9.588  56.122  1.00  0.00    -0.023 C 
ATOM      6  C   UNL     1       9.270 -10.393  55.375  1.00  0.00     0.042 C 
BRANCH   6   7
ATOM      7  C   UNL     1      10.643 -10.032  54.978  1.00  0.00     0.152 C 
ATOM      8  O   UNL     1      11.635 -10.655  55.446  1.00  0.00    -0.295 OA
ATOM      9  C   UNL     1      10.864  -8.918  54.008  1.00  0.00     0.093 C 
ENDBRANCH   6   7
ENDBRANCH   1   5
TORSDOF 4
ENDMDL
