MODEL 1
REMARK VINA RESULT:    -5.051      0.000      0.000
REMARK INTER + INTRA:          -9.230
REMARK INTER:                  -8.594
REMARK INTRA:                  -0.637
REMARK UNBOUND:                -0.637
REMARK SMILES CCCCCCCCCCCCCC(=O)[O-]
REMARK SMILES IDX 8 1 9 2 10 3 11 4 12 5 13 6 14 7 15 8 16 9 7 10 6 11 5 12
REMARK SMILES IDX 4 13 3 14 2 15 1 16
REMARK H PARENT
REMARK Flexibility Score: inf
ROOT
ATOM      1  C   UNL     1       5.514 -12.896  -3.424  1.00  0.00     0.000 C 
ENDROOT
BRANCH   1   2
ATOM      2  C   UNL     1       4.581 -12.934  -4.649  1.00  0.00     0.000 C 
BRANCH   2   3
ATOM      3  C   UNL     1       5.018 -12.061  -5.840  1.00  0.00     0.000 C 
BRANCH   3   4
ATOM      4  C   UNL     1       4.349 -10.675  -5.845  1.00  0.00     0.000 C 
BRANCH   4   5
ATOM      5  C   UNL     1       4.535  -9.937  -7.181  1.00  0.00     0.006 C 
BRANCH   5   6
ATOM      6  C   UNL     1       3.903  -8.539  -7.177  1.00  0.00     0.053 C 
BRANCH   6   7
ATOM      7  C   UNL     1       4.941  -7.497  -7.452  1.00  0.00     0.041 C 
ATOM      8  O   UNL     1       5.336  -7.291  -8.630  1.00  0.00    -0.550 OA
ATOM      9  O   UNL     1       5.438  -6.718  -6.413  1.00  0.00    -0.550 OA
ENDBRANCH   6   7
ENDBRANCH   5   6
ENDBRANCH   4   5
ENDBRANCH   3   4
ENDBRANCH   2   3
ENDBRANCH   1   2
BRANCH   1  10
ATOM     10  C   UNL     1       6.957 -13.316  -3.753  1.00  0.00     0.000 C 
BRANCH  10  11
ATOM     11  C   UNL     1       7.756 -13.741  -2.509  1.00  0.00    -0.000 C 
BRANCH  11  12
ATOM     12  C   UNL     1       7.427 -12.964  -1.219  1.00  0.00    -0.000 C 
BRANCH  12  13
ATOM     13  C   UNL     1       8.650 -12.528  -0.387  1.00  0.00    -0.000 C 
BRANCH  13  14
ATOM     14  C   UNL     1       8.686 -11.031  -0.017  1.00  0.00    -0.000 C 
BRANCH  14  15
ATOM     15  C   UNL     1       7.765 -10.134  -0.864  1.00  0.00    -0.003 C 
ATOM     16  C   UNL     1       7.263  -8.909  -0.101  1.00  0.00     0.004 C 
ENDBRANCH  14  15
ENDBRANCH  13  14
ENDBRANCH  12  13
ENDBRANCH  11  12
ENDBRANCH  10  11
ENDBRANCH   1  10
TORSDOF 12
ENDMDL
MODEL 2
REMARK VINA RESULT:    -5.020      1.253      1.855
REMARK INTER + INTRA:          -9.179
REMARK INTER:                  -8.099
REMARK INTRA:                  -1.080
REMARK UNBOUND:                -0.637
REMARK SMILES CCCCCCCCCCCCCC(=O)[O-]
REMARK SMILES IDX 8 1 9 2 10 3 11 4 12 5 13 6 14 7 15 8 16 9 7 10 6 11 5 12
REMARK SMILES IDX 4 13 3 14 2 15 1 16
REMARK H PARENT
REMARK Flexibility Score: inf
ROOT
ATOM      1  C   UNL     1       6.038 -12.375  -4.638  1.00  0.00     0.000 C 
ENDROOT
BRANCH   1   2
ATOM      2  C   UNL     1       4.810 -13.052  -5.276  1.00  0.00     0.000 C 
BRANCH   2   3
ATOM      3  C   UNL     1       3.444 -12.492  -4.837  1.00  0.00     0.000 C 
BRANCH   3   4
ATOM      4  C   UNL     1       3.277 -10.997  -5.161  1.00  0.00     0.000 C 
BRANCH   4   5
ATOM      5  C   UNL     1       3.385 -10.704  -6.666  1.00  0.00     0.006 C 
BRANCH   5   6
ATOM      6  C   UNL     1       4.564  -9.784  -7.008  1.00  0.00     0.053 C 
BRANCH   6   7
ATOM      7  C   UNL     1       4.089  -8.589  -7.771  1.00  0.00     0.041 C 
ATOM      8  O   UNL     1       3.058  -7.967  -7.398  1.00  0.00    -0.550 OA
ATOM      9  O   UNL     1       4.811  -8.129  -8.866  1.00  0.00    -0.550 OA
ENDBRANCH   6   7
ENDBRANCH   5   6
ENDBRANCH   4   5
ENDBRANCH   3   4
ENDBRANCH   2   3
ENDBRANCH   1   2
BRANCH   1  10
ATOM     10  C   UNL     1       7.023 -13.380  -4.017  1.00  0.00     0.000 C 
BRANCH  10  11
ATOM     11  C   UNL     1       7.288 -13.115  -2.525  1.00  0.00    -0.000 C 
BRANCH  11  12
ATOM     12  C   UNL     1       6.043 -12.754  -1.690  1.00  0.00    -0.000 C 
BRANCH  12  13
ATOM     13  C   UNL     1       5.949 -11.276  -1.261  1.00  0.00    -0.000 C 
BRANCH  13  14
ATOM     14  C   UNL     1       7.247 -10.463  -1.438  1.00  0.00    -0.000 C 
BRANCH  14  15
ATOM     15  C   UNL     1       7.952 -10.077  -0.125  1.00  0.00    -0.003 C 
ATOM     16  C   UNL     1       9.109 -11.012   0.226  1.00  0.00     0.004 C 
ENDBRANCH  14  15
ENDBRANCH  13  14
ENDBRANCH  12  13
ENDBRANCH  11  12
ENDBRANCH  10  11
ENDBRANCH   1  10
TORSDOF 12
ENDMDL
MODEL 3
REMARK VINA RESULT:    -4.966      4.736      5.611
REMARK INTER + INTRA:          -9.086
REMARK INTER:                  -8.013
REMARK INTRA:                  -1.073
REMARK UNBOUND:                -0.637
REMARK SMILES CCCCCCCCCCCCCC(=O)[O-]
REMARK SMILES IDX 8 1 9 2 10 3 11 4 12 5 13 6 14 7 15 8 16 9 7 10 6 11 5 12
REMARK SMILES IDX 4 13 3 14 2 15 1 16
REMARK H PARENT
REMARK Flexibility Score: inf
ROOT
ATOM      1  C   UNL     1       6.046 -12.565  -3.944  1.00  0.00     0.000 C 
ENDROOT
BRANCH   1   2
ATOM      2  C   UNL     1       5.072 -13.155  -4.982  1.00  0.00     0.000 C 
BRANCH   2   3
ATOM      3  C   UNL     1       3.664 -13.485  -4.453  1.00  0.00     0.000 C 
BRANCH   3   4
ATOM      4  C   UNL     1       3.163 -12.473  -3.408  1.00  0.00     0.000 C 
BRANCH   4   5
ATOM      5  C   UNL     1       2.643 -13.154  -2.131  1.00  0.00     0.006 C 
BRANCH   5   6
ATOM      6  C   UNL     1       3.733 -13.948  -1.398  1.00  0.00     0.053 C 
BRANCH   6   7
ATOM      7  C   UNL     1       3.116 -14.926  -0.449  1.00  0.00     0.041 C 
ATOM      8  O   UNL     1       3.018 -14.646   0.776  1.00  0.00    -0.550 OA
ATOM      9  O   UNL     1       2.603 -16.128  -0.923  1.00  0.00    -0.550 OA
ENDBRANCH   6   7
ENDBRANCH   5   6
ENDBRANCH   4   5
ENDBRANCH   3   4
ENDBRANCH   2   3
ENDBRANCH   1   2
BRANCH   1  10
ATOM     10  C   UNL     1       7.346 -13.376  -3.812  1.00  0.00     0.000 C 
BRANCH  10  11
ATOM     11  C   UNL     1       7.667 -13.762  -2.357  1.00  0.00    -0.000 C 
BRANCH  11  12
ATOM     12  C   UNL     1       7.291 -12.704  -1.299  1.00  0.00    -0.000 C 
BRANCH  12  13
ATOM     13  C   UNL     1       8.434 -12.295  -0.348  1.00  0.00    -0.000 C 
BRANCH  13  14
ATOM     14  C   UNL     1       8.415 -10.817   0.093  1.00  0.00    -0.000 C 
BRANCH  14  15
ATOM     15  C   UNL     1       7.036 -10.138   0.020  1.00  0.00    -0.003 C 
ATOM     16  C   UNL     1       7.125  -8.614  -0.033  1.00  0.00     0.004 C 
ENDBRANCH  14  15
ENDBRANCH  13  14
ENDBRANCH  12  13
ENDBRANCH  11  12
ENDBRANCH  10  11
ENDBRANCH   1  10
TORSDOF 12
ENDMDL
MODEL 4
REMARK VINA RESULT:    -4.963      1.548      2.146
REMARK INTER + INTRA:          -9.082
REMARK INTER:                  -7.502
REMARK INTRA:                  -1.579
REMARK UNBOUND:                -0.637
REMARK SMILES CCCCCCCCCCCCCC(=O)[O-]
REMARK SMILES IDX 8 1 9 2 10 3 11 4 12 5 13 6 14 7 15 8 16 9 7 10 6 11 5 12
REMARK SMILES IDX 4 13 3 14 2 15 1 16
REMARK H PARENT
REMARK Flexibility Score: inf
ROOT
ATOM      1  C   UNL     1       6.817 -13.005  -4.152  1.00  0.00     0.000 C 
ENDROOT
BRANCH   1   2
ATOM      2  C   UNL     1       5.307 -13.299  -4.085  1.00  0.00     0.000 C 
BRANCH   2   3
ATOM      3  C   UNL     1       4.495 -12.874  -5.324  1.00  0.00     0.000 C 
BRANCH   3   4
ATOM      4  C   UNL     1       5.068 -11.625  -6.016  1.00  0.00     0.000 C 
BRANCH   4   5
ATOM      5  C   UNL     1       3.968 -10.694  -6.553  1.00  0.00     0.006 C 
BRANCH   5   6
ATOM      6  C   UNL     1       4.449  -9.247  -6.723  1.00  0.00     0.053 C 
BRANCH   6   7
ATOM      7  C   UNL     1       4.146  -8.756  -8.103  1.00  0.00     0.041 C 
ATOM      8  O   UNL     1       3.030  -9.000  -8.633  1.00  0.00    -0.550 OA
ATOM      9  O   UNL     1       5.079  -7.986  -8.789  1.00  0.00    -0.550 OA
ENDBRANCH   6   7
ENDBRANCH   5   6
ENDBRANCH   4   5
ENDBRANCH   3   4
ENDBRANCH   2   3
ENDBRANCH   1   2
BRANCH   1  10
ATOM     10  C   UNL     1       7.610 -13.671  -3.015  1.00  0.00     0.000 C 
BRANCH  10  11
ATOM     11  C   UNL     1       7.071 -13.313  -1.619  1.00  0.00    -0.000 C 
BRANCH  11  12
ATOM     12  C   UNL     1       7.860 -12.219  -0.871  1.00  0.00    -0.000 C 
BRANCH  12  13
ATOM     13  C   UNL     1       7.296 -10.791  -1.014  1.00  0.00    -0.000 C 
BRANCH  13  14
ATOM     14  C   UNL     1       5.774 -10.713  -1.249  1.00  0.00    -0.000 C 
BRANCH  14  15
ATOM     15  C   UNL     1       5.356  -9.995  -2.544  1.00  0.00    -0.003 C 
ATOM     16  C   UNL     1       3.843  -9.978  -2.754  1.00  0.00     0.004 C 
ENDBRANCH  14  15
ENDBRANCH  13  14
ENDBRANCH  12  13
ENDBRANCH  11  12
ENDBRANCH  10  11
ENDBRANCH   1  10
TORSDOF 12
ENDMDL
MODEL 5
REMARK VINA RESULT:    -4.958      2.379      6.668
REMARK INTER + INTRA:          -9.074
REMARK INTER:                  -8.303
REMARK INTRA:                  -0.770
REMARK UNBOUND:                -0.637
REMARK SMILES CCCCCCCCCCCCCC(=O)[O-]
REMARK SMILES IDX 8 1 9 2 10 3 11 4 12 5 13 6 14 7 15 8 16 9 7 10 6 11 5 12
REMARK SMILES IDX 4 13 3 14 2 15 1 16
REMARK H PARENT
REMARK Flexibility Score: inf
ROOT
ATOM      1  C   UNL     1       7.202 -13.254  -3.898  1.00  0.00     0.000 C 
ENDROOT
BRANCH   1   2
ATOM      2  C   UNL     1       7.664 -13.829  -2.546  1.00  0.00     0.000 C 
BRANCH   2   3
ATOM      3  C   UNL     1       7.233 -13.025  -1.305  1.00  0.00     0.000 C 
BRANCH   3   4
ATOM      4  C   UNL     1       8.426 -12.499  -0.487  1.00  0.00     0.000 C 
BRANCH   4   5
ATOM      5  C   UNL     1       8.491 -10.964  -0.462  1.00  0.00     0.006 C 
BRANCH   5   6
ATOM      6  C   UNL     1       7.695 -10.318  -1.604  1.00  0.00     0.053 C 
BRANCH   6   7
ATOM      7  C   UNL     1       6.887  -9.169  -1.092  1.00  0.00     0.041 C 
ATOM      8  O   UNL     1       7.270  -8.525  -0.079  1.00  0.00    -0.550 OA
ATOM      9  O   UNL     1       5.734  -8.776  -1.761  1.00  0.00    -0.550 OA
ENDBRANCH   6   7
ENDBRANCH   5   6
ENDBRANCH   4   5
ENDBRANCH   3   4
ENDBRANCH   2   3
ENDBRANCH   1   2
BRANCH   1  10
ATOM     10  C   UNL     1       5.677 -13.074  -3.985  1.00  0.00     0.000 C 
BRANCH  10  11
ATOM     11  C   UNL     1       5.266 -11.701  -4.546  1.00  0.00    -0.000 C 
BRANCH  11  12
ATOM     12  C   UNL     1       5.070 -11.647  -6.075  1.00  0.00    -0.000 C 
BRANCH  12  13
ATOM     13  C   UNL     1       4.470 -10.333  -6.612  1.00  0.00    -0.000 C 
BRANCH  13  14
ATOM     14  C   UNL     1       2.931 -10.313  -6.710  1.00  0.00    -0.000 C 
BRANCH  14  15
ATOM     15  C   UNL     1       2.372  -9.587  -7.948  1.00  0.00    -0.003 C 
ATOM     16  C   UNL     1       3.465  -8.978  -8.824  1.00  0.00     0.004 C 
ENDBRANCH  14  15
ENDBRANCH  13  14
ENDBRANCH  12  13
ENDBRANCH  11  12
ENDBRANCH  10  11
ENDBRANCH   1  10
TORSDOF 12
ENDMDL
MODEL 6
REMARK VINA RESULT:    -4.940      3.942      4.977
REMARK INTER + INTRA:          -9.042
REMARK INTER:                  -7.476
REMARK INTRA:                  -1.566
REMARK UNBOUND:                -0.637
REMARK SMILES CCCCCCCCCCCCCC(=O)[O-]
REMARK SMILES IDX 8 1 9 2 10 3 11 4 12 5 13 6 14 7 15 8 16 9 7 10 6 11 5 12
REMARK SMILES IDX 4 13 3 14 2 15 1 16
REMARK H PARENT
REMARK Flexibility Score: inf
ROOT
ATOM      1  C   UNL     1       7.290 -12.323  -2.756  1.00  0.00     0.000 C 
ENDROOT
BRANCH   1   2
ATOM      2  C   UNL     1       7.176 -13.179  -4.031  1.00  0.00     0.000 C 
BRANCH   2   3
ATOM      3  C   UNL     1       5.768 -13.257  -4.651  1.00  0.00     0.000 C 
BRANCH   3   4
ATOM      4  C   UNL     1       4.908 -12.018  -4.346  1.00  0.00     0.000 C 
BRANCH   4   5
ATOM      5  C   UNL     1       3.671 -12.355  -3.498  1.00  0.00     0.006 C 
BRANCH   5   6
ATOM      6  C   UNL     1       3.581 -13.847  -3.149  1.00  0.00     0.053 C 
BRANCH   6   7
ATOM      7  C   UNL     1       3.385 -14.027  -1.677  1.00  0.00     0.041 C 
ATOM      8  O   UNL     1       3.518 -15.165  -1.153  1.00  0.00    -0.550 OA
ATOM      9  O   UNL     1       3.102 -12.929  -0.873  1.00  0.00    -0.550 OA
ENDBRANCH   6   7
ENDBRANCH   5   6
ENDBRANCH   4   5
ENDBRANCH   3   4
ENDBRANCH   2   3
ENDBRANCH   1   2
BRANCH   1  10
ATOM     10  C   UNL     1       7.369 -13.166  -1.472  1.00  0.00     0.000 C 
BRANCH  10  11
ATOM     11  C   UNL     1       8.494 -12.712  -0.525  1.00  0.00    -0.000 C 
BRANCH  11  12
ATOM     12  C   UNL     1       8.767 -11.194  -0.509  1.00  0.00    -0.000 C 
BRANCH  12  13
ATOM     13  C   UNL     1       7.823 -10.368   0.387  1.00  0.00    -0.000 C 
BRANCH  13  14
ATOM     14  C   UNL     1       7.348  -9.034  -0.224  1.00  0.00    -0.000 C 
BRANCH  14  15
ATOM     15  C   UNL     1       6.158  -9.154  -1.193  1.00  0.00    -0.003 C 
ATOM     16  C   UNL     1       5.112 -10.167  -0.729  1.00  0.00     0.004 C 
ENDBRANCH  14  15
ENDBRANCH  13  14
ENDBRANCH  12  13
ENDBRANCH  11  12
ENDBRANCH  10  11
ENDBRANCH   1  10
TORSDOF 12
ENDMDL
MODEL 7
REMARK VINA RESULT:    -4.928      4.295      5.995
REMARK INTER + INTRA:          -9.022
REMARK INTER:                  -7.229
REMARK INTRA:                  -1.793
REMARK UNBOUND:                -0.637
REMARK SMILES CCCCCCCCCCCCCC(=O)[O-]
REMARK SMILES IDX 8 1 9 2 10 3 11 4 12 5 13 6 14 7 15 8 16 9 7 10 6 11 5 12
REMARK SMILES IDX 4 13 3 14 2 15 1 16
REMARK H PARENT
REMARK Flexibility Score: inf
ROOT
ATOM      1  C   UNL     1       4.629 -11.047  -3.933  1.00  0.00     0.000 C 
ENDROOT
BRANCH   1   2
ATOM      2  C   UNL     1       3.694 -11.746  -2.927  1.00  0.00     0.000 C 
BRANCH   2   3
ATOM      3  C   UNL     1       4.067 -11.566  -1.444  1.00  0.00     0.000 C 
BRANCH   3   4
ATOM      4  C   UNL     1       3.850 -12.842  -0.612  1.00  0.00     0.000 C 
BRANCH   4   5
ATOM      5  C   UNL     1       4.053 -14.124  -1.436  1.00  0.00     0.006 C 
BRANCH   5   6
ATOM      6  C   UNL     1       3.100 -15.253  -1.020  1.00  0.00     0.053 C 
BRANCH   6   7
ATOM      7  C   UNL     1       2.223 -15.644  -2.166  1.00  0.00     0.041 C 
ATOM      8  O   UNL     1       1.158 -16.284  -1.961  1.00  0.00    -0.550 OA
ATOM      9  O   UNL     1       2.554 -15.258  -3.460  1.00  0.00    -0.550 OA
ENDBRANCH   6   7
ENDBRANCH   5   6
ENDBRANCH   4   5
ENDBRANCH   3   4
ENDBRANCH   2   3
ENDBRANCH   1   2
BRANCH   1  10
ATOM     10  C   UNL     1       5.121 -11.985  -5.048  1.00  0.00     0.000 C 
BRANCH  10  11
ATOM     11  C   UNL     1       5.939 -13.174  -4.515  1.00  0.00    -0.000 C 
BRANCH  11  12
ATOM     12  C   UNL     1       7.249 -12.798  -3.792  1.00  0.00    -0.000 C 
BRANCH  12  13
ATOM     13  C   UNL     1       7.599 -13.677  -2.574  1.00  0.00    -0.000 C 
BRANCH  13  14
ATOM     14  C   UNL     1       7.528 -12.958  -1.211  1.00  0.00    -0.000 C 
BRANCH  14  15
ATOM     15  C   UNL     1       7.872 -11.458  -1.253  1.00  0.00    -0.003 C 
ATOM     16  C   UNL     1       8.809 -11.031  -0.125  1.00  0.00     0.004 C 
ENDBRANCH  14  15
ENDBRANCH  13  14
ENDBRANCH  12  13
ENDBRANCH  11  12
ENDBRANCH  10  11
ENDBRANCH   1  10
TORSDOF 12
ENDMDL
MODEL 8
REMARK VINA RESULT:    -4.927      2.041      2.694
REMARK INTER + INTRA:          -9.020
REMARK INTER:                  -8.317
REMARK INTRA:                  -0.703
REMARK UNBOUND:                -0.637
REMARK SMILES CCCCCCCCCCCCCC(=O)[O-]
REMARK SMILES IDX 8 1 9 2 10 3 11 4 12 5 13 6 14 7 15 8 16 9 7 10 6 11 5 12
REMARK SMILES IDX 4 13 3 14 2 15 1 16
REMARK H PARENT
REMARK Flexibility Score: inf
ROOT
ATOM      1  C   UNL     1       4.228 -12.455  -5.155  1.00  0.00     0.000 C 
ENDROOT
BRANCH   1   2
ATOM      2  C   UNL     1       5.015 -11.189  -5.545  1.00  0.00     0.000 C 
BRANCH   2   3
ATOM      3  C   UNL     1       4.600 -10.538  -6.878  1.00  0.00     0.000 C 
BRANCH   3   4
ATOM      4  C   UNL     1       4.488  -9.006  -6.788  1.00  0.00     0.000 C 
BRANCH   4   5
ATOM      5  C   UNL     1       3.745  -8.399  -7.989  1.00  0.00     0.006 C 
BRANCH   5   6
ATOM      6  C   UNL     1       2.493  -9.197  -8.375  1.00  0.00     0.053 C 
BRANCH   6   7
ATOM      7  C   UNL     1       1.260  -8.499  -7.893  1.00  0.00     0.041 C 
ATOM      8  O   UNL     1       0.359  -8.167  -8.709  1.00  0.00    -0.550 OA
ATOM      9  O   UNL     1       1.082  -8.258  -6.536  1.00  0.00    -0.550 OA
ENDBRANCH   6   7
ENDBRANCH   5   6
ENDBRANCH   4   5
ENDBRANCH   3   4
ENDBRANCH   2   3
ENDBRANCH   1   2
BRANCH   1  10
ATOM     10  C   UNL     1       4.980 -13.343  -4.149  1.00  0.00     0.000 C 
BRANCH  10  11
ATOM     11  C   UNL     1       6.509 -13.213  -4.261  1.00  0.00    -0.000 C 
BRANCH  11  12
ATOM     12  C   UNL     1       7.272 -13.268  -2.922  1.00  0.00    -0.000 C 
BRANCH  12  13
ATOM     13  C   UNL     1       6.821 -12.236  -1.869  1.00  0.00    -0.000 C 
BRANCH  13  14
ATOM     14  C   UNL     1       7.598 -10.904  -1.888  1.00  0.00    -0.000 C 
BRANCH  14  15
ATOM     15  C   UNL     1       7.963 -10.349  -0.499  1.00  0.00    -0.003 C 
ATOM     16  C   UNL     1       9.111 -11.109   0.162  1.00  0.00     0.004 C 
ENDBRANCH  14  15
ENDBRANCH  13  14
ENDBRANCH  12  13
ENDBRANCH  11  12
ENDBRANCH  10  11
ENDBRANCH   1  10
TORSDOF 12
ENDMDL
MODEL 9
REMARK VINA RESULT:    -4.879      3.405      6.140
REMARK INTER + INTRA:          -8.939
REMARK INTER:                  -7.620
REMARK INTRA:                  -1.318
REMARK UNBOUND:                -0.637
REMARK SMILES CCCCCCCCCCCCCC(=O)[O-]
REMARK SMILES IDX 8 1 9 2 10 3 11 4 12 5 13 6 14 7 15 8 16 9 7 10 6 11 5 12
REMARK SMILES IDX 4 13 3 14 2 15 1 16
REMARK H PARENT
REMARK Flexibility Score: inf
ROOT
ATOM      1  C   UNL     1       7.358 -13.438  -3.562  1.00  0.00     0.000 C 
ENDROOT
BRANCH   1   2
ATOM      2  C   UNL     1       7.623 -13.738  -2.075  1.00  0.00     0.000 C 
BRANCH   2   3
ATOM      3  C   UNL     1       7.233 -12.615  -1.095  1.00  0.00     0.000 C 
BRANCH   3   4
ATOM      4  C   UNL     1       8.453 -11.914  -0.471  1.00  0.00     0.000 C 
BRANCH   4   5
ATOM      5  C   UNL     1       8.171 -10.444  -0.120  1.00  0.00     0.006 C 
BRANCH   5   6
ATOM      6  C   UNL     1       7.326  -9.733  -1.186  1.00  0.00     0.053 C 
BRANCH   6   7
ATOM      7  C   UNL     1       6.535  -8.623  -0.569  1.00  0.00     0.041 C 
ATOM      8  O   UNL     1       5.284  -8.579  -0.715  1.00  0.00    -0.550 OA
ATOM      9  O   UNL     1       7.171  -7.663   0.209  1.00  0.00    -0.550 OA
ENDBRANCH   6   7
ENDBRANCH   5   6
ENDBRANCH   4   5
ENDBRANCH   3   4
ENDBRANCH   2   3
ENDBRANCH   1   2
BRANCH   1  10
ATOM     10  C   UNL     1       6.119 -12.554  -3.786  1.00  0.00     0.000 C 
BRANCH  10  11
ATOM     11  C   UNL     1       5.284 -12.990  -5.002  1.00  0.00    -0.000 C 
BRANCH  11  12
ATOM     12  C   UNL     1       3.761 -12.787  -4.860  1.00  0.00    -0.000 C 
BRANCH  12  13
ATOM     13  C   UNL     1       2.945 -14.080  -4.661  1.00  0.00    -0.000 C 
BRANCH  13  14
ATOM     14  C   UNL     1       2.419 -14.304  -3.229  1.00  0.00    -0.000 C 
BRANCH  14  15
ATOM     15  C   UNL     1       3.484 -14.757  -2.213  1.00  0.00    -0.003 C 
ATOM     16  C   UNL     1       3.757 -13.712  -1.132  1.00  0.00     0.004 C 
ENDBRANCH  14  15
ENDBRANCH  13  14
ENDBRANCH  12  13
ENDBRANCH  11  12
ENDBRANCH  10  11
ENDBRANCH   1  10
TORSDOF 12
ENDMDL
