MODEL 1
REMARK VINA RESULT:    -4.939      0.000      0.000
REMARK INTER + INTRA:          -5.558
REMARK INTER:                  -5.517
REMARK INTRA:                  -0.041
REMARK UNBOUND:                -0.041
REMARK SMILES O=C([O-])c1ccc(O)c(O)c1
REMARK SMILES IDX 4 1 11 2 5 3 9 4 6 5 7 6 2 7 1 8 3 9 10 10 8 12
REMARK H PARENT 10 11 8 13
REMARK Flexibility Score: inf
ROOT
ATOM      1  C   UNL     1       4.891  -9.888 -45.873  1.00  0.00     0.001 A 
ATOM      2  C   UNL     1       5.229  -8.548 -46.136  1.00  0.00     0.060 A 
ATOM      3  C   UNL     1       5.795 -10.691 -45.157  1.00  0.00     0.014 A 
ATOM      4  C   UNL     1       6.446  -8.018 -45.694  1.00  0.00     0.158 A 
ATOM      5  C   UNL     1       7.013 -10.164 -44.715  1.00  0.00     0.051 A 
ATOM      6  C   UNL     1       7.344  -8.829 -44.980  1.00  0.00     0.157 A 
ENDROOT
BRANCH   1   7
ATOM      7  C   UNL     1       3.603 -10.447 -46.339  1.00  0.00     0.072 C 
ATOM      8  O   UNL     1       3.538 -11.625 -46.779  1.00  0.00    -0.545 OA
ATOM      9  O   UNL     1       2.445  -9.680 -46.297  1.00  0.00    -0.545 OA
ENDBRANCH   1   7
BRANCH   4  10
ATOM     10  O   UNL     1       6.747  -6.685 -45.974  1.00  0.00    -0.504 OA
ATOM     11  H   UNL     1       6.398  -6.216 -46.801  1.00  0.00     0.293 HD
ENDBRANCH   4  10
BRANCH   6  12
ATOM     12  O   UNL     1       8.558  -8.307 -44.537  1.00  0.00    -0.504 OA
ATOM     13  H   UNL     1       9.343  -8.908 -44.311  1.00  0.00     0.293 HD
ENDBRANCH   6  12
TORSDOF 3
ENDMDL
MODEL 2
REMARK VINA RESULT:    -4.927      1.980      4.897
REMARK INTER + INTRA:          -5.543
REMARK INTER:                  -5.505
REMARK INTRA:                  -0.039
REMARK UNBOUND:                -0.041
REMARK SMILES O=C([O-])c1ccc(O)c(O)c1
REMARK SMILES IDX 4 1 11 2 5 3 9 4 6 5 7 6 2 7 1 8 3 9 10 10 8 12
REMARK H PARENT 10 11 8 13
REMARK Flexibility Score: inf
ROOT
ATOM      1  C   UNL     1       4.333  -9.342 -46.012  1.00  0.00     0.001 A 
ATOM      2  C   UNL     1       3.992 -10.691 -45.808  1.00  0.00     0.060 A 
ATOM      3  C   UNL     1       3.388  -8.346 -45.713  1.00  0.00     0.014 A 
ATOM      4  C   UNL     1       2.729 -11.042 -45.315  1.00  0.00     0.158 A 
ATOM      5  C   UNL     1       2.126  -8.694 -45.221  1.00  0.00     0.051 A 
ATOM      6  C   UNL     1       1.791 -10.039 -45.019  1.00  0.00     0.157 A 
ENDROOT
BRANCH   1   7
ATOM      7  C   UNL     1       5.668  -8.971 -46.532  1.00  0.00     0.072 C 
ATOM      8  O   UNL     1       5.778  -8.214 -47.533  1.00  0.00    -0.545 OA
ATOM      9  O   UNL     1       6.820  -9.453 -45.922  1.00  0.00    -0.545 OA
ENDBRANCH   1   7
BRANCH   4  10
ATOM     10  O   UNL     1       2.426 -12.389 -45.125  1.00  0.00    -0.504 OA
ATOM     11  H   UNL     1       1.526 -12.695 -44.774  1.00  0.00     0.293 HD
ENDBRANCH   4  10
BRANCH   6  12
ATOM     12  O   UNL     1       0.532 -10.381 -44.528  1.00  0.00    -0.504 OA
ATOM     13  H   UNL     1      -0.098  -9.683 -44.150  1.00  0.00     0.293 HD
ENDBRANCH   6  12
TORSDOF 3
ENDMDL
MODEL 3
REMARK VINA RESULT:    -4.716      7.961      9.027
REMARK INTER + INTRA:          -5.309
REMARK INTER:                  -5.268
REMARK INTRA:                  -0.040
REMARK UNBOUND:                -0.041
REMARK SMILES O=C([O-])c1ccc(O)c(O)c1
REMARK SMILES IDX 4 1 11 2 5 3 9 4 6 5 7 6 2 7 1 8 3 9 10 10 8 12
REMARK H PARENT 10 11 8 13
REMARK Flexibility Score: inf
ROOT
ATOM      1  C   UNL     1      -0.569 -12.218 -40.335  1.00  0.00     0.001 A 
ATOM      2  C   UNL     1       0.834 -12.127 -40.290  1.00  0.00     0.060 A 
ATOM      3  C   UNL     1      -1.208 -13.246 -39.622  1.00  0.00     0.014 A 
ATOM      4  C   UNL     1       1.586 -13.046 -39.548  1.00  0.00     0.158 A 
ATOM      5  C   UNL     1      -0.459 -14.165 -38.881  1.00  0.00     0.051 A 
ATOM      6  C   UNL     1       0.937 -14.070 -38.839  1.00  0.00     0.157 A 
ENDROOT
BRANCH   1   7
ATOM      7  C   UNL     1      -1.364 -11.247 -41.118  1.00  0.00     0.072 C 
ATOM      8  O   UNL     1      -2.331 -11.633 -41.826  1.00  0.00    -0.545 OA
ATOM      9  O   UNL     1      -1.054  -9.892 -41.083  1.00  0.00    -0.545 OA
ENDBRANCH   1   7
BRANCH   4  10
ATOM     10  O   UNL     1       2.975 -12.924 -39.527  1.00  0.00    -0.504 OA
ATOM     11  H   UNL     1       3.447 -12.221 -38.971  1.00  0.00     0.293 HD
ENDBRANCH   4  10
BRANCH   6  12
ATOM     12  O   UNL     1       1.681 -14.988 -38.099  1.00  0.00    -0.504 OA
ATOM     13  H   UNL     1       1.907 -14.824 -37.125  1.00  0.00     0.293 HD
ENDBRANCH   6  12
TORSDOF 3
ENDMDL
MODEL 4
REMARK VINA RESULT:    -4.696      6.870      8.318
REMARK INTER + INTRA:          -5.286
REMARK INTER:                  -5.249
REMARK INTRA:                  -0.036
REMARK UNBOUND:                -0.041
REMARK SMILES O=C([O-])c1ccc(O)c(O)c1
REMARK SMILES IDX 4 1 11 2 5 3 9 4 6 5 7 6 2 7 1 8 3 9 10 10 8 12
REMARK H PARENT 10 11 8 13
REMARK Flexibility Score: inf
ROOT
ATOM      1  C   UNL     1       9.921  -5.588 -40.941  1.00  0.00     0.001 A 
ATOM      2  C   UNL     1       8.586  -5.997 -40.769  1.00  0.00     0.060 A 
ATOM      3  C   UNL     1      10.248  -4.235 -40.751  1.00  0.00     0.014 A 
ATOM      4  C   UNL     1       7.596  -5.075 -40.413  1.00  0.00     0.158 A 
ATOM      5  C   UNL     1       9.261  -3.311 -40.396  1.00  0.00     0.051 A 
ATOM      6  C   UNL     1       7.934  -3.724 -40.225  1.00  0.00     0.157 A 
ENDROOT
BRANCH   1   7
ATOM      7  C   UNL     1      10.968  -6.564 -41.316  1.00  0.00     0.072 C 
ATOM      8  O   UNL     1      11.801  -6.969 -40.463  1.00  0.00    -0.545 OA
ATOM      9  O   UNL     1      11.046  -7.049 -42.616  1.00  0.00    -0.545 OA
ENDBRANCH   1   7
BRANCH   4  10
ATOM     10  O   UNL     1       6.283  -5.517 -40.251  1.00  0.00    -0.504 OA
ATOM     11  H   UNL     1       5.815  -6.083 -40.949  1.00  0.00     0.293 HD
ENDBRANCH   4  10
BRANCH   6  12
ATOM     12  O   UNL     1       6.952  -2.800 -39.872  1.00  0.00    -0.504 OA
ATOM     13  H   UNL     1       7.002  -1.833 -40.169  1.00  0.00     0.293 HD
ENDBRANCH   6  12
TORSDOF 3
ENDMDL
MODEL 5
REMARK VINA RESULT:    -4.666      1.056      2.167
REMARK INTER + INTRA:          -5.252
REMARK INTER:                  -5.210
REMARK INTRA:                  -0.042
REMARK UNBOUND:                -0.041
REMARK SMILES O=C([O-])c1ccc(O)c(O)c1
REMARK SMILES IDX 4 1 11 2 5 3 9 4 6 5 7 6 2 7 1 8 3 9 10 10 8 12
REMARK H PARENT 10 11 8 13
REMARK Flexibility Score: inf
ROOT
ATOM      1  C   UNL     1       4.797 -10.180 -45.956  1.00  0.00     0.001 A 
ATOM      2  C   UNL     1       5.612 -10.702 -44.936  1.00  0.00     0.060 A 
ATOM      3  C   UNL     1       5.162  -8.968 -46.566  1.00  0.00     0.014 A 
ATOM      4  C   UNL     1       6.771 -10.029 -44.531  1.00  0.00     0.158 A 
ATOM      5  C   UNL     1       6.318  -8.293 -46.164  1.00  0.00     0.051 A 
ATOM      6  C   UNL     1       7.127  -8.818 -45.148  1.00  0.00     0.157 A 
ENDROOT
BRANCH   1   7
ATOM      7  C   UNL     1       3.573 -10.892 -46.384  1.00  0.00     0.072 C 
ATOM      8  O   UNL     1       3.177 -10.826 -47.578  1.00  0.00    -0.545 OA
ATOM      9  O   UNL     1       2.843 -11.647 -45.474  1.00  0.00    -0.545 OA
ENDBRANCH   1   7
BRANCH   4  10
ATOM     10  O   UNL     1       7.554 -10.577 -43.517  1.00  0.00    -0.504 OA
ATOM     11  H   UNL     1       7.869 -10.031 -42.724  1.00  0.00     0.293 HD
ENDBRANCH   4  10
BRANCH   6  12
ATOM     12  O   UNL     1       8.279  -8.142 -44.750  1.00  0.00    -0.504 OA
ATOM     13  H   UNL     1       8.237  -7.211 -44.352  1.00  0.00     0.293 HD
ENDBRANCH   6  12
TORSDOF 3
ENDMDL
MODEL 6
REMARK VINA RESULT:    -4.648      8.012      9.264
REMARK INTER + INTRA:          -5.232
REMARK INTER:                  -5.188
REMARK INTRA:                  -0.044
REMARK UNBOUND:                -0.041
REMARK SMILES O=C([O-])c1ccc(O)c(O)c1
REMARK SMILES IDX 4 1 11 2 5 3 9 4 6 5 7 6 2 7 1 8 3 9 10 10 8 12
REMARK H PARENT 10 11 8 13
REMARK Flexibility Score: inf
ROOT
ATOM      1  C   UNL     1      -0.263 -11.986 -40.362  1.00  0.00     0.001 A 
ATOM      2  C   UNL     1      -0.826 -13.237 -40.053  1.00  0.00     0.060 A 
ATOM      3  C   UNL     1       1.056 -11.715 -39.959  1.00  0.00     0.014 A 
ATOM      4  C   UNL     1      -0.089 -14.201 -39.354  1.00  0.00     0.158 A 
ATOM      5  C   UNL     1       1.795 -12.675 -39.261  1.00  0.00     0.051 A 
ATOM      6  C   UNL     1       1.229 -13.919 -38.956  1.00  0.00     0.157 A 
ENDROOT
BRANCH   1   7
ATOM      7  C   UNL     1      -1.041 -10.969 -41.100  1.00  0.00     0.072 C 
ATOM      8  O   UNL     1      -0.692  -9.759 -41.087  1.00  0.00    -0.545 OA
ATOM      9  O   UNL     1      -2.172 -11.334 -41.822  1.00  0.00    -0.545 OA
ENDBRANCH   1   7
BRANCH   4  10
ATOM     10  O   UNL     1      -0.681 -15.430 -39.065  1.00  0.00    -0.504 OA
ATOM     11  H   UNL     1      -1.657 -15.510 -38.805  1.00  0.00     0.293 HD
ENDBRANCH   4  10
BRANCH   6  12
ATOM     12  O   UNL     1       1.968 -14.874 -38.260  1.00  0.00    -0.504 OA
ATOM     13  H   UNL     1       1.571 -15.772 -38.009  1.00  0.00     0.293 HD
ENDBRANCH   6  12
TORSDOF 3
ENDMDL
MODEL 7
REMARK VINA RESULT:    -4.629      2.111      4.404
REMARK INTER + INTRA:          -5.211
REMARK INTER:                  -5.170
REMARK INTRA:                  -0.041
REMARK UNBOUND:                -0.041
REMARK SMILES O=C([O-])c1ccc(O)c(O)c1
REMARK SMILES IDX 4 1 11 2 5 3 9 4 6 5 7 6 2 7 1 8 3 9 10 10 8 12
REMARK H PARENT 10 11 8 13
REMARK Flexibility Score: inf
ROOT
ATOM      1  C   UNL     1       4.482  -9.010 -46.119  1.00  0.00     0.001 A 
ATOM      2  C   UNL     1       3.606  -8.272 -45.303  1.00  0.00     0.060 A 
ATOM      3  C   UNL     1       4.194 -10.360 -46.382  1.00  0.00     0.014 A 
ATOM      4  C   UNL     1       2.464  -8.868 -44.757  1.00  0.00     0.158 A 
ATOM      5  C   UNL     1       3.053 -10.959 -45.838  1.00  0.00     0.051 A 
ATOM      6  C   UNL     1       2.185 -10.219 -45.025  1.00  0.00     0.157 A 
ENDROOT
BRANCH   1   7
ATOM      7  C   UNL     1       5.688  -8.378 -46.697  1.00  0.00     0.072 C 
ATOM      8  O   UNL     1       6.044  -8.636 -47.877  1.00  0.00    -0.545 OA
ATOM      9  O   UNL     1       6.447  -7.489 -45.944  1.00  0.00    -0.545 OA
ENDBRANCH   1   7
BRANCH   4  10
ATOM     10  O   UNL     1       1.619  -8.105 -43.952  1.00  0.00    -0.504 OA
ATOM     11  H   UNL     1       0.613  -8.227 -43.958  1.00  0.00     0.293 HD
ENDBRANCH   4  10
BRANCH   6  12
ATOM     12  O   UNL     1       1.049 -10.819 -44.485  1.00  0.00    -0.504 OA
ATOM     13  H   UNL     1       0.762 -11.752 -44.756  1.00  0.00     0.293 HD
ENDBRANCH   6  12
TORSDOF 3
ENDMDL
MODEL 8
REMARK VINA RESULT:    -4.595      8.078      9.585
REMARK INTER + INTRA:          -5.173
REMARK INTER:                  -5.129
REMARK INTRA:                  -0.044
REMARK UNBOUND:                -0.041
REMARK SMILES O=C([O-])c1ccc(O)c(O)c1
REMARK SMILES IDX 4 1 11 2 5 3 9 4 6 5 7 6 2 7 1 8 3 9 10 10 8 12
REMARK H PARENT 10 11 8 13
REMARK Flexibility Score: inf
ROOT
ATOM      1  C   UNL     1       0.609 -11.564 -39.517  1.00  0.00     0.001 A 
ATOM      2  C   UNL     1       1.417 -12.541 -38.908  1.00  0.00     0.060 A 
ATOM      3  C   UNL     1      -0.617 -11.951 -40.084  1.00  0.00     0.014 A 
ATOM      4  C   UNL     1       1.011 -13.880 -38.865  1.00  0.00     0.158 A 
ATOM      5  C   UNL     1      -1.025 -13.288 -40.043  1.00  0.00     0.051 A 
ATOM      6  C   UNL     1      -0.217 -14.256 -39.435  1.00  0.00     0.157 A 
ENDROOT
BRANCH   1   7
ATOM      7  C   UNL     1       1.038 -10.149 -39.561  1.00  0.00     0.072 C 
ATOM      8  O   UNL     1       2.221  -9.829 -39.272  1.00  0.00    -0.545 OA
ATOM      9  O   UNL     1       0.141  -9.152 -39.923  1.00  0.00    -0.545 OA
ENDBRANCH   1   7
BRANCH   4  10
ATOM     10  O   UNL     1       1.839 -14.820 -38.253  1.00  0.00    -0.504 OA
ATOM     11  H   UNL     1       2.741 -14.573 -37.865  1.00  0.00     0.293 HD
ENDBRANCH   4  10
BRANCH   6  12
ATOM     12  O   UNL     1      -0.627 -15.588 -39.396  1.00  0.00    -0.504 OA
ATOM     13  H   UNL     1      -1.255 -15.970 -40.093  1.00  0.00     0.293 HD
ENDBRANCH   6  12
TORSDOF 3
ENDMDL
MODEL 9
REMARK VINA RESULT:    -4.570      7.326      9.139
REMARK INTER + INTRA:          -5.145
REMARK INTER:                  -5.109
REMARK INTRA:                  -0.037
REMARK UNBOUND:                -0.041
REMARK SMILES O=C([O-])c1ccc(O)c(O)c1
REMARK SMILES IDX 4 1 11 2 5 3 9 4 6 5 7 6 2 7 1 8 3 9 10 10 8 12
REMARK H PARENT 10 11 8 13
REMARK Flexibility Score: inf
ROOT
ATOM      1  C   UNL     1      10.508  -5.692 -40.591  1.00  0.00     0.001 A 
ATOM      2  C   UNL     1      10.454  -5.844 -39.194  1.00  0.00     0.060 A 
ATOM      3  C   UNL     1      10.034  -4.501 -41.166  1.00  0.00     0.014 A 
ATOM      4  C   UNL     1       9.936  -4.827 -38.384  1.00  0.00     0.158 A 
ATOM      5  C   UNL     1       9.516  -3.483 -40.360  1.00  0.00     0.051 A 
ATOM      6  C   UNL     1       9.464  -3.639 -38.969  1.00  0.00     0.157 A 
ENDROOT
BRANCH   1   7
ATOM      7  C   UNL     1      11.056  -6.768 -41.447  1.00  0.00     0.072 C 
ATOM      8  O   UNL     1      10.307  -7.405 -42.234  1.00  0.00    -0.545 OA
ATOM      9  O   UNL     1      12.407  -7.090 -41.394  1.00  0.00    -0.545 OA
ENDBRANCH   1   7
BRANCH   4  10
ATOM     10  O   UNL     1       9.898  -5.012 -37.003  1.00  0.00    -0.504 OA
ATOM     11  H   UNL     1      10.698  -4.823 -36.411  1.00  0.00     0.293 HD
ENDBRANCH   4  10
BRANCH   6  12
ATOM     12  O   UNL     1       8.947  -2.622 -38.168  1.00  0.00    -0.504 OA
ATOM     13  H   UNL     1       9.501  -2.189 -37.439  1.00  0.00     0.293 HD
ENDBRANCH   6  12
TORSDOF 3
ENDMDL
