MODEL 1
REMARK VINA RESULT:    -1.089      0.000      0.000
REMARK INTER + INTRA:          -4.163
REMARK INTER:                  -2.872
REMARK INTRA:                  -1.292
REMARK UNBOUND:                -1.292
REMARK SMILES CCCCCCCCCCCCCCCCCCCCCCCCCCCCCC(=O)[O-]
REMARK SMILES IDX 16 1 17 2 18 3 19 4 20 5 21 6 22 7 23 8 24 9 25 10 26 11
REMARK SMILES IDX 27 12 28 13 29 14 30 15 31 16 32 17 15 18 14 19 13 20 12 21
REMARK SMILES IDX 11 22 10 23 9 24 8 25 7 26 6 27 5 28 4 29 3 30 2 31 1 32
REMARK H PARENT
REMARK Flexibility Score: inf
ROOT
ATOM      1  C   UNL     1      61.492  25.934  22.516  1.00  0.00     0.000 C 
ENDROOT
BRANCH   1   2
ATOM      2  C   UNL     1      63.017  26.120  22.570  1.00  0.00     0.000 C 
BRANCH   2   3
ATOM      3  C   UNL     1      63.492  26.773  23.882  1.00  0.00     0.000 C 
BRANCH   3   4
ATOM      4  C   UNL     1      62.982  26.091  25.165  1.00  0.00     0.000 C 
BRANCH   4   5
ATOM      5  C   UNL     1      64.121  25.519  26.027  1.00  0.00     0.000 C 
BRANCH   5   6
ATOM      6  C   UNL     1      64.125  23.979  26.074  1.00  0.00     0.000 C 
BRANCH   6   7
ATOM      7  C   UNL     1      62.736  23.315  26.047  1.00  0.00     0.000 C 
BRANCH   7   8
ATOM      8  C   UNL     1      62.753  21.913  25.414  1.00  0.00     0.000 C 
BRANCH   8   9
ATOM      9  C   UNL     1      64.022  21.658  24.583  1.00  0.00     0.000 C 
BRANCH   9  10
ATOM     10  C   UNL     1      63.735  20.876  23.293  1.00  0.00     0.000 C 
BRANCH  10  11
ATOM     11  C   UNL     1      62.485  21.417  22.587  1.00  0.00     0.000 C 
BRANCH  11  12
ATOM     12  C   UNL     1      62.726  22.836  22.050  1.00  0.00     0.000 C 
BRANCH  12  13
ATOM     13  C   UNL     1      63.835  22.899  20.985  1.00  0.00     0.006 C 
BRANCH  13  14
ATOM     14  C   UNL     1      63.335  23.287  19.582  1.00  0.00     0.053 C 
BRANCH  14  15
ATOM     15  C   UNL     1      62.822  22.109  18.808  1.00  0.00     0.041 C 
ATOM     16  O   UNL     1      63.539  21.083  18.668  1.00  0.00    -0.550 OA
ATOM     17  O   UNL     1      61.569  22.158  18.210  1.00  0.00    -0.550 OA
ENDBRANCH  14  15
ENDBRANCH  13  14
ENDBRANCH  12  13
ENDBRANCH  11  12
ENDBRANCH  10  11
ENDBRANCH   9  10
ENDBRANCH   8   9
ENDBRANCH   7   8
ENDBRANCH   6   7
ENDBRANCH   5   6
ENDBRANCH   4   5
ENDBRANCH   3   4
ENDBRANCH   2   3
ENDBRANCH   1   2
BRANCH   1  18
ATOM     18  C   UNL     1      61.044  24.552  23.020  1.00  0.00     0.000 C 
BRANCH  18  19
ATOM     19  C   UNL     1      59.659  24.590  23.694  1.00  0.00     0.000 C 
BRANCH  19  20
ATOM     20  C   UNL     1      59.740  24.913  25.194  1.00  0.00     0.000 C 
BRANCH  20  21
ATOM     21  C   UNL     1      58.658  24.192  26.017  1.00  0.00     0.000 C 
BRANCH  21  22
ATOM     22  C   UNL     1      58.461  22.730  25.587  1.00  0.00     0.000 C 
BRANCH  22  23
ATOM     23  C   UNL     1      59.777  22.051  25.174  1.00  0.00     0.000 C 
BRANCH  23  24
ATOM     24  C   UNL     1      59.514  20.885  24.214  1.00  0.00    -0.000 C 
BRANCH  24  25
ATOM     25  C   UNL     1      59.607  21.341  22.750  1.00  0.00    -0.000 C 
BRANCH  25  26
ATOM     26  C   UNL     1      58.343  20.982  21.940  1.00  0.00    -0.000 C 
BRANCH  26  27
ATOM     27  C   UNL     1      57.031  21.086  22.741  1.00  0.00    -0.000 C 
BRANCH  27  28
ATOM     28  C   UNL     1      56.388  22.482  22.775  1.00  0.00    -0.000 C 
BRANCH  28  29
ATOM     29  C   UNL     1      54.922  22.459  23.238  1.00  0.00    -0.000 C 
BRANCH  29  30
ATOM     30  C   UNL     1      54.452  21.057  23.659  1.00  0.00    -0.000 C 
BRANCH  30  31
ATOM     31  C   UNL     1      52.920  20.875  23.608  1.00  0.00    -0.003 C 
ATOM     32  C   UNL     1      52.221  21.482  24.826  1.00  0.00     0.004 C 
ENDBRANCH  30  31
ENDBRANCH  29  30
ENDBRANCH  28  29
ENDBRANCH  27  28
ENDBRANCH  26  27
ENDBRANCH  25  26
ENDBRANCH  24  25
ENDBRANCH  23  24
ENDBRANCH  22  23
ENDBRANCH  21  22
ENDBRANCH  20  21
ENDBRANCH  19  20
ENDBRANCH  18  19
ENDBRANCH   1  18
TORSDOF 28
ENDMDL
