MODEL 1
REMARK VINA RESULT:    -5.193      0.000      0.000
REMARK INTER + INTRA:          -5.866
REMARK INTER:                  -5.648
REMARK INTRA:                  -0.218
REMARK UNBOUND:                -0.218
REMARK SMILES O=C([O-])c1ccccc1O
REMARK SMILES IDX 4 1 9 2 5 3 8 4 6 5 7 6 2 7 1 8 3 9 10 10
REMARK H PARENT 10 11
REMARK Flexibility Score: inf
ROOT
ATOM      1  C   UNL     1     102.207 106.484 232.613  1.00  0.00     0.039 A 
ATOM      2  C   UNL     1     103.071 106.040 233.646  1.00  0.00     0.124 A 
ATOM      3  C   UNL     1     102.769 107.054 231.455  1.00  0.00     0.014 A 
ATOM      4  C   UNL     1     104.458 106.119 233.472  1.00  0.00     0.047 A 
ATOM      5  C   UNL     1     104.155 107.145 231.305  1.00  0.00     0.001 A 
ATOM      6  C   UNL     1     104.998 106.668 232.308  1.00  0.00     0.004 A 
ENDROOT
BRANCH   1   7
ATOM      7  C   UNL     1     100.737 106.336 232.688  1.00  0.00     0.075 C 
ATOM      8  O   UNL     1     100.133 105.602 231.863  1.00  0.00    -0.545 OA
ATOM      9  O   UNL     1     100.013 106.944 233.706  1.00  0.00    -0.545 OA
ENDBRANCH   1   7
BRANCH   2  10
ATOM     10  O   UNL     1     102.595 105.554 234.866  1.00  0.00    -0.507 OA
ATOM     11  H   UNL     1     101.630 105.626 235.156  1.00  0.00     0.293 HD
ENDBRANCH   2  10
TORSDOF 2
ENDMDL
MODEL 2
REMARK VINA RESULT:    -4.956      1.041      2.381
REMARK INTER + INTRA:          -5.608
REMARK INTER:                  -5.364
REMARK INTRA:                  -0.243
REMARK UNBOUND:                -0.218
REMARK SMILES O=C([O-])c1ccccc1O
REMARK SMILES IDX 4 1 9 2 5 3 8 4 6 5 7 6 2 7 1 8 3 9 10 10
REMARK H PARENT 10 11
REMARK Flexibility Score: inf
ROOT
ATOM      1  C   UNL     1     102.172 106.408 232.855  1.00  0.00     0.039 A 
ATOM      2  C   UNL     1     102.858 106.781 231.671  1.00  0.00     0.124 A 
ATOM      3  C   UNL     1     102.922 106.027 233.984  1.00  0.00     0.014 A 
ATOM      4  C   UNL     1     104.258 106.823 231.665  1.00  0.00     0.047 A 
ATOM      5  C   UNL     1     104.318 106.054 233.955  1.00  0.00     0.001 A 
ATOM      6  C   UNL     1     104.985 106.462 232.800  1.00  0.00     0.004 A 
ENDROOT
BRANCH   1   7
ATOM      7  C   UNL     1     100.697 106.441 232.961  1.00  0.00     0.075 C 
ATOM      8  O   UNL     1     100.144 107.118 233.867  1.00  0.00    -0.545 OA
ATOM      9  O   UNL     1      99.902 105.786 232.028  1.00  0.00    -0.545 OA
ENDBRANCH   1   7
BRANCH   2  10
ATOM     10  O   UNL     1     102.193 107.077 230.479  1.00  0.00    -0.507 OA
ATOM     11  H   UNL     1     102.645 107.500 229.680  1.00  0.00     0.293 HD
ENDBRANCH   2  10
TORSDOF 2
ENDMDL
MODEL 3
REMARK VINA RESULT:    -4.859      1.955      3.471
REMARK INTER + INTRA:          -5.503
REMARK INTER:                  -5.289
REMARK INTRA:                  -0.214
REMARK UNBOUND:                -0.218
REMARK SMILES O=C([O-])c1ccccc1O
REMARK SMILES IDX 4 1 9 2 5 3 8 4 6 5 7 6 2 7 1 8 3 9 10 10
REMARK H PARENT 10 11
REMARK Flexibility Score: inf
ROOT
ATOM      1  C   UNL     1     103.470 106.016 232.477  1.00  0.00     0.039 A 
ATOM      2  C   UNL     1     102.631 106.054 233.620  1.00  0.00     0.124 A 
ATOM      3  C   UNL     1     102.882 106.091 231.200  1.00  0.00     0.014 A 
ATOM      4  C   UNL     1     101.251 106.227 233.462  1.00  0.00     0.047 A 
ATOM      5  C   UNL     1     101.501 106.241 231.058  1.00  0.00     0.001 A 
ATOM      6  C   UNL     1     100.687 106.319 232.188  1.00  0.00     0.004 A 
ENDROOT
BRANCH   1   7
ATOM      7  C   UNL     1     104.943 105.940 232.575  1.00  0.00     0.075 C 
ATOM      8  O   UNL     1     105.641 105.816 231.535  1.00  0.00    -0.545 OA
ATOM      9  O   UNL     1     105.582 106.073 233.803  1.00  0.00    -0.545 OA
ENDBRANCH   1   7
BRANCH   2  10
ATOM     10  O   UNL     1     103.122 105.888 234.917  1.00  0.00    -0.507 OA
ATOM     11  H   UNL     1     102.942 106.540 235.668  1.00  0.00     0.293 HD
ENDBRANCH   2  10
TORSDOF 2
ENDMDL
MODEL 4
REMARK VINA RESULT:    -4.842      2.375      4.174
REMARK INTER + INTRA:          -5.485
REMARK INTER:                  -5.234
REMARK INTRA:                  -0.251
REMARK UNBOUND:                -0.218
REMARK SMILES O=C([O-])c1ccccc1O
REMARK SMILES IDX 4 1 9 2 5 3 8 4 6 5 7 6 2 7 1 8 3 9 10 10
REMARK H PARENT 10 11
REMARK Flexibility Score: inf
ROOT
ATOM      1  C   UNL     1     103.636 106.104 232.936  1.00  0.00     0.039 A 
ATOM      2  C   UNL     1     102.975 106.427 231.723  1.00  0.00     0.124 A 
ATOM      3  C   UNL     1     102.891 106.083 234.131  1.00  0.00     0.014 A 
ATOM      4  C   UNL     1     101.594 106.656 231.726  1.00  0.00     0.047 A 
ATOM      5  C   UNL     1     101.517 106.334 234.120  1.00  0.00     0.001 A 
ATOM      6  C   UNL     1     100.868 106.609 232.917  1.00  0.00     0.004 A 
ENDROOT
BRANCH   1   7
ATOM      7  C   UNL     1     105.071 105.752 232.989  1.00  0.00     0.075 C 
ATOM      8  O   UNL     1     105.785 106.151 233.947  1.00  0.00    -0.545 OA
ATOM      9  O   UNL     1     105.636 104.923 232.027  1.00  0.00    -0.545 OA
ENDBRANCH   1   7
BRANCH   2  10
ATOM     10  O   UNL     1     103.656 106.567 230.511  1.00  0.00    -0.507 OA
ATOM     11  H   UNL     1     103.482 105.984 229.705  1.00  0.00     0.293 HD
ENDBRANCH   2  10
TORSDOF 2
ENDMDL
MODEL 5
REMARK VINA RESULT:    -4.773      7.144      8.439
REMARK INTER + INTRA:          -5.409
REMARK INTER:                  -5.160
REMARK INTRA:                  -0.249
REMARK UNBOUND:                -0.218
REMARK SMILES O=C([O-])c1ccccc1O
REMARK SMILES IDX 4 1 9 2 5 3 8 4 6 5 7 6 2 7 1 8 3 9 10 10
REMARK H PARENT 10 11
REMARK Flexibility Score: inf
ROOT
ATOM      1  C   UNL     1     109.543 103.669 230.404  1.00  0.00     0.039 A 
ATOM      2  C   UNL     1     110.370 102.923 229.526  1.00  0.00     0.124 A 
ATOM      3  C   UNL     1     110.096 104.765 231.093  1.00  0.00     0.014 A 
ATOM      4  C   UNL     1     111.695 103.324 229.315  1.00  0.00     0.047 A 
ATOM      5  C   UNL     1     111.426 105.139 230.888  1.00  0.00     0.001 A 
ATOM      6  C   UNL     1     112.221 104.426 229.991  1.00  0.00     0.004 A 
ENDROOT
BRANCH   1   7
ATOM      7  C   UNL     1     108.108 103.363 230.594  1.00  0.00     0.075 C 
ATOM      8  O   UNL     1     107.737 102.176 230.795  1.00  0.00    -0.545 OA
ATOM      9  O   UNL     1     107.162 104.380 230.624  1.00  0.00    -0.545 OA
ENDBRANCH   1   7
BRANCH   2  10
ATOM     10  O   UNL     1     109.930 101.766 228.880  1.00  0.00    -0.507 OA
ATOM     11  H   UNL     1     109.619 101.749 227.919  1.00  0.00     0.293 HD
ENDBRANCH   2  10
TORSDOF 2
ENDMDL
MODEL 6
REMARK VINA RESULT:    -4.757      2.381      3.327
REMARK INTER + INTRA:          -5.392
REMARK INTER:                  -5.140
REMARK INTRA:                  -0.252
REMARK UNBOUND:                -0.218
REMARK SMILES O=C([O-])c1ccccc1O
REMARK SMILES IDX 4 1 9 2 5 3 8 4 6 5 7 6 2 7 1 8 3 9 10 10
REMARK H PARENT 10 11
REMARK Flexibility Score: inf
ROOT
ATOM      1  C   UNL     1     103.036 106.009 231.988  1.00  0.00     0.039 A 
ATOM      2  C   UNL     1     103.483 105.902 233.330  1.00  0.00     0.124 A 
ATOM      3  C   UNL     1     101.686 106.328 231.746  1.00  0.00     0.014 A 
ATOM      4  C   UNL     1     102.598 106.173 234.380  1.00  0.00     0.047 A 
ATOM      5  C   UNL     1     100.810 106.575 232.805  1.00  0.00     0.001 A 
ATOM      6  C   UNL     1     101.268 106.508 234.120  1.00  0.00     0.004 A 
ENDROOT
BRANCH   1   7
ATOM      7  C   UNL     1     103.942 105.837 230.833  1.00  0.00     0.075 C 
ATOM      8  O   UNL     1     103.503 105.369 229.749  1.00  0.00    -0.545 OA
ATOM      9  O   UNL     1     105.268 106.250 230.901  1.00  0.00    -0.545 OA
ENDBRANCH   1   7
BRANCH   2  10
ATOM     10  O   UNL     1     104.779 105.495 233.659  1.00  0.00    -0.507 OA
ATOM     11  H   UNL     1     105.217 104.670 233.275  1.00  0.00     0.293 HD
ENDBRANCH   2  10
TORSDOF 2
ENDMDL
MODEL 7
REMARK VINA RESULT:    -4.706      4.685      5.524
REMARK INTER + INTRA:          -5.337
REMARK INTER:                  -5.095
REMARK INTRA:                  -0.242
REMARK UNBOUND:                -0.218
REMARK SMILES O=C([O-])c1ccccc1O
REMARK SMILES IDX 4 1 9 2 5 3 8 4 6 5 7 6 2 7 1 8 3 9 10 10
REMARK H PARENT 10 11
REMARK Flexibility Score: inf
ROOT
ATOM      1  C   UNL     1     103.320 102.725 230.392  1.00  0.00     0.039 A 
ATOM      2  C   UNL     1     102.040 102.165 230.633  1.00  0.00     0.124 A 
ATOM      3  C   UNL     1     103.419 103.873 229.583  1.00  0.00     0.014 A 
ATOM      4  C   UNL     1     100.899 102.795 230.119  1.00  0.00     0.047 A 
ATOM      5  C   UNL     1     102.273 104.478 229.060  1.00  0.00     0.001 A 
ATOM      6  C   UNL     1     101.014 103.945 229.336  1.00  0.00     0.004 A 
ENDROOT
BRANCH   1   7
ATOM      7  C   UNL     1     104.554 102.171 230.989  1.00  0.00     0.075 C 
ATOM      8  O   UNL     1     104.844 100.956 230.826  1.00  0.00    -0.545 OA
ATOM      9  O   UNL     1     105.443 102.990 231.675  1.00  0.00    -0.545 OA
ENDBRANCH   1   7
BRANCH   2  10
ATOM     10  O   UNL     1     101.861 100.974 231.341  1.00  0.00    -0.507 OA
ATOM     11  H   UNL     1     102.386 100.737 232.171  1.00  0.00     0.293 HD
ENDBRANCH   2  10
TORSDOF 2
ENDMDL
MODEL 8
REMARK VINA RESULT:    -4.658      4.312      4.636
REMARK INTER + INTRA:          -5.284
REMARK INTER:                  -5.037
REMARK INTRA:                  -0.247
REMARK UNBOUND:                -0.218
REMARK SMILES O=C([O-])c1ccccc1O
REMARK SMILES IDX 4 1 9 2 5 3 8 4 6 5 7 6 2 7 1 8 3 9 10 10
REMARK H PARENT 10 11
REMARK Flexibility Score: inf
ROOT
ATOM      1  C   UNL     1     102.549 103.114 229.912  1.00  0.00     0.039 A 
ATOM      2  C   UNL     1     102.936 102.059 230.777  1.00  0.00     0.124 A 
ATOM      3  C   UNL     1     103.514 104.062 229.522  1.00  0.00     0.014 A 
ATOM      4  C   UNL     1     104.273 101.944 231.176  1.00  0.00     0.047 A 
ATOM      5  C   UNL     1     104.840 103.946 229.946  1.00  0.00     0.001 A 
ATOM      6  C   UNL     1     105.221 102.882 230.763  1.00  0.00     0.004 A 
ENDROOT
BRANCH   1   7
ATOM      7  C   UNL     1     101.177 103.235 229.372  1.00  0.00     0.075 C 
ATOM      8  O   UNL     1     100.184 103.016 230.114  1.00  0.00    -0.545 OA
ATOM      9  O   UNL     1     100.962 103.657 228.065  1.00  0.00    -0.545 OA
ENDBRANCH   1   7
BRANCH   2  10
ATOM     10  O   UNL     1     102.023 101.134 231.290  1.00  0.00    -0.507 OA
ATOM     11  H   UNL     1     101.272 101.384 231.918  1.00  0.00     0.293 HD
ENDBRANCH   2  10
TORSDOF 2
ENDMDL
MODEL 9
REMARK VINA RESULT:    -4.618      5.183      6.120
REMARK INTER + INTRA:          -5.240
REMARK INTER:                  -4.990
REMARK INTRA:                  -0.250
REMARK UNBOUND:                -0.218
REMARK SMILES O=C([O-])c1ccccc1O
REMARK SMILES IDX 4 1 9 2 5 3 8 4 6 5 7 6 2 7 1 8 3 9 10 10
REMARK H PARENT 10 11
REMARK Flexibility Score: inf
ROOT
ATOM      1  C   UNL     1     105.558 104.562 229.042  1.00  0.00     0.039 A 
ATOM      2  C   UNL     1     106.580 103.840 228.374  1.00  0.00     0.124 A 
ATOM      3  C   UNL     1     104.536 105.158 228.279  1.00  0.00     0.014 A 
ATOM      4  C   UNL     1     106.520 103.681 226.984  1.00  0.00     0.047 A 
ATOM      5  C   UNL     1     104.503 105.008 226.891  1.00  0.00     0.001 A 
ATOM      6  C   UNL     1     105.488 104.262 226.245  1.00  0.00     0.004 A 
ENDROOT
BRANCH   1   7
ATOM      7  C   UNL     1     105.504 104.682 230.515  1.00  0.00     0.075 C 
ATOM      8  O   UNL     1     105.758 103.684 231.240  1.00  0.00    -0.545 OA
ATOM      9  O   UNL     1     105.243 105.905 231.121  1.00  0.00    -0.545 OA
ENDBRANCH   1   7
BRANCH   2  10
ATOM     10  O   UNL     1     107.681 103.302 229.044  1.00  0.00    -0.507 OA
ATOM     11  H   UNL     1     107.602 102.629 229.793  1.00  0.00     0.293 HD
ENDBRANCH   2  10
TORSDOF 2
ENDMDL
