MODEL 1
REMARK VINA RESULT:    -4.354      0.000      0.000
REMARK INTER + INTRA:          -4.703
REMARK INTER:                  -4.609
REMARK INTRA:                  -0.095
REMARK UNBOUND:                -0.095
REMARK SMILES C=C(C)[C@@H]1CC=C(C)C(=O)C1
REMARK SMILES IDX 8 1 7 2 6 3 5 4 4 5 11 6 9 7 10 8 2 9 1 10 3 11
REMARK H PARENT
REMARK Flexibility Score: inf
ROOT
ATOM      1  C   UNL     1     101.142   8.889  80.397  1.00  0.00     0.048 C 
ATOM      2  C   UNL     1     100.077   9.020  79.344  1.00  0.00    -0.012 C 
ATOM      3  C   UNL     1      99.515  10.217  79.098  1.00  0.00    -0.019 C 
ATOM      4  C   UNL     1      98.503  10.414  77.999  1.00  0.00     0.036 C 
ATOM      5  C   UNL     1      97.682   9.131  77.763  1.00  0.00     0.025 C 
ATOM      6  C   UNL     1      98.618   7.939  77.487  1.00  0.00     0.089 C 
ATOM      7  C   UNL     1      99.667   7.829  78.561  1.00  0.00     0.158 C 
ATOM      8  O   UNL     1     100.228   6.717  78.759  1.00  0.00    -0.295 OA
ENDROOT
BRANCH   5   9
ATOM      9  C   UNL     1      96.663   9.314  76.646  1.00  0.00    -0.077 C 
ATOM     10  C   UNL     1      96.063  10.499  76.434  1.00  0.00     0.008 C 
ATOM     11  C   UNL     1      96.306   8.156  75.751  1.00  0.00     0.039 C 
ENDBRANCH   5   9
TORSDOF 1
ENDMDL
MODEL 2
REMARK VINA RESULT:    -4.093      1.960      4.441
REMARK INTER + INTRA:          -4.427
REMARK INTER:                  -4.329
REMARK INTRA:                  -0.098
REMARK UNBOUND:                -0.095
REMARK SMILES C=C(C)[C@@H]1CC=C(C)C(=O)C1
REMARK SMILES IDX 8 1 7 2 6 3 5 4 4 5 11 6 9 7 10 8 2 9 1 10 3 11
REMARK H PARENT
REMARK Flexibility Score: inf
ROOT
ATOM      1  C   UNL     1      96.212  10.138  76.511  1.00  0.00     0.048 C 
ATOM      2  C   UNL     1      97.261   9.224  77.081  1.00  0.00    -0.012 C 
ATOM      3  C   UNL     1      98.087   9.664  78.047  1.00  0.00    -0.019 C 
ATOM      4  C   UNL     1      99.100   8.763  78.704  1.00  0.00     0.036 C 
ATOM      5  C   UNL     1      99.590   7.673  77.730  1.00  0.00     0.025 C 
ATOM      6  C   UNL     1      98.394   6.889  77.160  1.00  0.00     0.089 C 
ATOM      7  C   UNL     1      97.366   7.828  76.590  1.00  0.00     0.158 C 
ATOM      8  O   UNL     1      96.560   7.401  75.719  1.00  0.00    -0.295 OA
ENDROOT
BRANCH   5   9
ATOM      9  C   UNL     1     100.606   6.749  78.387  1.00  0.00    -0.077 C 
ATOM     10  C   UNL     1     100.649   5.436  78.096  1.00  0.00     0.008 C 
ATOM     11  C   UNL     1     101.591   7.297  79.388  1.00  0.00     0.039 C 
ENDBRANCH   5   9
TORSDOF 1
ENDMDL
MODEL 3
REMARK VINA RESULT:    -3.943      1.706      2.870
REMARK INTER + INTRA:          -4.269
REMARK INTER:                  -4.173
REMARK INTRA:                  -0.096
REMARK UNBOUND:                -0.095
REMARK SMILES C=C(C)[C@@H]1CC=C(C)C(=O)C1
REMARK SMILES IDX 8 1 7 2 6 3 5 4 4 5 11 6 9 7 10 8 2 9 1 10 3 11
REMARK H PARENT
REMARK Flexibility Score: inf
ROOT
ATOM      1  C   UNL     1     101.838   7.738  79.717  1.00  0.00     0.048 C 
ATOM      2  C   UNL     1     100.625   7.468  78.872  1.00  0.00    -0.012 C 
ATOM      3  C   UNL     1     100.504   6.300  78.216  1.00  0.00    -0.019 C 
ATOM      4  C   UNL     1      99.271   5.952  77.423  1.00  0.00     0.036 C 
ATOM      5  C   UNL     1      98.611   7.217  76.839  1.00  0.00     0.025 C 
ATOM      6  C   UNL     1      98.316   8.232  77.959  1.00  0.00     0.089 C 
ATOM      7  C   UNL     1      99.550   8.487  78.782  1.00  0.00     0.158 C 
ATOM      8  O   UNL     1      99.641   9.562  79.434  1.00  0.00    -0.295 OA
ENDROOT
BRANCH   5   9
ATOM      9  C   UNL     1      97.357   6.879  76.043  1.00  0.00    -0.077 C 
ATOM     10  C   UNL     1      97.101   5.621  75.641  1.00  0.00     0.008 C 
ATOM     11  C   UNL     1      96.371   7.963  75.689  1.00  0.00     0.039 C 
ENDBRANCH   5   9
TORSDOF 1
ENDMDL
MODEL 4
REMARK VINA RESULT:    -3.911      1.854      4.618
REMARK INTER + INTRA:          -4.234
REMARK INTER:                  -4.145
REMARK INTRA:                  -0.089
REMARK UNBOUND:                -0.095
REMARK SMILES C=C(C)[C@@H]1CC=C(C)C(=O)C1
REMARK SMILES IDX 8 1 7 2 6 3 5 4 4 5 11 6 9 7 10 8 2 9 1 10 3 11
REMARK H PARENT
REMARK Flexibility Score: inf
ROOT
ATOM      1  C   UNL     1      97.006   7.073  76.027  1.00  0.00     0.048 C 
ATOM      2  C   UNL     1      98.004   7.773  76.908  1.00  0.00    -0.012 C 
ATOM      3  C   UNL     1      99.163   7.171  77.226  1.00  0.00    -0.019 C 
ATOM      4  C   UNL     1     100.227   7.864  78.038  1.00  0.00     0.036 C 
ATOM      5  C   UNL     1      99.606   8.873  79.023  1.00  0.00     0.025 C 
ATOM      6  C   UNL     1      98.705   9.870  78.269  1.00  0.00     0.089 C 
ATOM      7  C   UNL     1      97.714   9.141  77.404  1.00  0.00     0.158 C 
ATOM      8  O   UNL     1      96.648   9.724  77.066  1.00  0.00    -0.295 OA
ENDROOT
BRANCH   5   9
ATOM      9  C   UNL     1     100.672   9.589  79.841  1.00  0.00    -0.077 C 
ATOM     10  C   UNL     1     101.097   9.097  81.020  1.00  0.00     0.008 C 
ATOM     11  C   UNL     1     101.276  10.875  79.338  1.00  0.00     0.039 C 
ENDBRANCH   5   9
TORSDOF 1
ENDMDL
MODEL 5
REMARK VINA RESULT:    -3.838      2.339      4.630
REMARK INTER + INTRA:          -4.157
REMARK INTER:                  -4.063
REMARK INTRA:                  -0.095
REMARK UNBOUND:                -0.095
REMARK SMILES C=C(C)[C@@H]1CC=C(C)C(=O)C1
REMARK SMILES IDX 8 1 7 2 6 3 5 4 4 5 11 6 9 7 10 8 2 9 1 10 3 11
REMARK H PARENT
REMARK Flexibility Score: inf
ROOT
ATOM      1  C   UNL     1      96.160  10.084  76.594  1.00  0.00     0.048 C 
ATOM      2  C   UNL     1      96.932   8.793  76.574  1.00  0.00    -0.012 C 
ATOM      3  C   UNL     1      96.626   7.837  75.679  1.00  0.00    -0.019 C 
ATOM      4  C   UNL     1      97.421   6.563  75.568  1.00  0.00     0.036 C 
ATOM      5  C   UNL     1      98.016   6.158  76.931  1.00  0.00     0.025 C 
ATOM      6  C   UNL     1      98.848   7.315  77.516  1.00  0.00     0.089 C 
ATOM      7  C   UNL     1      98.047   8.589  77.530  1.00  0.00     0.158 C 
ATOM      8  O   UNL     1      98.365   9.505  78.337  1.00  0.00    -0.295 OA
ENDROOT
BRANCH   5   9
ATOM      9  C   UNL     1      98.832   4.876  76.829  1.00  0.00    -0.077 C 
ATOM     10  C   UNL     1      98.386   3.816  76.132  1.00  0.00     0.008 C 
ATOM     11  C   UNL     1     100.169   4.774  77.517  1.00  0.00     0.039 C 
ENDBRANCH   5   9
TORSDOF 1
ENDMDL
MODEL 6
REMARK VINA RESULT:    -3.814      2.866      5.359
REMARK INTER + INTRA:          -4.132
REMARK INTER:                  -4.042
REMARK INTRA:                  -0.090
REMARK UNBOUND:                -0.095
REMARK SMILES C=C(C)[C@@H]1CC=C(C)C(=O)C1
REMARK SMILES IDX 8 1 7 2 6 3 5 4 4 5 11 6 9 7 10 8 2 9 1 10 3 11
REMARK H PARENT
REMARK Flexibility Score: inf
ROOT
ATOM      1  C   UNL     1      97.010   4.342  76.325  1.00  0.00     0.048 C 
ATOM      2  C   UNL     1      98.217   5.066  76.851  1.00  0.00    -0.012 C 
ATOM      3  C   UNL     1      99.247   4.375  77.371  1.00  0.00    -0.019 C 
ATOM      4  C   UNL     1     100.510   5.050  77.837  1.00  0.00     0.036 C 
ATOM      5  C   UNL     1     100.222   6.475  78.351  1.00  0.00     0.025 C 
ATOM      6  C   UNL     1      99.485   7.293  77.274  1.00  0.00     0.089 C 
ATOM      7  C   UNL     1      98.279   6.547  76.773  1.00  0.00     0.158 C 
ATOM      8  O   UNL     1      97.335   7.192  76.242  1.00  0.00    -0.295 OA
ENDROOT
BRANCH   5   9
ATOM      9  C   UNL     1     101.494   7.173  78.814  1.00  0.00    -0.077 C 
ATOM     10  C   UNL     1     101.535   7.855  79.973  1.00  0.00     0.008 C 
ATOM     11  C   UNL     1     102.741   7.109  77.971  1.00  0.00     0.039 C 
ENDBRANCH   5   9
TORSDOF 1
ENDMDL
MODEL 7
REMARK VINA RESULT:    -3.776      2.102      4.349
REMARK INTER + INTRA:          -4.092
REMARK INTER:                  -3.997
REMARK INTRA:                  -0.095
REMARK UNBOUND:                -0.095
REMARK SMILES C=C(C)[C@@H]1CC=C(C)C(=O)C1
REMARK SMILES IDX 8 1 7 2 6 3 5 4 4 5 11 6 9 7 10 8 2 9 1 10 3 11
REMARK H PARENT
REMARK Flexibility Score: inf
ROOT
ATOM      1  C   UNL     1      98.907   4.403  76.606  1.00  0.00     0.048 C 
ATOM      2  C   UNL     1      99.289   5.707  77.248  1.00  0.00    -0.012 C 
ATOM      3  C   UNL     1     100.325   5.761  78.103  1.00  0.00    -0.019 C 
ATOM      4  C   UNL     1     100.795   7.058  78.709  1.00  0.00     0.036 C 
ATOM      5  C   UNL     1      99.627   8.050  78.875  1.00  0.00     0.025 C 
ATOM      6  C   UNL     1      98.909   8.261  77.529  1.00  0.00     0.089 C 
ATOM      7  C   UNL     1      98.533   6.940  76.915  1.00  0.00     0.158 C 
ATOM      8  O   UNL     1      97.592   6.898  76.077  1.00  0.00    -0.295 OA
ENDROOT
BRANCH   5   9
ATOM      9  C   UNL     1     100.092   9.370  79.476  1.00  0.00    -0.077 C 
ATOM     10  C   UNL     1     100.991   9.405  80.476  1.00  0.00     0.008 C 
ATOM     11  C   UNL     1      99.543  10.673  78.955  1.00  0.00     0.039 C 
ENDBRANCH   5   9
TORSDOF 1
ENDMDL
MODEL 8
REMARK VINA RESULT:    -3.756      2.401      3.682
REMARK INTER + INTRA:          -4.070
REMARK INTER:                  -3.973
REMARK INTRA:                  -0.098
REMARK UNBOUND:                -0.095
REMARK SMILES C=C(C)[C@@H]1CC=C(C)C(=O)C1
REMARK SMILES IDX 8 1 7 2 6 3 5 4 4 5 11 6 9 7 10 8 2 9 1 10 3 11
REMARK H PARENT
REMARK Flexibility Score: inf
ROOT
ATOM      1  C   UNL     1     101.145  10.190  79.910  1.00  0.00     0.048 C 
ATOM      2  C   UNL     1     100.620   8.914  79.314  1.00  0.00    -0.012 C 
ATOM      3  C   UNL     1     101.313   7.770  79.450  1.00  0.00    -0.019 C 
ATOM      4  C   UNL     1     100.790   6.452  78.941  1.00  0.00     0.036 C 
ATOM      5  C   UNL     1      99.898   6.650  77.700  1.00  0.00     0.025 C 
ATOM      6  C   UNL     1      98.766   7.648  78.008  1.00  0.00     0.089 C 
ATOM      7  C   UNL     1      99.322   8.917  78.595  1.00  0.00     0.158 C 
ATOM      8  O   UNL     1      98.650   9.980  78.508  1.00  0.00    -0.295 OA
ENDROOT
BRANCH   5   9
ATOM      9  C   UNL     1      99.354   5.326  77.182  1.00  0.00    -0.077 C 
ATOM     10  C   UNL     1      98.302   5.281  76.344  1.00  0.00     0.008 C 
ATOM     11  C   UNL     1      99.991   4.028  77.607  1.00  0.00     0.039 C 
ENDBRANCH   5   9
TORSDOF 1
ENDMDL
MODEL 9
REMARK VINA RESULT:    -3.713      2.857      5.286
REMARK INTER + INTRA:          -4.025
REMARK INTER:                  -3.935
REMARK INTRA:                  -0.090
REMARK UNBOUND:                -0.095
REMARK SMILES C=C(C)[C@@H]1CC=C(C)C(=O)C1
REMARK SMILES IDX 8 1 7 2 6 3 5 4 4 5 11 6 9 7 10 8 2 9 1 10 3 11
REMARK H PARENT
REMARK Flexibility Score: inf
ROOT
ATOM      1  C   UNL     1      96.985   4.776  75.978  1.00  0.00     0.048 C 
ATOM      2  C   UNL     1      98.170   5.347  76.708  1.00  0.00    -0.012 C 
ATOM      3  C   UNL     1      98.266   6.674  76.904  1.00  0.00    -0.019 C 
ATOM      4  C   UNL     1      99.392   7.284  77.698  1.00  0.00     0.036 C 
ATOM      5  C   UNL     1     100.678   6.444  77.576  1.00  0.00     0.025 C 
ATOM      6  C   UNL     1     100.403   4.984  77.982  1.00  0.00     0.089 C 
ATOM      7  C   UNL     1      99.220   4.438  77.230  1.00  0.00     0.158 C 
ATOM      8  O   UNL     1      99.105   3.191  77.088  1.00  0.00    -0.295 OA
ENDROOT
BRANCH   5   9
ATOM      9  C   UNL     1     101.821   7.045  78.383  1.00  0.00    -0.077 C 
ATOM     10  C   UNL     1     103.068   7.119  77.884  1.00  0.00     0.008 C 
ATOM     11  C   UNL     1     101.569   7.573  79.772  1.00  0.00     0.039 C 
ENDBRANCH   5   9
TORSDOF 1
ENDMDL
