MODEL 1
REMARK VINA RESULT:    34.122      0.000      0.000
REMARK INTER + INTRA:          41.338
REMARK INTER:                  41.104
REMARK INTRA:                   0.233
REMARK UNBOUND:                 0.233
REMARK SMILES Oc1cc(O)c2c(c1)O[C@H](c1ccc(O)c(O)c1)[C@@H](O)C2
REMARK SMILES IDX 21 1 19 2 10 3 9 4 7 5 8 6 2 7 3 8 4 9 6 10 20 11 11 13
REMARK SMILES IDX 18 14 12 15 16 16 13 17 14 18 17 19 15 21 5 23 1 25
REMARK H PARENT 20 12 17 20 15 22 5 24 1 26
REMARK Flexibility Score: inf
ROOT
ATOM      1  C   UNL     1      33.850   9.129  17.617  1.00  0.00     0.079 C 
ATOM      2  C   UNL     1      33.892   7.857  16.754  1.00  0.00     0.164 C 
ATOM      3  C   UNL     1      32.934   6.800  17.341  1.00  0.00     0.232 C 
ATOM      4  O   UNL     1      33.265   6.541  18.708  1.00  0.00    -0.482 OA
ATOM      5  C   UNL     1      33.713   7.543  19.576  1.00  0.00     0.131 A 
ATOM      6  C   UNL     1      33.860   7.255  20.935  1.00  0.00     0.093 A 
ATOM      7  C   UNL     1      34.307   8.243  21.821  1.00  0.00     0.122 A 
ATOM      8  C   UNL     1      34.606   9.522  21.341  1.00  0.00     0.092 A 
ATOM      9  C   UNL     1      34.467   9.820  19.978  1.00  0.00     0.126 A 
ATOM     10  C   UNL     1      34.037   8.822  19.084  1.00  0.00     0.039 A 
ENDROOT
BRANCH   2  11
ATOM     11  O   UNL     1      33.514   8.186  15.441  1.00  0.00    -0.389 OA
ATOM     12  H   UNL     1      32.535   8.352  15.455  1.00  0.00     0.211 HD
ENDBRANCH   2  11
BRANCH   3  13
ATOM     13  C   UNL     1      32.993   5.510  16.557  1.00  0.00    -0.001 A 
ATOM     14  C   UNL     1      33.119   4.280  17.225  1.00  0.00     0.057 A 
ATOM     15  C   UNL     1      32.875   5.520  15.157  1.00  0.00     0.012 A 
ATOM     16  C   UNL     1      33.145   3.077  16.504  1.00  0.00     0.157 A 
ATOM     17  C   UNL     1      32.903   4.323  14.437  1.00  0.00     0.050 A 
ATOM     18  C   UNL     1      33.039   3.101  15.103  1.00  0.00     0.157 A 
BRANCH  16  19
ATOM     19  O   UNL     1      33.275   1.862  17.174  1.00  0.00    -0.504 OA
ATOM     20  H   UNL     1      33.264   0.978  16.678  1.00  0.00     0.293 HD
ENDBRANCH  16  19
BRANCH  18  21
ATOM     21  O   UNL     1      33.062   1.922  14.358  1.00  0.00    -0.504 OA
ATOM     22  H   UNL     1      33.218   1.921  13.357  1.00  0.00     0.293 HD
ENDBRANCH  18  21
ENDBRANCH   3  13
BRANCH   9  23
ATOM     23  O   UNL     1      34.754  11.104  19.512  1.00  0.00    -0.507 OA
ATOM     24  H   UNL     1      34.020  11.744  19.234  1.00  0.00     0.293 HD
ENDBRANCH   9  23
BRANCH   7  25
ATOM     25  O   UNL     1      34.454   7.966  23.178  1.00  0.00    -0.508 OA
ATOM     26  H   UNL     1      35.142   7.301  23.511  1.00  0.00     0.293 HD
ENDBRANCH   7  25
TORSDOF 6
ENDMDL
MODEL 2
REMARK VINA RESULT:    34.963      1.580      6.746
REMARK INTER + INTRA:          42.350
REMARK INTER:                  42.332
REMARK INTRA:                   0.018
REMARK UNBOUND:                 0.233
REMARK SMILES Oc1cc(O)c2c(c1)O[C@H](c1ccc(O)c(O)c1)[C@@H](O)C2
REMARK SMILES IDX 21 1 19 2 10 3 9 4 7 5 8 6 2 7 3 8 4 9 6 10 20 11 11 13
REMARK SMILES IDX 18 14 12 15 16 16 13 17 14 18 17 19 15 21 5 23 1 25
REMARK H PARENT 20 12 17 20 15 22 5 24 1 26
REMARK Flexibility Score: inf
ROOT
ATOM      1  C   UNL     1      33.866   9.378  17.939  1.00  0.00     0.079 C 
ATOM      2  C   UNL     1      33.660   9.406  19.462  1.00  0.00     0.164 C 
ATOM      3  C   UNL     1      34.419   8.228  20.110  1.00  0.00     0.232 C 
ATOM      4  O   UNL     1      34.000   6.992  19.527  1.00  0.00    -0.482 OA
ATOM      5  C   UNL     1      33.680   6.871  18.170  1.00  0.00     0.131 A 
ATOM      6  C   UNL     1      33.438   5.603  17.635  1.00  0.00     0.093 A 
ATOM      7  C   UNL     1      33.116   5.459  16.280  1.00  0.00     0.122 A 
ATOM      8  C   UNL     1      33.038   6.590  15.461  1.00  0.00     0.092 A 
ATOM      9  C   UNL     1      33.273   7.867  15.989  1.00  0.00     0.126 A 
ATOM     10  C   UNL     1      33.578   8.015  17.355  1.00  0.00     0.039 A 
ENDROOT
BRANCH   2  11
ATOM     11  O   UNL     1      34.136  10.629  19.963  1.00  0.00    -0.389 OA
ATOM     12  H   UNL     1      33.344  11.142  20.274  1.00  0.00     0.211 HD
ENDBRANCH   2  11
BRANCH   3  13
ATOM     13  C   UNL     1      34.191   8.183  21.603  1.00  0.00    -0.001 A 
ATOM     14  C   UNL     1      35.033   7.417  22.425  1.00  0.00     0.057 A 
ATOM     15  C   UNL     1      33.166   8.943  22.191  1.00  0.00     0.012 A 
ATOM     16  C   UNL     1      34.844   7.394  23.815  1.00  0.00     0.157 A 
ATOM     17  C   UNL     1      32.974   8.920  23.574  1.00  0.00     0.050 A 
ATOM     18  C   UNL     1      33.808   8.148  24.390  1.00  0.00     0.157 A 
BRANCH  16  19
ATOM     19  O   UNL     1      35.681   6.626  24.623  1.00  0.00    -0.504 OA
ATOM     20  H   UNL     1      36.467   6.115  24.239  1.00  0.00     0.293 HD
ENDBRANCH  16  19
BRANCH  18  21
ATOM     21  O   UNL     1      33.593   8.145  25.768  1.00  0.00    -0.504 OA
ATOM     22  H   UNL     1      33.064   7.414  26.230  1.00  0.00     0.293 HD
ENDBRANCH  18  21
ENDBRANCH   3  13
BRANCH   9  23
ATOM     23  O   UNL     1      33.207   8.988  15.160  1.00  0.00    -0.507 OA
ATOM     24  H   UNL     1      33.076   8.900  14.159  1.00  0.00     0.293 HD
ENDBRANCH   9  23
BRANCH   7  25
ATOM     25  O   UNL     1      32.875   4.199  15.737  1.00  0.00    -0.508 OA
ATOM     26  H   UNL     1      32.240   3.545  16.179  1.00  0.00     0.293 HD
ENDBRANCH   7  25
TORSDOF 6
ENDMDL
