MODEL 1
REMARK VINA RESULT:    -3.066      0.000      0.000
REMARK INTER + INTRA:          -3.261
REMARK INTER:                  -3.245
REMARK INTRA:                  -0.016
REMARK UNBOUND:                -0.016
REMARK SMILES O=C([O-])c1cccnc1
REMARK SMILES IDX 4 1 5 2 9 3 6 4 8 5 7 6 2 7 1 8 3 9
REMARK H PARENT
REMARK Flexibility Score: inf
ROOT
ATOM      1  C   UNL     1      -4.031   4.376   2.376  1.00  0.00     0.016 A 
ATOM      2  C   UNL     1      -3.114   5.439   2.351  1.00  0.00     0.013 A 
ATOM      3  C   UNL     1      -5.216   4.497   1.630  1.00  0.00     0.120 A 
ATOM      4  C   UNL     1      -3.388   6.584   1.599  1.00  0.00     0.021 A 
ATOM      5  N   UNL     1      -5.458   5.623   0.906  1.00  0.00    -0.264 NA
ATOM      6  C   UNL     1      -4.578   6.658   0.875  1.00  0.00     0.111 A 
ENDROOT
BRANCH   1   7
ATOM      7  C   UNL     1      -3.759   3.155   3.166  1.00  0.00     0.073 C 
ATOM      8  O   UNL     1      -3.968   3.136   4.408  1.00  0.00    -0.545 OA
ATOM      9  O   UNL     1      -3.268   2.011   2.548  1.00  0.00    -0.545 OA
ENDBRANCH   1   7
TORSDOF 1
ENDMDL
MODEL 2
REMARK VINA RESULT:    -2.713      6.751      7.733
REMARK INTER + INTRA:          -2.888
REMARK INTER:                  -2.869
REMARK INTRA:                  -0.019
REMARK UNBOUND:                -0.016
REMARK SMILES O=C([O-])c1cccnc1
REMARK SMILES IDX 4 1 5 2 9 3 6 4 8 5 7 6 2 7 1 8 3 9
REMARK H PARENT
REMARK Flexibility Score: inf
ROOT
ATOM      1  C   UNL     1      -2.122   6.587   8.211  1.00  0.00     0.016 A 
ATOM      2  C   UNL     1      -2.462   5.282   8.600  1.00  0.00     0.013 A 
ATOM      3  C   UNL     1      -0.842   7.070   8.535  1.00  0.00     0.120 A 
ATOM      4  C   UNL     1      -1.541   4.494   9.293  1.00  0.00     0.021 A 
ATOM      5  N   UNL     1       0.037   6.281   9.211  1.00  0.00    -0.264 NA
ATOM      6  C   UNL     1      -0.282   5.017   9.592  1.00  0.00     0.111 A 
ENDROOT
BRANCH   1   7
ATOM      7  C   UNL     1      -3.084   7.438   7.477  1.00  0.00     0.073 C 
ATOM      8  O   UNL     1      -3.287   8.629   7.832  1.00  0.00    -0.545 OA
ATOM      9  O   UNL     1      -3.778   6.933   6.383  1.00  0.00    -0.545 OA
ENDBRANCH   1   7
TORSDOF 1
ENDMDL
MODEL 3
REMARK VINA RESULT:    -2.630      7.018      7.620
REMARK INTER + INTRA:          -2.800
REMARK INTER:                  -2.780
REMARK INTRA:                  -0.020
REMARK UNBOUND:                -0.016
REMARK SMILES O=C([O-])c1cccnc1
REMARK SMILES IDX 4 1 5 2 9 3 6 4 8 5 7 6 2 7 1 8 3 9
REMARK H PARENT
REMARK Flexibility Score: inf
ROOT
ATOM      1  C   UNL     1      -0.996   4.915   9.308  1.00  0.00     0.016 A 
ATOM      2  C   UNL     1      -0.494   6.204   9.062  1.00  0.00     0.013 A 
ATOM      3  C   UNL     1      -2.289   4.604   8.857  1.00  0.00     0.120 A 
ATOM      4  C   UNL     1      -1.275   7.143   8.385  1.00  0.00     0.021 A 
ATOM      5  N   UNL     1      -3.030   5.537   8.199  1.00  0.00    -0.264 NA
ATOM      6  C   UNL     1      -2.555   6.786   7.956  1.00  0.00     0.111 A 
ENDROOT
BRANCH   1   7
ATOM      7  C   UNL     1      -0.184   3.907  10.024  1.00  0.00     0.073 C 
ATOM      8  O   UNL     1      -0.702   3.183  10.914  1.00  0.00    -0.545 OA
ATOM      9  O   UNL     1       1.164   3.746   9.724  1.00  0.00    -0.545 OA
ENDBRANCH   1   7
TORSDOF 1
ENDMDL
MODEL 4
REMARK VINA RESULT:    -2.567      7.396      8.192
REMARK INTER + INTRA:          -2.733
REMARK INTER:                  -2.710
REMARK INTRA:                  -0.023
REMARK UNBOUND:                -0.016
REMARK SMILES O=C([O-])c1cccnc1
REMARK SMILES IDX 4 1 5 2 9 3 6 4 8 5 7 6 2 7 1 8 3 9
REMARK H PARENT
REMARK Flexibility Score: inf
ROOT
ATOM      1  C   UNL     1      -1.244   5.690   8.959  1.00  0.00     0.016 A 
ATOM      2  C   UNL     1      -0.535   6.886   8.764  1.00  0.00     0.013 A 
ATOM      3  C   UNL     1      -0.587   4.619   9.590  1.00  0.00     0.120 A 
ATOM      4  C   UNL     1       0.790   6.995   9.191  1.00  0.00     0.021 A 
ATOM      5  N   UNL     1       0.705   4.751   9.997  1.00  0.00    -0.264 NA
ATOM      6  C   UNL     1       1.399   5.904   9.813  1.00  0.00     0.111 A 
ENDROOT
BRANCH   1   7
ATOM      7  C   UNL     1      -2.648   5.554   8.514  1.00  0.00     0.073 C 
ATOM      8  O   UNL     1      -3.392   4.664   9.002  1.00  0.00    -0.545 OA
ATOM      9  O   UNL     1      -3.165   6.410   7.547  1.00  0.00    -0.545 OA
ENDBRANCH   1   7
TORSDOF 1
ENDMDL
MODEL 5
REMARK VINA RESULT:    -2.532      7.326      8.280
REMARK INTER + INTRA:          -2.696
REMARK INTER:                  -2.675
REMARK INTRA:                  -0.022
REMARK UNBOUND:                -0.016
REMARK SMILES O=C([O-])c1cccnc1
REMARK SMILES IDX 4 1 5 2 9 3 6 4 8 5 7 6 2 7 1 8 3 9
REMARK H PARENT
REMARK Flexibility Score: inf
ROOT
ATOM      1  C   UNL     1      -1.330   5.481   9.026  1.00  0.00     0.016 A 
ATOM      2  C   UNL     1      -0.752   4.338   9.600  1.00  0.00     0.013 A 
ATOM      3  C   UNL     1      -0.535   6.629   8.875  1.00  0.00     0.120 A 
ATOM      4  C   UNL     1       0.584   4.357  10.008  1.00  0.00     0.021 A 
ATOM      5  N   UNL     1       0.764   6.622   9.280  1.00  0.00    -0.264 NA
ATOM      6  C   UNL     1       1.334   5.521   9.837  1.00  0.00     0.111 A 
ENDROOT
BRANCH   1   7
ATOM      7  C   UNL     1      -2.744   5.481   8.588  1.00  0.00     0.073 C 
ATOM      8  O   UNL     1      -3.124   6.231   7.650  1.00  0.00    -0.545 OA
ATOM      9  O   UNL     1      -3.673   4.653   9.208  1.00  0.00    -0.545 OA
ENDBRANCH   1   7
TORSDOF 1
ENDMDL
MODEL 6
REMARK VINA RESULT:    -2.456      7.274      8.099
REMARK INTER + INTRA:          -2.616
REMARK INTER:                  -2.592
REMARK INTRA:                  -0.024
REMARK UNBOUND:                -0.016
REMARK SMILES O=C([O-])c1cccnc1
REMARK SMILES IDX 4 1 5 2 9 3 6 4 8 5 7 6 2 7 1 8 3 9
REMARK H PARENT
REMARK Flexibility Score: inf
ROOT
ATOM      1  C   UNL     1      -0.895   6.816   8.620  1.00  0.00     0.016 A 
ATOM      2  C   UNL     1      -0.446   5.668   9.293  1.00  0.00     0.013 A 
ATOM      3  C   UNL     1      -2.192   6.809   8.080  1.00  0.00     0.120 A 
ATOM      4  C   UNL     1      -1.279   4.554   9.413  1.00  0.00     0.021 A 
ATOM      5  N   UNL     1      -2.984   5.710   8.211  1.00  0.00    -0.264 NA
ATOM      6  C   UNL     1      -2.559   4.595   8.860  1.00  0.00     0.111 A 
ENDROOT
BRANCH   1   7
ATOM      7  C   UNL     1      -0.027   8.006   8.482  1.00  0.00     0.073 C 
ATOM      8  O   UNL     1      -0.459   9.052   7.930  1.00  0.00    -0.545 OA
ATOM      9  O   UNL     1       1.278   7.985   8.959  1.00  0.00    -0.545 OA
ENDBRANCH   1   7
TORSDOF 1
ENDMDL
MODEL 7
REMARK VINA RESULT:    -2.425      3.515      4.165
REMARK INTER + INTRA:          -2.583
REMARK INTER:                  -2.567
REMARK INTRA:                  -0.016
REMARK UNBOUND:                -0.016
REMARK SMILES O=C([O-])c1cccnc1
REMARK SMILES IDX 4 1 5 2 9 3 6 4 8 5 7 6 2 7 1 8 3 9
REMARK H PARENT
REMARK Flexibility Score: inf
ROOT
ATOM      1  C   UNL     1      -4.179   6.341  -0.138  1.00  0.00     0.016 A 
ATOM      2  C   UNL     1      -3.952   5.463   0.934  1.00  0.00     0.013 A 
ATOM      3  C   UNL     1      -3.929   7.710   0.054  1.00  0.00     0.120 A 
ATOM      4  C   UNL     1      -3.489   5.954   2.157  1.00  0.00     0.021 A 
ATOM      5  N   UNL     1      -3.478   8.163   1.256  1.00  0.00    -0.264 NA
ATOM      6  C   UNL     1      -3.255   7.322   2.299  1.00  0.00     0.111 A 
ENDROOT
BRANCH   1   7
ATOM      7  C   UNL     1      -4.670   5.841  -1.441  1.00  0.00     0.073 C 
ATOM      8  O   UNL     1      -5.875   5.996  -1.774  1.00  0.00    -0.545 OA
ATOM      9  O   UNL     1      -3.807   5.191  -2.316  1.00  0.00    -0.545 OA
ENDBRANCH   1   7
TORSDOF 1
ENDMDL
MODEL 8
REMARK VINA RESULT:    -2.404      7.209      7.835
REMARK INTER + INTRA:          -2.560
REMARK INTER:                  -2.539
REMARK INTRA:                  -0.022
REMARK UNBOUND:                -0.016
REMARK SMILES O=C([O-])c1cccnc1
REMARK SMILES IDX 4 1 5 2 9 3 6 4 8 5 7 6 2 7 1 8 3 9
REMARK H PARENT
REMARK Flexibility Score: inf
ROOT
ATOM      1  C   UNL     1      -1.106   6.004   8.899  1.00  0.00     0.016 A 
ATOM      2  C   UNL     1      -1.636   7.106   8.210  1.00  0.00     0.013 A 
ATOM      3  C   UNL     1       0.201   6.097   9.405  1.00  0.00     0.120 A 
ATOM      4  C   UNL     1      -0.870   8.261   8.037  1.00  0.00     0.021 A 
ATOM      5  N   UNL     1       0.927   7.234   9.224  1.00  0.00    -0.264 NA
ATOM      6  C   UNL     1       0.424   8.306   8.558  1.00  0.00     0.111 A 
ENDROOT
BRANCH   1   7
ATOM      7  C   UNL     1      -1.903   4.772   9.092  1.00  0.00     0.073 C 
ATOM      8  O   UNL     1      -1.684   4.015  10.074  1.00  0.00    -0.545 OA
ATOM      9  O   UNL     1      -2.903   4.432   8.188  1.00  0.00    -0.545 OA
ENDBRANCH   1   7
TORSDOF 1
ENDMDL
MODEL 9
REMARK VINA RESULT:    -2.292      7.586      8.328
REMARK INTER + INTRA:          -2.442
REMARK INTER:                  -2.424
REMARK INTRA:                  -0.019
REMARK UNBOUND:                -0.016
REMARK SMILES O=C([O-])c1cccnc1
REMARK SMILES IDX 4 1 5 2 9 3 6 4 8 5 7 6 2 7 1 8 3 9
REMARK H PARENT
REMARK Flexibility Score: inf
ROOT
ATOM      1  C   UNL     1      -0.188   5.276   9.491  1.00  0.00     0.016 A 
ATOM      2  C   UNL     1      -1.302   4.430   9.366  1.00  0.00     0.013 A 
ATOM      3  C   UNL     1      -0.280   6.582   8.980  1.00  0.00     0.120 A 
ATOM      4  C   UNL     1      -2.466   4.890   8.745  1.00  0.00     0.021 A 
ATOM      5  N   UNL     1      -1.426   7.005   8.380  1.00  0.00    -0.264 NA
ATOM      6  C   UNL     1      -2.509   6.195   8.254  1.00  0.00     0.111 A 
ENDROOT
BRANCH   1   7
ATOM      7  C   UNL     1       1.054   4.809  10.144  1.00  0.00     0.073 C 
ATOM      8  O   UNL     1       1.601   5.496  11.046  1.00  0.00    -0.545 OA
ATOM      9  O   UNL     1       1.635   3.603   9.769  1.00  0.00    -0.545 OA
ENDBRANCH   1   7
TORSDOF 1
ENDMDL
