MODEL 1
REMARK VINA RESULT:    -3.072      0.000      0.000
REMARK INTER + INTRA:          -3.916
REMARK INTER:                  -3.700
REMARK INTRA:                  -0.215
REMARK UNBOUND:                -0.215
REMARK SMILES OCC(O)CO
REMARK SMILES IDX 3 1 5 2 6 3 2 5 1 6 4 8
REMARK H PARENT 6 4 1 7 4 9
REMARK Flexibility Score: inf
ROOT
ATOM      1  C   UNL     1     127.130 136.880 121.581  1.00  0.00     0.165 C 
ENDROOT
BRANCH   1   2
ATOM      2  C   UNL     1     127.895 138.020 122.276  1.00  0.00     0.190 C 
BRANCH   2   3
ATOM      3  O   UNL     1     129.275 137.898 122.058  1.00  0.00    -0.394 OA
ATOM      4  H   UNL     1     129.592 138.772 121.711  1.00  0.00     0.210 HD
ENDBRANCH   2   3
ENDBRANCH   1   2
BRANCH   1   5
ATOM      5  C   UNL     1     127.274 136.926 120.053  1.00  0.00     0.190 C 
BRANCH   5   6
ATOM      6  O   UNL     1     128.573 136.574 119.658  1.00  0.00    -0.394 OA
ATOM      7  H   UNL     1     128.948 137.353 119.171  1.00  0.00     0.210 HD
ENDBRANCH   5   6
ENDBRANCH   1   5
BRANCH   1   8
ATOM      8  O   UNL     1     125.767 136.949 121.916  1.00  0.00    -0.388 OA
ATOM      9  H   UNL     1     125.267 136.509 121.179  1.00  0.00     0.211 HD
ENDBRANCH   1   8
TORSDOF 5
ENDMDL
MODEL 2
REMARK VINA RESULT:    -3.066     15.340     15.996
REMARK INTER + INTRA:          -3.909
REMARK INTER:                  -3.907
REMARK INTRA:                  -0.003
REMARK UNBOUND:                -0.215
REMARK SMILES OCC(O)CO
REMARK SMILES IDX 3 1 5 2 6 3 2 5 1 6 4 8
REMARK H PARENT 6 4 1 7 4 9
REMARK Flexibility Score: inf
ROOT
ATOM      1  C   UNL     1     135.766 124.024 120.537  1.00  0.00     0.165 C 
ENDROOT
BRANCH   1   2
ATOM      2  C   UNL     1     136.035 122.720 119.766  1.00  0.00     0.190 C 
BRANCH   2   3
ATOM      3  O   UNL     1     134.848 122.216 119.213  1.00  0.00    -0.394 OA
ATOM      4  H   UNL     1     134.271 121.937 119.971  1.00  0.00     0.210 HD
ENDBRANCH   2   3
ENDBRANCH   1   2
BRANCH   1   5
ATOM      5  C   UNL     1     136.163 123.920 122.017  1.00  0.00     0.190 C 
BRANCH   5   6
ATOM      6  O   UNL     1     137.069 124.932 122.368  1.00  0.00    -0.394 OA
ATOM      7  H   UNL     1     137.108 125.562 121.603  1.00  0.00     0.210 HD
ENDBRANCH   5   6
ENDBRANCH   1   5
BRANCH   1   8
ATOM      8  O   UNL     1     134.404 124.355 120.450  1.00  0.00    -0.388 OA
ATOM      9  H   UNL     1     133.935 123.556 120.092  1.00  0.00     0.211 HD
ENDBRANCH   1   8
TORSDOF 5
ENDMDL
MODEL 3
REMARK VINA RESULT:    -3.060      1.031      2.380
REMARK INTER + INTRA:          -3.901
REMARK INTER:                  -3.678
REMARK INTRA:                  -0.224
REMARK UNBOUND:                -0.215
REMARK SMILES OCC(O)CO
REMARK SMILES IDX 3 1 5 2 6 3 2 5 1 6 4 8
REMARK H PARENT 6 4 1 7 4 9
REMARK Flexibility Score: inf
ROOT
ATOM      1  C   UNL     1     128.148 137.858 121.265  1.00  0.00     0.165 C 
ENDROOT
BRANCH   1   2
ATOM      2  C   UNL     1     127.270 136.657 121.657  1.00  0.00     0.190 C 
BRANCH   2   3
ATOM      3  O   UNL     1     126.390 136.325 120.617  1.00  0.00    -0.394 OA
ATOM      4  H   UNL     1     126.500 137.015 119.912  1.00  0.00     0.210 HD
ENDBRANCH   2   3
ENDBRANCH   1   2
BRANCH   1   5
ATOM      5  C   UNL     1     128.446 137.898 119.759  1.00  0.00     0.190 C 
BRANCH   5   6
ATOM      6  O   UNL     1     128.997 136.684 119.323  1.00  0.00    -0.394 OA
ATOM      7  H   UNL     1     129.879 136.590 119.769  1.00  0.00     0.210 HD
ENDBRANCH   5   6
ENDBRANCH   1   5
BRANCH   1   8
ATOM      8  O   UNL     1     129.362 137.811 121.971  1.00  0.00    -0.388 OA
ATOM      9  H   UNL     1     129.606 138.748 122.190  1.00  0.00     0.211 HD
ENDBRANCH   1   8
TORSDOF 5
ENDMDL
MODEL 4
REMARK VINA RESULT:    -2.999     15.848     16.373
REMARK INTER + INTRA:          -3.828
REMARK INTER:                  -3.614
REMARK INTRA:                  -0.214
REMARK UNBOUND:                -0.215
REMARK SMILES OCC(O)CO
REMARK SMILES IDX 3 1 5 2 6 3 2 5 1 6 4 8
REMARK H PARENT 6 4 1 7 4 9
REMARK Flexibility Score: inf
ROOT
ATOM      1  C   UNL     1     120.424 122.627 121.630  1.00  0.00     0.165 C 
ENDROOT
BRANCH   1   2
ATOM      2  C   UNL     1     119.062 122.795 122.324  1.00  0.00     0.190 C 
BRANCH   2   3
ATOM      3  O   UNL     1     118.554 124.086 122.117  1.00  0.00    -0.394 OA
ATOM      4  H   UNL     1     119.331 124.704 122.102  1.00  0.00     0.210 HD
ENDBRANCH   2   3
ENDBRANCH   1   2
BRANCH   1   5
ATOM      5  C   UNL     1     120.321 122.743 120.102  1.00  0.00     0.190 C 
BRANCH   5   6
ATOM      6  O   UNL     1     120.027 124.059 119.715  1.00  0.00    -0.394 OA
ATOM      7  H   UNL     1     120.784 124.624 120.019  1.00  0.00     0.210 HD
ENDBRANCH   5   6
ENDBRANCH   1   5
BRANCH   1   8
ATOM      8  O   UNL     1     120.974 121.376 121.958  1.00  0.00    -0.388 OA
ATOM      9  H   UNL     1     120.668 121.159 122.878  1.00  0.00     0.211 HD
ENDBRANCH   1   8
TORSDOF 5
ENDMDL
MODEL 5
REMARK VINA RESULT:    -2.975     16.080     16.581
REMARK INTER + INTRA:          -3.799
REMARK INTER:                  -3.577
REMARK INTRA:                  -0.222
REMARK UNBOUND:                -0.215
REMARK SMILES OCC(O)CO
REMARK SMILES IDX 3 1 5 2 6 3 2 5 1 6 4 8
REMARK H PARENT 6 4 1 7 4 9
REMARK Flexibility Score: inf
ROOT
ATOM      1  C   UNL     1     136.280 122.483 121.199  1.00  0.00     0.165 C 
ENDROOT
BRANCH   1   2
ATOM      2  C   UNL     1     135.598 123.808 121.584  1.00  0.00     0.190 C 
BRANCH   2   3
ATOM      3  O   UNL     1     135.814 124.783 120.599  1.00  0.00    -0.394 OA
ATOM      4  H   UNL     1     136.536 125.377 120.933  1.00  0.00     0.210 HD
ENDBRANCH   2   3
ENDBRANCH   1   2
BRANCH   1   5
ATOM      5  C   UNL     1     136.201 122.201 119.691  1.00  0.00     0.190 C 
BRANCH   5   6
ATOM      6  O   UNL     1     134.881 122.306 119.228  1.00  0.00    -0.394 OA
ATOM      7  H   UNL     1     134.888 122.035 118.273  1.00  0.00     0.210 HD
ENDBRANCH   5   6
ENDBRANCH   1   5
BRANCH   1   8
ATOM      8  O   UNL     1     135.682 121.420 121.896  1.00  0.00    -0.388 OA
ATOM      9  H   UNL     1     135.353 120.777 121.214  1.00  0.00     0.211 HD
ENDBRANCH   1   8
TORSDOF 5
ENDMDL
MODEL 6
REMARK VINA RESULT:    -2.970     15.829     16.167
REMARK INTER + INTRA:          -3.793
REMARK INTER:                  -3.570
REMARK INTRA:                  -0.224
REMARK UNBOUND:                -0.215
REMARK SMILES OCC(O)CO
REMARK SMILES IDX 3 1 5 2 6 3 2 5 1 6 4 8
REMARK H PARENT 6 4 1 7 4 9
REMARK Flexibility Score: inf
ROOT
ATOM      1  C   UNL     1     119.051 122.962 121.234  1.00  0.00     0.165 C 
ENDROOT
BRANCH   1   2
ATOM      2  C   UNL     1     120.502 122.604 121.598  1.00  0.00     0.190 C 
BRANCH   2   3
ATOM      3  O   UNL     1     121.199 122.149 120.469  1.00  0.00    -0.394 OA
ATOM      4  H   UNL     1     120.728 122.509 119.673  1.00  0.00     0.210 HD
ENDBRANCH   2   3
ENDBRANCH   1   2
BRANCH   1   5
ATOM      5  C   UNL     1     118.888 123.302 119.745  1.00  0.00     0.190 C 
BRANCH   5   6
ATOM      6  O   UNL     1     119.688 124.397 119.388  1.00  0.00    -0.394 OA
ATOM      7  H   UNL     1     120.303 124.566 120.148  1.00  0.00     0.210 HD
ENDBRANCH   5   6
ENDBRANCH   1   5
BRANCH   1   8
ATOM      8  O   UNL     1     118.625 124.058 122.003  1.00  0.00    -0.388 OA
ATOM      9  H   UNL     1     118.945 124.877 121.541  1.00  0.00     0.211 HD
ENDBRANCH   1   8
TORSDOF 5
ENDMDL
MODEL 7
REMARK VINA RESULT:    -2.968     15.742     16.361
REMARK INTER + INTRA:          -3.791
REMARK INTER:                  -3.574
REMARK INTRA:                  -0.217
REMARK UNBOUND:                -0.215
REMARK SMILES OCC(O)CO
REMARK SMILES IDX 3 1 5 2 6 3 2 5 1 6 4 8
REMARK H PARENT 6 4 1 7 4 9
REMARK Flexibility Score: inf
ROOT
ATOM      1  C   UNL     1     119.924 122.339 120.695  1.00  0.00     0.165 C 
ENDROOT
BRANCH   1   2
ATOM      2  C   UNL     1     119.250 123.052 119.510  1.00  0.00     0.190 C 
BRANCH   2   3
ATOM      3  O   UNL     1     119.723 124.366 119.385  1.00  0.00    -0.394 OA
ATOM      4  H   UNL     1     120.495 124.338 118.762  1.00  0.00     0.210 HD
ENDBRANCH   2   3
ENDBRANCH   1   2
BRANCH   1   5
ATOM      5  C   UNL     1     119.835 123.154 121.994  1.00  0.00     0.190 C 
BRANCH   5   6
ATOM      6  O   UNL     1     118.692 123.966 122.002  1.00  0.00    -0.394 OA
ATOM      7  H   UNL     1     118.016 123.507 122.566  1.00  0.00     0.210 HD
ENDBRANCH   5   6
ENDBRANCH   1   5
BRANCH   1   8
ATOM      8  O   UNL     1     121.276 122.099 120.398  1.00  0.00    -0.388 OA
ATOM      9  H   UNL     1     121.744 122.973 120.452  1.00  0.00     0.211 HD
ENDBRANCH   1   8
TORSDOF 5
ENDMDL
MODEL 8
REMARK VINA RESULT:    -2.965      0.979      2.325
REMARK INTER + INTRA:          -3.787
REMARK INTER:                  -3.580
REMARK INTRA:                  -0.207
REMARK UNBOUND:                -0.215
REMARK SMILES OCC(O)CO
REMARK SMILES IDX 3 1 5 2 6 3 2 5 1 6 4 8
REMARK H PARENT 6 4 1 7 4 9
REMARK Flexibility Score: inf
ROOT
ATOM      1  C   UNL     1     127.058 137.532 120.633  1.00  0.00     0.165 C 
ENDROOT
BRANCH   1   2
ATOM      2  C   UNL     1     128.065 137.737 119.489  1.00  0.00     0.190 C 
BRANCH   2   3
ATOM      3  O   UNL     1     128.907 136.623 119.362  1.00  0.00    -0.394 OA
ATOM      4  H   UNL     1     128.598 135.950 120.023  1.00  0.00     0.210 HD
ENDBRANCH   2   3
ENDBRANCH   1   2
BRANCH   1   5
ATOM      5  C   UNL     1     127.709 137.672 122.017  1.00  0.00     0.190 C 
BRANCH   5   6
ATOM      6  O   UNL     1     129.107 137.722 121.913  1.00  0.00    -0.394 OA
ATOM      7  H   UNL     1     129.364 138.681 121.938  1.00  0.00     0.210 HD
ENDBRANCH   5   6
ENDBRANCH   1   5
BRANCH   1   8
ATOM      8  O   UNL     1     126.472 136.259 120.529  1.00  0.00    -0.388 OA
ATOM      9  H   UNL     1     126.735 135.892 119.644  1.00  0.00     0.211 HD
ENDBRANCH   1   8
TORSDOF 5
ENDMDL
MODEL 9
REMARK VINA RESULT:    -2.960     15.915     16.450
REMARK INTER + INTRA:          -3.781
REMARK INTER:                  -3.559
REMARK INTRA:                  -0.222
REMARK UNBOUND:                -0.215
REMARK SMILES OCC(O)CO
REMARK SMILES IDX 3 1 5 2 6 3 2 5 1 6 4 8
REMARK H PARENT 6 4 1 7 4 9
REMARK Flexibility Score: inf
ROOT
ATOM      1  C   UNL     1     135.933 123.808 121.388  1.00  0.00     0.165 C 
ENDROOT
BRANCH   1   2
ATOM      2  C   UNL     1     136.546 122.665 122.215  1.00  0.00     0.190 C 
BRANCH   2   3
ATOM      3  O   UNL     1     135.833 121.473 122.021  1.00  0.00    -0.394 OA
ATOM      4  H   UNL     1     136.361 120.747 122.444  1.00  0.00     0.210 HD
ENDBRANCH   2   3
ENDBRANCH   1   2
BRANCH   1   5
ATOM      5  C   UNL     1     135.988 123.532 119.879  1.00  0.00     0.190 C 
BRANCH   5   6
ATOM      6  O   UNL     1     134.996 122.616 119.498  1.00  0.00    -0.394 OA
ATOM      7  H   UNL     1     135.458 121.863 119.045  1.00  0.00     0.210 HD
ENDBRANCH   5   6
ENDBRANCH   1   5
BRANCH   1   8
ATOM      8  O   UNL     1     136.612 125.008 121.659  1.00  0.00    -0.388 OA
ATOM      9  H   UNL     1     136.148 125.723 121.150  1.00  0.00     0.211 HD
ENDBRANCH   1   8
TORSDOF 5
ENDMDL
