MODEL 1
REMARK VINA RESULT:     4.089      0.000      0.000
REMARK INTER + INTRA:           5.902
REMARK INTER:                   5.523
REMARK INTRA:                   0.379
REMARK UNBOUND:                 0.379
REMARK SMILES CC[C@H](CC[C@H](C)[C@@H]1CC[C@H]2[C@H]3CC(=O)C4=CC(=O)CC[C@]4(C)[C@@H]3CC[C@]21C)C(C)C
REMARK SMILES IDX 4 1 3 2 2 3 1 4 29 5 30 6 31 7 5 8 6 9 7 10 8 11 9 12 27 13
REMARK SMILES IDX 10 14 11 15 26 16 28 17 12 18 25 19 24 20 13 21 22 22 14 23
REMARK SMILES IDX 16 24 21 25 23 26 15 27 17 28 20 29 18 30 19 31
REMARK H PARENT
REMARK Flexibility Score: inf
ROOT
ATOM      1  C   UNL     1      -4.511  33.146  25.301  1.00  0.00     0.004 C 
ENDROOT
BRANCH   1   2
ATOM      2  C   UNL     1      -5.257  34.160  24.386  1.00  0.00    -0.009 C 
BRANCH   2   3
ATOM      3  C   UNL     1      -5.040  35.617  24.873  1.00  0.00     0.000 C 
ATOM      4  C   UNL     1      -5.179  35.767  26.389  1.00  0.00     0.004 C 
ENDBRANCH   2   3
BRANCH   2   5
ATOM      5  C   UNL     1      -5.075  33.963  22.839  1.00  0.00    -0.014 C 
ATOM      6  C   UNL     1      -5.043  35.295  22.073  1.00  0.00     0.007 C 
ATOM      7  C   UNL     1      -6.058  32.981  22.173  1.00  0.00     0.007 C 
ENDBRANCH   2   5
ENDBRANCH   1   2
BRANCH   1   8
ATOM      8  C   UNL     1      -5.206  31.785  25.492  1.00  0.00     0.004 C 
BRANCH   8   9
ATOM      9  C   UNL     1      -5.952  31.686  26.852  1.00  0.00    -0.011 C 
ATOM     10  C   UNL     1      -6.119  33.096  27.454  1.00  0.00     0.008 C 
BRANCH   9  11
ATOM     11  C   UNL     1      -5.279  30.735  27.910  1.00  0.00    -0.002 C 
ATOM     12  C   UNL     1      -6.124  30.397  29.136  1.00  0.00     0.005 C 
ATOM     13  C   UNL     1      -3.881  31.131  28.474  1.00  0.00    -0.026 C 
ATOM     14  C   UNL     1      -5.157  29.739  30.108  1.00  0.00     0.005 C 
ATOM     15  C   UNL     1      -3.746  30.296  29.796  1.00  0.00    -0.001 C 
ATOM     16  C   UNL     1      -2.746  30.826  27.447  1.00  0.00     0.007 C 
ATOM     17  C   UNL     1      -3.802  32.636  28.838  1.00  0.00     0.012 C 
ATOM     18  C   UNL     1      -2.637  29.205  29.721  1.00  0.00     0.004 C 
ATOM     19  C   UNL     1      -2.404  29.331  27.217  1.00  0.00     0.005 C 
ATOM     20  C   UNL     1      -2.756  28.387  28.404  1.00  0.00     0.003 C 
ATOM     21  C   UNL     1      -2.574  28.334  30.984  1.00  0.00     0.085 C 
ATOM     22  C   UNL     1      -2.046  26.946  28.421  1.00  0.00    -0.000 C 
ATOM     23  C   UNL     1      -1.393  27.428  30.891  1.00  0.00     0.159 C 
ATOM     24  C   UNL     1      -1.062  26.794  29.593  1.00  0.00     0.005 C 
ATOM     25  C   UNL     1      -1.306  26.632  27.075  1.00  0.00     0.020 C 
ATOM     26  C   UNL     1      -3.148  25.868  28.624  1.00  0.00     0.017 C 
ATOM     27  O   UNL     1      -0.716  27.188  31.927  1.00  0.00    -0.295 OA
ATOM     28  C   UNL     1      -0.004  25.959  29.516  1.00  0.00     0.055 C 
ATOM     29  C   UNL     1      -0.575  25.286  27.088  1.00  0.00     0.081 C 
ATOM     30  C   UNL     1       0.302  25.189  28.299  1.00  0.00     0.156 C 
ATOM     31  O   UNL     1       1.287  24.405  28.291  1.00  0.00    -0.295 OA
ENDBRANCH   9  11
ENDBRANCH   8   9
ENDBRANCH   1   8
TORSDOF 6
ENDMDL
MODEL 2
REMARK VINA RESULT:     6.418      1.234      1.920
REMARK INTER + INTRA:           9.048
REMARK INTER:                   7.695
REMARK INTRA:                   1.353
REMARK UNBOUND:                 0.379
REMARK SMILES CC[C@H](CC[C@H](C)[C@@H]1CC[C@H]2[C@H]3CC(=O)C4=CC(=O)CC[C@]4(C)[C@@H]3CC[C@]21C)C(C)C
REMARK SMILES IDX 4 1 3 2 2 3 1 4 29 5 30 6 31 7 5 8 6 9 7 10 8 11 9 12 27 13
REMARK SMILES IDX 10 14 11 15 26 16 28 17 12 18 25 19 24 20 13 21 22 22 14 23
REMARK SMILES IDX 16 24 21 25 23 26 15 27 17 28 20 29 18 30 19 31
REMARK H PARENT
REMARK Flexibility Score: inf
ROOT
ATOM      1  C   UNL     1      -6.010  34.273  25.163  1.00  0.00     0.004 C 
ENDROOT
BRANCH   1   2
ATOM      2  C   UNL     1      -6.125  35.524  24.245  1.00  0.00    -0.009 C 
BRANCH   2   3
ATOM      3  C   UNL     1      -5.389  36.742  24.863  1.00  0.00     0.000 C 
ATOM      4  C   UNL     1      -4.639  36.394  26.151  1.00  0.00     0.004 C 
ENDBRANCH   2   3
BRANCH   2   5
ATOM      5  C   UNL     1      -5.825  35.297  22.720  1.00  0.00    -0.014 C 
ATOM      6  C   UNL     1      -5.864  33.813  22.325  1.00  0.00     0.007 C 
ATOM      7  C   UNL     1      -4.544  35.964  22.188  1.00  0.00     0.007 C 
ENDBRANCH   2   5
ENDBRANCH   1   2
BRANCH   1   8
ATOM      8  C   UNL     1      -4.652  33.546  25.131  1.00  0.00     0.004 C 
BRANCH   8   9
ATOM      9  C   UNL     1      -4.809  32.000  25.089  1.00  0.00    -0.011 C 
ATOM     10  C   UNL     1      -6.111  31.632  24.348  1.00  0.00     0.008 C 
BRANCH   9  11
ATOM     11  C   UNL     1      -4.779  31.292  26.493  1.00  0.00    -0.002 C 
ATOM     12  C   UNL     1      -6.124  31.167  27.205  1.00  0.00     0.005 C 
ATOM     13  C   UNL     1      -3.795  31.835  27.573  1.00  0.00    -0.026 C 
ATOM     14  C   UNL     1      -5.777  30.739  28.623  1.00  0.00     0.005 C 
ATOM     15  C   UNL     1      -4.355  31.274  28.927  1.00  0.00    -0.001 C 
ATOM     16  C   UNL     1      -2.330  31.378  27.288  1.00  0.00     0.007 C 
ATOM     17  C   UNL     1      -3.804  33.384  27.647  1.00  0.00     0.012 C 
ATOM     18  C   UNL     1      -3.415  30.225  29.592  1.00  0.00     0.004 C 
ATOM     19  C   UNL     1      -2.014  29.879  27.529  1.00  0.00     0.005 C 
ATOM     20  C   UNL     1      -2.946  29.168  28.554  1.00  0.00     0.003 C 
ATOM     21  C   UNL     1      -4.013  29.615  30.867  1.00  0.00     0.085 C 
ATOM     22  C   UNL     1      -2.420  27.781  29.172  1.00  0.00    -0.000 C 
ATOM     23  C   UNL     1      -2.989  28.748  31.518  1.00  0.00     0.159 C 
ATOM     24  C   UNL     1      -2.121  27.888  30.677  1.00  0.00     0.005 C 
ATOM     25  C   UNL     1      -1.151  27.240  28.427  1.00  0.00     0.020 C 
ATOM     26  C   UNL     1      -3.551  26.725  29.018  1.00  0.00     0.017 C 
ATOM     27  O   UNL     1      -2.901  28.733  32.776  1.00  0.00    -0.295 OA
ATOM     28  C   UNL     1      -1.208  27.090  31.270  1.00  0.00     0.055 C 
ATOM     29  C   UNL     1      -0.600  25.947  29.034  1.00  0.00     0.081 C 
ATOM     30  C   UNL     1      -0.411  26.112  30.511  1.00  0.00     0.156 C 
ATOM     31  O   UNL     1       0.409  25.374  31.119  1.00  0.00    -0.295 OA
ENDBRANCH   9  11
ENDBRANCH   8   9
ENDBRANCH   1   8
TORSDOF 6
ENDMDL
