MODEL 1
REMARK VINA RESULT:    -6.037      0.000      0.000
REMARK INTER + INTRA:          -6.808
REMARK INTER:                  -6.743
REMARK INTRA:                  -0.064
REMARK UNBOUND:                -0.064
REMARK SMILES COc1cc2ccc(=O)oc2c(O)c1O
REMARK SMILES IDX 3 1 14 2 12 3 11 4 5 5 4 6 6 7 7 8 8 9 9 10 10 11 2 12 1 13
REMARK SMILES IDX 15 14 13 16
REMARK H PARENT 15 15 13 17
REMARK Flexibility Score: inf
ROOT
ATOM      1  C   UNL     1      10.787   5.139  26.414  1.00  0.00     0.165 A 
ATOM      2  C   UNL     1      12.063   5.535  25.983  1.00  0.00     0.204 A 
ATOM      3  C   UNL     1      13.147   5.548  26.880  1.00  0.00     0.205 A 
ATOM      4  C   UNL     1      12.953   5.162  28.216  1.00  0.00     0.184 A 
ATOM      5  C   UNL     1      11.671   4.762  28.652  1.00  0.00     0.025 A 
ATOM      6  C   UNL     1      10.596   4.751  27.754  1.00  0.00     0.062 A 
ATOM      7  C   UNL     1      11.508   4.382  29.988  1.00  0.00     0.020 A 
ATOM      8  C   UNL     1      12.604   4.408  30.847  1.00  0.00     0.094 A 
ATOM      9  C   UNL     1      13.845   4.815  30.348  1.00  0.00     0.336 A 
ATOM     10  O   UNL     1      14.849   4.845  31.107  1.00  0.00    -0.246 OA
ATOM     11  O   UNL     1      13.973   5.170  29.072  1.00  0.00    -0.419 OA
ENDROOT
BRANCH   1  12
ATOM     12  O   UNL     1       9.738   5.143  25.482  1.00  0.00    -0.493 OA
ATOM     13  C   UNL     1       8.955   4.002  25.143  1.00  0.00     0.278 C 
ENDBRANCH   1  12
BRANCH   2  14
ATOM     14  O   UNL     1      12.236   5.916  24.651  1.00  0.00    -0.502 OA
ATOM     15  H   UNL     1      11.492   5.845  23.967  1.00  0.00     0.293 HD
ENDBRANCH   2  14
BRANCH   3  16
ATOM     16  O   UNL     1      14.407   5.947  26.430  1.00  0.00    -0.502 OA
ATOM     17  H   UNL     1      15.046   5.305  25.976  1.00  0.00     0.293 HD
ENDBRANCH   3  16
TORSDOF 3
ENDMDL
MODEL 2
REMARK VINA RESULT:    -5.614     13.742     14.927
REMARK INTER + INTRA:          -6.334
REMARK INTER:                  -6.284
REMARK INTRA:                  -0.051
REMARK UNBOUND:                -0.064
REMARK SMILES COc1cc2ccc(=O)oc2c(O)c1O
REMARK SMILES IDX 3 1 14 2 12 3 11 4 5 5 4 6 6 7 7 8 8 9 9 10 10 11 2 12 1 13
REMARK SMILES IDX 15 14 13 16
REMARK H PARENT 15 15 13 17
REMARK Flexibility Score: inf
ROOT
ATOM      1  C   UNL     1      24.641  -0.996  25.215  1.00  0.00     0.165 A 
ATOM      2  C   UNL     1      24.809   0.373  24.952  1.00  0.00     0.204 A 
ATOM      3  C   UNL     1      25.769   1.122  25.657  1.00  0.00     0.205 A 
ATOM      4  C   UNL     1      26.567   0.497  26.630  1.00  0.00     0.184 A 
ATOM      5  C   UNL     1      26.400  -0.879  26.895  1.00  0.00     0.025 A 
ATOM      6  C   UNL     1      25.443  -1.620  26.190  1.00  0.00     0.062 A 
ATOM      7  C   UNL     1      27.208  -1.475  27.869  1.00  0.00     0.020 A 
ATOM      8  C   UNL     1      28.148  -0.702  28.547  1.00  0.00     0.094 A 
ATOM      9  C   UNL     1      28.259   0.656  28.233  1.00  0.00     0.336 A 
ATOM     10  O   UNL     1      29.102   1.374  28.833  1.00  0.00    -0.246 OA
ATOM     11  O   UNL     1      27.478   1.198  27.302  1.00  0.00    -0.419 OA
ENDROOT
BRANCH   1  12
ATOM     12  O   UNL     1      23.671  -1.700  24.486  1.00  0.00    -0.493 OA
ATOM     13  C   UNL     1      23.286  -3.047  24.743  1.00  0.00     0.278 C 
ENDBRANCH   1  12
BRANCH   2  14
ATOM     14  O   UNL     1      24.007   0.976  23.982  1.00  0.00    -0.502 OA
ATOM     15  H   UNL     1      23.442   0.438  23.336  1.00  0.00     0.293 HD
ENDBRANCH   2  14
BRANCH   3  16
ATOM     16  O   UNL     1      25.919   2.482  25.381  1.00  0.00    -0.502 OA
ATOM     17  H   UNL     1      26.278   2.817  24.495  1.00  0.00     0.293 HD
ENDBRANCH   3  16
TORSDOF 3
ENDMDL
MODEL 3
REMARK VINA RESULT:    -5.504      1.056      4.767
REMARK INTER + INTRA:          -6.212
REMARK INTER:                  -6.147
REMARK INTRA:                  -0.065
REMARK UNBOUND:                -0.064
REMARK SMILES COc1cc2ccc(=O)oc2c(O)c1O
REMARK SMILES IDX 3 1 14 2 12 3 11 4 5 5 4 6 6 7 7 8 8 9 9 10 10 11 2 12 1 13
REMARK SMILES IDX 15 14 13 16
REMARK H PARENT 15 15 13 17
REMARK Flexibility Score: inf
ROOT
ATOM      1  C   UNL     1      13.068   4.615  28.596  1.00  0.00     0.165 A 
ATOM      2  C   UNL     1      13.578   5.394  27.545  1.00  0.00     0.204 A 
ATOM      3  C   UNL     1      12.799   5.642  26.399  1.00  0.00     0.205 A 
ATOM      4  C   UNL     1      11.504   5.109  26.305  1.00  0.00     0.184 A 
ATOM      5  C   UNL     1      10.989   4.326  27.362  1.00  0.00     0.025 A 
ATOM      6  C   UNL     1      11.768   4.083  28.500  1.00  0.00     0.062 A 
ATOM      7  C   UNL     1       9.696   3.808  27.241  1.00  0.00     0.020 A 
ATOM      8  C   UNL     1       8.954   4.075  26.092  1.00  0.00     0.094 A 
ATOM      9  C   UNL     1       9.527   4.858  25.085  1.00  0.00     0.336 A 
ATOM     10  O   UNL     1       8.875   5.111  24.038  1.00  0.00    -0.246 OA
ATOM     11  O   UNL     1      10.759   5.339  25.225  1.00  0.00    -0.419 OA
ENDROOT
BRANCH   1  12
ATOM     12  O   UNL     1      13.883   4.396  29.718  1.00  0.00    -0.493 OA
ATOM     13  C   UNL     1      13.540   4.766  31.050  1.00  0.00     0.278 C 
ENDBRANCH   1  12
BRANCH   2  14
ATOM     14  O   UNL     1      14.868   5.915  27.656  1.00  0.00    -0.502 OA
ATOM     15  H   UNL     1      15.456   6.080  26.848  1.00  0.00     0.293 HD
ENDBRANCH   2  14
BRANCH   3  16
ATOM     16  O   UNL     1      13.326   6.418  25.365  1.00  0.00    -0.502 OA
ATOM     17  H   UNL     1      12.951   6.389  24.424  1.00  0.00     0.293 HD
ENDBRANCH   3  16
TORSDOF 3
ENDMDL
MODEL 4
REMARK VINA RESULT:    -5.458     13.477     14.814
REMARK INTER + INTRA:          -6.160
REMARK INTER:                  -6.098
REMARK INTRA:                  -0.062
REMARK UNBOUND:                -0.064
REMARK SMILES COc1cc2ccc(=O)oc2c(O)c1O
REMARK SMILES IDX 3 1 14 2 12 3 11 4 5 5 4 6 6 7 7 8 8 9 9 10 10 11 2 12 1 13
REMARK SMILES IDX 15 14 13 16
REMARK H PARENT 15 15 13 17
REMARK Flexibility Score: inf
ROOT
ATOM      1  C   UNL     1      26.398   0.220  26.294  1.00  0.00     0.165 A 
ATOM      2  C   UNL     1      25.645   1.033  25.432  1.00  0.00     0.204 A 
ATOM      3  C   UNL     1      24.563   0.497  24.709  1.00  0.00     0.205 A 
ATOM      4  C   UNL     1      24.234  -0.861  24.850  1.00  0.00     0.184 A 
ATOM      5  C   UNL     1      24.990  -1.680  25.716  1.00  0.00     0.025 A 
ATOM      6  C   UNL     1      26.064  -1.140  26.433  1.00  0.00     0.062 A 
ATOM      7  C   UNL     1      24.638  -3.029  25.837  1.00  0.00     0.020 A 
ATOM      8  C   UNL     1      23.562  -3.525  25.105  1.00  0.00     0.094 A 
ATOM      9  C   UNL     1      22.857  -2.657  24.266  1.00  0.00     0.336 A 
ATOM     10  O   UNL     1      21.881  -3.084  23.595  1.00  0.00    -0.246 OA
ATOM     11  O   UNL     1      23.212  -1.378  24.170  1.00  0.00    -0.419 OA
ENDROOT
BRANCH   1  12
ATOM     12  O   UNL     1      27.467   0.802  26.993  1.00  0.00    -0.493 OA
ATOM     13  C   UNL     1      27.644   0.729  28.404  1.00  0.00     0.278 C 
ENDBRANCH   1  12
BRANCH   2  14
ATOM     14  O   UNL     1      25.987   2.380  25.305  1.00  0.00    -0.502 OA
ATOM     15  H   UNL     1      26.620   2.712  24.586  1.00  0.00     0.293 HD
ENDBRANCH   2  14
BRANCH   3  16
ATOM     16  O   UNL     1      23.828   1.323  23.857  1.00  0.00    -0.502 OA
ATOM     17  H   UNL     1      23.939   1.295  22.851  1.00  0.00     0.293 HD
ENDBRANCH   3  16
TORSDOF 3
ENDMDL
MODEL 5
REMARK VINA RESULT:    -5.339      1.736      2.819
REMARK INTER + INTRA:          -6.028
REMARK INTER:                  -5.981
REMARK INTRA:                  -0.047
REMARK UNBOUND:                -0.064
REMARK SMILES COc1cc2ccc(=O)oc2c(O)c1O
REMARK SMILES IDX 3 1 14 2 12 3 11 4 5 5 4 6 6 7 7 8 8 9 9 10 10 11 2 12 1 13
REMARK SMILES IDX 15 14 13 16
REMARK H PARENT 15 15 13 17
REMARK Flexibility Score: inf
ROOT
ATOM      1  C   UNL     1      11.155   4.658  25.460  1.00  0.00     0.165 A 
ATOM      2  C   UNL     1      10.108   4.214  26.283  1.00  0.00     0.204 A 
ATOM      3  C   UNL     1      10.300   4.073  27.670  1.00  0.00     0.205 A 
ATOM      4  C   UNL     1      11.548   4.379  28.236  1.00  0.00     0.184 A 
ATOM      5  C   UNL     1      12.603   4.826  27.411  1.00  0.00     0.025 A 
ATOM      6  C   UNL     1      12.405   4.964  26.032  1.00  0.00     0.062 A 
ATOM      7  C   UNL     1      13.835   5.123  28.003  1.00  0.00     0.020 A 
ATOM      8  C   UNL     1      13.989   4.971  29.380  1.00  0.00     0.094 A 
ATOM      9  C   UNL     1      12.901   4.524  30.136  1.00  0.00     0.336 A 
ATOM     10  O   UNL     1      13.018   4.380  31.381  1.00  0.00    -0.246 OA
ATOM     11  O   UNL     1      11.740   4.249  29.548  1.00  0.00    -0.419 OA
ENDROOT
BRANCH   1  12
ATOM     12  O   UNL     1      10.914   4.782  24.084  1.00  0.00    -0.493 OA
ATOM     13  C   UNL     1      11.162   3.758  23.125  1.00  0.00     0.278 C 
ENDBRANCH   1  12
BRANCH   2  14
ATOM     14  O   UNL     1       8.875   3.915  25.701  1.00  0.00    -0.502 OA
ATOM     15  H   UNL     1       8.014   3.895  26.236  1.00  0.00     0.293 HD
ENDBRANCH   2  14
BRANCH   3  16
ATOM     16  O   UNL     1       9.246   3.629  28.469  1.00  0.00    -0.502 OA
ATOM     17  H   UNL     1       8.287   3.622  28.142  1.00  0.00     0.293 HD
ENDBRANCH   3  16
TORSDOF 3
ENDMDL
MODEL 6
REMARK VINA RESULT:    -5.328      3.128      4.932
REMARK INTER + INTRA:          -6.015
REMARK INTER:                  -5.967
REMARK INTRA:                  -0.048
REMARK UNBOUND:                -0.064
REMARK SMILES COc1cc2ccc(=O)oc2c(O)c1O
REMARK SMILES IDX 3 1 14 2 12 3 11 4 5 5 4 6 6 7 7 8 8 9 9 10 10 11 2 12 1 13
REMARK SMILES IDX 15 14 13 16
REMARK H PARENT 15 15 13 17
REMARK Flexibility Score: inf
ROOT
ATOM      1  C   UNL     1      10.821   1.472  24.055  1.00  0.00     0.165 A 
ATOM      2  C   UNL     1      10.226   2.404  23.190  1.00  0.00     0.204 A 
ATOM      3  C   UNL     1      10.389   3.785  23.407  1.00  0.00     0.205 A 
ATOM      4  C   UNL     1      11.153   4.235  24.496  1.00  0.00     0.184 A 
ATOM      5  C   UNL     1      11.753   3.300  25.367  1.00  0.00     0.025 A 
ATOM      6  C   UNL     1      11.587   1.927  25.145  1.00  0.00     0.062 A 
ATOM      7  C   UNL     1      12.508   3.777  26.443  1.00  0.00     0.020 A 
ATOM      8  C   UNL     1      12.647   5.151  26.627  1.00  0.00     0.094 A 
ATOM      9  C   UNL     1      12.026   6.021  25.726  1.00  0.00     0.336 A 
ATOM     10  O   UNL     1      12.138   7.266  25.873  1.00  0.00    -0.246 OA
ATOM     11  O   UNL     1      11.313   5.540  24.710  1.00  0.00    -0.419 OA
ENDROOT
BRANCH   1  12
ATOM     12  O   UNL     1      10.629   0.106  23.796  1.00  0.00    -0.493 OA
ATOM     13  C   UNL     1      11.510  -0.700  23.019  1.00  0.00     0.278 C 
ENDBRANCH   1  12
BRANCH   2  14
ATOM     14  O   UNL     1       9.470   1.938  22.113  1.00  0.00    -0.502 OA
ATOM     15  H   UNL     1       9.701   2.161  21.152  1.00  0.00     0.293 HD
ENDBRANCH   2  14
BRANCH   3  16
ATOM     16  O   UNL     1       9.787   4.694  22.535  1.00  0.00    -0.502 OA
ATOM     17  H   UNL     1       9.245   5.482  22.868  1.00  0.00     0.293 HD
ENDBRANCH   3  16
TORSDOF 3
ENDMDL
MODEL 7
REMARK VINA RESULT:    -5.311     13.310     14.686
REMARK INTER + INTRA:          -5.997
REMARK INTER:                  -5.932
REMARK INTRA:                  -0.064
REMARK UNBOUND:                -0.064
REMARK SMILES COc1cc2ccc(=O)oc2c(O)c1O
REMARK SMILES IDX 3 1 14 2 12 3 11 4 5 5 4 6 6 7 7 8 8 9 9 10 10 11 2 12 1 13
REMARK SMILES IDX 15 14 13 16
REMARK H PARENT 15 15 13 17
REMARK Flexibility Score: inf
ROOT
ATOM      1  C   UNL     1      24.309  -1.807  24.547  1.00  0.00     0.165 A 
ATOM      2  C   UNL     1      23.166  -1.071  24.198  1.00  0.00     0.204 A 
ATOM      3  C   UNL     1      22.085  -1.696  23.548  1.00  0.00     0.205 A 
ATOM      4  C   UNL     1      22.150  -3.066  23.247  1.00  0.00     0.184 A 
ATOM      5  C   UNL     1      23.298  -3.809  23.597  1.00  0.00     0.025 A 
ATOM      6  C   UNL     1      24.370  -3.181  24.244  1.00  0.00     0.062 A 
ATOM      7  C   UNL     1      23.335  -5.171  23.285  1.00  0.00     0.020 A 
ATOM      8  C   UNL     1      22.246  -5.757  22.641  1.00  0.00     0.094 A 
ATOM      9  C   UNL     1      21.141  -4.962  22.324  1.00  0.00     0.336 A 
ATOM     10  O   UNL     1      20.147  -5.469  21.742  1.00  0.00    -0.246 OA
ATOM     11  O   UNL     1      21.132  -3.667  22.633  1.00  0.00    -0.419 OA
ENDROOT
BRANCH   1  12
ATOM     12  O   UNL     1      25.360  -1.138  25.193  1.00  0.00    -0.493 OA
ATOM     13  C   UNL     1      26.524  -0.641  24.539  1.00  0.00     0.278 C 
ENDBRANCH   1  12
BRANCH   2  14
ATOM     14  O   UNL     1      23.121   0.290  24.505  1.00  0.00    -0.502 OA
ATOM     15  H   UNL     1      22.260   0.824  24.470  1.00  0.00     0.293 HD
ENDBRANCH   2  14
BRANCH   3  16
ATOM     16  O   UNL     1      20.959  -0.946  23.209  1.00  0.00    -0.502 OA
ATOM     17  H   UNL     1      20.030  -1.348  23.184  1.00  0.00     0.293 HD
ENDBRANCH   3  16
TORSDOF 3
ENDMDL
MODEL 8
REMARK VINA RESULT:    -5.273      3.123      5.415
REMARK INTER + INTRA:          -5.954
REMARK INTER:                  -5.895
REMARK INTRA:                  -0.059
REMARK UNBOUND:                -0.064
REMARK SMILES COc1cc2ccc(=O)oc2c(O)c1O
REMARK SMILES IDX 3 1 14 2 12 3 11 4 5 5 4 6 6 7 7 8 8 9 9 10 10 11 2 12 1 13
REMARK SMILES IDX 15 14 13 16
REMARK H PARENT 15 15 13 17
REMARK Flexibility Score: inf
ROOT
ATOM      1  C   UNL     1      10.942   5.004  27.194  1.00  0.00     0.165 A 
ATOM      2  C   UNL     1      11.114   3.755  27.812  1.00  0.00     0.204 A 
ATOM      3  C   UNL     1      11.304   2.596  27.037  1.00  0.00     0.205 A 
ATOM      4  C   UNL     1      11.322   2.687  25.636  1.00  0.00     0.184 A 
ATOM      5  C   UNL     1      11.149   3.942  25.013  1.00  0.00     0.025 A 
ATOM      6  C   UNL     1      10.961   5.092  25.789  1.00  0.00     0.062 A 
ATOM      7  C   UNL     1      11.172   4.003  23.616  1.00  0.00     0.020 A 
ATOM      8  C   UNL     1      11.361   2.834  22.881  1.00  0.00     0.094 A 
ATOM      9  C   UNL     1      11.526   1.625  23.564  1.00  0.00     0.336 A 
ATOM     10  O   UNL     1      11.699   0.557  22.921  1.00  0.00    -0.246 OA
ATOM     11  O   UNL     1      11.501   1.596  24.894  1.00  0.00    -0.419 OA
ENDROOT
BRANCH   1  12
ATOM     12  O   UNL     1      10.756   6.130  28.010  1.00  0.00    -0.493 OA
ATOM     13  C   UNL     1       9.487   6.675  28.358  1.00  0.00     0.278 C 
ENDBRANCH   1  12
BRANCH   2  14
ATOM     14  O   UNL     1      11.093   3.684  29.206  1.00  0.00    -0.502 OA
ATOM     15  H   UNL     1      10.847   2.835  29.701  1.00  0.00     0.293 HD
ENDBRANCH   2  14
BRANCH   3  16
ATOM     16  O   UNL     1      11.472   1.364  27.672  1.00  0.00    -0.502 OA
ATOM     17  H   UNL     1      10.688   0.766  27.906  1.00  0.00     0.293 HD
ENDBRANCH   3  16
TORSDOF 3
ENDMDL
MODEL 9
REMARK VINA RESULT:    -5.210     14.638     15.713
REMARK INTER + INTRA:          -5.884
REMARK INTER:                  -5.817
REMARK INTRA:                  -0.067
REMARK UNBOUND:                -0.064
REMARK SMILES COc1cc2ccc(=O)oc2c(O)c1O
REMARK SMILES IDX 3 1 14 2 12 3 11 4 5 5 4 6 6 7 7 8 8 9 9 10 10 11 2 12 1 13
REMARK SMILES IDX 15 14 13 16
REMARK H PARENT 15 15 13 17
REMARK Flexibility Score: inf
ROOT
ATOM      1  C   UNL     1      27.080  -1.183  25.715  1.00  0.00     0.165 A 
ATOM      2  C   UNL     1      26.445   0.067  25.645  1.00  0.00     0.204 A 
ATOM      3  C   UNL     1      26.260   0.839  26.807  1.00  0.00     0.205 A 
ATOM      4  C   UNL     1      26.712   0.358  28.046  1.00  0.00     0.184 A 
ATOM      5  C   UNL     1      27.352  -0.899  28.118  1.00  0.00     0.025 A 
ATOM      6  C   UNL     1      27.534  -1.663  26.959  1.00  0.00     0.062 A 
ATOM      7  C   UNL     1      27.793  -1.353  29.366  1.00  0.00     0.020 A 
ATOM      8  C   UNL     1      27.591  -0.562  30.495  1.00  0.00     0.094 A 
ATOM      9  C   UNL     1      26.951   0.672  30.349  1.00  0.00     0.336 A 
ATOM     10  O   UNL     1      26.758   1.404  31.355  1.00  0.00    -0.246 OA
ATOM     11  O   UNL     1      26.542   1.081  29.151  1.00  0.00    -0.419 OA
ENDROOT
BRANCH   1  12
ATOM     12  O   UNL     1      27.242  -1.915  24.529  1.00  0.00    -0.493 OA
ATOM     13  C   UNL     1      26.648  -3.186  24.277  1.00  0.00     0.278 C 
ENDBRANCH   1  12
BRANCH   2  14
ATOM     14  O   UNL     1      26.001   0.529  24.405  1.00  0.00    -0.502 OA
ATOM     15  H   UNL     1      26.321   0.127  23.532  1.00  0.00     0.293 HD
ENDBRANCH   2  14
BRANCH   3  16
ATOM     16  O   UNL     1      25.625   2.079  26.715  1.00  0.00    -0.502 OA
ATOM     17  H   UNL     1      26.026   2.921  27.109  1.00  0.00     0.293 HD
ENDBRANCH   3  16
TORSDOF 3
ENDMDL
