MODEL 1
REMARK VINA RESULT:    -4.337      0.000      0.000
REMARK INTER + INTRA:          -6.486
REMARK INTER:                  -5.858
REMARK INTRA:                  -0.628
REMARK UNBOUND:                -0.628
REMARK SMILES CCCCCCC=CC(=O)[O-]
REMARK SMILES IDX 5 1 6 2 7 3 8 4 9 5 10 6 11 7 4 8 3 9 2 10 1 11
REMARK H PARENT
REMARK Flexibility Score: inf
ROOT
ATOM      1  C   UNL     1      -6.298   7.819  -6.111  1.00  0.00     0.004 C 
ENDROOT
BRANCH   1   2
ATOM      2  C   UNL     1      -5.084   7.213  -5.396  1.00  0.00     0.027 C 
BRANCH   2   3
ATOM      3  C   UNL     1      -5.482   6.037  -4.551  1.00  0.00    -0.025 C 
ATOM      4  C   UNL     1      -5.355   4.782  -4.997  1.00  0.00     0.020 C 
BRANCH   4   5
ATOM      5  C   UNL     1      -5.751   3.616  -4.193  1.00  0.00     0.064 C 
ATOM      6  O   UNL     1      -4.993   2.617  -4.076  1.00  0.00    -0.545 OA
ATOM      7  O   UNL     1      -6.983   3.616  -3.552  1.00  0.00    -0.545 OA
ENDBRANCH   4   5
ENDBRANCH   2   3
ENDBRANCH   1   2
BRANCH   1   8
ATOM      8  C   UNL     1      -6.055   7.912  -7.623  1.00  0.00     0.000 C 
BRANCH   8   9
ATOM      9  C   UNL     1      -4.643   7.427  -7.983  1.00  0.00    -0.000 C 
BRANCH   9  10
ATOM     10  C   UNL     1      -4.650   6.356  -9.086  1.00  0.00    -0.003 C 
ATOM     11  C   UNL     1      -4.217   4.981  -8.578  1.00  0.00     0.004 C 
ENDBRANCH   9  10
ENDBRANCH   8   9
ENDBRANCH   1   8
TORSDOF 6
ENDMDL
MODEL 2
REMARK VINA RESULT:    -4.100      1.212      1.971
REMARK INTER + INTRA:          -6.166
REMARK INTER:                  -5.774
REMARK INTRA:                  -0.392
REMARK UNBOUND:                -0.628
REMARK SMILES CCCCCCC=CC(=O)[O-]
REMARK SMILES IDX 5 1 6 2 7 3 8 4 9 5 10 6 11 7 4 8 3 9 2 10 1 11
REMARK H PARENT
REMARK Flexibility Score: inf
ROOT
ATOM      1  C   UNL     1      -5.030   5.014  -7.663  1.00  0.00     0.004 C 
ENDROOT
BRANCH   1   2
ATOM      2  C   UNL     1      -5.278   5.997  -6.513  1.00  0.00     0.027 C 
BRANCH   2   3
ATOM      3  C   UNL     1      -5.616   5.273  -5.242  1.00  0.00    -0.025 C 
ATOM      4  C   UNL     1      -5.295   3.985  -5.065  1.00  0.00     0.020 C 
BRANCH   4   5
ATOM      5  C   UNL     1      -5.628   3.252  -3.834  1.00  0.00     0.064 C 
ATOM      6  O   UNL     1      -5.126   2.122  -3.592  1.00  0.00    -0.545 OA
ATOM      7  O   UNL     1      -6.511   3.815  -2.922  1.00  0.00    -0.545 OA
ENDBRANCH   4   5
ENDBRANCH   2   3
ENDBRANCH   1   2
BRANCH   1   8
ATOM      8  C   UNL     1      -4.422   5.729  -8.876  1.00  0.00     0.000 C 
BRANCH   8   9
ATOM      9  C   UNL     1      -4.400   7.250  -8.663  1.00  0.00    -0.000 C 
BRANCH   9  10
ATOM     10  C   UNL     1      -5.122   8.014  -9.783  1.00  0.00    -0.003 C 
ATOM     11  C   UNL     1      -5.934   7.097 -10.697  1.00  0.00     0.004 C 
ENDBRANCH   9  10
ENDBRANCH   8   9
ENDBRANCH   1   8
TORSDOF 6
ENDMDL
MODEL 3
REMARK VINA RESULT:    -3.930      1.338      2.922
REMARK INTER + INTRA:          -5.937
REMARK INTER:                  -5.197
REMARK INTRA:                  -0.740
REMARK UNBOUND:                -0.628
REMARK SMILES CCCCCCC=CC(=O)[O-]
REMARK SMILES IDX 5 1 6 2 7 3 8 4 9 5 10 6 11 7 4 8 3 9 2 10 1 11
REMARK H PARENT
REMARK Flexibility Score: inf
ROOT
ATOM      1  C   UNL     1      -4.395   6.911  -8.464  1.00  0.00     0.004 C 
ENDROOT
BRANCH   1   2
ATOM      2  C   UNL     1      -4.385   5.416  -8.805  1.00  0.00     0.027 C 
BRANCH   2   3
ATOM      3  C   UNL     1      -5.060   4.610  -7.732  1.00  0.00    -0.025 C 
ATOM      4  C   UNL     1      -4.822   4.835  -6.435  1.00  0.00     0.020 C 
BRANCH   4   5
ATOM      5  C   UNL     1      -5.461   4.049  -5.368  1.00  0.00     0.064 C 
ATOM      6  O   UNL     1      -6.376   4.541  -4.655  1.00  0.00    -0.545 OA
ATOM      7  O   UNL     1      -5.049   2.742  -5.144  1.00  0.00    -0.545 OA
ENDBRANCH   4   5
ENDBRANCH   2   3
ENDBRANCH   1   2
BRANCH   1   8
ATOM      8  C   UNL     1      -5.283   7.692  -9.441  1.00  0.00     0.000 C 
BRANCH   8   9
ATOM      9  C   UNL     1      -6.522   8.255  -8.727  1.00  0.00    -0.000 C 
BRANCH   9  10
ATOM     10  C   UNL     1      -6.443   8.103  -7.200  1.00  0.00    -0.003 C 
ATOM     11  C   UNL     1      -7.610   7.304  -6.624  1.00  0.00     0.004 C 
ENDBRANCH   9  10
ENDBRANCH   8   9
ENDBRANCH   1   8
TORSDOF 6
ENDMDL
MODEL 4
REMARK VINA RESULT:    -3.682      3.184      5.357
REMARK INTER + INTRA:          -5.602
REMARK INTER:                  -5.228
REMARK INTRA:                  -0.374
REMARK UNBOUND:                -0.628
REMARK SMILES CCCCCCC=CC(=O)[O-]
REMARK SMILES IDX 5 1 6 2 7 3 8 4 9 5 10 6 11 7 4 8 3 9 2 10 1 11
REMARK H PARENT
REMARK Flexibility Score: inf
ROOT
ATOM      1  C   UNL     1      -5.227   6.028  -4.299  1.00  0.00     0.004 C 
ENDROOT
BRANCH   1   2
ATOM      2  C   UNL     1      -5.238   7.176  -5.316  1.00  0.00     0.027 C 
BRANCH   2   3
ATOM      3  C   UNL     1      -5.110   6.659  -6.720  1.00  0.00    -0.025 C 
ATOM      4  C   UNL     1      -4.983   7.490  -7.761  1.00  0.00     0.020 C 
BRANCH   4   5
ATOM      5  C   UNL     1      -4.870   7.006  -9.146  1.00  0.00     0.064 C 
ATOM      6  O   UNL     1      -5.087   7.772 -10.124  1.00  0.00    -0.545 OA
ATOM      7  O   UNL     1      -4.520   5.683  -9.381  1.00  0.00    -0.545 OA
ENDBRANCH   4   5
ENDBRANCH   2   3
ENDBRANCH   1   2
BRANCH   1   8
ATOM      8  C   UNL     1      -4.825   4.707  -4.966  1.00  0.00     0.000 C 
BRANCH   8   9
ATOM      9  C   UNL     1      -5.532   3.517  -4.299  1.00  0.00    -0.000 C 
BRANCH   9  10
ATOM     10  C   UNL     1      -6.639   3.957  -3.327  1.00  0.00    -0.003 C 
ATOM     11  C   UNL     1      -6.503   3.317  -1.947  1.00  0.00     0.004 C 
ENDBRANCH   9  10
ENDBRANCH   8   9
ENDBRANCH   1   8
TORSDOF 6
ENDMDL
MODEL 5
REMARK VINA RESULT:    -3.667      1.847      2.801
REMARK INTER + INTRA:          -5.582
REMARK INTER:                  -5.169
REMARK INTRA:                  -0.413
REMARK UNBOUND:                -0.628
REMARK SMILES CCCCCCC=CC(=O)[O-]
REMARK SMILES IDX 5 1 6 2 7 3 8 4 9 5 10 6 11 7 4 8 3 9 2 10 1 11
REMARK H PARENT
REMARK Flexibility Score: inf
ROOT
ATOM      1  C   UNL     1      -4.379   6.982  -8.383  1.00  0.00     0.004 C 
ENDROOT
BRANCH   1   2
ATOM      2  C   UNL     1      -4.637   5.492  -8.636  1.00  0.00     0.027 C 
BRANCH   2   3
ATOM      3  C   UNL     1      -5.380   4.867  -7.490  1.00  0.00    -0.025 C 
ATOM      4  C   UNL     1      -4.755   4.522  -6.358  1.00  0.00     0.020 C 
BRANCH   4   5
ATOM      5  C   UNL     1      -5.460   3.896  -5.229  1.00  0.00     0.064 C 
ATOM      6  O   UNL     1      -6.412   4.483  -4.648  1.00  0.00    -0.545 OA
ATOM      7  O   UNL     1      -5.069   2.636  -4.795  1.00  0.00    -0.545 OA
ENDBRANCH   4   5
ENDBRANCH   2   3
ENDBRANCH   1   2
BRANCH   1   8
ATOM      8  C   UNL     1      -4.906   7.836  -9.542  1.00  0.00     0.000 C 
BRANCH   8   9
ATOM      9  C   UNL     1      -6.326   7.405  -9.941  1.00  0.00    -0.000 C 
BRANCH   9  10
ATOM     10  C   UNL     1      -6.458   7.132 -11.448  1.00  0.00    -0.003 C 
ATOM     11  C   UNL     1      -6.631   5.648 -11.767  1.00  0.00     0.004 C 
ENDBRANCH   9  10
ENDBRANCH   8   9
ENDBRANCH   1   8
TORSDOF 6
ENDMDL
MODEL 6
REMARK VINA RESULT:    -3.514      3.419      4.942
REMARK INTER + INTRA:          -5.375
REMARK INTER:                  -4.775
REMARK INTRA:                  -0.600
REMARK UNBOUND:                -0.628
REMARK SMILES CCCCCCC=CC(=O)[O-]
REMARK SMILES IDX 5 1 6 2 7 3 8 4 9 5 10 6 11 7 4 8 3 9 2 10 1 11
REMARK H PARENT
REMARK Flexibility Score: inf
ROOT
ATOM      1  C   UNL     1      -5.114   7.343  -5.306  1.00  0.00     0.004 C 
ENDROOT
BRANCH   1   2
ATOM      2  C   UNL     1      -6.505   7.364  -5.951  1.00  0.00     0.027 C 
BRANCH   2   3
ATOM      3  C   UNL     1      -6.408   7.379  -7.450  1.00  0.00    -0.025 C 
ATOM      4  C   UNL     1      -5.234   7.236  -8.075  1.00  0.00     0.020 C 
BRANCH   4   5
ATOM      5  C   UNL     1      -5.113   7.261  -9.542  1.00  0.00     0.064 C 
ATOM      6  O   UNL     1      -5.207   6.204 -10.221  1.00  0.00    -0.545 OA
ATOM      7  O   UNL     1      -4.893   8.470 -10.187  1.00  0.00    -0.545 OA
ENDBRANCH   4   5
ENDBRANCH   2   3
ENDBRANCH   1   2
BRANCH   1   8
ATOM      8  C   UNL     1      -5.093   6.427  -4.076  1.00  0.00     0.000 C 
BRANCH   8   9
ATOM      9  C   UNL     1      -6.126   5.298  -4.214  1.00  0.00    -0.000 C 
BRANCH   9  10
ATOM     10  C   UNL     1      -5.480   3.942  -4.538  1.00  0.00    -0.003 C 
ATOM     11  C   UNL     1      -5.075   3.816  -6.006  1.00  0.00     0.004 C 
ENDBRANCH   9  10
ENDBRANCH   8   9
ENDBRANCH   1   8
TORSDOF 6
ENDMDL
MODEL 7
REMARK VINA RESULT:    -3.449      4.098      5.953
REMARK INTER + INTRA:          -5.286
REMARK INTER:                  -5.028
REMARK INTRA:                  -0.258
REMARK UNBOUND:                -0.628
REMARK SMILES CCCCCCC=CC(=O)[O-]
REMARK SMILES IDX 5 1 6 2 7 3 8 4 9 5 10 6 11 7 4 8 3 9 2 10 1 11
REMARK H PARENT
REMARK Flexibility Score: inf
ROOT
ATOM      1  C   UNL     1      -5.415   4.737  -7.345  1.00  0.00     0.004 C 
ENDROOT
BRANCH   1   2
ATOM      2  C   UNL     1      -5.075   6.220  -7.154  1.00  0.00     0.027 C 
BRANCH   2   3
ATOM      3  C   UNL     1      -4.745   6.875  -8.464  1.00  0.00    -0.025 C 
ATOM      4  C   UNL     1      -5.694   7.437  -9.222  1.00  0.00     0.020 C 
BRANCH   4   5
ATOM      5  C   UNL     1      -5.397   8.072 -10.515  1.00  0.00     0.064 C 
ATOM      6  O   UNL     1      -4.642   9.079 -10.589  1.00  0.00    -0.545 OA
ATOM      7  O   UNL     1      -5.958   7.554 -11.675  1.00  0.00    -0.545 OA
ENDBRANCH   4   5
ENDBRANCH   2   3
ENDBRANCH   1   2
BRANCH   1   8
ATOM      8  C   UNL     1      -5.030   3.920  -6.105  1.00  0.00     0.000 C 
BRANCH   8   9
ATOM      9  C   UNL     1      -5.107   4.780  -4.835  1.00  0.00    -0.000 C 
BRANCH   9  10
ATOM     10  C   UNL     1      -6.006   4.159  -3.755  1.00  0.00    -0.003 C 
ATOM     11  C   UNL     1      -5.573   2.746  -3.365  1.00  0.00     0.004 C 
ENDBRANCH   9  10
ENDBRANCH   8   9
ENDBRANCH   1   8
TORSDOF 6
ENDMDL
MODEL 8
REMARK VINA RESULT:    -3.379     19.849     21.197
REMARK INTER + INTRA:          -5.192
REMARK INTER:                  -4.551
REMARK INTRA:                  -0.641
REMARK UNBOUND:                -0.628
REMARK SMILES CCCCCCC=CC(=O)[O-]
REMARK SMILES IDX 5 1 6 2 7 3 8 4 9 5 10 6 11 7 4 8 3 9 2 10 1 11
REMARK H PARENT
REMARK Flexibility Score: inf
ROOT
ATOM      1  C   UNL     1       9.892  -5.129  -2.120  1.00  0.00     0.004 C 
ENDROOT
BRANCH   1   2
ATOM      2  C   UNL     1      10.374  -4.966  -3.566  1.00  0.00     0.027 C 
BRANCH   2   3
ATOM      3  C   UNL     1      11.169  -6.160  -4.012  1.00  0.00    -0.025 C 
ATOM      4  C   UNL     1      10.673  -7.042  -4.888  1.00  0.00     0.020 C 
BRANCH   4   5
ATOM      5  C   UNL     1      11.428  -8.225  -5.328  1.00  0.00     0.064 C 
ATOM      6  O   UNL     1      12.118  -8.898  -4.515  1.00  0.00    -0.545 OA
ATOM      7  O   UNL     1      11.380  -8.608  -6.661  1.00  0.00    -0.545 OA
ENDBRANCH   4   5
ENDBRANCH   2   3
ENDBRANCH   1   2
BRANCH   1   8
ATOM      8  C   UNL     1      10.935  -5.868  -1.272  1.00  0.00     0.000 C 
BRANCH   8   9
ATOM      9  C   UNL     1      10.276  -6.563  -0.072  1.00  0.00    -0.000 C 
BRANCH   9  10
ATOM     10  C   UNL     1       9.491  -7.821  -0.476  1.00  0.00    -0.003 C 
ATOM     11  C   UNL     1      10.282  -8.738  -1.407  1.00  0.00     0.004 C 
ENDBRANCH   9  10
ENDBRANCH   8   9
ENDBRANCH   1   8
TORSDOF 6
ENDMDL
MODEL 9
REMARK VINA RESULT:    -3.374     15.904     16.982
REMARK INTER + INTRA:          -5.186
REMARK INTER:                  -4.982
REMARK INTRA:                  -0.204
REMARK UNBOUND:                -0.628
REMARK SMILES CCCCCCC=CC(=O)[O-]
REMARK SMILES IDX 5 1 6 2 7 3 8 4 9 5 10 6 11 7 4 8 3 9 2 10 1 11
REMARK H PARENT
REMARK Flexibility Score: inf
ROOT
ATOM      1  C   UNL     1      10.205   4.987  -6.195  1.00  0.00     0.004 C 
ENDROOT
BRANCH   1   2
ATOM      2  C   UNL     1      11.202   4.598  -7.293  1.00  0.00     0.027 C 
BRANCH   2   3
ATOM      3  C   UNL     1      11.163   3.121  -7.565  1.00  0.00    -0.025 C 
ATOM      4  C   UNL     1      11.309   2.634  -8.803  1.00  0.00     0.020 C 
BRANCH   4   5
ATOM      5  C   UNL     1      11.260   1.193  -9.094  1.00  0.00     0.064 C 
ATOM      6  O   UNL     1      11.766   0.724 -10.148  1.00  0.00    -0.545 OA
ATOM      7  O   UNL     1      10.647   0.335  -8.191  1.00  0.00    -0.545 OA
ENDBRANCH   4   5
ENDBRANCH   2   3
ENDBRANCH   1   2
BRANCH   1   8
ATOM      8  C   UNL     1      10.924   5.229  -4.862  1.00  0.00     0.000 C 
BRANCH   8   9
ATOM      9  C   UNL     1      10.610   6.630  -4.315  1.00  0.00    -0.000 C 
BRANCH   9  10
ATOM     10  C   UNL     1      10.175   6.604  -2.841  1.00  0.00    -0.003 C 
ATOM     11  C   UNL     1       9.707   5.223  -2.386  1.00  0.00     0.004 C 
ENDBRANCH   9  10
ENDBRANCH   8   9
ENDBRANCH   1   8
TORSDOF 6
ENDMDL
