MODEL 1
REMARK VINA RESULT:    -2.948      0.000      0.000
REMARK INTER + INTRA:          -2.948
REMARK INTER:                  -2.948
REMARK INTRA:                   0.000
REMARK UNBOUND:                 0.000
REMARK SMILES CC(=O)[O-]
REMARK SMILES IDX 1 1 2 2 3 3 4 4
REMARK H PARENT
REMARK Flexibility Score: inf
ROOT
ATOM      1  C   UNL     1      -4.892 -27.785  27.145  1.00  0.00     0.063 C 
ATOM      2  C   UNL     1      -4.157 -28.345  28.316  1.00  0.00     0.038 C 
ATOM      3  O   UNL     1      -2.909 -28.205  28.404  1.00  0.00    -0.550 OA
ATOM      4  O   UNL     1      -4.854 -28.975  29.339  1.00  0.00    -0.550 OA
ENDROOT
TORSDOF 0
ENDMDL
MODEL 2
REMARK VINA RESULT:    -2.774      1.581      1.746
REMARK INTER + INTRA:          -2.774
REMARK INTER:                  -2.774
REMARK INTRA:                   0.000
REMARK UNBOUND:                 0.000
REMARK SMILES CC(=O)[O-]
REMARK SMILES IDX 1 1 2 2 3 3 4 4
REMARK H PARENT
REMARK Flexibility Score: inf
ROOT
ATOM      1  C   UNL     1      -3.226 -28.203  28.335  1.00  0.00     0.063 C 
ATOM      2  C   UNL     1      -4.697 -28.400  28.469  1.00  0.00     0.038 C 
ATOM      3  O   UNL     1      -5.477 -27.966  27.581  1.00  0.00    -0.550 OA
ATOM      4  O   UNL     1      -5.209 -29.111  29.547  1.00  0.00    -0.550 OA
ENDROOT
TORSDOF 0
ENDMDL
MODEL 3
REMARK VINA RESULT:    -2.334      1.991      2.752
REMARK INTER + INTRA:          -2.334
REMARK INTER:                  -2.334
REMARK INTRA:                   0.000
REMARK UNBOUND:                 0.000
REMARK SMILES CC(=O)[O-]
REMARK SMILES IDX 1 1 2 2 3 3 4 4
REMARK H PARENT
REMARK Flexibility Score: inf
ROOT
ATOM      1  C   UNL     1      -3.387 -28.341  28.325  1.00  0.00     0.063 C 
ATOM      2  C   UNL     1      -3.901 -27.831  27.022  1.00  0.00     0.038 C 
ATOM      3  O   UNL     1      -5.136 -27.651  26.856  1.00  0.00    -0.550 OA
ATOM      4  O   UNL     1      -3.015 -27.500  26.005  1.00  0.00    -0.550 OA
ENDROOT
TORSDOF 0
ENDMDL
MODEL 4
REMARK VINA RESULT:    -2.316      1.820      2.340
REMARK INTER + INTRA:          -2.316
REMARK INTER:                  -2.316
REMARK INTRA:                   0.000
REMARK UNBOUND:                 0.000
REMARK SMILES CC(=O)[O-]
REMARK SMILES IDX 1 1 2 2 3 3 4 4
REMARK H PARENT
REMARK Flexibility Score: inf
ROOT
ATOM      1  C   UNL     1      -5.103 -27.524  26.237  1.00  0.00     0.063 C 
ATOM      2  C   UNL     1      -3.626 -27.615  26.411  1.00  0.00     0.038 C 
ATOM      3  O   UNL     1      -2.858 -27.356  25.447  1.00  0.00    -0.550 OA
ATOM      4  O   UNL     1      -3.089 -27.932  27.652  1.00  0.00    -0.550 OA
ENDROOT
TORSDOF 0
ENDMDL
MODEL 5
REMARK VINA RESULT:    -2.312      1.766      2.577
REMARK INTER + INTRA:          -2.312
REMARK INTER:                  -2.312
REMARK INTRA:                   0.000
REMARK UNBOUND:                 0.000
REMARK SMILES CC(=O)[O-]
REMARK SMILES IDX 1 1 2 2 3 3 4 4
REMARK H PARENT
REMARK Flexibility Score: inf
ROOT
ATOM      1  C   UNL     1      -5.137 -27.579  26.488  1.00  0.00     0.063 C 
ATOM      2  C   UNL     1      -3.649 -27.625  26.579  1.00  0.00     0.038 C 
ATOM      3  O   UNL     1      -3.092 -27.944  27.662  1.00  0.00    -0.550 OA
ATOM      4  O   UNL     1      -2.875 -27.369  25.455  1.00  0.00    -0.550 OA
ENDROOT
TORSDOF 0
ENDMDL
MODEL 6
REMARK VINA RESULT:    -1.977     22.071     22.495
REMARK INTER + INTRA:          -1.977
REMARK INTER:                  -1.977
REMARK INTRA:                   0.000
REMARK UNBOUND:                 0.000
REMARK SMILES CC(=O)[O-]
REMARK SMILES IDX 1 1 2 2 3 3 4 4
REMARK H PARENT
REMARK Flexibility Score: inf
ROOT
ATOM      1  C   UNL     1     -18.088 -13.133  22.850  1.00  0.00     0.063 C 
ATOM      2  C   UNL     1     -19.006 -12.133  23.466  1.00  0.00     0.038 C 
ATOM      3  O   UNL     1     -20.125 -11.895  22.941  1.00  0.00    -0.550 OA
ATOM      4  O   UNL     1     -18.653 -11.502  24.652  1.00  0.00    -0.550 OA
ENDROOT
TORSDOF 0
ENDMDL
MODEL 7
REMARK VINA RESULT:    -1.943      3.069      3.307
REMARK INTER + INTRA:          -1.943
REMARK INTER:                  -1.943
REMARK INTRA:                   0.000
REMARK UNBOUND:                 0.000
REMARK SMILES CC(=O)[O-]
REMARK SMILES IDX 1 1 2 2 3 3 4 4
REMARK H PARENT
REMARK Flexibility Score: inf
ROOT
ATOM      1  C   UNL     1      -3.809 -27.892  26.502  1.00  0.00     0.063 C 
ATOM      2  C   UNL     1      -4.984 -27.321  25.783  1.00  0.00     0.038 C 
ATOM      3  O   UNL     1      -4.962 -27.202  24.530  1.00  0.00    -0.550 OA
ATOM      4  O   UNL     1      -6.127 -26.970  26.488  1.00  0.00    -0.550 OA
ENDROOT
TORSDOF 0
ENDMDL
MODEL 8
REMARK VINA RESULT:    -1.853      4.062      4.538
REMARK INTER + INTRA:          -1.853
REMARK INTER:                  -1.853
REMARK INTRA:                   0.000
REMARK UNBOUND:                 0.000
REMARK SMILES CC(=O)[O-]
REMARK SMILES IDX 1 1 2 2 3 3 4 4
REMARK H PARENT
REMARK Flexibility Score: inf
ROOT
ATOM      1  C   UNL     1      -7.962 -27.277  25.006  1.00  0.00     0.063 C 
ATOM      2  C   UNL     1      -6.603 -26.738  25.295  1.00  0.00     0.038 C 
ATOM      3  O   UNL     1      -6.114 -26.841  26.451  1.00  0.00    -0.550 OA
ATOM      4  O   UNL     1      -5.849 -26.168  24.278  1.00  0.00    -0.550 OA
ENDROOT
TORSDOF 0
ENDMDL
MODEL 9
REMARK VINA RESULT:    -1.852     21.142     21.578
REMARK INTER + INTRA:          -1.852
REMARK INTER:                  -1.852
REMARK INTRA:                   0.000
REMARK UNBOUND:                 0.000
REMARK SMILES CC(=O)[O-]
REMARK SMILES IDX 1 1 2 2 3 3 4 4
REMARK H PARENT
REMARK Flexibility Score: inf
ROOT
ATOM      1  C   UNL     1     -17.547 -13.467  23.664  1.00  0.00     0.063 C 
ATOM      2  C   UNL     1     -18.543 -12.752  24.513  1.00  0.00     0.038 C 
ATOM      3  O   UNL     1     -19.079 -13.339  25.489  1.00  0.00    -0.550 OA
ATOM      4  O   UNL     1     -18.841 -11.419  24.263  1.00  0.00    -0.550 OA
ENDROOT
TORSDOF 0
ENDMDL
