MODEL 1
REMARK VINA RESULT:    -6.174      0.000      0.000
REMARK INTER + INTRA:          -7.905
REMARK INTER:                  -7.617
REMARK INTRA:                  -0.288
REMARK UNBOUND:                -0.288
REMARK SMILES O=c1c(O)c(-c2cc(O)c(O)c(O)c2)oc2cc(O)cc(O)c12
REMARK SMILES IDX 5 1 3 2 2 3 1 4 23 5 21 6 20 7 18 8 17 9 16 10 15 11 6 12
REMARK SMILES IDX 7 13 8 14 14 15 10 16 12 17 9 18 11 20 13 22 4 24 22 26
REMARK SMILES IDX 19 28
REMARK H PARENT 9 19 11 21 13 23 4 25 22 27 19 29
REMARK Flexibility Score: inf
ROOT
ATOM      1  C   UNL     1       7.833  14.541  -8.904  1.00  0.00     0.180 A 
ATOM      2  C   UNL     1       6.747  14.676  -9.785  1.00  0.00     0.208 A 
ATOM      3  C   UNL     1       5.753  15.626  -9.500  1.00  0.00     0.238 A 
ATOM      4  O   UNL     1       4.747  15.689 -10.253  1.00  0.00    -0.285 OA
ATOM      5  C   UNL     1       5.885  16.467  -8.368  1.00  0.00     0.111 A 
ATOM      6  C   UNL     1       4.961  17.495  -8.008  1.00  0.00     0.134 A 
ATOM      7  C   UNL     1       5.139  18.193  -6.808  1.00  0.00     0.093 A 
ATOM      8  C   UNL     1       6.242  17.947  -5.987  1.00  0.00     0.123 A 
ATOM      9  C   UNL     1       7.179  16.985  -6.357  1.00  0.00     0.094 A 
ATOM     10  C   UNL     1       7.008  16.244  -7.529  1.00  0.00     0.146 A 
ATOM     11  O   UNL     1       7.913  15.322  -7.833  1.00  0.00    -0.452 OA
ENDROOT
BRANCH   1  12
ATOM     12  C   UNL     1       8.912  13.553  -9.128  1.00  0.00     0.029 A 
ATOM     13  C   UNL     1       9.027  12.401  -8.334  1.00  0.00     0.062 A 
ATOM     14  C   UNL     1      10.065  11.485  -8.540  1.00  0.00     0.162 A 
ATOM     15  C   UNL     1       9.877  13.798 -10.115  1.00  0.00     0.062 A 
ATOM     16  C   UNL     1      11.019  11.726  -9.557  1.00  0.00     0.200 A 
ATOM     17  C   UNL     1      10.917  12.892 -10.337  1.00  0.00     0.162 A 
BRANCH  14  18
ATOM     18  O   UNL     1      10.112  10.362  -7.710  1.00  0.00    -0.504 OA
ATOM     19  H   UNL     1       9.295   9.867  -7.380  1.00  0.00     0.293 HD
ENDBRANCH  14  18
BRANCH  16  20
ATOM     20  O   UNL     1      12.071  10.841  -9.817  1.00  0.00    -0.502 OA
ATOM     21  H   UNL     1      12.187   9.948  -9.362  1.00  0.00     0.293 HD
ENDBRANCH  16  20
BRANCH  17  22
ATOM     22  O   UNL     1      11.845  13.171 -11.341  1.00  0.00    -0.504 OA
ATOM     23  H   UNL     1      11.629  13.778 -12.123  1.00  0.00     0.293 HD
ENDBRANCH  17  22
ENDBRANCH   1  12
BRANCH   2  24
ATOM     24  O   UNL     1       6.674  13.889 -10.937  1.00  0.00    -0.502 OA
ATOM     25  H   UNL     1       5.847  13.855 -11.521  1.00  0.00     0.293 HD
ENDBRANCH   2  24
BRANCH   6  26
ATOM     26  O   UNL     1       3.875  17.884  -8.798  1.00  0.00    -0.507 OA
ATOM     27  H   UNL     1       2.938  18.036  -8.459  1.00  0.00     0.293 HD
ENDBRANCH   6  26
BRANCH   8  28
ATOM     28  O   UNL     1       6.421  18.660  -4.803  1.00  0.00    -0.508 OA
ATOM     29  H   UNL     1       6.344  18.211  -3.898  1.00  0.00     0.293 HD
ENDBRANCH   8  28
TORSDOF 7
ENDMDL
MODEL 2
REMARK VINA RESULT:    -6.170     11.822     14.376
REMARK INTER + INTRA:          -7.901
REMARK INTER:                  -8.342
REMARK INTRA:                   0.441
REMARK UNBOUND:                -0.288
REMARK SMILES O=c1c(O)c(-c2cc(O)c(O)c(O)c2)oc2cc(O)cc(O)c12
REMARK SMILES IDX 5 1 3 2 2 3 1 4 23 5 21 6 20 7 18 8 17 9 16 10 15 11 6 12
REMARK SMILES IDX 7 13 8 14 14 15 10 16 12 17 9 18 11 20 13 22 4 24 22 26
REMARK SMILES IDX 19 28
REMARK H PARENT 9 19 11 21 13 23 4 25 22 27 19 29
REMARK Flexibility Score: inf
ROOT
ATOM      1  C   UNL     1      18.372  13.272  -1.203  1.00  0.00     0.180 A 
ATOM      2  C   UNL     1      19.724  13.228  -1.582  1.00  0.00     0.208 A 
ATOM      3  C   UNL     1      20.711  13.201  -0.584  1.00  0.00     0.238 A 
ATOM      4  O   UNL     1      21.920  13.236  -0.930  1.00  0.00    -0.285 OA
ATOM      5  C   UNL     1      20.333  13.164   0.781  1.00  0.00     0.111 A 
ATOM      6  C   UNL     1      21.247  13.090   1.875  1.00  0.00     0.134 A 
ATOM      7  C   UNL     1      20.761  13.166   3.186  1.00  0.00     0.093 A 
ATOM      8  C   UNL     1      19.391  13.247   3.444  1.00  0.00     0.123 A 
ATOM      9  C   UNL     1      18.487  13.264   2.384  1.00  0.00     0.094 A 
ATOM     10  C   UNL     1      18.943  13.229   1.064  1.00  0.00     0.146 A 
ATOM     11  O   UNL     1      18.049  13.269   0.084  1.00  0.00    -0.452 OA
ENDROOT
BRANCH   1  12
ATOM     12  C   UNL     1      17.276  13.317  -2.198  1.00  0.00     0.029 A 
ATOM     13  C   UNL     1      17.539  13.327  -3.577  1.00  0.00     0.062 A 
ATOM     14  C   UNL     1      16.497  13.393  -4.508  1.00  0.00     0.162 A 
ATOM     15  C   UNL     1      15.949  13.411  -1.757  1.00  0.00     0.062 A 
ATOM     16  C   UNL     1      15.157  13.460  -4.055  1.00  0.00     0.200 A 
ATOM     17  C   UNL     1      14.896  13.474  -2.673  1.00  0.00     0.162 A 
BRANCH  14  18
ATOM     18  O   UNL     1      16.837  13.398  -5.863  1.00  0.00    -0.504 OA
ATOM     19  H   UNL     1      16.330  13.907  -6.573  1.00  0.00     0.293 HD
ENDBRANCH  14  18
BRANCH  16  20
ATOM     20  O   UNL     1      14.074  13.516  -4.938  1.00  0.00    -0.502 OA
ATOM     21  H   UNL     1      13.727  12.727  -5.462  1.00  0.00     0.293 HD
ENDBRANCH  16  20
BRANCH  17  22
ATOM     22  O   UNL     1      13.590  13.551  -2.187  1.00  0.00    -0.504 OA
ATOM     23  H   UNL     1      12.801  13.164  -2.692  1.00  0.00     0.293 HD
ENDBRANCH  17  22
ENDBRANCH   1  12
BRANCH   2  24
ATOM     24  O   UNL     1      20.075  13.188  -2.935  1.00  0.00    -0.502 OA
ATOM     25  H   UNL     1      19.757  13.883  -3.600  1.00  0.00     0.293 HD
ENDBRANCH   2  24
BRANCH   6  26
ATOM     26  O   UNL     1      22.627  12.918   1.733  1.00  0.00    -0.507 OA
ATOM     27  H   UNL     1      23.292  13.663   1.599  1.00  0.00     0.293 HD
ENDBRANCH   6  26
BRANCH   8  28
ATOM     28  O   UNL     1      18.916  13.304   4.752  1.00  0.00    -0.508 OA
ATOM     29  H   UNL     1      18.836  14.184   5.250  1.00  0.00     0.293 HD
ENDBRANCH   8  28
TORSDOF 7
ENDMDL
MODEL 3
REMARK VINA RESULT:    -6.149      9.269     10.833
REMARK INTER + INTRA:          -7.875
REMARK INTER:                  -8.316
REMARK INTRA:                   0.441
REMARK UNBOUND:                -0.288
REMARK SMILES O=c1c(O)c(-c2cc(O)c(O)c(O)c2)oc2cc(O)cc(O)c12
REMARK SMILES IDX 5 1 3 2 2 3 1 4 23 5 21 6 20 7 18 8 17 9 16 10 15 11 6 12
REMARK SMILES IDX 7 13 8 14 14 15 10 16 12 17 9 18 11 20 13 22 4 24 22 26
REMARK SMILES IDX 19 28
REMARK H PARENT 9 19 11 21 13 23 4 25 22 27 19 29
REMARK Flexibility Score: inf
ROOT
ATOM      1  C   UNL     1      13.179  12.414  -0.839  1.00  0.00     0.180 A 
ATOM      2  C   UNL     1      11.840  12.120  -1.147  1.00  0.00     0.208 A 
ATOM      3  C   UNL     1      10.976  11.718  -0.116  1.00  0.00     0.238 A 
ATOM      4  O   UNL     1       9.800  11.385  -0.410  1.00  0.00    -0.285 OA
ATOM      5  C   UNL     1      11.448  11.667   1.219  1.00  0.00     0.111 A 
ATOM      6  C   UNL     1      10.649  11.317   2.349  1.00  0.00     0.134 A 
ATOM      7  C   UNL     1      11.250  11.197   3.609  1.00  0.00     0.093 A 
ATOM      8  C   UNL     1      12.605  11.479   3.790  1.00  0.00     0.123 A 
ATOM      9  C   UNL     1      13.382  11.875   2.703  1.00  0.00     0.094 A 
ATOM     10  C   UNL     1      12.820  11.966   1.428  1.00  0.00     0.146 A 
ATOM     11  O   UNL     1      13.600  12.326   0.416  1.00  0.00    -0.452 OA
ENDROOT
BRANCH   1  12
ATOM     12  C   UNL     1      14.153  12.830  -1.874  1.00  0.00     0.029 A 
ATOM     13  C   UNL     1      13.769  13.000  -3.214  1.00  0.00     0.062 A 
ATOM     14  C   UNL     1      14.702  13.370  -4.189  1.00  0.00     0.162 A 
ATOM     15  C   UNL     1      15.499  13.002  -1.525  1.00  0.00     0.062 A 
ATOM     16  C   UNL     1      16.055  13.569  -3.823  1.00  0.00     0.200 A 
ATOM     17  C   UNL     1      16.443  13.375  -2.484  1.00  0.00     0.162 A 
BRANCH  14  18
ATOM     18  O   UNL     1      14.244  13.521  -5.500  1.00  0.00    -0.504 OA
ATOM     19  H   UNL     1      14.815  13.851  -6.265  1.00  0.00     0.293 HD
ENDBRANCH  14  18
BRANCH  16  20
ATOM     20  O   UNL     1      17.030  13.950  -4.750  1.00  0.00    -0.502 OA
ATOM     21  H   UNL     1      17.961  13.564  -4.787  1.00  0.00     0.293 HD
ENDBRANCH  16  20
BRANCH  17  22
ATOM     22  O   UNL     1      17.769  13.549  -2.086  1.00  0.00    -0.504 OA
ATOM     23  H   UNL     1      18.038  14.227  -1.382  1.00  0.00     0.293 HD
ENDBRANCH  17  22
ENDBRANCH   1  12
BRANCH   2  24
ATOM     24  O   UNL     1      11.375  12.250  -2.459  1.00  0.00    -0.502 OA
ATOM     25  H   UNL     1      11.645  11.611  -3.197  1.00  0.00     0.293 HD
ENDBRANCH   2  24
BRANCH   6  26
ATOM     26  O   UNL     1       9.268  11.102   2.297  1.00  0.00    -0.507 OA
ATOM     27  H   UNL     1       8.623  11.304   3.045  1.00  0.00     0.293 HD
ENDBRANCH   6  26
BRANCH   8  28
ATOM     28  O   UNL     1      13.191  11.374   5.050  1.00  0.00    -0.508 OA
ATOM     29  H   UNL     1      12.631  11.258   5.887  1.00  0.00     0.293 HD
ENDBRANCH   8  28
TORSDOF 7
ENDMDL
MODEL 4
REMARK VINA RESULT:    -6.141     11.065     14.404
REMARK INTER + INTRA:          -7.865
REMARK INTER:                  -7.655
REMARK INTRA:                  -0.211
REMARK UNBOUND:                -0.288
REMARK SMILES O=c1c(O)c(-c2cc(O)c(O)c(O)c2)oc2cc(O)cc(O)c12
REMARK SMILES IDX 5 1 3 2 2 3 1 4 23 5 21 6 20 7 18 8 17 9 16 10 15 11 6 12
REMARK SMILES IDX 7 13 8 14 14 15 10 16 12 17 9 18 11 20 13 22 4 24 22 26
REMARK SMILES IDX 19 28
REMARK H PARENT 9 19 11 21 13 23 4 25 22 27 19 29
REMARK Flexibility Score: inf
ROOT
ATOM      1  C   UNL     1      20.036  16.922 -11.210  1.00  0.00     0.180 A 
ATOM      2  C   UNL     1      21.089  17.113 -10.300  1.00  0.00     0.208 A 
ATOM      3  C   UNL     1      21.721  15.990  -9.743  1.00  0.00     0.238 A 
ATOM      4  O   UNL     1      22.611  16.168  -8.873  1.00  0.00    -0.285 OA
ATOM      5  C   UNL     1      21.328  14.689 -10.144  1.00  0.00     0.111 A 
ATOM      6  C   UNL     1      21.928  13.480  -9.679  1.00  0.00     0.134 A 
ATOM      7  C   UNL     1      21.386  12.248 -10.065  1.00  0.00     0.093 A 
ATOM      8  C   UNL     1      20.308  12.180 -10.950  1.00  0.00     0.123 A 
ATOM      9  C   UNL     1      19.750  13.353 -11.453  1.00  0.00     0.094 A 
ATOM     10  C   UNL     1      20.243  14.598 -11.056  1.00  0.00     0.146 A 
ATOM     11  O   UNL     1      19.669  15.691 -11.543  1.00  0.00    -0.452 OA
ENDROOT
BRANCH   1  12
ATOM     12  C   UNL     1      19.313  18.057 -11.828  1.00  0.00     0.029 A 
ATOM     13  C   UNL     1      19.957  18.947 -12.703  1.00  0.00     0.062 A 
ATOM     14  C   UNL     1      19.271  20.030 -13.262  1.00  0.00     0.162 A 
ATOM     15  C   UNL     1      17.973  18.287 -11.488  1.00  0.00     0.062 A 
ATOM     16  C   UNL     1      17.910  20.239 -12.936  1.00  0.00     0.200 A 
ATOM     17  C   UNL     1      17.271  19.362 -12.041  1.00  0.00     0.162 A 
BRANCH  14  18
ATOM     18  O   UNL     1      19.979  20.870 -14.125  1.00  0.00    -0.504 OA
ATOM     19  H   UNL     1      19.562  21.372 -14.896  1.00  0.00     0.293 HD
ENDBRANCH  14  18
BRANCH  16  20
ATOM     20  O   UNL     1      17.169  21.297 -13.473  1.00  0.00    -0.502 OA
ATOM     21  H   UNL     1      16.776  21.301 -14.402  1.00  0.00     0.293 HD
ENDBRANCH  16  20
BRANCH  17  22
ATOM     22  O   UNL     1      15.934  19.541 -11.685  1.00  0.00    -0.504 OA
ATOM     23  H   UNL     1      15.654  19.801 -10.746  1.00  0.00     0.293 HD
ENDBRANCH  17  22
ENDBRANCH   1  12
BRANCH   2  24
ATOM     24  O   UNL     1      21.512  18.405  -9.974  1.00  0.00    -0.502 OA
ATOM     25  H   UNL     1      20.864  19.172  -9.839  1.00  0.00     0.293 HD
ENDBRANCH   2  24
BRANCH   6  26
ATOM     26  O   UNL     1      23.063  13.432  -8.864  1.00  0.00    -0.507 OA
ATOM     27  H   UNL     1      23.113  12.970  -7.969  1.00  0.00     0.293 HD
ENDBRANCH   6  26
BRANCH   8  28
ATOM     28  O   UNL     1      19.787  10.949 -11.342  1.00  0.00    -0.508 OA
ATOM     29  H   UNL     1      19.395  10.808 -12.266  1.00  0.00     0.293 HD
ENDBRANCH   8  28
TORSDOF 7
ENDMDL
MODEL 5
REMARK VINA RESULT:    -6.133      1.573      2.612
REMARK INTER + INTRA:          -7.855
REMARK INTER:                  -7.529
REMARK INTRA:                  -0.326
REMARK UNBOUND:                -0.288
REMARK SMILES O=c1c(O)c(-c2cc(O)c(O)c(O)c2)oc2cc(O)cc(O)c12
REMARK SMILES IDX 5 1 3 2 2 3 1 4 23 5 21 6 20 7 18 8 17 9 16 10 15 11 6 12
REMARK SMILES IDX 7 13 8 14 14 15 10 16 12 17 9 18 11 20 13 22 4 24 22 26
REMARK SMILES IDX 19 28
REMARK H PARENT 9 19 11 21 13 23 4 25 22 27 19 29
REMARK Flexibility Score: inf
ROOT
ATOM      1  C   UNL     1       8.831  13.474  -9.361  1.00  0.00     0.180 A 
ATOM      2  C   UNL     1       7.657  12.795  -9.727  1.00  0.00     0.208 A 
ATOM      3  C   UNL     1       6.413  13.351  -9.385  1.00  0.00     0.238 A 
ATOM      4  O   UNL     1       5.369  12.702  -9.650  1.00  0.00    -0.285 OA
ATOM      5  C   UNL     1       6.359  14.605  -8.728  1.00  0.00     0.111 A 
ATOM      6  C   UNL     1       5.154  15.284  -8.373  1.00  0.00     0.134 A 
ATOM      7  C   UNL     1       5.223  16.470  -7.632  1.00  0.00     0.093 A 
ATOM      8  C   UNL     1       6.453  17.036  -7.289  1.00  0.00     0.123 A 
ATOM      9  C   UNL     1       7.635  16.410  -7.679  1.00  0.00     0.094 A 
ATOM     10  C   UNL     1       7.599  15.206  -8.385  1.00  0.00     0.146 A 
ATOM     11  O   UNL     1       8.749  14.632  -8.718  1.00  0.00    -0.452 OA
ENDROOT
BRANCH   1  12
ATOM     12  C   UNL     1      10.178  12.944  -9.674  1.00  0.00     0.029 A 
ATOM     13  C   UNL     1      10.734  13.071 -10.957  1.00  0.00     0.062 A 
ATOM     14  C   UNL     1      11.997  12.545 -11.249  1.00  0.00     0.162 A 
ATOM     15  C   UNL     1      10.891  12.249  -8.689  1.00  0.00     0.062 A 
ATOM     16  C   UNL     1      12.723  11.868 -10.240  1.00  0.00     0.200 A 
ATOM     17  C   UNL     1      12.155  11.721  -8.961  1.00  0.00     0.162 A 
BRANCH  14  18
ATOM     18  O   UNL     1      12.484  12.711 -12.548  1.00  0.00    -0.504 OA
ATOM     19  H   UNL     1      13.042  12.025 -13.036  1.00  0.00     0.293 HD
ENDBRANCH  14  18
BRANCH  16  20
ATOM     20  O   UNL     1      13.995  11.332 -10.469  1.00  0.00    -0.502 OA
ATOM     21  H   UNL     1      14.171  10.364 -10.695  1.00  0.00     0.293 HD
ENDBRANCH  16  20
BRANCH  17  22
ATOM     22  O   UNL     1      12.834  11.049  -7.944  1.00  0.00    -0.504 OA
ATOM     23  H   UNL     1      13.704  10.556  -8.108  1.00  0.00     0.293 HD
ENDBRANCH  17  22
ENDBRANCH   1  12
BRANCH   2  24
ATOM     24  O   UNL     1       7.730  11.597 -10.442  1.00  0.00    -0.502 OA
ATOM     25  H   UNL     1       8.459  10.911 -10.281  1.00  0.00     0.293 HD
ENDBRANCH   2  24
BRANCH   6  26
ATOM     26  O   UNL     1       3.875  14.855  -8.742  1.00  0.00    -0.507 OA
ATOM     27  H   UNL     1       3.593  14.619  -9.680  1.00  0.00     0.293 HD
ENDBRANCH   6  26
BRANCH   8  28
ATOM     28  O   UNL     1       6.511  18.225  -6.566  1.00  0.00    -0.508 OA
ATOM     29  H   UNL     1       7.161  18.348  -5.798  1.00  0.00     0.293 HD
ENDBRANCH   8  28
TORSDOF 7
ENDMDL
MODEL 6
REMARK VINA RESULT:    -6.133     11.438     14.432
REMARK INTER + INTRA:          -7.855
REMARK INTER:                  -7.528
REMARK INTRA:                  -0.327
REMARK UNBOUND:                -0.288
REMARK SMILES O=c1c(O)c(-c2cc(O)c(O)c(O)c2)oc2cc(O)cc(O)c12
REMARK SMILES IDX 5 1 3 2 2 3 1 4 23 5 21 6 20 7 18 8 17 9 16 10 15 11 6 12
REMARK SMILES IDX 7 13 8 14 14 15 10 16 12 17 9 18 11 20 13 22 4 24 22 26
REMARK SMILES IDX 19 28
REMARK H PARENT 9 19 11 21 13 23 4 25 22 27 19 29
REMARK Flexibility Score: inf
ROOT
ATOM      1  C   UNL     1      20.326  16.628 -10.800  1.00  0.00     0.180 A 
ATOM      2  C   UNL     1      20.113  15.279 -11.126  1.00  0.00     0.208 A 
ATOM      3  C   UNL     1      20.764  14.285 -10.378  1.00  0.00     0.238 A 
ATOM      4  O   UNL     1      20.627  13.083 -10.722  1.00  0.00    -0.285 OA
ATOM      5  C   UNL     1      21.577  14.651  -9.277  1.00  0.00     0.111 A 
ATOM      6  C   UNL     1      22.249  13.727  -8.422  1.00  0.00     0.134 A 
ATOM      7  C   UNL     1      23.113  14.207  -7.429  1.00  0.00     0.093 A 
ATOM      8  C   UNL     1      23.278  15.578  -7.219  1.00  0.00     0.123 A 
ATOM      9  C   UNL     1      22.584  16.488  -8.013  1.00  0.00     0.094 A 
ATOM     10  C   UNL     1      21.745  16.041  -9.037  1.00  0.00     0.146 A 
ATOM     11  O   UNL     1      21.120  16.942  -9.784  1.00  0.00    -0.452 OA
ENDROOT
BRANCH   1  12
ATOM     12  C   UNL     1      19.687  17.732 -11.552  1.00  0.00     0.029 A 
ATOM     13  C   UNL     1      20.399  18.478 -12.504  1.00  0.00     0.062 A 
ATOM     14  C   UNL     1      19.792  19.534 -13.192  1.00  0.00     0.162 A 
ATOM     15  C   UNL     1      18.360  18.080 -11.268  1.00  0.00     0.062 A 
ATOM     16  C   UNL     1      18.442  19.863 -12.920  1.00  0.00     0.200 A 
ATOM     17  C   UNL     1      17.736  19.130 -11.948  1.00  0.00     0.162 A 
BRANCH  14  18
ATOM     18  O   UNL     1      20.565  20.230 -14.125  1.00  0.00    -0.504 OA
ATOM     19  H   UNL     1      20.863  21.188 -14.012  1.00  0.00     0.293 HD
ENDBRANCH  14  18
BRANCH  16  20
ATOM     20  O   UNL     1      17.779  20.900 -13.583  1.00  0.00    -0.502 OA
ATOM     21  H   UNL     1      16.827  21.177 -13.395  1.00  0.00     0.293 HD
ENDBRANCH  16  20
BRANCH  17  22
ATOM     22  O   UNL     1      16.408  19.430 -11.643  1.00  0.00    -0.504 OA
ATOM     23  H   UNL     1      15.933  19.028 -10.843  1.00  0.00     0.293 HD
ENDBRANCH  17  22
ENDBRANCH   1  12
BRANCH   2  24
ATOM     24  O   UNL     1      19.246  14.935 -12.168  1.00  0.00    -0.502 OA
ATOM     25  H   UNL     1      19.537  14.931 -13.138  1.00  0.00     0.293 HD
ENDBRANCH   2  24
BRANCH   6  26
ATOM     26  O   UNL     1      22.087  12.340  -8.485  1.00  0.00    -0.507 OA
ATOM     27  H   UNL     1      22.738  11.700  -8.913  1.00  0.00     0.293 HD
ENDBRANCH   6  26
BRANCH   8  28
ATOM     28  O   UNL     1      24.125  16.047  -6.218  1.00  0.00    -0.508 OA
ATOM     29  H   UNL     1      24.112  17.016  -5.922  1.00  0.00     0.293 HD
ENDBRANCH   8  28
TORSDOF 7
ENDMDL
MODEL 7
REMARK VINA RESULT:    -6.097      7.903     10.121
REMARK INTER + INTRA:          -7.811
REMARK INTER:                  -8.080
REMARK INTRA:                   0.269
REMARK UNBOUND:                -0.288
REMARK SMILES O=c1c(O)c(-c2cc(O)c(O)c(O)c2)oc2cc(O)cc(O)c12
REMARK SMILES IDX 5 1 3 2 2 3 1 4 23 5 21 6 20 7 18 8 17 9 16 10 15 11 6 12
REMARK SMILES IDX 7 13 8 14 14 15 10 16 12 17 9 18 11 20 13 22 4 24 22 26
REMARK SMILES IDX 19 28
REMARK H PARENT 9 19 11 21 13 23 4 25 22 27 19 29
REMARK Flexibility Score: inf
ROOT
ATOM      1  C   UNL     1      15.401  12.732  -3.668  1.00  0.00     0.180 A 
ATOM      2  C   UNL     1      15.280  12.917  -5.056  1.00  0.00     0.208 A 
ATOM      3  C   UNL     1      14.042  12.671  -5.671  1.00  0.00     0.238 A 
ATOM      4  O   UNL     1      13.961  12.766  -6.922  1.00  0.00    -0.285 OA
ATOM      5  C   UNL     1      12.926  12.295  -4.883  1.00  0.00     0.111 A 
ATOM      6  C   UNL     1      11.613  12.063  -5.394  1.00  0.00     0.134 A 
ATOM      7  C   UNL     1      10.612  11.592  -4.535  1.00  0.00     0.093 A 
ATOM      8  C   UNL     1      10.858  11.407  -3.173  1.00  0.00     0.123 A 
ATOM      9  C   UNL     1      12.122  11.683  -2.655  1.00  0.00     0.094 A 
ATOM     10  C   UNL     1      13.152  12.117  -3.492  1.00  0.00     0.146 A 
ATOM     11  O   UNL     1      14.346  12.347  -2.961  1.00  0.00    -0.452 OA
ENDROOT
BRANCH   1  12
ATOM     12  C   UNL     1      16.677  12.958  -2.951  1.00  0.00     0.029 A 
ATOM     13  C   UNL     1      17.914  12.842  -3.605  1.00  0.00     0.062 A 
ATOM     14  C   UNL     1      19.115  13.034  -2.913  1.00  0.00     0.162 A 
ATOM     15  C   UNL     1      16.656  13.235  -1.578  1.00  0.00     0.062 A 
ATOM     16  C   UNL     1      19.084  13.341  -1.531  1.00  0.00     0.200 A 
ATOM     17  C   UNL     1      17.845  13.433  -0.872  1.00  0.00     0.162 A 
BRANCH  14  18
ATOM     18  O   UNL     1      20.305  12.904  -3.631  1.00  0.00    -0.504 OA
ATOM     19  H   UNL     1      21.042  13.595  -3.639  1.00  0.00     0.293 HD
ENDBRANCH  14  18
BRANCH  16  20
ATOM     20  O   UNL     1      20.250  13.555  -0.789  1.00  0.00    -0.502 OA
ATOM     21  H   UNL     1      20.793  14.405  -0.818  1.00  0.00     0.293 HD
ENDBRANCH  16  20
BRANCH  17  22
ATOM     22  O   UNL     1      17.773  13.722   0.492  1.00  0.00    -0.504 OA
ATOM     23  H   UNL     1      16.903  13.970   0.947  1.00  0.00     0.293 HD
ENDBRANCH  17  22
ENDBRANCH   1  12
BRANCH   2  24
ATOM     24  O   UNL     1      16.373  13.362  -5.804  1.00  0.00    -0.502 OA
ATOM     25  H   UNL     1      16.300  13.596  -6.787  1.00  0.00     0.293 HD
ENDBRANCH   2  24
BRANCH   6  26
ATOM     26  O   UNL     1      11.234  12.301  -6.718  1.00  0.00    -0.507 OA
ATOM     27  H   UNL     1      11.085  13.213  -7.122  1.00  0.00     0.293 HD
ENDBRANCH   6  26
BRANCH   8  28
ATOM     28  O   UNL     1       9.851  10.955  -2.323  1.00  0.00    -0.508 OA
ATOM     29  H   UNL     1       9.413  10.051  -2.454  1.00  0.00     0.293 HD
ENDBRANCH   8  28
TORSDOF 7
ENDMDL
MODEL 8
REMARK VINA RESULT:    -6.081      5.643      7.537
REMARK INTER + INTRA:          -7.791
REMARK INTER:                  -7.703
REMARK INTRA:                  -0.089
REMARK UNBOUND:                -0.288
REMARK SMILES O=c1c(O)c(-c2cc(O)c(O)c(O)c2)oc2cc(O)cc(O)c12
REMARK SMILES IDX 5 1 3 2 2 3 1 4 23 5 21 6 20 7 18 8 17 9 16 10 15 11 6 12
REMARK SMILES IDX 7 13 8 14 14 15 10 16 12 17 9 18 11 20 13 22 4 24 22 26
REMARK SMILES IDX 19 28
REMARK H PARENT 9 19 11 21 13 23 4 25 22 27 19 29
REMARK Flexibility Score: inf
ROOT
ATOM      1  C   UNL     1      12.807  12.224  -6.819  1.00  0.00     0.180 A 
ATOM      2  C   UNL     1      11.701  11.784  -6.073  1.00  0.00     0.208 A 
ATOM      3  C   UNL     1      11.733  11.899  -4.674  1.00  0.00     0.238 A 
ATOM      4  O   UNL     1      10.772  11.435  -4.009  1.00  0.00    -0.285 OA
ATOM      5  C   UNL     1      12.848  12.502  -4.042  1.00  0.00     0.111 A 
ATOM      6  C   UNL     1      12.968  12.711  -2.635  1.00  0.00     0.134 A 
ATOM      7  C   UNL     1      14.163  13.222  -2.113  1.00  0.00     0.093 A 
ATOM      8  C   UNL     1      15.217  13.591  -2.951  1.00  0.00     0.123 A 
ATOM      9  C   UNL     1      15.088  13.443  -4.330  1.00  0.00     0.094 A 
ATOM     10  C   UNL     1      13.924  12.900  -4.879  1.00  0.00     0.146 A 
ATOM     11  O   UNL     1      13.852  12.756  -6.196  1.00  0.00    -0.452 OA
ENDROOT
BRANCH   1  12
ATOM     12  C   UNL     1      12.853  12.123  -8.296  1.00  0.00     0.029 A 
ATOM     13  C   UNL     1      11.848  12.686  -9.100  1.00  0.00     0.062 A 
ATOM     14  C   UNL     1      11.888  12.563 -10.493  1.00  0.00     0.162 A 
ATOM     15  C   UNL     1      13.887  11.400  -8.905  1.00  0.00     0.062 A 
ATOM     16  C   UNL     1      12.951  11.855 -11.103  1.00  0.00     0.200 A 
ATOM     17  C   UNL     1      13.945  11.271 -10.295  1.00  0.00     0.162 A 
BRANCH  14  18
ATOM     18  O   UNL     1      10.854  13.151 -11.225  1.00  0.00    -0.504 OA
ATOM     19  H   UNL     1      10.929  13.421 -12.195  1.00  0.00     0.293 HD
ENDBRANCH  14  18
BRANCH  16  20
ATOM     20  O   UNL     1      13.051  11.710 -12.490  1.00  0.00    -0.502 OA
ATOM     21  H   UNL     1      12.551  11.016 -13.026  1.00  0.00     0.293 HD
ENDBRANCH  16  20
BRANCH  17  22
ATOM     22  O   UNL     1      15.002  10.555 -10.858  1.00  0.00    -0.504 OA
ATOM     23  H   UNL     1      15.580  10.936 -11.598  1.00  0.00     0.293 HD
ENDBRANCH  17  22
ENDBRANCH   1  12
BRANCH   2  24
ATOM     24  O   UNL     1      10.578  11.261  -6.721  1.00  0.00    -0.502 OA
ATOM     25  H   UNL     1       9.638  11.383  -6.364  1.00  0.00     0.293 HD
ENDBRANCH   2  24
BRANCH   6  26
ATOM     26  O   UNL     1      11.945  12.461  -1.715  1.00  0.00    -0.507 OA
ATOM     27  H   UNL     1      11.777  11.576  -1.264  1.00  0.00     0.293 HD
ENDBRANCH   6  26
BRANCH   8  28
ATOM     28  O   UNL     1      16.395  14.115  -2.424  1.00  0.00    -0.508 OA
ATOM     29  H   UNL     1      17.220  14.248  -2.998  1.00  0.00     0.293 HD
ENDBRANCH   8  28
TORSDOF 7
ENDMDL
MODEL 9
REMARK VINA RESULT:    -5.943      1.843      6.997
REMARK INTER + INTRA:          -7.621
REMARK INTER:                  -7.346
REMARK INTRA:                  -0.275
REMARK UNBOUND:                -0.288
REMARK SMILES O=c1c(O)c(-c2cc(O)c(O)c(O)c2)oc2cc(O)cc(O)c12
REMARK SMILES IDX 5 1 3 2 2 3 1 4 23 5 21 6 20 7 18 8 17 9 16 10 15 11 6 12
REMARK SMILES IDX 7 13 8 14 14 15 10 16 12 17 9 18 11 20 13 22 4 24 22 26
REMARK SMILES IDX 19 28
REMARK H PARENT 9 19 11 21 13 23 4 25 22 27 19 29
REMARK Flexibility Score: inf
ROOT
ATOM      1  C   UNL     1       8.071  14.073  -9.365  1.00  0.00     0.180 A 
ATOM      2  C   UNL     1       7.794  13.814 -10.718  1.00  0.00     0.208 A 
ATOM      3  C   UNL     1       8.675  13.004 -11.451  1.00  0.00     0.238 A 
ATOM      4  O   UNL     1       8.461  12.838 -12.680  1.00  0.00    -0.285 OA
ATOM      5  C   UNL     1       9.794  12.418 -10.809  1.00  0.00     0.111 A 
ATOM      6  C   UNL     1      10.729  11.545 -11.443  1.00  0.00     0.134 A 
ATOM      7  C   UNL     1      11.857  11.110 -10.736  1.00  0.00     0.093 A 
ATOM      8  C   UNL     1      12.050  11.464  -9.399  1.00  0.00     0.123 A 
ATOM      9  C   UNL     1      11.114  12.271  -8.755  1.00  0.00     0.094 A 
ATOM     10  C   UNL     1       9.999  12.753  -9.445  1.00  0.00     0.146 A 
ATOM     11  O   UNL     1       9.145  13.537  -8.799  1.00  0.00    -0.452 OA
ENDROOT
BRANCH   1  12
ATOM     12  C   UNL     1       7.197  14.929  -8.531  1.00  0.00     0.029 A 
ATOM     13  C   UNL     1       7.604  16.207  -8.116  1.00  0.00     0.062 A 
ATOM     14  C   UNL     1       6.779  16.998  -7.308  1.00  0.00     0.162 A 
ATOM     15  C   UNL     1       5.961  14.433  -8.096  1.00  0.00     0.062 A 
ATOM     16  C   UNL     1       5.520  16.501  -6.895  1.00  0.00     0.200 A 
ATOM     17  C   UNL     1       5.123  15.211  -7.292  1.00  0.00     0.162 A 
BRANCH  14  18
ATOM     18  O   UNL     1       7.253  18.258  -6.937  1.00  0.00    -0.504 OA
ATOM     19  H   UNL     1       7.598  18.485  -6.015  1.00  0.00     0.293 HD
ENDBRANCH  14  18
BRANCH  16  20
ATOM     20  O   UNL     1       4.648  17.250  -6.098  1.00  0.00    -0.502 OA
ATOM     21  H   UNL     1       4.427  18.221  -6.257  1.00  0.00     0.293 HD
ENDBRANCH  16  20
BRANCH  17  22
ATOM     22  O   UNL     1       3.894  14.681  -6.896  1.00  0.00    -0.504 OA
ATOM     23  H   UNL     1       3.737  13.683  -6.812  1.00  0.00     0.293 HD
ENDBRANCH  17  22
ENDBRANCH   1  12
BRANCH   2  24
ATOM     24  O   UNL     1       6.644  14.340 -11.314  1.00  0.00    -0.502 OA
ATOM     25  H   UNL     1       5.713  14.149 -10.961  1.00  0.00     0.293 HD
ENDBRANCH   2  24
BRANCH   6  26
ATOM     26  O   UNL     1      10.586  11.057 -12.746  1.00  0.00    -0.507 OA
ATOM     27  H   UNL     1      11.241  10.445 -13.208  1.00  0.00     0.293 HD
ENDBRANCH   6  26
BRANCH   8  28
ATOM     28  O   UNL     1      13.166  11.013  -8.698  1.00  0.00    -0.508 OA
ATOM     29  H   UNL     1      13.998  10.689  -9.177  1.00  0.00     0.293 HD
ENDBRANCH   8  28
TORSDOF 7
ENDMDL
