MODEL 1
REMARK VINA RESULT:    -2.497      0.000      0.000
REMARK INTER + INTRA:          -2.497
REMARK INTER:                  -2.497
REMARK INTRA:                   0.000
REMARK UNBOUND:                 0.000
REMARK SMILES C=C1CCCC(C)(C)[C@@]12CC=C(C)CC2
REMARK SMILES IDX 13 1 12 2 11 3 10 4 9 5 15 6 14 7 2 8 1 9 3 10 4 11 5 12
REMARK SMILES IDX 6 13 7 14 8 15
REMARK H PARENT
REMARK Flexibility Score: inf
ROOT
ATOM      1  C   UNL     1     159.252 160.283 137.520  1.00  0.00     0.039 C 
ATOM      2  C   UNL     1     160.557 159.620 137.867  1.00  0.00    -0.077 C 
ATOM      3  C   UNL     1     160.657 158.933 139.021  1.00  0.00    -0.027 C 
ATOM      4  C   UNL     1     161.916 158.213 139.450  1.00  0.00     0.039 C 
ATOM      5  C   UNL     1     163.223 158.748 138.765  1.00  0.00    -0.000 C 
ATOM      6  C   UNL     1     162.890 158.851 137.244  1.00  0.00     0.017 C 
ATOM      7  C   UNL     1     161.752 159.845 136.968  1.00  0.00     0.031 C 
ATOM      8  C   UNL     1     163.639 160.152 139.284  1.00  0.00    -0.070 C 
ATOM      9  C   UNL     1     162.927 160.879 140.171  1.00  0.00     0.008 C 
ATOM     10  C   UNL     1     164.936 160.734 138.765  1.00  0.00     0.031 C 
ATOM     11  C   UNL     1     166.085 159.773 139.049  1.00  0.00     0.005 C 
ATOM     12  C   UNL     1     165.792 158.373 138.497  1.00  0.00     0.008 C 
ATOM     13  C   UNL     1     164.456 157.757 139.026  1.00  0.00    -0.026 C 
ATOM     14  C   UNL     1     164.615 157.464 140.544  1.00  0.00     0.012 C 
ATOM     15  C   UNL     1     164.299 156.382 138.317  1.00  0.00     0.012 C 
ENDROOT
TORSDOF 0
ENDMDL
MODEL 2
REMARK VINA RESULT:    -2.480     12.967     15.615
REMARK INTER + INTRA:          -2.480
REMARK INTER:                  -2.480
REMARK INTRA:                   0.000
REMARK UNBOUND:                 0.000
REMARK SMILES C=C1CCCC(C)(C)[C@@]12CC=C(C)CC2
REMARK SMILES IDX 13 1 12 2 11 3 10 4 9 5 15 6 14 7 2 8 1 9 3 10 4 11 5 12
REMARK SMILES IDX 6 13 7 14 8 15
REMARK H PARENT
REMARK Flexibility Score: inf
ROOT
ATOM      1  C   UNL     1     172.940 171.762 137.452  1.00  0.00     0.039 C 
ATOM      2  C   UNL     1     171.604 172.363 137.792  1.00  0.00    -0.077 C 
ATOM      3  C   UNL     1     171.461 173.030 138.953  1.00  0.00    -0.027 C 
ATOM      4  C   UNL     1     170.167 173.688 139.376  1.00  0.00     0.039 C 
ATOM      5  C   UNL     1     168.892 173.107 138.669  1.00  0.00    -0.000 C 
ATOM      6  C   UNL     1     169.247 173.038 137.151  1.00  0.00     0.017 C 
ATOM      7  C   UNL     1     170.430 172.099 136.876  1.00  0.00     0.031 C 
ATOM      8  C   UNL     1     168.531 171.679 139.164  1.00  0.00    -0.070 C 
ATOM      9  C   UNL     1     169.264 170.972 140.051  1.00  0.00     0.008 C 
ATOM     10  C   UNL     1     167.267 171.049 138.622  1.00  0.00     0.031 C 
ATOM     11  C   UNL     1     166.074 171.955 138.904  1.00  0.00     0.005 C 
ATOM     12  C   UNL     1     166.312 173.374 138.374  1.00  0.00     0.008 C 
ATOM     13  C   UNL     1     167.615 174.040 138.928  1.00  0.00    -0.026 C 
ATOM     14  C   UNL     1     167.425 174.305 140.447  1.00  0.00     0.012 C 
ATOM     15  C   UNL     1     167.719 175.429 138.238  1.00  0.00     0.012 C 
ENDROOT
TORSDOF 0
ENDMDL
MODEL 3
REMARK VINA RESULT:    -2.454      1.288      4.376
REMARK INTER + INTRA:          -2.454
REMARK INTER:                  -2.454
REMARK INTRA:                   0.000
REMARK UNBOUND:                 0.000
REMARK SMILES C=C1CCCC(C)(C)[C@@]12CC=C(C)CC2
REMARK SMILES IDX 13 1 12 2 11 3 10 4 9 5 15 6 14 7 2 8 1 9 3 10 4 11 5 12
REMARK SMILES IDX 6 13 7 14 8 15
REMARK H PARENT
REMARK Flexibility Score: inf
ROOT
ATOM      1  C   UNL     1     166.761 155.875 139.723  1.00  0.00     0.039 C 
ATOM      2  C   UNL     1     165.558 156.752 139.509  1.00  0.00    -0.077 C 
ATOM      3  C   UNL     1     164.862 156.642 138.360  1.00  0.00    -0.027 C 
ATOM      4  C   UNL     1     163.627 157.459 138.058  1.00  0.00     0.039 C 
ATOM      5  C   UNL     1     163.518 158.785 138.892  1.00  0.00    -0.000 C 
ATOM      6  C   UNL     1     163.817 158.379 140.369  1.00  0.00     0.017 C 
ATOM      7  C   UNL     1     165.233 157.812 140.537  1.00  0.00     0.031 C 
ATOM      8  C   UNL     1     164.550 159.858 138.448  1.00  0.00    -0.070 C 
ATOM      9  C   UNL     1     165.493 159.663 137.501  1.00  0.00     0.008 C 
ATOM     10  C   UNL     1     164.481 161.214 139.116  1.00  0.00     0.031 C 
ATOM     11  C   UNL     1     163.088 161.808 138.942  1.00  0.00     0.005 C 
ATOM     12  C   UNL     1     162.003 160.841 139.433  1.00  0.00     0.008 C 
ATOM     13  C   UNL     1     162.060 159.436 138.749  1.00  0.00    -0.026 C 
ATOM     14  C   UNL     1     161.674 159.600 137.252  1.00  0.00     0.012 C 
ATOM     15  C   UNL     1     160.940 158.585 139.411  1.00  0.00     0.012 C 
ENDROOT
TORSDOF 0
ENDMDL
MODEL 4
REMARK VINA RESULT:    -2.439     13.060     15.274
REMARK INTER + INTRA:          -2.439
REMARK INTER:                  -2.439
REMARK INTRA:                   0.000
REMARK UNBOUND:                 0.000
REMARK SMILES C=C1CCCC(C)(C)[C@@]12CC=C(C)CC2
REMARK SMILES IDX 13 1 12 2 11 3 10 4 9 5 15 6 14 7 2 8 1 9 3 10 4 11 5 12
REMARK SMILES IDX 6 13 7 14 8 15
REMARK H PARENT
REMARK Flexibility Score: inf
ROOT
ATOM      1  C   UNL     1     165.309 176.125 139.895  1.00  0.00     0.039 C 
ATOM      2  C   UNL     1     166.499 175.242 139.635  1.00  0.00    -0.077 C 
ATOM      3  C   UNL     1     167.141 175.340 138.454  1.00  0.00    -0.027 C 
ATOM      4  C   UNL     1     168.359 174.514 138.104  1.00  0.00     0.039 C 
ATOM      5  C   UNL     1     168.501 173.196 138.943  1.00  0.00    -0.000 C 
ATOM      6  C   UNL     1     168.271 173.615 140.428  1.00  0.00     0.017 C 
ATOM      7  C   UNL     1     166.866 174.189 140.655  1.00  0.00     0.031 C 
ATOM      8  C   UNL     1     167.446 172.123 138.555  1.00  0.00    -0.070 C 
ATOM      9  C   UNL     1     166.461 172.313 137.651  1.00  0.00     0.008 C 
ATOM     10  C   UNL     1     167.540 170.772 139.232  1.00  0.00     0.031 C 
ATOM     11  C   UNL     1     168.922 170.172 139.000  1.00  0.00     0.005 C 
ATOM     12  C   UNL     1     170.031 171.138 139.432  1.00  0.00     0.008 C 
ATOM     13  C   UNL     1     169.949 172.538 138.739  1.00  0.00    -0.026 C 
ATOM     14  C   UNL     1     170.265 172.360 137.228  1.00  0.00     0.012 C 
ATOM     15  C   UNL     1     171.101 173.390 139.343  1.00  0.00     0.012 C 
ENDROOT
TORSDOF 0
ENDMDL
MODEL 5
REMARK VINA RESULT:    -2.392      1.270      4.352
REMARK INTER + INTRA:          -2.392
REMARK INTER:                  -2.392
REMARK INTRA:                   0.000
REMARK UNBOUND:                 0.000
REMARK SMILES C=C1CCCC(C)(C)[C@@]12CC=C(C)CC2
REMARK SMILES IDX 13 1 12 2 11 3 10 4 9 5 15 6 14 7 2 8 1 9 3 10 4 11 5 12
REMARK SMILES IDX 6 13 7 14 8 15
REMARK H PARENT
REMARK Flexibility Score: inf
ROOT
ATOM      1  C   UNL     1     164.758 155.884 138.514  1.00  0.00     0.039 C 
ATOM      2  C   UNL     1     163.748 156.997 138.456  1.00  0.00    -0.077 C 
ATOM      3  C   UNL     1     163.809 157.885 137.445  1.00  0.00    -0.027 C 
ATOM      4  C   UNL     1     162.828 159.025 137.284  1.00  0.00     0.039 C 
ATOM      5  C   UNL     1     162.093 159.428 138.610  1.00  0.00    -0.000 C 
ATOM      6  C   UNL     1     161.602 158.089 139.244  1.00  0.00     0.017 C 
ATOM      7  C   UNL     1     162.768 157.155 139.596  1.00  0.00     0.031 C 
ATOM      8  C   UNL     1     163.030 160.146 139.620  1.00  0.00    -0.070 C 
ATOM      9  C   UNL     1     164.352 160.345 139.425  1.00  0.00     0.008 C 
ATOM     10  C   UNL     1     162.413 160.667 140.900  1.00  0.00     0.031 C 
ATOM     11  C   UNL     1     161.265 161.616 140.574  1.00  0.00     0.005 C 
ATOM     12  C   UNL     1     160.244 160.957 139.640  1.00  0.00     0.008 C 
ATOM     13  C   UNL     1     160.866 160.416 138.311  1.00  0.00    -0.026 C 
ATOM     14  C   UNL     1     161.331 161.627 137.455  1.00  0.00     0.012 C 
ATOM     15  C   UNL     1     159.705 159.735 137.532  1.00  0.00     0.012 C 
ENDROOT
TORSDOF 0
ENDMDL
MODEL 6
REMARK VINA RESULT:    -2.388      1.320      3.012
REMARK INTER + INTRA:          -2.388
REMARK INTER:                  -2.388
REMARK INTRA:                   0.000
REMARK UNBOUND:                 0.000
REMARK SMILES C=C1CCCC(C)(C)[C@@]12CC=C(C)CC2
REMARK SMILES IDX 13 1 12 2 11 3 10 4 9 5 15 6 14 7 2 8 1 9 3 10 4 11 5 12
REMARK SMILES IDX 6 13 7 14 8 15
REMARK H PARENT
REMARK Flexibility Score: inf
ROOT
ATOM      1  C   UNL     1     160.233 161.124 138.920  1.00  0.00     0.039 C 
ATOM      2  C   UNL     1     161.570 160.489 139.187  1.00  0.00    -0.077 C 
ATOM      3  C   UNL     1     162.680 161.065 138.688  1.00  0.00    -0.027 C 
ATOM      4  C   UNL     1     164.072 160.519 138.918  1.00  0.00     0.039 C 
ATOM      5  C   UNL     1     164.107 158.996 139.296  1.00  0.00    -0.000 C 
ATOM      6  C   UNL     1     163.027 158.813 140.407  1.00  0.00     0.017 C 
ATOM      7  C   UNL     1     161.618 159.160 139.906  1.00  0.00     0.031 C 
ATOM      8  C   UNL     1     163.753 158.074 138.097  1.00  0.00    -0.070 C 
ATOM      9  C   UNL     1     163.383 158.517 136.876  1.00  0.00     0.008 C 
ATOM     10  C   UNL     1     163.844 156.579 138.313  1.00  0.00     0.031 C 
ATOM     11  C   UNL     1     165.243 156.207 138.790  1.00  0.00     0.005 C 
ATOM     12  C   UNL     1     165.646 157.018 140.027  1.00  0.00     0.008 C 
ATOM     13  C   UNL     1     165.560 158.566 139.818  1.00  0.00    -0.026 C 
ATOM     14  C   UNL     1     166.657 158.988 138.801  1.00  0.00     0.012 C 
ATOM     15  C   UNL     1     165.938 159.211 141.181  1.00  0.00     0.012 C 
ENDROOT
TORSDOF 0
ENDMDL
MODEL 7
REMARK VINA RESULT:    -2.349     13.352     15.253
REMARK INTER + INTRA:          -2.349
REMARK INTER:                  -2.349
REMARK INTRA:                   0.000
REMARK UNBOUND:                 0.000
REMARK SMILES C=C1CCCC(C)(C)[C@@]12CC=C(C)CC2
REMARK SMILES IDX 13 1 12 2 11 3 10 4 9 5 15 6 14 7 2 8 1 9 3 10 4 11 5 12
REMARK SMILES IDX 6 13 7 14 8 15
REMARK H PARENT
REMARK Flexibility Score: inf
ROOT
ATOM      1  C   UNL     1     167.162 175.813 138.447  1.00  0.00     0.039 C 
ATOM      2  C   UNL     1     168.244 174.769 138.404  1.00  0.00    -0.077 C 
ATOM      3  C   UNL     1     168.308 173.934 137.349  1.00  0.00    -0.027 C 
ATOM      4  C   UNL     1     169.369 172.867 137.200  1.00  0.00     0.039 C 
ATOM      5  C   UNL     1     170.040 172.439 138.553  1.00  0.00    -0.000 C 
ATOM      6  C   UNL     1     170.400 173.770 139.284  1.00  0.00     0.017 C 
ATOM      7  C   UNL     1     169.155 174.610 139.601  1.00  0.00     0.031 C 
ATOM      8  C   UNL     1     169.087 171.612 139.458  1.00  0.00    -0.070 C 
ATOM      9  C   UNL     1     167.797 171.343 139.163  1.00  0.00     0.008 C 
ATOM     10  C   UNL     1     169.650 171.062 140.751  1.00  0.00     0.031 C 
ATOM     11  C   UNL     1     170.876 170.205 140.459  1.00  0.00     0.005 C 
ATOM     12  C   UNL     1     171.913 170.975 139.632  1.00  0.00     0.008 C 
ATOM     13  C   UNL     1     171.346 171.547 138.291  1.00  0.00    -0.026 C 
ATOM     14  C   UNL     1     171.018 170.357 137.347  1.00  0.00     0.012 C 
ATOM     15  C   UNL     1     172.509 172.339 137.630  1.00  0.00     0.012 C 
ENDROOT
TORSDOF 0
ENDMDL
MODEL 8
REMARK VINA RESULT:    -2.349      1.670      4.002
REMARK INTER + INTRA:          -2.349
REMARK INTER:                  -2.349
REMARK INTRA:                   0.000
REMARK UNBOUND:                 0.000
REMARK SMILES C=C1CCCC(C)(C)[C@@]12CC=C(C)CC2
REMARK SMILES IDX 13 1 12 2 11 3 10 4 9 5 15 6 14 7 2 8 1 9 3 10 4 11 5 12
REMARK SMILES IDX 6 13 7 14 8 15
REMARK H PARENT
REMARK Flexibility Score: inf
ROOT
ATOM      1  C   UNL     1     162.589 160.805 143.603  1.00  0.00     0.039 C 
ATOM      2  C   UNL     1     163.298 160.224 142.411  1.00  0.00    -0.077 C 
ATOM      3  C   UNL     1     163.380 160.949 141.279  1.00  0.00    -0.027 C 
ATOM      4  C   UNL     1     164.090 160.465 140.035  1.00  0.00     0.039 C 
ATOM      5  C   UNL     1     164.248 158.906 139.954  1.00  0.00    -0.000 C 
ATOM      6  C   UNL     1     164.782 158.463 141.352  1.00  0.00     0.017 C 
ATOM      7  C   UNL     1     163.794 158.797 142.479  1.00  0.00     0.031 C 
ATOM      8  C   UNL     1     162.901 158.181 139.680  1.00  0.00    -0.070 C 
ATOM      9  C   UNL     1     161.705 158.802 139.590  1.00  0.00     0.008 C 
ATOM     10  C   UNL     1     162.940 156.681 139.488  1.00  0.00     0.031 C 
ATOM     11  C   UNL     1     163.898 156.326 138.357  1.00  0.00     0.005 C 
ATOM     12  C   UNL     1     165.285 156.938 138.588  1.00  0.00     0.008 C 
ATOM     13  C   UNL     1     165.262 158.490 138.784  1.00  0.00    -0.026 C 
ATOM     14  C   UNL     1     164.852 159.152 137.439  1.00  0.00     0.012 C 
ATOM     15  C   UNL     1     166.731 158.915 139.065  1.00  0.00     0.012 C 
ENDROOT
TORSDOF 0
ENDMDL
MODEL 9
REMARK VINA RESULT:    -2.330     13.543     15.558
REMARK INTER + INTRA:          -2.330
REMARK INTER:                  -2.330
REMARK INTRA:                   0.000
REMARK UNBOUND:                 0.000
REMARK SMILES C=C1CCCC(C)(C)[C@@]12CC=C(C)CC2
REMARK SMILES IDX 13 1 12 2 11 3 10 4 9 5 15 6 14 7 2 8 1 9 3 10 4 11 5 12
REMARK SMILES IDX 6 13 7 14 8 15
REMARK H PARENT
REMARK Flexibility Score: inf
ROOT
ATOM      1  C   UNL     1     169.448 171.133 143.598  1.00  0.00     0.039 C 
ATOM      2  C   UNL     1     168.706 171.746 142.441  1.00  0.00    -0.077 C 
ATOM      3  C   UNL     1     168.548 171.030 141.311  1.00  0.00    -0.027 C 
ATOM      4  C   UNL     1     167.801 171.545 140.102  1.00  0.00     0.039 C 
ATOM      5  C   UNL     1     167.693 173.110 140.035  1.00  0.00    -0.000 C 
ATOM      6  C   UNL     1     167.238 173.562 141.458  1.00  0.00     0.017 C 
ATOM      7  C   UNL     1     168.263 173.188 142.538  1.00  0.00     0.031 C 
ATOM      8  C   UNL     1     169.050 173.789 139.704  1.00  0.00    -0.070 C 
ATOM      9  C   UNL     1     170.219 173.128 139.558  1.00  0.00     0.008 C 
ATOM     10  C   UNL     1     169.054 175.291 139.521  1.00  0.00     0.031 C 
ATOM     11  C   UNL     1     168.059 175.685 138.435  1.00  0.00     0.005 C 
ATOM     12  C   UNL     1     166.664 175.119 138.725  1.00  0.00     0.008 C 
ATOM     13  C   UNL     1     166.642 173.566 138.914  1.00  0.00    -0.026 C 
ATOM     14  C   UNL     1     166.969 172.899 137.549  1.00  0.00     0.012 C 
ATOM     15  C   UNL     1     165.174 173.190 139.259  1.00  0.00     0.012 C 
ENDROOT
TORSDOF 0
ENDMDL
