MODEL 1
REMARK VINA RESULT:    -5.632      0.000      0.000
REMARK INTER + INTRA:          -6.562
REMARK INTER:                  -6.455
REMARK INTRA:                  -0.108
REMARK UNBOUND:                -0.108
REMARK SMILES COc1ccc(C(C)=O)cc1O
REMARK SMILES IDX 6 1 10 2 11 3 3 4 4 5 5 6 7 7 8 8 9 9 12 10 2 12 1 13
REMARK H PARENT 12 11
REMARK Flexibility Score: inf
ROOT
ATOM      1  C   UNL     1      17.777 -11.046  66.892  1.00  0.00     0.021 A 
ATOM      2  C   UNL     1      18.194 -10.115  67.864  1.00  0.00     0.062 A 
ATOM      3  C   UNL     1      19.133 -10.468  68.839  1.00  0.00     0.158 A 
ATOM      4  C   UNL     1      19.676 -11.764  68.862  1.00  0.00     0.160 A 
ATOM      5  C   UNL     1      19.263 -12.697  67.893  1.00  0.00     0.051 A 
ATOM      6  C   UNL     1      18.324 -12.340  66.922  1.00  0.00     0.016 A 
ENDROOT
BRANCH   1   7
ATOM      7  C   UNL     1      16.779 -10.683  65.850  1.00  0.00     0.159 C 
ATOM      8  C   UNL     1      15.566 -11.524  65.586  1.00  0.00     0.093 C 
ATOM      9  O   UNL     1      16.945  -9.640  65.160  1.00  0.00    -0.295 OA
ENDBRANCH   1   7
BRANCH   3  10
ATOM     10  O   UNL     1      19.514  -9.512  69.781  1.00  0.00    -0.504 OA
ATOM     11  H   UNL     1      20.433  -9.510  70.207  1.00  0.00     0.293 HD
ENDBRANCH   3  10
BRANCH   4  12
ATOM     12  O   UNL     1      20.617 -12.090  69.853  1.00  0.00    -0.493 OA
ATOM     13  C   UNL     1      21.351 -13.308  69.899  1.00  0.00     0.278 C 
ENDBRANCH   4  12
TORSDOF 3
ENDMDL
MODEL 2
REMARK VINA RESULT:    -5.195      2.104      5.129
REMARK INTER + INTRA:          -6.062
REMARK INTER:                  -5.968
REMARK INTRA:                  -0.094
REMARK UNBOUND:                -0.108
REMARK SMILES COc1ccc(C(C)=O)cc1O
REMARK SMILES IDX 6 1 10 2 11 3 3 4 4 5 5 6 7 7 8 8 9 9 12 10 2 12 1 13
REMARK H PARENT 12 11
REMARK Flexibility Score: inf
ROOT
ATOM      1  C   UNL     1      19.110 -10.235  67.416  1.00  0.00     0.021 A 
ATOM      2  C   UNL     1      20.092  -9.877  66.472  1.00  0.00     0.062 A 
ATOM      3  C   UNL     1      19.745  -9.592  65.147  1.00  0.00     0.158 A 
ATOM      4  C   UNL     1      18.402  -9.659  64.739  1.00  0.00     0.160 A 
ATOM      5  C   UNL     1      17.417 -10.016  65.678  1.00  0.00     0.051 A 
ATOM      6  C   UNL     1      17.770 -10.300  66.999  1.00  0.00     0.016 A 
ENDROOT
BRANCH   1   7
ATOM      7  C   UNL     1      19.467 -10.541  68.828  1.00  0.00     0.159 C 
ATOM      8  C   UNL     1      19.975 -11.889  69.243  1.00  0.00     0.093 C 
ATOM      9  O   UNL     1      19.344  -9.650  69.711  1.00  0.00    -0.295 OA
ENDBRANCH   1   7
BRANCH   3  10
ATOM     10  O   UNL     1      20.753  -9.243  64.249  1.00  0.00    -0.504 OA
ATOM     11  H   UNL     1      20.556  -8.782  63.368  1.00  0.00     0.293 HD
ENDBRANCH   3  10
BRANCH   4  12
ATOM     12  O   UNL     1      18.082  -9.368  63.402  1.00  0.00    -0.493 OA
ATOM     13  C   UNL     1      16.758  -9.289  62.887  1.00  0.00     0.278 C 
ENDBRANCH   4  12
TORSDOF 3
ENDMDL
MODEL 3
REMARK VINA RESULT:    -5.117      2.276      3.214
REMARK INTER + INTRA:          -5.972
REMARK INTER:                  -5.854
REMARK INTRA:                  -0.119
REMARK UNBOUND:                -0.108
REMARK SMILES COc1ccc(C(C)=O)cc1O
REMARK SMILES IDX 6 1 10 2 11 3 3 4 4 5 5 6 7 7 8 8 9 9 12 10 2 12 1 13
REMARK H PARENT 12 11
REMARK Flexibility Score: inf
ROOT
ATOM      1  C   UNL     1      17.453 -10.417  64.549  1.00  0.00     0.021 A 
ATOM      2  C   UNL     1      18.757  -9.929  64.758  1.00  0.00     0.062 A 
ATOM      3  C   UNL     1      19.200  -9.590  66.042  1.00  0.00     0.158 A 
ATOM      4  C   UNL     1      18.343  -9.735  67.146  1.00  0.00     0.160 A 
ATOM      5  C   UNL     1      17.039 -10.223  66.942  1.00  0.00     0.051 A 
ATOM      6  C   UNL     1      16.602 -10.558  65.659  1.00  0.00     0.016 A 
ENDROOT
BRANCH   1   7
ATOM      7  C   UNL     1      16.970 -10.780  63.189  1.00  0.00     0.159 C 
ATOM      8  C   UNL     1      15.974  -9.937  62.449  1.00  0.00     0.093 C 
ATOM      9  O   UNL     1      17.402 -11.824  62.630  1.00  0.00    -0.295 OA
ENDBRANCH   1   7
BRANCH   3  10
ATOM     10  O   UNL     1      20.500  -9.110  66.199  1.00  0.00    -0.504 OA
ATOM     11  H   UNL     1      21.290  -9.525  65.720  1.00  0.00     0.293 HD
ENDBRANCH   3  10
BRANCH   4  12
ATOM     12  O   UNL     1      18.814  -9.387  68.423  1.00  0.00    -0.493 OA
ATOM     13  C   UNL     1      19.384 -10.304  69.350  1.00  0.00     0.278 C 
ENDBRANCH   4  12
TORSDOF 3
ENDMDL
MODEL 4
REMARK VINA RESULT:    -5.078      1.541      5.135
REMARK INTER + INTRA:          -5.928
REMARK INTER:                  -5.815
REMARK INTRA:                  -0.114
REMARK UNBOUND:                -0.108
REMARK SMILES COc1ccc(C(C)=O)cc1O
REMARK SMILES IDX 6 1 10 2 11 3 3 4 4 5 5 6 7 7 8 8 9 9 12 10 2 12 1 13
REMARK H PARENT 12 11
REMARK Flexibility Score: inf
ROOT
ATOM      1  C   UNL     1      18.504 -11.159  67.784  1.00  0.00     0.021 A 
ATOM      2  C   UNL     1      18.299 -12.351  67.062  1.00  0.00     0.062 A 
ATOM      3  C   UNL     1      17.410 -12.392  65.982  1.00  0.00     0.158 A 
ATOM      4  C   UNL     1      16.707 -11.236  65.601  1.00  0.00     0.160 A 
ATOM      5  C   UNL     1      16.910 -10.043  66.319  1.00  0.00     0.051 A 
ATOM      6  C   UNL     1      17.797 -10.008  67.397  1.00  0.00     0.016 A 
ENDROOT
BRANCH   1   7
ATOM      7  C   UNL     1      19.447 -11.103  68.934  1.00  0.00     0.159 C 
ATOM      8  C   UNL     1      20.389 -12.228  69.244  1.00  0.00     0.093 C 
ATOM      9  O   UNL     1      19.465 -10.086  69.680  1.00  0.00    -0.295 OA
ENDBRANCH   1   7
BRANCH   3  10
ATOM     10  O   UNL     1      17.240 -13.596  65.298  1.00  0.00    -0.504 OA
ATOM     11  H   UNL     1      18.025 -14.150  64.977  1.00  0.00     0.293 HD
ENDBRANCH   3  10
BRANCH   4  12
ATOM     12  O   UNL     1      15.822 -11.307  64.513  1.00  0.00    -0.493 OA
ATOM     13  C   UNL     1      14.422 -11.541  64.625  1.00  0.00     0.278 C 
ENDBRANCH   4  12
TORSDOF 3
ENDMDL
MODEL 5
REMARK VINA RESULT:    -4.818      1.652      2.257
REMARK INTER + INTRA:          -5.630
REMARK INTER:                  -5.513
REMARK INTRA:                  -0.117
REMARK UNBOUND:                -0.108
REMARK SMILES COc1ccc(C(C)=O)cc1O
REMARK SMILES IDX 6 1 10 2 11 3 3 4 4 5 5 6 7 7 8 8 9 9 12 10 2 12 1 13
REMARK H PARENT 12 11
REMARK Flexibility Score: inf
ROOT
ATOM      1  C   UNL     1      16.959 -10.714  65.930  1.00  0.00     0.021 A 
ATOM      2  C   UNL     1      16.629 -11.837  66.713  1.00  0.00     0.062 A 
ATOM      3  C   UNL     1      17.401 -12.190  67.825  1.00  0.00     0.158 A 
ATOM      4  C   UNL     1      18.523 -11.421  68.179  1.00  0.00     0.160 A 
ATOM      5  C   UNL     1      18.856 -10.298  67.401  1.00  0.00     0.051 A 
ATOM      6  C   UNL     1      18.083  -9.950  66.291  1.00  0.00     0.016 A 
ENDROOT
BRANCH   1   7
ATOM      7  C   UNL     1      16.146 -10.328  64.746  1.00  0.00     0.159 C 
ATOM      8  C   UNL     1      14.923 -11.096  64.339  1.00  0.00     0.093 C 
ATOM      9  O   UNL     1      16.482  -9.330  64.053  1.00  0.00    -0.295 OA
ENDBRANCH   1   7
BRANCH   3  10
ATOM     10  O   UNL     1      17.034 -13.312  68.568  1.00  0.00    -0.504 OA
ATOM     11  H   UNL     1      16.405 -13.254  69.360  1.00  0.00     0.293 HD
ENDBRANCH   3  10
BRANCH   4  12
ATOM     12  O   UNL     1      19.280 -11.799  69.300  1.00  0.00    -0.493 OA
ATOM     13  C   UNL     1      20.499 -12.531  69.242  1.00  0.00     0.278 C 
ENDBRANCH   4  12
TORSDOF 3
ENDMDL
MODEL 6
REMARK VINA RESULT:    -4.764      2.236      2.955
REMARK INTER + INTRA:          -5.568
REMARK INTER:                  -5.452
REMARK INTRA:                  -0.116
REMARK UNBOUND:                -0.108
REMARK SMILES COc1ccc(C(C)=O)cc1O
REMARK SMILES IDX 6 1 10 2 11 3 3 4 4 5 5 6 7 7 8 8 9 9 12 10 2 12 1 13
REMARK H PARENT 12 11
REMARK Flexibility Score: inf
ROOT
ATOM      1  C   UNL     1      17.157 -11.793  64.358  1.00  0.00     0.021 A 
ATOM      2  C   UNL     1      17.010 -10.631  65.139  1.00  0.00     0.062 A 
ATOM      3  C   UNL     1      17.404 -10.613  66.481  1.00  0.00     0.158 A 
ATOM      4  C   UNL     1      17.956 -11.764  67.071  1.00  0.00     0.160 A 
ATOM      5  C   UNL     1      18.104 -12.927  66.294  1.00  0.00     0.051 A 
ATOM      6  C   UNL     1      17.709 -12.939  64.955  1.00  0.00     0.016 A 
ENDROOT
BRANCH   1   7
ATOM      7  C   UNL     1      16.742 -11.824  62.929  1.00  0.00     0.159 C 
ATOM      8  C   UNL     1      15.734 -10.861  62.375  1.00  0.00     0.093 C 
ATOM      9  O   UNL     1      17.243 -12.679  62.150  1.00  0.00    -0.295 OA
ENDBRANCH   1   7
BRANCH   3  10
ATOM     10  O   UNL     1      17.239  -9.438  67.215  1.00  0.00    -0.504 OA
ATOM     11  H   UNL     1      16.390  -8.887  67.168  1.00  0.00     0.293 HD
ENDBRANCH   3  10
BRANCH   4  12
ATOM     12  O   UNL     1      18.342 -11.717  68.421  1.00  0.00    -0.493 OA
ATOM     13  C   UNL     1      19.684 -11.565  68.872  1.00  0.00     0.278 C 
ENDBRANCH   4  12
TORSDOF 3
ENDMDL
MODEL 7
REMARK VINA RESULT:    -4.754      3.033      3.955
REMARK INTER + INTRA:          -5.557
REMARK INTER:                  -5.425
REMARK INTRA:                  -0.131
REMARK UNBOUND:                -0.108
REMARK SMILES COc1ccc(C(C)=O)cc1O
REMARK SMILES IDX 6 1 10 2 11 3 3 4 4 5 5 6 7 7 8 8 9 9 12 10 2 12 1 13
REMARK H PARENT 12 11
REMARK Flexibility Score: inf
ROOT
ATOM      1  C   UNL     1      16.447 -10.401  64.642  1.00  0.00     0.021 A 
ATOM      2  C   UNL     1      17.457 -10.154  63.691  1.00  0.00     0.062 A 
ATOM      3  C   UNL     1      18.767  -9.868  64.093  1.00  0.00     0.158 A 
ATOM      4  C   UNL     1      19.094  -9.825  65.459  1.00  0.00     0.160 A 
ATOM      5  C   UNL     1      18.089 -10.072  66.412  1.00  0.00     0.051 A 
ATOM      6  C   UNL     1      16.783 -10.356  66.006  1.00  0.00     0.016 A 
ENDROOT
BRANCH   1   7
ATOM      7  C   UNL     1      15.051 -10.706  64.228  1.00  0.00     0.159 C 
ATOM      8  C   UNL     1      14.253 -11.800  64.873  1.00  0.00     0.093 C 
ATOM      9  O   UNL     1      14.510 -10.034  63.308  1.00  0.00    -0.295 OA
ENDBRANCH   1   7
BRANCH   3  10
ATOM     10  O   UNL     1      19.732  -9.629  63.114  1.00  0.00    -0.504 OA
ATOM     11  H   UNL     1      19.661  -8.857  62.463  1.00  0.00     0.293 HD
ENDBRANCH   3  10
BRANCH   4  12
ATOM     12  O   UNL     1      20.417  -9.536  65.833  1.00  0.00    -0.493 OA
ATOM     13  C   UNL     1      21.383 -10.513  66.202  1.00  0.00     0.278 C 
ENDBRANCH   4  12
TORSDOF 3
ENDMDL
MODEL 8
REMARK VINA RESULT:    -4.669      3.735      4.451
REMARK INTER + INTRA:          -5.459
REMARK INTER:                  -5.360
REMARK INTRA:                  -0.099
REMARK UNBOUND:                -0.108
REMARK SMILES COc1ccc(C(C)=O)cc1O
REMARK SMILES IDX 6 1 10 2 11 3 3 4 4 5 5 6 7 7 8 8 9 9 12 10 2 12 1 13
REMARK H PARENT 12 11
REMARK Flexibility Score: inf
ROOT
ATOM      1  C   UNL     1      19.590 -10.142  66.421  1.00  0.00     0.021 A 
ATOM      2  C   UNL     1      19.805  -9.360  65.269  1.00  0.00     0.062 A 
ATOM      3  C   UNL     1      20.838  -9.666  64.376  1.00  0.00     0.158 A 
ATOM      4  C   UNL     1      21.679 -10.766  64.618  1.00  0.00     0.160 A 
ATOM      5  C   UNL     1      21.468 -11.550  65.767  1.00  0.00     0.051 A 
ATOM      6  C   UNL     1      20.436 -11.240  66.655  1.00  0.00     0.016 A 
ENDROOT
BRANCH   1   7
ATOM      7  C   UNL     1      18.496  -9.827  67.378  1.00  0.00     0.159 C 
ATOM      8  C   UNL     1      17.054 -10.066  67.041  1.00  0.00     0.093 C 
ATOM      9  O   UNL     1      18.773  -9.344  68.509  1.00  0.00    -0.295 OA
ENDBRANCH   1   7
BRANCH   3  10
ATOM     10  O   UNL     1      21.012  -8.861  63.250  1.00  0.00    -0.504 OA
ATOM     11  H   UNL     1      20.502  -9.019  62.389  1.00  0.00     0.293 HD
ENDBRANCH   3  10
BRANCH   4  12
ATOM     12  O   UNL     1      22.708 -11.048  63.704  1.00  0.00    -0.493 OA
ATOM     13  C   UNL     1      24.040 -11.391  64.069  1.00  0.00     0.278 C 
ENDBRANCH   4  12
TORSDOF 3
ENDMDL
MODEL 9
REMARK VINA RESULT:    -4.666     16.925     18.074
REMARK INTER + INTRA:          -5.456
REMARK INTER:                  -5.335
REMARK INTRA:                  -0.121
REMARK UNBOUND:                -0.108
REMARK SMILES COc1ccc(C(C)=O)cc1O
REMARK SMILES IDX 6 1 10 2 11 3 3 4 4 5 5 6 7 7 8 8 9 9 12 10 2 12 1 13
REMARK H PARENT 12 11
REMARK Flexibility Score: inf
ROOT
ATOM      1  C   UNL     1       6.614   1.577  64.669  1.00  0.00     0.021 A 
ATOM      2  C   UNL     1       8.018   1.671  64.709  1.00  0.00     0.062 A 
ATOM      3  C   UNL     1       8.762   1.829  63.535  1.00  0.00     0.158 A 
ATOM      4  C   UNL     1       8.112   1.896  62.290  1.00  0.00     0.160 A 
ATOM      5  C   UNL     1       6.709   1.803  62.245  1.00  0.00     0.051 A 
ATOM      6  C   UNL     1       5.971   1.645  63.421  1.00  0.00     0.016 A 
ENDROOT
BRANCH   1   7
ATOM      7  C   UNL     1       5.812   1.409  65.911  1.00  0.00     0.159 C 
ATOM      8  C   UNL     1       5.057   0.147  66.203  1.00  0.00     0.093 C 
ATOM      9  O   UNL     1       5.757   2.347  66.752  1.00  0.00    -0.295 OA
ENDBRANCH   1   7
BRANCH   3  10
ATOM     10  O   UNL     1      10.151   1.917  63.626  1.00  0.00    -0.504 OA
ATOM     11  H   UNL     1      10.745   1.096  63.633  1.00  0.00     0.293 HD
ENDBRANCH   3  10
BRANCH   4  12
ATOM     12  O   UNL     1       8.884   2.054  61.128  1.00  0.00    -0.493 OA
ATOM     13  C   UNL     1       9.152   3.304  60.501  1.00  0.00     0.278 C 
ENDBRANCH   4  12
TORSDOF 3
ENDMDL
