MODEL 1
REMARK VINA RESULT:    -5.011      0.000      0.000
REMARK INTER + INTRA:          -7.206
REMARK INTER:                  -6.769
REMARK INTRA:                  -0.437
REMARK UNBOUND:                -0.437
REMARK SMILES [NH3+]CCCC[C@H]([NH3+])C(=O)[O-]
REMARK SMILES IDX 4 1 3 2 2 3 1 4 5 8 6 9 7 10 8 14 9 15 10 16
REMARK H PARENT 1 5 1 6 1 7 7 11 7 12 7 13
REMARK Flexibility Score: inf
ROOT
ATOM      1  C   UNL     1     -20.470  67.477  -0.744  1.00  0.00     0.012 C 
ENDROOT
BRANCH   1   2
ATOM      2  C   UNL     1     -19.023  67.369  -1.239  1.00  0.00     0.061 C 
BRANCH   2   3
ATOM      3  C   UNL     1     -18.098  68.303  -0.447  1.00  0.00     0.258 C 
BRANCH   3   4
ATOM      4  N   UNL     1     -17.885  69.559  -1.165  1.00  0.00    -0.358 N 
ATOM      5  H   UNL     1     -18.299  69.500  -2.124  1.00  0.00     0.344 HD
ATOM      6  H   UNL     1     -18.320  70.352  -0.639  1.00  0.00     0.344 HD
ATOM      7  H   UNL     1     -16.857  69.734  -1.250  1.00  0.00     0.344 HD
ENDBRANCH   3   4
ENDBRANCH   2   3
ENDBRANCH   1   2
BRANCH   1   8
ATOM      8  C   UNL     1     -20.523  68.041   0.685  1.00  0.00     0.072 C 
BRANCH   8   9
ATOM      9  C   UNL     1     -21.706  69.013   0.887  1.00  0.00     0.227 C 
BRANCH   9  10
ATOM     10  N   UNL     1     -22.761  68.750  -0.100  1.00  0.00    -0.350 N 
ATOM     11  H   UNL     1     -22.778  67.737  -0.362  1.00  0.00     0.345 HD
ATOM     12  H   UNL     1     -22.595  69.325  -0.959  1.00  0.00     0.345 HD
ATOM     13  H   UNL     1     -23.691  69.016   0.296  1.00  0.00     0.345 HD
ENDBRANCH   9  10
BRANCH   9  14
ATOM     14  C   UNL     1     -21.254  70.448   0.793  1.00  0.00     0.099 C 
ATOM     15  O   UNL     1     -20.532  70.830  -0.165  1.00  0.00    -0.544 OA
ATOM     16  O   UNL     1     -21.628  71.358   1.774  1.00  0.00    -0.544 OA
ENDBRANCH   9  14
ENDBRANCH   8   9
ENDBRANCH   1   8
TORSDOF 7
ENDMDL
MODEL 2
REMARK VINA RESULT:    -4.799      2.606      4.614
REMARK INTER + INTRA:          -6.920
REMARK INTER:                  -6.485
REMARK INTRA:                  -0.435
REMARK UNBOUND:                -0.437
REMARK SMILES [NH3+]CCCC[C@H]([NH3+])C(=O)[O-]
REMARK SMILES IDX 4 1 3 2 2 3 1 4 5 8 6 9 7 10 8 14 9 15 10 16
REMARK H PARENT 1 5 1 6 1 7 7 11 7 12 7 13
REMARK Flexibility Score: inf
ROOT
ATOM      1  C   UNL     1     -20.252  69.192   0.214  1.00  0.00     0.012 C 
ENDROOT
BRANCH   1   2
ATOM      2  C   UNL     1     -21.721  69.394   0.605  1.00  0.00     0.061 C 
BRANCH   2   3
ATOM      3  C   UNL     1     -22.442  68.047   0.753  1.00  0.00     0.258 C 
BRANCH   3   4
ATOM      4  N   UNL     1     -23.197  67.723  -0.456  1.00  0.00    -0.358 N 
ATOM      5  H   UNL     1     -24.046  68.330  -0.524  1.00  0.00     0.344 HD
ATOM      6  H   UNL     1     -22.597  67.859  -1.303  1.00  0.00     0.344 HD
ATOM      7  H   UNL     1     -23.498  66.723  -0.414  1.00  0.00     0.344 HD
ENDBRANCH   3   4
ENDBRANCH   2   3
ENDBRANCH   1   2
BRANCH   1   8
ATOM      8  C   UNL     1     -19.814  67.737   0.449  1.00  0.00     0.072 C 
BRANCH   8   9
ATOM      9  C   UNL     1     -18.901  67.211  -0.680  1.00  0.00     0.227 C 
BRANCH   9  10
ATOM     10  N   UNL     1     -18.281  68.330  -1.401  1.00  0.00    -0.350 N 
ATOM     11  H   UNL     1     -18.826  68.563  -2.263  1.00  0.00     0.345 HD
ATOM     12  H   UNL     1     -17.301  68.079  -1.670  1.00  0.00     0.345 HD
ATOM     13  H   UNL     1     -18.243  69.172  -0.783  1.00  0.00     0.345 HD
ENDBRANCH   9  10
BRANCH   9  14
ATOM     14  C   UNL     1     -19.668  66.338  -1.639  1.00  0.00     0.099 C 
ATOM     15  O   UNL     1     -20.771  66.721  -2.111  1.00  0.00    -0.544 OA
ATOM     16  O   UNL     1     -19.163  65.095  -2.000  1.00  0.00    -0.544 OA
ENDBRANCH   9  14
ENDBRANCH   8   9
ENDBRANCH   1   8
TORSDOF 7
ENDMDL
MODEL 3
REMARK VINA RESULT:    -4.726      1.859      2.045
REMARK INTER + INTRA:          -6.821
REMARK INTER:                  -6.704
REMARK INTRA:                  -0.117
REMARK UNBOUND:                -0.437
REMARK SMILES [NH3+]CCCC[C@H]([NH3+])C(=O)[O-]
REMARK SMILES IDX 4 1 3 2 2 3 1 4 5 8 6 9 7 10 8 14 9 15 10 16
REMARK H PARENT 1 5 1 6 1 7 7 11 7 12 7 13
REMARK Flexibility Score: inf
ROOT
ATOM      1  C   UNL     1     -19.359  67.455   0.184  1.00  0.00     0.012 C 
ENDROOT
BRANCH   1   2
ATOM      2  C   UNL     1     -18.719  66.916  -1.101  1.00  0.00     0.061 C 
BRANCH   2   3
ATOM      3  C   UNL     1     -19.730  66.105  -1.922  1.00  0.00     0.258 C 
BRANCH   3   4
ATOM      4  N   UNL     1     -19.269  64.730  -2.108  1.00  0.00    -0.358 N 
ATOM      5  H   UNL     1     -18.348  64.592  -1.632  1.00  0.00     0.344 HD
ATOM      6  H   UNL     1     -19.972  64.059  -1.718  1.00  0.00     0.344 HD
ATOM      7  H   UNL     1     -19.154  64.542  -3.130  1.00  0.00     0.344 HD
ENDBRANCH   3   4
ENDBRANCH   2   3
ENDBRANCH   1   2
BRANCH   1   8
ATOM      8  C   UNL     1     -20.774  67.990  -0.088  1.00  0.00     0.072 C 
BRANCH   8   9
ATOM      9  C   UNL     1     -21.333  68.798   1.103  1.00  0.00     0.227 C 
BRANCH   9  10
ATOM     10  N   UNL     1     -22.703  68.371   1.415  1.00  0.00    -0.350 N 
ATOM     11  H   UNL     1     -23.395  68.880   0.816  1.00  0.00     0.345 HD
ATOM     12  H   UNL     1     -22.914  68.562   2.422  1.00  0.00     0.345 HD
ATOM     13  H   UNL     1     -22.801  67.344   1.251  1.00  0.00     0.345 HD
ENDBRANCH   9  10
BRANCH   9  14
ATOM     14  C   UNL     1     -21.302  70.278   0.822  1.00  0.00     0.099 C 
ATOM     15  O   UNL     1     -20.942  70.706  -0.306  1.00  0.00    -0.544 OA
ATOM     16  O   UNL     1     -21.662  71.180   1.814  1.00  0.00    -0.544 OA
ENDBRANCH   9  14
ENDBRANCH   8   9
ENDBRANCH   1   8
TORSDOF 7
ENDMDL
MODEL 4
REMARK VINA RESULT:    -4.704      2.452      3.939
REMARK INTER + INTRA:          -6.791
REMARK INTER:                  -6.594
REMARK INTRA:                  -0.197
REMARK UNBOUND:                -0.437
REMARK SMILES [NH3+]CCCC[C@H]([NH3+])C(=O)[O-]
REMARK SMILES IDX 4 1 3 2 2 3 1 4 5 8 6 9 7 10 8 14 9 15 10 16
REMARK H PARENT 1 5 1 6 1 7 7 11 7 12 7 13
REMARK Flexibility Score: inf
ROOT
ATOM      1  C   UNL     1     -21.748  68.935  -0.401  1.00  0.00     0.012 C 
ENDROOT
BRANCH   1   2
ATOM      2  C   UNL     1     -21.823  69.646   0.956  1.00  0.00     0.061 C 
BRANCH   2   3
ATOM      3  C   UNL     1     -21.210  71.051   0.877  1.00  0.00     0.258 C 
BRANCH   3   4
ATOM      4  N   UNL     1     -21.519  71.825   2.077  1.00  0.00    -0.358 N 
ATOM      5  H   UNL     1     -20.708  71.803   2.738  1.00  0.00     0.344 HD
ATOM      6  H   UNL     1     -21.740  72.815   1.820  1.00  0.00     0.344 HD
ATOM      7  H   UNL     1     -22.352  71.406   2.550  1.00  0.00     0.344 HD
ENDBRANCH   3   4
ENDBRANCH   2   3
ENDBRANCH   1   2
BRANCH   1   8
ATOM      8  C   UNL     1     -20.896  67.659  -0.307  1.00  0.00     0.072 C 
BRANCH   8   9
ATOM      9  C   UNL     1     -19.740  67.651  -1.331  1.00  0.00     0.227 C 
BRANCH   9  10
ATOM     10  N   UNL     1     -19.420  66.276  -1.733  1.00  0.00    -0.350 N 
ATOM     11  H   UNL     1     -18.450  66.020  -1.435  1.00  0.00     0.345 HD
ATOM     12  H   UNL     1     -19.497  66.183  -2.772  1.00  0.00     0.345 HD
ATOM     13  H   UNL     1     -20.098  65.612  -1.295  1.00  0.00     0.345 HD
ENDBRANCH   9  10
BRANCH   9  14
ATOM     14  C   UNL     1     -18.515  68.329  -0.775  1.00  0.00     0.099 C 
ATOM     15  O   UNL     1     -17.645  67.665  -0.151  1.00  0.00    -0.544 OA
ATOM     16  O   UNL     1     -18.344  69.698  -0.941  1.00  0.00    -0.544 OA
ENDBRANCH   9  14
ENDBRANCH   8   9
ENDBRANCH   1   8
TORSDOF 7
ENDMDL
MODEL 5
REMARK VINA RESULT:    -4.676      2.782      4.316
REMARK INTER + INTRA:          -6.754
REMARK INTER:                  -6.615
REMARK INTRA:                  -0.139
REMARK UNBOUND:                -0.437
REMARK SMILES [NH3+]CCCC[C@H]([NH3+])C(=O)[O-]
REMARK SMILES IDX 4 1 3 2 2 3 1 4 5 8 6 9 7 10 8 14 9 15 10 16
REMARK H PARENT 1 5 1 6 1 7 7 11 7 12 7 13
REMARK Flexibility Score: inf
ROOT
ATOM      1  C   UNL     1     -21.728  68.709   0.087  1.00  0.00     0.012 C 
ENDROOT
BRANCH   1   2
ATOM      2  C   UNL     1     -21.702  69.578   1.350  1.00  0.00     0.061 C 
BRANCH   2   3
ATOM      3  C   UNL     1     -21.380  71.039   1.008  1.00  0.00     0.258 C 
BRANCH   3   4
ATOM      4  N   UNL     1     -21.595  71.907   2.165  1.00  0.00    -0.358 N 
ATOM      5  H   UNL     1     -22.620  72.032   2.335  1.00  0.00     0.344 HD
ATOM      6  H   UNL     1     -21.144  71.493   3.014  1.00  0.00     0.344 HD
ATOM      7  H   UNL     1     -21.166  72.841   1.976  1.00  0.00     0.344 HD
ENDBRANCH   3   4
ENDBRANCH   2   3
ENDBRANCH   1   2
BRANCH   1   8
ATOM      8  C   UNL     1     -20.637  69.146  -0.904  1.00  0.00     0.072 C 
BRANCH   8   9
ATOM      9  C   UNL     1     -19.232  68.666  -0.476  1.00  0.00     0.227 C 
BRANCH   9  10
ATOM     10  N   UNL     1     -18.211  69.185  -1.393  1.00  0.00    -0.350 N 
ATOM     11  H   UNL     1     -18.641  69.823  -2.104  1.00  0.00     0.345 HD
ATOM     12  H   UNL     1     -17.738  68.391  -1.885  1.00  0.00     0.345 HD
ATOM     13  H   UNL     1     -17.486  69.713  -0.856  1.00  0.00     0.345 HD
ENDBRANCH   9  10
BRANCH   9  14
ATOM     14  C   UNL     1     -19.164  67.162  -0.420  1.00  0.00     0.099 C 
ATOM     15  O   UNL     1     -18.858  66.575   0.651  1.00  0.00    -0.544 OA
ATOM     16  O   UNL     1     -19.429  66.413  -1.560  1.00  0.00    -0.544 OA
ENDBRANCH   9  14
ENDBRANCH   8   9
ENDBRANCH   1   8
TORSDOF 7
ENDMDL
MODEL 6
REMARK VINA RESULT:    -4.591      2.559      2.781
REMARK INTER + INTRA:          -6.638
REMARK INTER:                  -6.542
REMARK INTRA:                  -0.096
REMARK UNBOUND:                -0.437
REMARK SMILES [NH3+]CCCC[C@H]([NH3+])C(=O)[O-]
REMARK SMILES IDX 4 1 3 2 2 3 1 4 5 8 6 9 7 10 8 14 9 15 10 16
REMARK H PARENT 1 5 1 6 1 7 7 11 7 12 7 13
REMARK Flexibility Score: inf
ROOT
ATOM      1  C   UNL     1     -19.653  67.838   0.331  1.00  0.00     0.012 C 
ENDROOT
BRANCH   1   2
ATOM      2  C   UNL     1     -18.836  66.920  -0.586  1.00  0.00     0.061 C 
BRANCH   2   3
ATOM      3  C   UNL     1     -19.696  66.386  -1.739  1.00  0.00     0.258 C 
BRANCH   3   4
ATOM      4  N   UNL     1     -19.365  64.993  -2.036  1.00  0.00    -0.358 N 
ATOM      5  H   UNL     1     -20.176  64.521  -2.499  1.00  0.00     0.344 HD
ATOM      6  H   UNL     1     -18.526  64.947  -2.660  1.00  0.00     0.344 HD
ATOM      7  H   UNL     1     -19.149  64.494  -1.143  1.00  0.00     0.344 HD
ENDBRANCH   3   4
ENDBRANCH   2   3
ENDBRANCH   1   2
BRANCH   1   8
ATOM      8  C   UNL     1     -20.087  69.113  -0.410  1.00  0.00     0.072 C 
BRANCH   8   9
ATOM      9  C   UNL     1     -21.513  69.560  -0.019  1.00  0.00     0.227 C 
BRANCH   9  10
ATOM     10  N   UNL     1     -21.464  70.509   1.100  1.00  0.00    -0.350 N 
ATOM     11  H   UNL     1     -21.501  71.495   0.751  1.00  0.00     0.345 HD
ATOM     12  H   UNL     1     -20.582  70.369   1.646  1.00  0.00     0.345 HD
ATOM     13  H   UNL     1     -22.273  70.343   1.741  1.00  0.00     0.345 HD
ENDBRANCH   9  10
BRANCH   9  14
ATOM     14  C   UNL     1     -22.375  68.378   0.340  1.00  0.00     0.099 C 
ATOM     15  O   UNL     1     -22.844  67.631  -0.559  1.00  0.00    -0.544 OA
ATOM     16  O   UNL     1     -22.666  68.111   1.672  1.00  0.00    -0.544 OA
ENDBRANCH   9  14
ENDBRANCH   8   9
ENDBRANCH   1   8
TORSDOF 7
ENDMDL
MODEL 7
REMARK VINA RESULT:    -4.511      2.725      4.027
REMARK INTER + INTRA:          -6.530
REMARK INTER:                  -6.092
REMARK INTRA:                  -0.439
REMARK UNBOUND:                -0.437
REMARK SMILES [NH3+]CCCC[C@H]([NH3+])C(=O)[O-]
REMARK SMILES IDX 4 1 3 2 2 3 1 4 5 8 6 9 7 10 8 14 9 15 10 16
REMARK H PARENT 1 5 1 6 1 7 7 11 7 12 7 13
REMARK Flexibility Score: inf
ROOT
ATOM      1  C   UNL     1     -20.147  69.830  -0.506  1.00  0.00     0.012 C 
ENDROOT
BRANCH   1   2
ATOM      2  C   UNL     1     -21.256  70.232   0.473  1.00  0.00     0.061 C 
BRANCH   2   3
ATOM      3  C   UNL     1     -22.021  69.000   0.975  1.00  0.00     0.258 C 
BRANCH   3   4
ATOM      4  N   UNL     1     -21.321  68.369   2.093  1.00  0.00    -0.358 N 
ATOM      5  H   UNL     1     -20.407  68.849   2.262  1.00  0.00     0.344 HD
ATOM      6  H   UNL     1     -21.909  68.413   2.957  1.00  0.00     0.344 HD
ATOM      7  H   UNL     1     -21.138  67.366   1.860  1.00  0.00     0.344 HD
ENDBRANCH   3   4
ENDBRANCH   2   3
ENDBRANCH   1   2
BRANCH   1   8
ATOM      8  C   UNL     1     -20.534  68.564  -1.287  1.00  0.00     0.072 C 
BRANCH   8   9
ATOM      9  C   UNL     1     -19.340  67.601  -1.469  1.00  0.00     0.227 C 
BRANCH   9  10
ATOM     10  N   UNL     1     -19.808  66.283  -1.916  1.00  0.00    -0.350 N 
ATOM     11  H   UNL     1     -20.152  66.327  -2.903  1.00  0.00     0.345 HD
ATOM     12  H   UNL     1     -20.583  65.952  -1.295  1.00  0.00     0.345 HD
ATOM     13  H   UNL     1     -19.026  65.591  -1.857  1.00  0.00     0.345 HD
ENDBRANCH   9  10
BRANCH   9  14
ATOM     14  C   UNL     1     -18.550  67.466  -0.193  1.00  0.00     0.099 C 
ATOM     15  O   UNL     1     -17.382  67.931  -0.112  1.00  0.00    -0.544 OA
ATOM     16  O   UNL     1     -19.106  66.816   0.902  1.00  0.00    -0.544 OA
ENDBRANCH   9  14
ENDBRANCH   8   9
ENDBRANCH   1   8
TORSDOF 7
ENDMDL
MODEL 8
REMARK VINA RESULT:    -4.451      2.270      2.477
REMARK INTER + INTRA:          -6.450
REMARK INTER:                  -6.054
REMARK INTRA:                  -0.396
REMARK UNBOUND:                -0.437
REMARK SMILES [NH3+]CCCC[C@H]([NH3+])C(=O)[O-]
REMARK SMILES IDX 4 1 3 2 2 3 1 4 5 8 6 9 7 10 8 14 9 15 10 16
REMARK H PARENT 1 5 1 6 1 7 7 11 7 12 7 13
REMARK Flexibility Score: inf
ROOT
ATOM      1  C   UNL     1     -20.146  68.890  -1.070  1.00  0.00     0.012 C 
ENDROOT
BRANCH   1   2
ATOM      2  C   UNL     1     -18.673  68.603  -1.383  1.00  0.00     0.061 C 
BRANCH   2   3
ATOM      3  C   UNL     1     -18.029  67.758  -0.276  1.00  0.00     0.258 C 
BRANCH   3   4
ATOM      4  N   UNL     1     -18.969  66.761   0.235  1.00  0.00    -0.358 N 
ATOM      5  H   UNL     1     -19.885  67.214   0.460  1.00  0.00     0.344 HD
ATOM      6  H   UNL     1     -19.113  66.005  -0.474  1.00  0.00     0.344 HD
ATOM      7  H   UNL     1     -18.578  66.338   1.107  1.00  0.00     0.344 HD
ENDBRANCH   3   4
ENDBRANCH   2   3
ENDBRANCH   1   2
BRANCH   1   8
ATOM      8  C   UNL     1     -20.291  70.162  -0.219  1.00  0.00     0.072 C 
BRANCH   8   9
ATOM      9  C   UNL     1     -21.549  70.126   0.676  1.00  0.00     0.227 C 
BRANCH   9  10
ATOM     10  N   UNL     1     -21.455  71.138   1.735  1.00  0.00    -0.350 N 
ATOM     11  H   UNL     1     -22.198  70.989   2.457  1.00  0.00     0.345 HD
ATOM     12  H   UNL     1     -21.563  72.094   1.322  1.00  0.00     0.345 HD
ATOM     13  H   UNL     1     -20.517  71.086   2.193  1.00  0.00     0.345 HD
ENDBRANCH   9  10
BRANCH   9  14
ATOM     14  C   UNL     1     -21.750  68.760   1.280  1.00  0.00     0.099 C 
ATOM     15  O   UNL     1     -20.935  68.310   2.128  1.00  0.00    -0.544 OA
ATOM     16  O   UNL     1     -22.836  67.984   0.895  1.00  0.00    -0.544 OA
ENDBRANCH   9  14
ENDBRANCH   8   9
ENDBRANCH   1   8
TORSDOF 7
ENDMDL
MODEL 9
REMARK VINA RESULT:    -4.028      2.120      2.271
REMARK INTER + INTRA:          -5.878
REMARK INTER:                  -5.815
REMARK INTRA:                  -0.063
REMARK UNBOUND:                -0.437
REMARK SMILES [NH3+]CCCC[C@H]([NH3+])C(=O)[O-]
REMARK SMILES IDX 4 1 3 2 2 3 1 4 5 8 6 9 7 10 8 14 9 15 10 16
REMARK H PARENT 1 5 1 6 1 7 7 11 7 12 7 13
REMARK Flexibility Score: inf
ROOT
ATOM      1  C   UNL     1     -19.455  67.178  -0.085  1.00  0.00     0.012 C 
ENDROOT
BRANCH   1   2
ATOM      2  C   UNL     1     -18.167  67.774  -0.664  1.00  0.00     0.061 C 
BRANCH   2   3
ATOM      3  C   UNL     1     -18.470  69.004  -1.531  1.00  0.00     0.258 C 
BRANCH   3   4
ATOM      4  N   UNL     1     -17.573  70.110  -1.202  1.00  0.00    -0.358 N 
ATOM      5  H   UNL     1     -17.211  70.001  -0.226  1.00  0.00     0.344 HD
ATOM      6  H   UNL     1     -16.771  70.136  -1.875  1.00  0.00     0.344 HD
ATOM      7  H   UNL     1     -18.100  71.010  -1.270  1.00  0.00     0.344 HD
ENDBRANCH   3   4
ENDBRANCH   2   3
ENDBRANCH   1   2
BRANCH   1   8
ATOM      8  C   UNL     1     -20.092  68.132   0.939  1.00  0.00     0.072 C 
BRANCH   8   9
ATOM      9  C   UNL     1     -21.332  68.857   0.370  1.00  0.00     0.227 C 
BRANCH   9  10
ATOM     10  N   UNL     1     -21.563  70.116   1.087  1.00  0.00    -0.350 N 
ATOM     11  H   UNL     1     -22.551  70.172   1.428  1.00  0.00     0.345 HD
ATOM     12  H   UNL     1     -21.371  70.927   0.453  1.00  0.00     0.345 HD
ATOM     13  H   UNL     1     -20.916  70.183   1.905  1.00  0.00     0.345 HD
ENDBRANCH   9  10
BRANCH   9  14
ATOM     14  C   UNL     1     -22.557  67.983   0.445  1.00  0.00     0.099 C 
ATOM     15  O   UNL     1     -23.075  67.516  -0.603  1.00  0.00    -0.544 OA
ATOM     16  O   UNL     1     -23.129  67.696   1.679  1.00  0.00    -0.544 OA
ENDBRANCH   9  14
ENDBRANCH   8   9
ENDBRANCH   1   8
TORSDOF 7
ENDMDL
