MODEL 1
REMARK VINA RESULT:    -5.656      0.000      0.000
REMARK INTER + INTRA:          -5.656
REMARK INTER:                  -5.656
REMARK INTRA:                   0.000
REMARK UNBOUND:                 0.000
REMARK SMILES C=C1CCC[C@]2(C)CC(=O)C(=C(C)C)C[C@H]12
REMARK SMILES IDX 13 1 12 2 11 3 15 4 16 5 2 6 1 7 3 8 4 9 5 10 6 11 8 12 9 13
REMARK SMILES IDX 10 14 7 15 14 16
REMARK H PARENT
REMARK Flexibility Score: inf
ROOT
ATOM      1  C   UNL     1      14.740 -14.069 -44.097  1.00  0.00     0.039 C 
ATOM      2  C   UNL     1      14.045 -12.729 -44.043  1.00  0.00    -0.070 C 
ATOM      3  C   UNL     1      12.694 -12.633 -43.871  1.00  0.00    -0.006 C 
ATOM      4  C   UNL     1      11.940 -11.318 -43.904  1.00  0.00     0.047 C 
ATOM      5  C   UNL     1      10.824 -11.291 -44.996  1.00  0.00     0.025 C 
ATOM      6  C   UNL     1       9.817 -10.142 -44.778  1.00  0.00    -0.073 C 
ATOM      7  C   UNL     1      10.139  -9.016 -44.108  1.00  0.00     0.008 C 
ATOM      8  C   UNL     1       8.466 -10.146 -45.464  1.00  0.00     0.031 C 
ATOM      9  C   UNL     1       8.231 -11.398 -46.295  1.00  0.00     0.005 C 
ATOM     10  C   UNL     1       8.610 -12.629 -45.482  1.00  0.00     0.008 C 
ATOM     11  C   UNL     1      10.145 -12.719 -45.234  1.00  0.00    -0.018 C 
ATOM     12  C   UNL     1      10.357 -13.660 -44.011  1.00  0.00     0.088 C 
ATOM     13  C   UNL     1      11.809 -13.805 -43.673  1.00  0.00     0.159 C 
ATOM     14  O   UNL     1      12.223 -14.879 -43.159  1.00  0.00    -0.295 OA
ATOM     15  C   UNL     1      10.790 -13.389 -46.482  1.00  0.00     0.012 C 
ATOM     16  C   UNL     1      14.901 -11.498 -44.234  1.00  0.00     0.039 C 
ENDROOT
TORSDOF 0
ENDMDL
MODEL 2
REMARK VINA RESULT:    -5.162     10.333     11.931
REMARK INTER + INTRA:          -5.162
REMARK INTER:                  -5.162
REMARK INTRA:                   0.000
REMARK UNBOUND:                 0.000
REMARK SMILES C=C1CCC[C@]2(C)CC(=O)C(=C(C)C)C[C@H]12
REMARK SMILES IDX 13 1 12 2 11 3 15 4 16 5 2 6 1 7 3 8 4 9 5 10 6 11 8 12 9 13
REMARK SMILES IDX 10 14 7 15 14 16
REMARK H PARENT
REMARK Flexibility Score: inf
ROOT
ATOM      1  C   UNL     1      10.870 -24.331 -36.748  1.00  0.00     0.039 C 
ATOM      2  C   UNL     1      10.864 -22.973 -37.412  1.00  0.00    -0.070 C 
ATOM      3  C   UNL     1      10.282 -21.891 -36.817  1.00  0.00    -0.006 C 
ATOM      4  C   UNL     1      10.168 -20.534 -37.482  1.00  0.00     0.047 C 
ATOM      5  C   UNL     1       8.690 -20.043 -37.599  1.00  0.00     0.025 C 
ATOM      6  C   UNL     1       8.595 -18.533 -37.903  1.00  0.00    -0.073 C 
ATOM      7  C   UNL     1       9.587 -17.856 -38.520  1.00  0.00     0.008 C 
ATOM      8  C   UNL     1       7.305 -17.771 -37.683  1.00  0.00     0.031 C 
ATOM      9  C   UNL     1       6.201 -18.637 -37.095  1.00  0.00     0.005 C 
ATOM     10  C   UNL     1       6.752 -19.439 -35.923  1.00  0.00     0.008 C 
ATOM     11  C   UNL     1       7.772 -20.523 -36.381  1.00  0.00    -0.018 C 
ATOM     12  C   UNL     1       8.629 -20.900 -35.136  1.00  0.00     0.088 C 
ATOM     13  C   UNL     1       9.662 -21.933 -35.472  1.00  0.00     0.159 C 
ATOM     14  O   UNL     1      10.032 -22.750 -34.587  1.00  0.00    -0.295 OA
ATOM     15  C   UNL     1       6.965 -21.781 -36.816  1.00  0.00     0.012 C 
ATOM     16  C   UNL     1      11.488 -22.873 -38.784  1.00  0.00     0.039 C 
ENDROOT
TORSDOF 0
ENDMDL
MODEL 3
REMARK VINA RESULT:    -5.106     10.334     12.229
REMARK INTER + INTRA:          -5.106
REMARK INTER:                  -5.106
REMARK INTRA:                   0.000
REMARK UNBOUND:                 0.000
REMARK SMILES C=C1CCC[C@]2(C)CC(=O)C(=C(C)C)C[C@H]12
REMARK SMILES IDX 13 1 12 2 11 3 15 4 16 5 2 6 1 7 3 8 4 9 5 10 6 11 8 12 9 13
REMARK SMILES IDX 10 14 7 15 14 16
REMARK H PARENT
REMARK Flexibility Score: inf
ROOT
ATOM      1  C   UNL     1       4.278 -14.967 -33.288  1.00  0.00     0.039 C 
ATOM      2  C   UNL     1       4.962 -16.271 -33.629  1.00  0.00    -0.070 C 
ATOM      3  C   UNL     1       5.488 -16.498 -34.868  1.00  0.00    -0.006 C 
ATOM      4  C   UNL     1       6.100 -17.820 -35.285  1.00  0.00     0.047 C 
ATOM      5  C   UNL     1       5.400 -18.439 -36.536  1.00  0.00     0.025 C 
ATOM      6  C   UNL     1       6.244 -19.553 -37.191  1.00  0.00    -0.073 C 
ATOM      7  C   UNL     1       7.157 -20.267 -36.501  1.00  0.00     0.008 C 
ATOM      8  C   UNL     1       5.960 -20.021 -38.603  1.00  0.00     0.031 C 
ATOM      9  C   UNL     1       4.835 -19.241 -39.268  1.00  0.00     0.005 C 
ATOM     10  C   UNL     1       5.053 -17.749 -39.053  1.00  0.00     0.008 C 
ATOM     11  C   UNL     1       4.863 -17.337 -37.563  1.00  0.00    -0.018 C 
ATOM     12  C   UNL     1       5.593 -15.975 -37.368  1.00  0.00     0.088 C 
ATOM     13  C   UNL     1       5.486 -15.490 -35.954  1.00  0.00     0.159 C 
ATOM     14  O   UNL     1       5.478 -14.252 -35.721  1.00  0.00    -0.295 OA
ATOM     15  C   UNL     1       3.341 -17.114 -37.322  1.00  0.00     0.012 C 
ATOM     16  C   UNL     1       4.998 -17.333 -32.554  1.00  0.00     0.039 C 
ENDROOT
TORSDOF 0
ENDMDL
MODEL 4
REMARK VINA RESULT:    -5.070      1.361      2.411
REMARK INTER + INTRA:          -5.070
REMARK INTER:                  -5.070
REMARK INTRA:                   0.000
REMARK UNBOUND:                 0.000
REMARK SMILES C=C1CCC[C@]2(C)CC(=O)C(=C(C)C)C[C@H]12
REMARK SMILES IDX 13 1 12 2 11 3 15 4 16 5 2 6 1 7 3 8 4 9 5 10 6 11 8 12 9 13
REMARK SMILES IDX 10 14 7 15 14 16
REMARK H PARENT
REMARK Flexibility Score: inf
ROOT
ATOM      1  C   UNL     1      13.900 -11.537 -43.634  1.00  0.00     0.039 C 
ATOM      2  C   UNL     1      12.523 -11.078 -44.055  1.00  0.00    -0.070 C 
ATOM      3  C   UNL     1      11.504 -11.965 -44.249  1.00  0.00    -0.006 C 
ATOM      4  C   UNL     1      10.135 -11.563 -44.760  1.00  0.00     0.047 C 
ATOM      5  C   UNL     1       9.739 -12.312 -46.072  1.00  0.00     0.025 C 
ATOM      6  C   UNL     1       8.228 -12.210 -46.373  1.00  0.00    -0.073 C 
ATOM      7  C   UNL     1       7.466 -11.196 -45.913  1.00  0.00     0.008 C 
ATOM      8  C   UNL     1       7.562 -13.154 -47.353  1.00  0.00     0.031 C 
ATOM      9  C   UNL     1       8.520 -14.193 -47.916  1.00  0.00     0.005 C 
ATOM     10  C   UNL     1       9.324 -14.813 -46.780  1.00  0.00     0.008 C 
ATOM     11  C   UNL     1      10.321 -13.799 -46.146  1.00  0.00    -0.018 C 
ATOM     12  C   UNL     1      10.684 -14.338 -44.730  1.00  0.00     0.088 C 
ATOM     13  C   UNL     1      11.634 -13.423 -44.019  1.00  0.00     0.159 C 
ATOM     14  O   UNL     1      12.455 -13.902 -43.192  1.00  0.00    -0.295 OA
ATOM     15  C   UNL     1      11.614 -13.798 -47.013  1.00  0.00     0.012 C 
ATOM     16  C   UNL     1      12.334  -9.598 -44.298  1.00  0.00     0.039 C 
ENDROOT
TORSDOF 0
ENDMDL
MODEL 5
REMARK VINA RESULT:    -4.929     10.327     12.250
REMARK INTER + INTRA:          -4.929
REMARK INTER:                  -4.929
REMARK INTRA:                   0.000
REMARK UNBOUND:                 0.000
REMARK SMILES C=C1CCC[C@]2(C)CC(=O)C(=C(C)C)C[C@H]12
REMARK SMILES IDX 13 1 12 2 11 3 15 4 16 5 2 6 1 7 3 8 4 9 5 10 6 11 8 12 9 13
REMARK SMILES IDX 10 14 7 15 14 16
REMARK H PARENT
REMARK Flexibility Score: inf
ROOT
ATOM      1  C   UNL     1      14.647 -20.975 -39.292  1.00  0.00     0.039 C 
ATOM      2  C   UNL     1      13.795 -21.977 -38.548  1.00  0.00    -0.070 C 
ATOM      3  C   UNL     1      12.437 -21.855 -38.491  1.00  0.00    -0.006 C 
ATOM      4  C   UNL     1      11.550 -22.780 -37.682  1.00  0.00     0.047 C 
ATOM      5  C   UNL     1      10.689 -22.016 -36.627  1.00  0.00     0.025 C 
ATOM      6  C   UNL     1       9.524 -22.874 -36.087  1.00  0.00    -0.073 C 
ATOM      7  C   UNL     1       9.560 -24.223 -36.087  1.00  0.00     0.008 C 
ATOM      8  C   UNL     1       8.355 -22.238 -35.364  1.00  0.00     0.031 C 
ATOM      9  C   UNL     1       8.453 -20.721 -35.305  1.00  0.00     0.005 C 
ATOM     10  C   UNL     1       8.805 -20.179 -36.684  1.00  0.00     0.008 C 
ATOM     11  C   UNL     1      10.255 -20.556 -37.110  1.00  0.00    -0.018 C 
ATOM     12  C   UNL     1      10.324 -20.426 -38.661  1.00  0.00     0.088 C 
ATOM     13  C   UNL     1      11.682 -20.784 -39.183  1.00  0.00     0.159 C 
ATOM     14  O   UNL     1      12.110 -20.231 -40.231  1.00  0.00    -0.295 OA
ATOM     15  C   UNL     1      11.221 -19.505 -36.489  1.00  0.00     0.012 C 
ATOM     16  C   UNL     1      14.515 -23.094 -37.828  1.00  0.00     0.039 C 
ENDROOT
TORSDOF 0
ENDMDL
MODEL 6
REMARK VINA RESULT:    -4.870      1.945      4.710
REMARK INTER + INTRA:          -4.870
REMARK INTER:                  -4.870
REMARK INTRA:                   0.000
REMARK UNBOUND:                 0.000
REMARK SMILES C=C1CCC[C@]2(C)CC(=O)C(=C(C)C)C[C@H]12
REMARK SMILES IDX 13 1 12 2 11 3 15 4 16 5 2 6 1 7 3 8 4 9 5 10 6 11 8 12 9 13
REMARK SMILES IDX 10 14 7 15 14 16
REMARK H PARENT
REMARK Flexibility Score: inf
ROOT
ATOM      1  C   UNL     1       7.223 -15.086 -47.019  1.00  0.00     0.039 C 
ATOM      2  C   UNL     1       7.446 -13.712 -46.432  1.00  0.00    -0.070 C 
ATOM      3  C   UNL     1       8.673 -13.114 -46.463  1.00  0.00    -0.006 C 
ATOM      4  C   UNL     1       8.967 -11.779 -45.806  1.00  0.00     0.047 C 
ATOM      5  C   UNL     1      10.115 -11.869 -44.751  1.00  0.00     0.025 C 
ATOM      6  C   UNL     1      10.677 -10.481 -44.376  1.00  0.00    -0.073 C 
ATOM      7  C   UNL     1       9.950  -9.350 -44.495  1.00  0.00     0.008 C 
ATOM      8  C   UNL     1      12.018 -10.341 -43.685  1.00  0.00     0.031 C 
ATOM      9  C   UNL     1      12.719 -11.676 -43.483  1.00  0.00     0.005 C 
ATOM     10  C   UNL     1      12.676 -12.476 -44.779  1.00  0.00     0.008 C 
ATOM     11  C   UNL     1      11.234 -12.945 -45.131  1.00  0.00    -0.018 C 
ATOM     12  C   UNL     1      11.218 -13.269 -46.655  1.00  0.00     0.088 C 
ATOM     13  C   UNL     1       9.862 -13.719 -47.108  1.00  0.00     0.159 C 
ATOM     14  O   UNL     1       9.765 -14.529 -48.068  1.00  0.00    -0.295 OA
ATOM     15  C   UNL     1      10.959 -14.264 -44.350  1.00  0.00     0.012 C 
ATOM     16  C   UNL     1       6.265 -13.046 -45.766  1.00  0.00     0.039 C 
ENDROOT
TORSDOF 0
ENDMDL
MODEL 7
REMARK VINA RESULT:    -4.863      1.480      2.002
REMARK INTER + INTRA:          -4.863
REMARK INTER:                  -4.863
REMARK INTRA:                   0.000
REMARK UNBOUND:                 0.000
REMARK SMILES C=C1CCC[C@]2(C)CC(=O)C(=C(C)C)C[C@H]12
REMARK SMILES IDX 13 1 12 2 11 3 15 4 16 5 2 6 1 7 3 8 4 9 5 10 6 11 8 12 9 13
REMARK SMILES IDX 10 14 7 15 14 16
REMARK H PARENT
REMARK Flexibility Score: inf
ROOT
ATOM      1  C   UNL     1      12.562 -16.322 -43.457  1.00  0.00     0.039 C 
ATOM      2  C   UNL     1      12.398 -14.833 -43.661  1.00  0.00    -0.070 C 
ATOM      3  C   UNL     1      11.167 -14.244 -43.650  1.00  0.00    -0.006 C 
ATOM      4  C   UNL     1      10.944 -12.773 -43.942  1.00  0.00     0.047 C 
ATOM      5  C   UNL     1       9.972 -12.539 -45.141  1.00  0.00     0.025 C 
ATOM      6  C   UNL     1       9.440 -11.091 -45.192  1.00  0.00    -0.073 C 
ATOM      7  C   UNL     1      10.114 -10.054 -44.650  1.00  0.00     0.008 C 
ATOM      8  C   UNL     1       8.217 -10.735 -46.011  1.00  0.00     0.031 C 
ATOM      9  C   UNL     1       7.586 -11.945 -46.685  1.00  0.00     0.005 C 
ATOM     10  C   UNL     1       7.451 -13.078 -45.676  1.00  0.00     0.008 C 
ATOM     11  C   UNL     1       8.834 -13.657 -45.254  1.00  0.00    -0.018 C 
ATOM     12  C   UNL     1       8.627 -14.396 -43.899  1.00  0.00     0.088 C 
ATOM     13  C   UNL     1       9.909 -14.982 -43.390  1.00  0.00     0.159 C 
ATOM     14  O   UNL     1       9.878 -16.032 -42.693  1.00  0.00    -0.295 OA
ATOM     15  C   UNL     1       9.256 -14.707 -46.323  1.00  0.00     0.012 C 
ATOM     16  C   UNL     1      13.651 -14.031 -43.925  1.00  0.00     0.039 C 
ENDROOT
TORSDOF 0
ENDMDL
MODEL 8
REMARK VINA RESULT:    -4.842     10.249     12.366
REMARK INTER + INTRA:          -4.842
REMARK INTER:                  -4.842
REMARK INTRA:                   0.000
REMARK UNBOUND:                 0.000
REMARK SMILES C=C1CCC[C@]2(C)CC(=O)C(=C(C)C)C[C@H]12
REMARK SMILES IDX 13 1 12 2 11 3 15 4 16 5 2 6 1 7 3 8 4 9 5 10 6 11 8 12 9 13
REMARK SMILES IDX 10 14 7 15 14 16
REMARK H PARENT
REMARK Flexibility Score: inf
ROOT
ATOM      1  C   UNL     1       4.302 -15.591 -35.534  1.00  0.00     0.039 C 
ATOM      2  C   UNL     1       5.178 -16.749 -35.115  1.00  0.00    -0.070 C 
ATOM      3  C   UNL     1       5.936 -17.434 -36.019  1.00  0.00    -0.006 C 
ATOM      4  C   UNL     1       6.756 -18.658 -35.663  1.00  0.00     0.047 C 
ATOM      5  C   UNL     1       6.361 -19.913 -36.505  1.00  0.00     0.025 C 
ATOM      6  C   UNL     1       7.427 -21.026 -36.434  1.00  0.00    -0.073 C 
ATOM      7  C   UNL     1       8.279 -21.146 -35.395  1.00  0.00     0.008 C 
ATOM      8  C   UNL     1       7.450 -22.151 -37.448  1.00  0.00     0.031 C 
ATOM      9  C   UNL     1       6.380 -22.002 -38.519  1.00  0.00     0.005 C 
ATOM     10  C   UNL     1       6.387 -20.575 -39.052  1.00  0.00     0.008 C 
ATOM     11  C   UNL     1       5.893 -19.549 -37.990  1.00  0.00    -0.018 C 
ATOM     12  C   UNL     1       6.419 -18.150 -38.426  1.00  0.00     0.088 C 
ATOM     13  C   UNL     1       6.011 -17.082 -37.457  1.00  0.00     0.159 C 
ATOM     14  O   UNL     1       5.823 -15.907 -37.871  1.00  0.00    -0.295 OA
ATOM     15  C   UNL     1       4.337 -19.523 -38.042  1.00  0.00     0.012 C 
ATOM     16  C   UNL     1       5.143 -17.147 -33.657  1.00  0.00     0.039 C 
ENDROOT
TORSDOF 0
ENDMDL
MODEL 9
REMARK VINA RESULT:    -4.833     10.376     12.635
REMARK INTER + INTRA:          -4.833
REMARK INTER:                  -4.833
REMARK INTRA:                   0.000
REMARK UNBOUND:                 0.000
REMARK SMILES C=C1CCC[C@]2(C)CC(=O)C(=C(C)C)C[C@H]12
REMARK SMILES IDX 13 1 12 2 11 3 15 4 16 5 2 6 1 7 3 8 4 9 5 10 6 11 8 12 9 13
REMARK SMILES IDX 10 14 7 15 14 16
REMARK H PARENT
REMARK Flexibility Score: inf
ROOT
ATOM      1  C   UNL     1       8.779 -17.357 -39.039  1.00  0.00     0.039 C 
ATOM      2  C   UNL     1       8.753 -18.845 -39.302  1.00  0.00    -0.070 C 
ATOM      3  C   UNL     1       8.233 -19.720 -38.392  1.00  0.00    -0.006 C 
ATOM      4  C   UNL     1       8.269 -21.225 -38.569  1.00  0.00     0.047 C 
ATOM      5  C   UNL     1       9.000 -21.952 -37.396  1.00  0.00     0.025 C 
ATOM      6  C   UNL     1       8.702 -23.466 -37.366  1.00  0.00    -0.073 C 
ATOM      7  C   UNL     1       8.338 -24.153 -38.469  1.00  0.00     0.008 C 
ATOM      8  C   UNL     1       8.979 -24.292 -36.127  1.00  0.00     0.031 C 
ATOM      9  C   UNL     1       9.499 -23.458 -34.966  1.00  0.00     0.005 C 
ATOM     10  C   UNL     1       8.634 -22.215 -34.803  1.00  0.00     0.008 C 
ATOM     11  C   UNL     1       8.808 -21.220 -35.988  1.00  0.00    -0.018 C 
ATOM     12  C   UNL     1       7.555 -20.294 -35.995  1.00  0.00     0.088 C 
ATOM     13  C   UNL     1       7.612 -19.300 -37.115  1.00  0.00     0.159 C 
ATOM     14  O   UNL     1       7.065 -18.173 -36.973  1.00  0.00    -0.295 OA
ATOM     15  C   UNL     1      10.060 -20.343 -35.693  1.00  0.00     0.012 C 
ATOM     16  C   UNL     1       9.369 -19.328 -40.594  1.00  0.00     0.039 C 
ENDROOT
TORSDOF 0
ENDMDL
