MODEL 1
REMARK VINA RESULT:    -4.995      0.000      0.000
REMARK INTER + INTRA:         -13.725
REMARK INTER:                 -11.420
REMARK INTRA:                  -2.305
REMARK UNBOUND:                -2.305
REMARK SMILES CCCCCCCCCCCCCCCCCCCCCCCC(=O)[O-]
REMARK SMILES IDX 13 1 14 2 15 3 16 4 17 5 18 6 19 7 20 8 21 9 22 10 23 11
REMARK SMILES IDX 24 12 25 13 26 14 12 15 11 16 10 17 9 18 8 19 7 20 6 21 5 22
REMARK SMILES IDX 4 23 3 24 2 25 1 26
REMARK H PARENT
REMARK Flexibility Score: inf
ROOT
ATOM      1  C   UNL     1     -26.093 -15.074  17.461  1.00  0.00     0.000 C 
ENDROOT
BRANCH   1   2
ATOM      2  C   UNL     1     -26.247 -13.654  18.044  1.00  0.00     0.000 C 
BRANCH   2   3
ATOM      3  C   UNL     1     -25.047 -12.751  17.714  1.00  0.00     0.000 C 
BRANCH   3   4
ATOM      4  C   UNL     1     -25.507 -11.373  17.218  1.00  0.00     0.000 C 
BRANCH   4   5
ATOM      5  C   UNL     1     -26.926 -11.395  16.622  1.00  0.00     0.000 C 
BRANCH   5   6
ATOM      6  C   UNL     1     -27.950 -10.497  17.343  1.00  0.00     0.000 C 
BRANCH   6   7
ATOM      7  C   UNL     1     -29.338 -11.128  17.551  1.00  0.00     0.000 C 
BRANCH   7   8
ATOM      8  C   UNL     1     -29.588 -12.333  16.626  1.00  0.00     0.000 C 
BRANCH   8   9
ATOM      9  C   UNL     1     -29.954 -13.609  17.400  1.00  0.00     0.000 C 
BRANCH   9  10
ATOM     10  C   UNL     1     -31.440 -13.661  17.786  1.00  0.00     0.006 C 
BRANCH  10  11
ATOM     11  C   UNL     1     -31.941 -15.107  17.854  1.00  0.00     0.053 C 
BRANCH  11  12
ATOM     12  C   UNL     1     -32.766 -15.432  16.648  1.00  0.00     0.041 C 
ATOM     13  O   UNL     1     -33.394 -16.522  16.585  1.00  0.00    -0.550 OA
ATOM     14  O   UNL     1     -32.799 -14.555  15.571  1.00  0.00    -0.550 OA
ENDBRANCH  11  12
ENDBRANCH  10  11
ENDBRANCH   9  10
ENDBRANCH   8   9
ENDBRANCH   7   8
ENDBRANCH   6   7
ENDBRANCH   5   6
ENDBRANCH   4   5
ENDBRANCH   3   4
ENDBRANCH   2   3
ENDBRANCH   1   2
BRANCH   1  15
ATOM     15  C   UNL     1     -27.255 -16.025  17.804  1.00  0.00     0.000 C 
BRANCH  15  16
ATOM     16  C   UNL     1     -27.592 -16.994  16.659  1.00  0.00     0.000 C 
BRANCH  16  17
ATOM     17  C   UNL     1     -29.096 -17.287  16.549  1.00  0.00     0.000 C 
BRANCH  17  18
ATOM     18  C   UNL     1     -29.707 -16.772  15.232  1.00  0.00    -0.000 C 
BRANCH  18  19
ATOM     19  C   UNL     1     -29.849 -17.878  14.171  1.00  0.00    -0.000 C 
BRANCH  19  20
ATOM     20  C   UNL     1     -29.822 -17.378  12.712  1.00  0.00    -0.000 C 
BRANCH  20  21
ATOM     21  C   UNL     1     -28.417 -17.202  12.113  1.00  0.00    -0.000 C 
BRANCH  21  22
ATOM     22  C   UNL     1     -27.737 -18.541  11.781  1.00  0.00    -0.000 C 
BRANCH  22  23
ATOM     23  C   UNL     1     -27.470 -18.700  10.273  1.00  0.00    -0.000 C 
BRANCH  23  24
ATOM     24  C   UNL     1     -26.624 -19.950   9.939  1.00  0.00    -0.000 C 
BRANCH  24  25
ATOM     25  C   UNL     1     -27.385 -21.275  10.129  1.00  0.00    -0.003 C 
ATOM     26  C   UNL     1     -27.776 -21.933   8.808  1.00  0.00     0.004 C 
ENDBRANCH  24  25
ENDBRANCH  23  24
ENDBRANCH  22  23
ENDBRANCH  21  22
ENDBRANCH  20  21
ENDBRANCH  19  20
ENDBRANCH  18  19
ENDBRANCH  17  18
ENDBRANCH  16  17
ENDBRANCH  15  16
ENDBRANCH   1  15
TORSDOF 22
ENDMDL
MODEL 2
REMARK VINA RESULT:    -4.922      3.265      8.497
REMARK INTER + INTRA:         -13.556
REMARK INTER:                 -10.995
REMARK INTRA:                  -2.561
REMARK UNBOUND:                -2.305
REMARK SMILES CCCCCCCCCCCCCCCCCCCCCCCC(=O)[O-]
REMARK SMILES IDX 13 1 14 2 15 3 16 4 17 5 18 6 19 7 20 8 21 9 22 10 23 11
REMARK SMILES IDX 24 12 25 13 26 14 12 15 11 16 10 17 9 18 8 19 7 20 6 21 5 22
REMARK SMILES IDX 4 23 3 24 2 25 1 26
REMARK H PARENT
REMARK Flexibility Score: inf
ROOT
ATOM      1  C   UNL     1     -28.072 -16.291  16.976  1.00  0.00     0.000 C 
ENDROOT
BRANCH   1   2
ATOM      2  C   UNL     1     -29.110 -17.387  17.293  1.00  0.00     0.000 C 
BRANCH   2   3
ATOM      3  C   UNL     1     -30.207 -17.485  16.220  1.00  0.00     0.000 C 
BRANCH   3   4
ATOM      4  C   UNL     1     -29.924 -16.535  15.047  1.00  0.00     0.000 C 
BRANCH   4   5
ATOM      5  C   UNL     1     -30.450 -17.072  13.703  1.00  0.00     0.000 C 
BRANCH   5   6
ATOM      6  C   UNL     1     -29.360 -17.443  12.679  1.00  0.00     0.000 C 
BRANCH   6   7
ATOM      7  C   UNL     1     -28.171 -18.236  13.252  1.00  0.00     0.000 C 
BRANCH   7   8
ATOM      8  C   UNL     1     -27.144 -18.628  12.175  1.00  0.00     0.000 C 
BRANCH   8   9
ATOM      9  C   UNL     1     -27.681 -18.439  10.747  1.00  0.00     0.000 C 
BRANCH   9  10
ATOM     10  C   UNL     1     -27.090 -19.452   9.754  1.00  0.00     0.006 C 
BRANCH  10  11
ATOM     11  C   UNL     1     -27.396 -20.889  10.186  1.00  0.00     0.053 C 
BRANCH  11  12
ATOM     12  C   UNL     1     -27.590 -21.766   8.989  1.00  0.00     0.041 C 
ATOM     13  O   UNL     1     -28.722 -22.258   8.741  1.00  0.00    -0.550 OA
ATOM     14  O   UNL     1     -26.508 -22.083   8.177  1.00  0.00    -0.550 OA
ENDBRANCH  11  12
ENDBRANCH  10  11
ENDBRANCH   9  10
ENDBRANCH   8   9
ENDBRANCH   7   8
ENDBRANCH   6   7
ENDBRANCH   5   6
ENDBRANCH   4   5
ENDBRANCH   3   4
ENDBRANCH   2   3
ENDBRANCH   1   2
BRANCH   1  15
ATOM     15  C   UNL     1     -26.839 -16.305  17.898  1.00  0.00     0.000 C 
BRANCH  15  16
ATOM     16  C   UNL     1     -25.865 -15.151  17.611  1.00  0.00     0.000 C 
BRANCH  16  17
ATOM     17  C   UNL     1     -26.416 -13.784  18.044  1.00  0.00     0.000 C 
BRANCH  17  18
ATOM     18  C   UNL     1     -25.791 -12.615  17.259  1.00  0.00    -0.000 C 
BRANCH  18  19
ATOM     19  C   UNL     1     -26.846 -11.647  16.694  1.00  0.00    -0.000 C 
BRANCH  19  20
ATOM     20  C   UNL     1     -27.805 -11.054  17.746  1.00  0.00    -0.000 C 
BRANCH  20  21
ATOM     21  C   UNL     1     -29.300 -11.265  17.452  1.00  0.00    -0.000 C 
BRANCH  21  22
ATOM     22  C   UNL     1     -29.566 -12.488  16.556  1.00  0.00    -0.000 C 
BRANCH  22  23
ATOM     23  C   UNL     1     -30.083 -13.696  17.359  1.00  0.00    -0.000 C 
BRANCH  23  24
ATOM     24  C   UNL     1     -31.505 -13.478  17.927  1.00  0.00    -0.000 C 
BRANCH  24  25
ATOM     25  C   UNL     1     -32.481 -14.620  17.592  1.00  0.00    -0.003 C 
ATOM     26  C   UNL     1     -33.010 -14.553  16.161  1.00  0.00     0.004 C 
ENDBRANCH  24  25
ENDBRANCH  23  24
ENDBRANCH  22  23
ENDBRANCH  21  22
ENDBRANCH  20  21
ENDBRANCH  19  20
ENDBRANCH  18  19
ENDBRANCH  17  18
ENDBRANCH  16  17
ENDBRANCH  15  16
ENDBRANCH   1  15
TORSDOF 22
ENDMDL
MODEL 3
REMARK VINA RESULT:    -4.892      2.712      7.312
REMARK INTER + INTRA:         -13.489
REMARK INTER:                  -9.989
REMARK INTRA:                  -3.500
REMARK UNBOUND:                -2.305
REMARK SMILES CCCCCCCCCCCCCCCCCCCCCCCC(=O)[O-]
REMARK SMILES IDX 13 1 14 2 15 3 16 4 17 5 18 6 19 7 20 8 21 9 22 10 23 11
REMARK SMILES IDX 24 12 25 13 26 14 12 15 11 16 10 17 9 18 8 19 7 20 6 21 5 22
REMARK SMILES IDX 4 23 3 24 2 25 1 26
REMARK H PARENT
REMARK Flexibility Score: inf
ROOT
ATOM      1  C   UNL     1     -26.367 -15.881  18.084  1.00  0.00     0.000 C 
ENDROOT
BRANCH   1   2
ATOM      2  C   UNL     1     -26.977 -16.944  17.147  1.00  0.00     0.000 C 
BRANCH   2   3
ATOM      3  C   UNL     1     -28.071 -17.776  17.836  1.00  0.00     0.000 C 
BRANCH   3   4
ATOM      4  C   UNL     1     -28.231 -19.148  17.167  1.00  0.00     0.000 C 
BRANCH   4   5
ATOM      5  C   UNL     1     -29.613 -19.779  17.422  1.00  0.00     0.000 C 
BRANCH   5   6
ATOM      6  C   UNL     1     -30.604 -19.674  16.246  1.00  0.00     0.000 C 
BRANCH   6   7
ATOM      7  C   UNL     1     -31.225 -18.281  16.041  1.00  0.00     0.000 C 
BRANCH   7   8
ATOM      8  C   UNL     1     -31.621 -18.017  14.577  1.00  0.00     0.000 C 
BRANCH   8   9
ATOM      9  C   UNL     1     -30.748 -16.942  13.911  1.00  0.00     0.000 C 
BRANCH   9  10
ATOM     10  C   UNL     1     -29.246 -17.177  14.134  1.00  0.00     0.006 C 
BRANCH  10  11
ATOM     11  C   UNL     1     -28.579 -17.715  12.866  1.00  0.00     0.053 C 
BRANCH  11  12
ATOM     12  C   UNL     1     -27.557 -18.753  13.211  1.00  0.00     0.041 C 
ATOM     13  O   UNL     1     -27.908 -19.826  13.769  1.00  0.00    -0.550 OA
ATOM     14  O   UNL     1     -26.211 -18.511  12.967  1.00  0.00    -0.550 OA
ENDBRANCH  11  12
ENDBRANCH  10  11
ENDBRANCH   9  10
ENDBRANCH   8   9
ENDBRANCH   7   8
ENDBRANCH   6   7
ENDBRANCH   5   6
ENDBRANCH   4   5
ENDBRANCH   3   4
ENDBRANCH   2   3
ENDBRANCH   1   2
BRANCH   1  15
ATOM     15  C   UNL     1     -25.665 -14.723  17.352  1.00  0.00     0.000 C 
BRANCH  15  16
ATOM     16  C   UNL     1     -25.916 -13.358  18.012  1.00  0.00     0.000 C 
BRANCH  16  17
ATOM     17  C   UNL     1     -25.613 -12.178  17.076  1.00  0.00     0.000 C 
BRANCH  17  18
ATOM     18  C   UNL     1     -26.873 -11.369  16.713  1.00  0.00    -0.000 C 
BRANCH  18  19
ATOM     19  C   UNL     1     -27.941 -11.402  17.821  1.00  0.00    -0.000 C 
BRANCH  19  20
ATOM     20  C   UNL     1     -29.390 -11.543  17.314  1.00  0.00    -0.000 C 
BRANCH  20  21
ATOM     21  C   UNL     1     -29.637 -12.737  16.378  1.00  0.00    -0.000 C 
BRANCH  21  22
ATOM     22  C   UNL     1     -29.402 -14.094  17.065  1.00  0.00    -0.000 C 
BRANCH  22  23
ATOM     23  C   UNL     1     -30.715 -14.865  17.295  1.00  0.00    -0.000 C 
BRANCH  23  24
ATOM     24  C   UNL     1     -31.971 -14.032  16.951  1.00  0.00    -0.000 C 
BRANCH  24  25
ATOM     25  C   UNL     1     -32.823 -14.644  15.825  1.00  0.00    -0.003 C 
ATOM     26  C   UNL     1     -33.821 -13.654  15.227  1.00  0.00     0.004 C 
ENDBRANCH  24  25
ENDBRANCH  23  24
ENDBRANCH  22  23
ENDBRANCH  21  22
ENDBRANCH  20  21
ENDBRANCH  19  20
ENDBRANCH  18  19
ENDBRANCH  17  18
ENDBRANCH  16  17
ENDBRANCH  15  16
ENDBRANCH   1  15
TORSDOF 22
ENDMDL
MODEL 4
REMARK VINA RESULT:    -4.878      1.528      2.378
REMARK INTER + INTRA:         -13.455
REMARK INTER:                 -10.875
REMARK INTRA:                  -2.581
REMARK UNBOUND:                -2.305
REMARK SMILES CCCCCCCCCCCCCCCCCCCCCCCC(=O)[O-]
REMARK SMILES IDX 13 1 14 2 15 3 16 4 17 5 18 6 19 7 20 8 21 9 22 10 23 11
REMARK SMILES IDX 24 12 25 13 26 14 12 15 11 16 10 17 9 18 8 19 7 20 6 21 5 22
REMARK SMILES IDX 4 23 3 24 2 25 1 26
REMARK H PARENT
REMARK Flexibility Score: inf
ROOT
ATOM      1  C   UNL     1     -25.865 -15.237  17.384  1.00  0.00     0.000 C 
ENDROOT
BRANCH   1   2
ATOM      2  C   UNL     1     -26.334 -13.891  17.974  1.00  0.00     0.000 C 
BRANCH   2   3
ATOM      3  C   UNL     1     -25.510 -12.703  17.451  1.00  0.00     0.000 C 
BRANCH   3   4
ATOM      4  C   UNL     1     -26.389 -11.719  16.665  1.00  0.00     0.000 C 
BRANCH   4   5
ATOM      5  C   UNL     1     -27.177 -10.762  17.578  1.00  0.00     0.000 C 
BRANCH   5   6
ATOM      6  C   UNL     1     -28.664 -10.590  17.213  1.00  0.00     0.000 C 
BRANCH   6   7
ATOM      7  C   UNL     1     -29.559 -11.798  17.540  1.00  0.00     0.000 C 
BRANCH   7   8
ATOM      8  C   UNL     1     -29.860 -12.666  16.305  1.00  0.00     0.000 C 
BRANCH   8   9
ATOM      9  C   UNL     1     -29.782 -14.172  16.605  1.00  0.00     0.000 C 
BRANCH   9  10
ATOM     10  C   UNL     1     -31.008 -14.942  16.088  1.00  0.00     0.006 C 
BRANCH  10  11
ATOM     11  C   UNL     1     -30.696 -15.650  14.767  1.00  0.00     0.053 C 
BRANCH  11  12
ATOM     12  C   UNL     1     -31.423 -16.956  14.689  1.00  0.00     0.041 C 
ATOM     13  O   UNL     1     -31.454 -17.600  13.607  1.00  0.00    -0.550 OA
ATOM     14  O   UNL     1     -32.112 -17.435  15.796  1.00  0.00    -0.550 OA
ENDBRANCH  11  12
ENDBRANCH  10  11
ENDBRANCH   9  10
ENDBRANCH   8   9
ENDBRANCH   7   8
ENDBRANCH   6   7
ENDBRANCH   5   6
ENDBRANCH   4   5
ENDBRANCH   3   4
ENDBRANCH   2   3
ENDBRANCH   1   2
BRANCH   1  15
ATOM     15  C   UNL     1     -26.627 -16.461  17.925  1.00  0.00     0.000 C 
BRANCH  15  16
ATOM     16  C   UNL     1     -27.689 -16.985  16.944  1.00  0.00     0.000 C 
BRANCH  16  17
ATOM     17  C   UNL     1     -27.429 -18.434  16.502  1.00  0.00     0.000 C 
BRANCH  17  18
ATOM     18  C   UNL     1     -28.601 -19.031  15.702  1.00  0.00    -0.000 C 
BRANCH  18  19
ATOM     19  C   UNL     1     -28.327 -19.073  14.188  1.00  0.00    -0.000 C 
BRANCH  19  20
ATOM     20  C   UNL     1     -26.834 -19.114  13.805  1.00  0.00    -0.000 C 
BRANCH  20  21
ATOM     21  C   UNL     1     -26.387 -20.391  13.074  1.00  0.00    -0.000 C 
BRANCH  21  22
ATOM     22  C   UNL     1     -26.963 -20.498  11.651  1.00  0.00    -0.000 C 
BRANCH  22  23
ATOM     23  C   UNL     1     -26.602 -19.276  10.785  1.00  0.00    -0.000 C 
BRANCH  23  24
ATOM     24  C   UNL     1     -27.629 -19.011   9.660  1.00  0.00    -0.000 C 
BRANCH  24  25
ATOM     25  C   UNL     1     -28.247 -17.603   9.713  1.00  0.00    -0.003 C 
ATOM     26  C   UNL     1     -28.416 -17.078  11.137  1.00  0.00     0.004 C 
ENDBRANCH  24  25
ENDBRANCH  23  24
ENDBRANCH  22  23
ENDBRANCH  21  22
ENDBRANCH  20  21
ENDBRANCH  19  20
ENDBRANCH  18  19
ENDBRANCH  17  18
ENDBRANCH  16  17
ENDBRANCH  15  16
ENDBRANCH   1  15
TORSDOF 22
ENDMDL
MODEL 5
REMARK VINA RESULT:    -4.847      3.205      7.287
REMARK INTER + INTRA:         -13.386
REMARK INTER:                 -10.119
REMARK INTRA:                  -3.267
REMARK UNBOUND:                -2.305
REMARK SMILES CCCCCCCCCCCCCCCCCCCCCCCC(=O)[O-]
REMARK SMILES IDX 13 1 14 2 15 3 16 4 17 5 18 6 19 7 20 8 21 9 22 10 23 11
REMARK SMILES IDX 24 12 25 13 26 14 12 15 11 16 10 17 9 18 8 19 7 20 6 21 5 22
REMARK SMILES IDX 4 23 3 24 2 25 1 26
REMARK H PARENT
REMARK Flexibility Score: inf
ROOT
ATOM      1  C   UNL     1     -26.192 -14.973  17.267  1.00  0.00     0.000 C 
ENDROOT
BRANCH   1   2
ATOM      2  C   UNL     1     -26.357 -16.244  18.125  1.00  0.00     0.000 C 
BRANCH   2   3
ATOM      3  C   UNL     1     -26.299 -17.530  17.284  1.00  0.00     0.000 C 
BRANCH   3   4
ATOM      4  C   UNL     1     -27.651 -18.257  17.285  1.00  0.00     0.000 C 
BRANCH   4   5
ATOM      5  C   UNL     1     -27.996 -18.878  15.918  1.00  0.00     0.000 C 
BRANCH   5   6
ATOM      6  C   UNL     1     -28.041 -17.882  14.743  1.00  0.00     0.000 C 
BRANCH   6   7
ATOM      7  C   UNL     1     -28.585 -18.458  13.423  1.00  0.00     0.000 C 
BRANCH   7   8
ATOM      8  C   UNL     1     -29.171 -17.374  12.500  1.00  0.00     0.000 C 
BRANCH   8   9
ATOM      9  C   UNL     1     -28.522 -17.368  11.107  1.00  0.00     0.000 C 
BRANCH   9  10
ATOM     10  C   UNL     1     -27.292 -18.286  11.023  1.00  0.00     0.006 C 
BRANCH  10  11
ATOM     11  C   UNL     1     -27.464 -19.338   9.924  1.00  0.00     0.053 C 
BRANCH  11  12
ATOM     12  C   UNL     1     -26.700 -20.580  10.264  1.00  0.00     0.041 C 
ATOM     13  O   UNL     1     -27.215 -21.458  11.005  1.00  0.00    -0.550 OA
ATOM     14  O   UNL     1     -25.399 -20.742   9.807  1.00  0.00    -0.550 OA
ENDBRANCH  11  12
ENDBRANCH  10  11
ENDBRANCH   9  10
ENDBRANCH   8   9
ENDBRANCH   7   8
ENDBRANCH   6   7
ENDBRANCH   5   6
ENDBRANCH   4   5
ENDBRANCH   3   4
ENDBRANCH   2   3
ENDBRANCH   1   2
BRANCH   1  15
ATOM     15  C   UNL     1     -26.350 -13.658  18.053  1.00  0.00     0.000 C 
BRANCH  15  16
ATOM     16  C   UNL     1     -25.858 -12.430  17.269  1.00  0.00     0.000 C 
BRANCH  16  17
ATOM     17  C   UNL     1     -27.007 -11.539  16.774  1.00  0.00     0.000 C 
BRANCH  17  18
ATOM     18  C   UNL     1     -28.243 -11.596  17.691  1.00  0.00    -0.000 C 
BRANCH  18  19
ATOM     19  C   UNL     1     -29.560 -11.727  16.906  1.00  0.00    -0.000 C 
BRANCH  19  20
ATOM     20  C   UNL     1     -30.458 -12.902  17.343  1.00  0.00    -0.000 C 
BRANCH  20  21
ATOM     21  C   UNL     1     -29.870 -14.299  17.082  1.00  0.00    -0.000 C 
BRANCH  21  22
ATOM     22  C   UNL     1     -29.890 -14.687  15.594  1.00  0.00    -0.000 C 
BRANCH  22  23
ATOM     23  C   UNL     1     -31.219 -15.347  15.182  1.00  0.00    -0.000 C 
BRANCH  23  24
ATOM     24  C   UNL     1     -31.443 -16.721  15.854  1.00  0.00    -0.000 C 
BRANCH  24  25
ATOM     25  C   UNL     1     -32.124 -17.750  14.934  1.00  0.00    -0.003 C 
ATOM     26  C   UNL     1     -31.670 -19.183  15.202  1.00  0.00     0.004 C 
ENDBRANCH  24  25
ENDBRANCH  23  24
ENDBRANCH  22  23
ENDBRANCH  21  22
ENDBRANCH  20  21
ENDBRANCH  19  20
ENDBRANCH  18  19
ENDBRANCH  17  18
ENDBRANCH  16  17
ENDBRANCH  15  16
ENDBRANCH   1  15
TORSDOF 22
ENDMDL
MODEL 6
REMARK VINA RESULT:    -4.801      1.789      3.645
REMARK INTER + INTRA:         -13.280
REMARK INTER:                 -10.077
REMARK INTRA:                  -3.203
REMARK UNBOUND:                -2.305
REMARK SMILES CCCCCCCCCCCCCCCCCCCCCCCC(=O)[O-]
REMARK SMILES IDX 13 1 14 2 15 3 16 4 17 5 18 6 19 7 20 8 21 9 22 10 23 11
REMARK SMILES IDX 24 12 25 13 26 14 12 15 11 16 10 17 9 18 8 19 7 20 6 21 5 22
REMARK SMILES IDX 4 23 3 24 2 25 1 26
REMARK H PARENT
REMARK Flexibility Score: inf
ROOT
ATOM      1  C   UNL     1     -26.788 -12.308  17.997  1.00  0.00     0.000 C 
ENDROOT
BRANCH   1   2
ATOM      2  C   UNL     1     -27.418 -11.343  16.971  1.00  0.00     0.000 C 
BRANCH   2   3
ATOM      3  C   UNL     1     -28.832 -10.896  17.378  1.00  0.00     0.000 C 
BRANCH   3   4
ATOM      4  C   UNL     1     -29.765 -12.101  17.562  1.00  0.00     0.000 C 
BRANCH   4   5
ATOM      5  C   UNL     1     -30.017 -12.868  16.251  1.00  0.00     0.000 C 
BRANCH   5   6
ATOM      6  C   UNL     1     -29.826 -14.395  16.342  1.00  0.00     0.000 C 
BRANCH   6   7
ATOM      7  C   UNL     1     -29.958 -15.148  15.007  1.00  0.00     0.000 C 
BRANCH   7   8
ATOM      8  C   UNL     1     -31.317 -15.855  14.855  1.00  0.00     0.000 C 
BRANCH   8   9
ATOM      9  C   UNL     1     -31.975 -16.172  16.208  1.00  0.00     0.000 C 
BRANCH   9  10
ATOM     10  C   UNL     1     -33.429 -15.682  16.288  1.00  0.00     0.006 C 
BRANCH  10  11
ATOM     11  C   UNL     1     -33.622 -14.396  15.480  1.00  0.00     0.053 C 
BRANCH  11  12
ATOM     12  C   UNL     1     -35.023 -13.889  15.628  1.00  0.00     0.041 C 
ATOM     13  O   UNL     1     -35.999 -14.667  15.464  1.00  0.00    -0.550 OA
ATOM     14  O   UNL     1     -35.251 -12.545  15.894  1.00  0.00    -0.550 OA
ENDBRANCH  11  12
ENDBRANCH  10  11
ENDBRANCH   9  10
ENDBRANCH   8   9
ENDBRANCH   7   8
ENDBRANCH   6   7
ENDBRANCH   5   6
ENDBRANCH   4   5
ENDBRANCH   3   4
ENDBRANCH   2   3
ENDBRANCH   1   2
BRANCH   1  15
ATOM     15  C   UNL     1     -26.094 -13.530  17.368  1.00  0.00     0.000 C 
BRANCH  15  16
ATOM     16  C   UNL     1     -26.521 -14.858  18.013  1.00  0.00     0.000 C 
BRANCH  16  17
ATOM     17  C   UNL     1     -25.924 -16.085  17.306  1.00  0.00     0.000 C 
BRANCH  17  18
ATOM     18  C   UNL     1     -26.616 -17.400  17.709  1.00  0.00    -0.000 C 
BRANCH  18  19
ATOM     19  C   UNL     1     -28.152 -17.294  17.690  1.00  0.00    -0.000 C 
BRANCH  19  20
ATOM     20  C   UNL     1     -28.850 -18.240  16.692  1.00  0.00    -0.000 C 
BRANCH  20  21
ATOM     21  C   UNL     1     -27.976 -18.701  15.514  1.00  0.00    -0.000 C 
BRANCH  21  22
ATOM     22  C   UNL     1     -28.787 -18.956  14.232  1.00  0.00    -0.000 C 
BRANCH  22  23
ATOM     23  C   UNL     1     -28.087 -18.398  12.979  1.00  0.00    -0.000 C 
BRANCH  23  24
ATOM     24  C   UNL     1     -28.945 -17.360  12.220  1.00  0.00    -0.000 C 
BRANCH  24  25
ATOM     25  C   UNL     1     -28.397 -17.013  10.825  1.00  0.00    -0.003 C 
ATOM     26  C   UNL     1     -27.856 -18.229  10.076  1.00  0.00     0.004 C 
ENDBRANCH  24  25
ENDBRANCH  23  24
ENDBRANCH  22  23
ENDBRANCH  21  22
ENDBRANCH  20  21
ENDBRANCH  19  20
ENDBRANCH  18  19
ENDBRANCH  17  18
ENDBRANCH  16  17
ENDBRANCH  15  16
ENDBRANCH   1  15
TORSDOF 22
ENDMDL
MODEL 7
REMARK VINA RESULT:    -4.798      3.005      6.926
REMARK INTER + INTRA:         -13.273
REMARK INTER:                 -10.427
REMARK INTRA:                  -2.846
REMARK UNBOUND:                -2.305
REMARK SMILES CCCCCCCCCCCCCCCCCCCCCCCC(=O)[O-]
REMARK SMILES IDX 13 1 14 2 15 3 16 4 17 5 18 6 19 7 20 8 21 9 22 10 23 11
REMARK SMILES IDX 24 12 25 13 26 14 12 15 11 16 10 17 9 18 8 19 7 20 6 21 5 22
REMARK SMILES IDX 4 23 3 24 2 25 1 26
REMARK H PARENT
REMARK Flexibility Score: inf
ROOT
ATOM      1  C   UNL     1     -25.718 -12.712  17.144  1.00  0.00     0.000 C 
ENDROOT
BRANCH   1   2
ATOM      2  C   UNL     1     -26.268 -13.768  18.125  1.00  0.00     0.000 C 
BRANCH   2   3
ATOM      3  C   UNL     1     -26.354 -15.168  17.493  1.00  0.00     0.000 C 
BRANCH   3   4
ATOM      4  C   UNL     1     -27.657 -15.878  17.889  1.00  0.00     0.000 C 
BRANCH   4   5
ATOM      5  C   UNL     1     -28.486 -16.327  16.672  1.00  0.00     0.000 C 
BRANCH   5   6
ATOM      6  C   UNL     1     -28.527 -17.850  16.438  1.00  0.00     0.000 C 
BRANCH   6   7
ATOM      7  C   UNL     1     -28.104 -18.303  15.029  1.00  0.00     0.000 C 
BRANCH   7   8
ATOM      8  C   UNL     1     -26.753 -19.041  15.024  1.00  0.00     0.000 C 
BRANCH   8   9
ATOM      9  C   UNL     1     -26.495 -19.795  13.709  1.00  0.00     0.000 C 
BRANCH   9  10
ATOM     10  C   UNL     1     -26.876 -18.970  12.470  1.00  0.00     0.006 C 
BRANCH  10  11
ATOM     11  C   UNL     1     -26.163 -19.494  11.220  1.00  0.00     0.053 C 
BRANCH  11  12
ATOM     12  C   UNL     1     -27.024 -19.308  10.010  1.00  0.00     0.041 C 
ATOM     13  O   UNL     1     -27.639 -18.225   9.830  1.00  0.00    -0.550 OA
ATOM     14  O   UNL     1     -27.190 -20.353   9.109  1.00  0.00    -0.550 OA
ENDBRANCH  11  12
ENDBRANCH  10  11
ENDBRANCH   9  10
ENDBRANCH   8   9
ENDBRANCH   7   8
ENDBRANCH   6   7
ENDBRANCH   5   6
ENDBRANCH   4   5
ENDBRANCH   3   4
ENDBRANCH   2   3
ENDBRANCH   1   2
BRANCH   1  15
ATOM     15  C   UNL     1     -26.773 -11.710  16.642  1.00  0.00     0.000 C 
BRANCH  15  16
ATOM     16  C   UNL     1     -27.638 -11.134  17.775  1.00  0.00     0.000 C 
BRANCH  16  17
ATOM     17  C   UNL     1     -29.123 -11.026  17.396  1.00  0.00     0.000 C 
BRANCH  17  18
ATOM     18  C   UNL     1     -29.627 -12.249  16.607  1.00  0.00    -0.000 C 
BRANCH  18  19
ATOM     19  C   UNL     1     -30.343 -13.279  17.500  1.00  0.00    -0.000 C 
BRANCH  19  20
ATOM     20  C   UNL     1     -31.716 -13.742  16.975  1.00  0.00    -0.000 C 
BRANCH  20  21
ATOM     21  C   UNL     1     -31.988 -15.249  17.111  1.00  0.00    -0.000 C 
BRANCH  21  22
ATOM     22  C   UNL     1     -32.650 -15.853  15.860  1.00  0.00    -0.000 C 
BRANCH  22  23
ATOM     23  C   UNL     1     -31.613 -16.327  14.825  1.00  0.00    -0.000 C 
BRANCH  23  24
ATOM     24  C   UNL     1     -31.781 -17.816  14.444  1.00  0.00    -0.000 C 
BRANCH  24  25
ATOM     25  C   UNL     1     -32.184 -18.712  15.629  1.00  0.00    -0.003 C 
ATOM     26  C   UNL     1     -31.648 -20.136  15.510  1.00  0.00     0.004 C 
ENDBRANCH  24  25
ENDBRANCH  23  24
ENDBRANCH  22  23
ENDBRANCH  21  22
ENDBRANCH  20  21
ENDBRANCH  19  20
ENDBRANCH  18  19
ENDBRANCH  17  18
ENDBRANCH  16  17
ENDBRANCH  15  16
ENDBRANCH   1  15
TORSDOF 22
ENDMDL
MODEL 8
REMARK VINA RESULT:    -4.757      1.846      2.921
REMARK INTER + INTRA:         -13.179
REMARK INTER:                 -10.210
REMARK INTRA:                  -2.969
REMARK UNBOUND:                -2.305
REMARK SMILES CCCCCCCCCCCCCCCCCCCCCCCC(=O)[O-]
REMARK SMILES IDX 13 1 14 2 15 3 16 4 17 5 18 6 19 7 20 8 21 9 22 10 23 11
REMARK SMILES IDX 24 12 25 13 26 14 12 15 11 16 10 17 9 18 8 19 7 20 6 21 5 22
REMARK SMILES IDX 4 23 3 24 2 25 1 26
REMARK H PARENT
REMARK Flexibility Score: inf
ROOT
ATOM      1  C   UNL     1     -26.372 -13.975  17.998  1.00  0.00     0.000 C 
ENDROOT
BRANCH   1   2
ATOM      2  C   UNL     1     -25.694 -12.857  17.180  1.00  0.00     0.000 C 
BRANCH   2   3
ATOM      3  C   UNL     1     -26.669 -11.726  16.812  1.00  0.00     0.000 C 
BRANCH   3   4
ATOM      4  C   UNL     1     -27.847 -11.665  17.795  1.00  0.00     0.000 C 
BRANCH   4   5
ATOM      5  C   UNL     1     -29.199 -11.440  17.094  1.00  0.00     0.000 C 
BRANCH   5   6
ATOM      6  C   UNL     1     -29.947 -12.726  16.693  1.00  0.00     0.000 C 
BRANCH   6   7
ATOM      7  C   UNL     1     -30.907 -13.281  17.761  1.00  0.00     0.000 C 
BRANCH   7   8
ATOM      8  C   UNL     1     -31.902 -14.307  17.190  1.00  0.00     0.000 C 
BRANCH   8   9
ATOM      9  C   UNL     1     -33.320 -13.734  17.033  1.00  0.00     0.000 C 
BRANCH   9  10
ATOM     10  C   UNL     1     -33.832 -13.810  15.586  1.00  0.00     0.006 C 
BRANCH  10  11
ATOM     11  C   UNL     1     -35.041 -14.743  15.479  1.00  0.00     0.053 C 
BRANCH  11  12
ATOM     12  C   UNL     1     -34.631 -16.161  15.727  1.00  0.00     0.041 C 
ATOM     13  O   UNL     1     -35.262 -16.867  16.557  1.00  0.00    -0.550 OA
ATOM     14  O   UNL     1     -33.517 -16.686  15.083  1.00  0.00    -0.550 OA
ENDBRANCH  11  12
ENDBRANCH  10  11
ENDBRANCH   9  10
ENDBRANCH   8   9
ENDBRANCH   7   8
ENDBRANCH   6   7
ENDBRANCH   5   6
ENDBRANCH   4   5
ENDBRANCH   3   4
ENDBRANCH   2   3
ENDBRANCH   1   2
BRANCH   1  15
ATOM     15  C   UNL     1     -26.096 -15.396  17.473  1.00  0.00     0.000 C 
BRANCH  15  16
ATOM     16  C   UNL     1     -27.100 -16.433  17.999  1.00  0.00     0.000 C 
BRANCH  16  17
ATOM     17  C   UNL     1     -28.552 -16.107  17.615  1.00  0.00     0.000 C 
BRANCH  17  18
ATOM     18  C   UNL     1     -28.832 -16.313  16.114  1.00  0.00    -0.000 C 
BRANCH  18  19
ATOM     19  C   UNL     1     -30.137 -17.087  15.854  1.00  0.00    -0.000 C 
BRANCH  19  20
ATOM     20  C   UNL     1     -30.100 -18.018  14.625  1.00  0.00    -0.000 C 
BRANCH  20  21
ATOM     21  C   UNL     1     -29.969 -17.300  13.272  1.00  0.00    -0.000 C 
BRANCH  21  22
ATOM     22  C   UNL     1     -28.744 -17.766  12.465  1.00  0.00    -0.000 C 
BRANCH  22  23
ATOM     23  C   UNL     1     -28.010 -18.936  13.145  1.00  0.00    -0.000 C 
BRANCH  23  24
ATOM     24  C   UNL     1     -26.626 -18.536  13.705  1.00  0.00    -0.000 C 
BRANCH  24  25
ATOM     25  C   UNL     1     -26.385 -19.015  15.148  1.00  0.00    -0.003 C 
ATOM     26  C   UNL     1     -25.831 -20.436  15.221  1.00  0.00     0.004 C 
ENDBRANCH  24  25
ENDBRANCH  23  24
ENDBRANCH  22  23
ENDBRANCH  21  22
ENDBRANCH  20  21
ENDBRANCH  19  20
ENDBRANCH  18  19
ENDBRANCH  17  18
ENDBRANCH  16  17
ENDBRANCH  15  16
ENDBRANCH   1  15
TORSDOF 22
ENDMDL
MODEL 9
REMARK VINA RESULT:    -4.742      3.017      7.793
REMARK INTER + INTRA:         -13.145
REMARK INTER:                  -9.968
REMARK INTRA:                  -3.177
REMARK UNBOUND:                -2.305
REMARK SMILES CCCCCCCCCCCCCCCCCCCCCCCC(=O)[O-]
REMARK SMILES IDX 13 1 14 2 15 3 16 4 17 5 18 6 19 7 20 8 21 9 22 10 23 11
REMARK SMILES IDX 24 12 25 13 26 14 12 15 11 16 10 17 9 18 8 19 7 20 6 21 5 22
REMARK SMILES IDX 4 23 3 24 2 25 1 26
REMARK H PARENT
REMARK Flexibility Score: inf
ROOT
ATOM      1  C   UNL     1     -26.268 -16.346  17.386  1.00  0.00     0.000 C 
ENDROOT
BRANCH   1   2
ATOM      2  C   UNL     1     -27.320 -17.458  17.199  1.00  0.00     0.000 C 
BRANCH   2   3
ATOM      3  C   UNL     1     -28.716 -17.034  17.685  1.00  0.00     0.000 C 
BRANCH   3   4
ATOM      4  C   UNL     1     -29.772 -17.234  16.588  1.00  0.00     0.000 C 
BRANCH   4   5
ATOM      5  C   UNL     1     -29.511 -16.367  15.343  1.00  0.00     0.000 C 
BRANCH   5   6
ATOM      6  C   UNL     1     -30.425 -16.665  14.138  1.00  0.00     0.000 C 
BRANCH   6   7
ATOM      7  C   UNL     1     -29.723 -17.313  12.932  1.00  0.00     0.000 C 
BRANCH   7   8
ATOM      8  C   UNL     1     -28.801 -18.477  13.337  1.00  0.00     0.000 C 
BRANCH   8   9
ATOM      9  C   UNL     1     -27.434 -18.422  12.636  1.00  0.00     0.000 C 
BRANCH   9  10
ATOM     10  C   UNL     1     -26.511 -19.581  13.047  1.00  0.00     0.006 C 
BRANCH  10  11
ATOM     11  C   UNL     1     -26.769 -20.002  14.496  1.00  0.00     0.053 C 
BRANCH  11  12
ATOM     12  C   UNL     1     -25.512 -20.520  15.122  1.00  0.00     0.041 C 
ATOM     13  O   UNL     1     -25.114 -20.058  16.223  1.00  0.00    -0.550 OA
ATOM     14  O   UNL     1     -24.750 -21.476  14.461  1.00  0.00    -0.550 OA
ENDBRANCH  11  12
ENDBRANCH  10  11
ENDBRANCH   9  10
ENDBRANCH   8   9
ENDBRANCH   7   8
ENDBRANCH   6   7
ENDBRANCH   5   6
ENDBRANCH   4   5
ENDBRANCH   3   4
ENDBRANCH   2   3
ENDBRANCH   1   2
BRANCH   1  15
ATOM     15  C   UNL     1     -26.853 -14.996  17.841  1.00  0.00     0.000 C 
BRANCH  15  16
ATOM     16  C   UNL     1     -25.773 -13.934  18.103  1.00  0.00     0.000 C 
BRANCH  16  17
ATOM     17  C   UNL     1     -25.670 -12.896  16.975  1.00  0.00     0.000 C 
BRANCH  17  18
ATOM     18  C   UNL     1     -25.814 -11.449  17.483  1.00  0.00    -0.000 C 
BRANCH  18  19
ATOM     19  C   UNL     1     -27.122 -10.783  17.018  1.00  0.00    -0.000 C 
BRANCH  19  20
ATOM     20  C   UNL     1     -28.393 -11.299  17.722  1.00  0.00    -0.000 C 
BRANCH  20  21
ATOM     21  C   UNL     1     -29.343 -12.115  16.829  1.00  0.00    -0.000 C 
BRANCH  21  22
ATOM     22  C   UNL     1     -29.836 -13.406  17.505  1.00  0.00    -0.000 C 
BRANCH  22  23
ATOM     23  C   UNL     1     -31.341 -13.355  17.829  1.00  0.00    -0.000 C 
BRANCH  23  24
ATOM     24  C   UNL     1     -31.977 -14.758  17.963  1.00  0.00    -0.000 C 
BRANCH  24  25
ATOM     25  C   UNL     1     -33.103 -15.021  16.948  1.00  0.00    -0.003 C 
ATOM     26  C   UNL     1     -32.884 -14.308  15.615  1.00  0.00     0.004 C 
ENDBRANCH  24  25
ENDBRANCH  23  24
ENDBRANCH  22  23
ENDBRANCH  21  22
ENDBRANCH  20  21
ENDBRANCH  19  20
ENDBRANCH  18  19
ENDBRANCH  17  18
ENDBRANCH  16  17
ENDBRANCH  15  16
ENDBRANCH   1  15
TORSDOF 22
ENDMDL
