MODEL 1
REMARK VINA RESULT:     0.000      0.000      0.000
REMARK INTER + INTRA:          -0.384
REMARK INTER:                   0.000
REMARK INTRA:                  -0.384
REMARK UNBOUND:                -0.384
REMARK SMILES O=C1c2c(O)cc(O)cc2O[C@@H](c2cc(O)c(O)c(O)c2)[C@@H]1O
REMARK SMILES IDX 12 1 22 2 2 3 1 4 3 5 4 6 6 7 7 8 9 9 10 10 11 11 13 12
REMARK SMILES IDX 14 13 15 14 21 15 17 16 19 17 16 18 18 20 20 22 23 24 5 26
REMARK SMILES IDX 8 28
REMARK H PARENT 16 19 18 21 20 23 23 25 5 27 8 29
REMARK Flexibility Score: inf
ROOT
ATOM      1  C   UNL     1      11.660  16.338  54.969  1.00  0.00     0.240 C 
ATOM      2  C   UNL     1      10.873  17.385  54.149  1.00  0.00     0.231 C 
ATOM      3  C   UNL     1      11.406  17.454  52.738  1.00  0.00     0.202 C 
ATOM      4  O   UNL     1      10.629  17.762  51.793  1.00  0.00    -0.291 OA
ATOM      5  C   UNL     1      12.855  17.243  52.496  1.00  0.00     0.105 A 
ATOM      6  C   UNL     1      13.463  17.487  51.245  1.00  0.00     0.133 A 
ATOM      7  C   UNL     1      14.848  17.318  51.099  1.00  0.00     0.093 A 
ATOM      8  C   UNL     1      15.633  16.919  52.184  1.00  0.00     0.123 A 
ATOM      9  C   UNL     1      15.032  16.673  53.424  1.00  0.00     0.093 A 
ATOM     10  C   UNL     1      13.651  16.818  53.578  1.00  0.00     0.138 A 
ATOM     11  O   UNL     1      13.066  16.542  54.820  1.00  0.00    -0.481 OA
ENDROOT
BRANCH   1  12
ATOM     12  C   UNL     1      11.285  16.402  56.430  1.00  0.00     0.003 A 
ATOM     13  C   UNL     1      10.770  15.271  57.084  1.00  0.00     0.058 A 
ATOM     14  C   UNL     1      10.449  15.319  58.445  1.00  0.00     0.161 A 
ATOM     15  C   UNL     1      11.498  17.579  57.164  1.00  0.00     0.058 A 
ATOM     16  C   UNL     1      10.651  16.504  59.172  1.00  0.00     0.200 A 
ATOM     17  C   UNL     1      11.179  17.637  58.528  1.00  0.00     0.161 A 
BRANCH  14  18
ATOM     18  O   UNL     1       9.933  14.177  59.058  1.00  0.00    -0.504 OA
ATOM     19  H   UNL     1      10.504  13.364  59.251  1.00  0.00     0.293 HD
ENDBRANCH  14  18
BRANCH  16  20
ATOM     20  O   UNL     1      10.327  16.545  60.530  1.00  0.00    -0.502 OA
ATOM     21  H   UNL     1      10.276  15.707  61.098  1.00  0.00     0.293 HD
ENDBRANCH  16  20
BRANCH  17  22
ATOM     22  O   UNL     1      11.388  18.814  59.245  1.00  0.00    -0.504 OA
ATOM     23  H   UNL     1      10.678  19.536  59.299  1.00  0.00     0.293 HD
ENDBRANCH  17  22
ENDBRANCH   1  12
BRANCH   2  24
ATOM     24  O   UNL     1       9.496  17.095  54.157  1.00  0.00    -0.381 OA
ATOM     25  H   UNL     1       9.024  17.888  54.523  1.00  0.00     0.211 HD
ENDBRANCH   2  24
BRANCH   6  26
ATOM     26  O   UNL     1      12.702  17.902  50.152  1.00  0.00    -0.507 OA
ATOM     27  H   UNL     1      11.857  17.415  49.877  1.00  0.00     0.293 HD
ENDBRANCH   6  26
BRANCH   8  28
ATOM     28  O   UNL     1      17.008  16.767  52.020  1.00  0.00    -0.508 OA
ATOM     29  H   UNL     1      17.464  16.988  51.143  1.00  0.00     0.293 HD
ENDBRANCH   8  28
TORSDOF 7
ENDMDL
MODEL 2
REMARK VINA RESULT:     0.000      6.212      7.340
REMARK INTER + INTRA:          -0.384
REMARK INTER:                   0.000
REMARK INTRA:                  -0.384
REMARK UNBOUND:                -0.384
REMARK SMILES O=C1c2c(O)cc(O)cc2O[C@@H](c2cc(O)c(O)c(O)c2)[C@@H]1O
REMARK SMILES IDX 12 1 22 2 2 3 1 4 3 5 4 6 6 7 7 8 9 9 10 10 11 11 13 12
REMARK SMILES IDX 14 13 15 14 21 15 17 16 19 17 16 18 18 20 20 22 23 24 5 26
REMARK SMILES IDX 8 28
REMARK H PARENT 16 19 18 21 20 23 23 25 5 27 8 29
REMARK Flexibility Score: inf
ROOT
ATOM      1  C   UNL     1       8.639  22.016  55.496  1.00  0.00     0.240 C 
ATOM      2  C   UNL     1       7.197  22.569  55.500  1.00  0.00     0.231 C 
ATOM      3  C   UNL     1       6.556  22.371  54.148  1.00  0.00     0.202 C 
ATOM      4  O   UNL     1       5.308  22.205  54.068  1.00  0.00    -0.291 OA
ATOM      5  C   UNL     1       7.393  22.460  52.925  1.00  0.00     0.105 A 
ATOM      6  C   UNL     1       6.842  22.487  51.625  1.00  0.00     0.133 A 
ATOM      7  C   UNL     1       7.689  22.627  50.514  1.00  0.00     0.093 A 
ATOM      8  C   UNL     1       9.070  22.748  50.684  1.00  0.00     0.123 A 
ATOM      9  C   UNL     1       9.618  22.719  51.972  1.00  0.00     0.093 A 
ATOM     10  C   UNL     1       8.789  22.559  53.086  1.00  0.00     0.138 A 
ATOM     11  O   UNL     1       9.359  22.506  54.363  1.00  0.00    -0.481 OA
ENDROOT
BRANCH   1  12
ATOM     12  C   UNL     1       9.366  22.390  56.766  1.00  0.00     0.003 A 
ATOM     13  C   UNL     1       9.898  21.395  57.603  1.00  0.00     0.058 A 
ATOM     14  C   UNL     1      10.597  21.739  58.763  1.00  0.00     0.161 A 
ATOM     15  C   UNL     1       9.564  23.739  57.096  1.00  0.00     0.058 A 
ATOM     16  C   UNL     1      10.780  23.092  59.097  1.00  0.00     0.200 A 
ATOM     17  C   UNL     1      10.262  24.094  58.258  1.00  0.00     0.161 A 
BRANCH  14  18
ATOM     18  O   UNL     1      11.105  20.723  59.573  1.00  0.00    -0.504 OA
ATOM     19  H   UNL     1      11.485  20.906  60.494  1.00  0.00     0.293 HD
ENDBRANCH  14  18
BRANCH  16  20
ATOM     20  O   UNL     1      11.478  23.428  60.259  1.00  0.00    -0.502 OA
ATOM     21  H   UNL     1      11.982  22.738  60.804  1.00  0.00     0.293 HD
ENDBRANCH  16  20
BRANCH  17  22
ATOM     22  O   UNL     1      10.447  25.438  58.580  1.00  0.00    -0.504 OA
ATOM     23  H   UNL     1      11.332  25.782  58.935  1.00  0.00     0.293 HD
ENDBRANCH  17  22
ENDBRANCH   1  12
BRANCH   2  24
ATOM     24  O   UNL     1       6.432  21.967  56.517  1.00  0.00    -0.381 OA
ATOM     25  H   UNL     1       5.523  22.365  56.485  1.00  0.00     0.211 HD
ENDBRANCH   2  24
BRANCH   6  26
ATOM     26  O   UNL     1       5.465  22.384  51.431  1.00  0.00    -0.507 OA
ATOM     27  H   UNL     1       4.804  22.759  52.101  1.00  0.00     0.293 HD
ENDBRANCH   6  26
BRANCH   8  28
ATOM     28  O   UNL     1       9.891  22.897  49.569  1.00  0.00    -0.508 OA
ATOM     29  H   UNL     1       9.801  23.692  48.947  1.00  0.00     0.293 HD
ENDBRANCH   8  28
TORSDOF 7
ENDMDL
MODEL 3
REMARK VINA RESULT:     0.000      5.107      7.757
REMARK INTER + INTRA:          -0.384
REMARK INTER:                   0.000
REMARK INTRA:                  -0.384
REMARK UNBOUND:                -0.384
REMARK SMILES O=C1c2c(O)cc(O)cc2O[C@@H](c2cc(O)c(O)c(O)c2)[C@@H]1O
REMARK SMILES IDX 12 1 22 2 2 3 1 4 3 5 4 6 6 7 7 8 9 9 10 10 11 11 13 12
REMARK SMILES IDX 14 13 15 14 21 15 17 16 19 17 16 18 18 20 20 22 23 24 5 26
REMARK SMILES IDX 8 28
REMARK H PARENT 16 19 18 21 20 23 23 25 5 27 8 29
REMARK Flexibility Score: inf
ROOT
ATOM      1  C   UNL     1      14.610  18.783  52.294  1.00  0.00     0.240 C 
ATOM      2  C   UNL     1      15.125  19.780  53.356  1.00  0.00     0.231 C 
ATOM      3  C   UNL     1      14.034  20.749  53.738  1.00  0.00     0.202 C 
ATOM      4  O   UNL     1      14.011  21.235  54.902  1.00  0.00    -0.291 OA
ATOM      5  C   UNL     1      13.052  21.183  52.712  1.00  0.00     0.105 A 
ATOM      6  C   UNL     1      12.131  22.231  52.933  1.00  0.00     0.133 A 
ATOM      7  C   UNL     1      11.267  22.626  51.900  1.00  0.00     0.093 A 
ATOM      8  C   UNL     1      11.316  21.998  50.653  1.00  0.00     0.123 A 
ATOM      9  C   UNL     1      12.227  20.957  50.434  1.00  0.00     0.093 A 
ATOM     10  C   UNL     1      13.079  20.540  51.459  1.00  0.00     0.138 A 
ATOM     11  O   UNL     1      13.964  19.480  51.227  1.00  0.00    -0.481 OA
ENDROOT
BRANCH   1  12
ATOM     12  C   UNL     1      15.739  17.942  51.747  1.00  0.00     0.003 A 
ATOM     13  C   UNL     1      15.697  16.542  51.844  1.00  0.00     0.058 A 
ATOM     14  C   UNL     1      16.728  15.760  51.312  1.00  0.00     0.161 A 
ATOM     15  C   UNL     1      16.818  18.551  51.088  1.00  0.00     0.058 A 
ATOM     16  C   UNL     1      17.813  16.375  50.665  1.00  0.00     0.200 A 
ATOM     17  C   UNL     1      17.855  17.776  50.551  1.00  0.00     0.161 A 
BRANCH  14  18
ATOM     18  O   UNL     1      16.655  14.372  51.434  1.00  0.00    -0.504 OA
ATOM     19  H   UNL     1      16.617  13.911  52.335  1.00  0.00     0.293 HD
ENDBRANCH  14  18
BRANCH  16  20
ATOM     20  O   UNL     1      18.838  15.587  50.138  1.00  0.00    -0.502 OA
ATOM     21  H   UNL     1      18.756  14.581  50.050  1.00  0.00     0.293 HD
ENDBRANCH  16  20
BRANCH  17  22
ATOM     22  O   UNL     1      18.925  18.391  49.905  1.00  0.00    -0.504 OA
ATOM     23  H   UNL     1      18.789  18.962  49.077  1.00  0.00     0.293 HD
ENDBRANCH  17  22
ENDBRANCH   1  12
BRANCH   2  24
ATOM     24  O   UNL     1      15.618  19.099  54.485  1.00  0.00    -0.381 OA
ATOM     25  H   UNL     1      16.606  19.194  54.486  1.00  0.00     0.211 HD
ENDBRANCH   2  24
BRANCH   6  26
ATOM     26  O   UNL     1      12.075  22.883  54.164  1.00  0.00    -0.507 OA
ATOM     27  H   UNL     1      12.239  22.392  55.034  1.00  0.00     0.293 HD
ENDBRANCH   6  26
BRANCH   8  28
ATOM     28  O   UNL     1      10.457  22.413  49.639  1.00  0.00    -0.508 OA
ATOM     29  H   UNL     1       9.479  22.611  49.820  1.00  0.00     0.293 HD
ENDBRANCH   8  28
TORSDOF 7
ENDMDL
MODEL 4
REMARK VINA RESULT:     0.000      7.125     10.486
REMARK INTER + INTRA:          -0.384
REMARK INTER:                   0.000
REMARK INTRA:                  -0.384
REMARK UNBOUND:                -0.384
REMARK SMILES O=C1c2c(O)cc(O)cc2O[C@@H](c2cc(O)c(O)c(O)c2)[C@@H]1O
REMARK SMILES IDX 12 1 22 2 2 3 1 4 3 5 4 6 6 7 7 8 9 9 10 10 11 11 13 12
REMARK SMILES IDX 14 13 15 14 21 15 17 16 19 17 16 18 18 20 20 22 23 24 5 26
REMARK SMILES IDX 8 28
REMARK H PARENT 16 19 18 21 20 23 23 25 5 27 8 29
REMARK Flexibility Score: inf
ROOT
ATOM      1  C   UNL     1      11.491  23.478  48.813  1.00  0.00     0.240 C 
ATOM      2  C   UNL     1      12.048  23.874  50.199  1.00  0.00     0.231 C 
ATOM      3  C   UNL     1      12.852  22.739  50.785  1.00  0.00     0.202 C 
ATOM      4  O   UNL     1      13.816  22.992  51.558  1.00  0.00    -0.291 OA
ATOM      5  C   UNL     1      12.441  21.338  50.511  1.00  0.00     0.105 A 
ATOM      6  C   UNL     1      13.013  20.232  51.178  1.00  0.00     0.133 A 
ATOM      7  C   UNL     1      12.540  18.938  50.909  1.00  0.00     0.093 A 
ATOM      8  C   UNL     1      11.503  18.736  49.994  1.00  0.00     0.123 A 
ATOM      9  C   UNL     1      10.938  19.831  49.330  1.00  0.00     0.093 A 
ATOM     10  C   UNL     1      11.413  21.123  49.572  1.00  0.00     0.138 A 
ATOM     11  O   UNL     1      10.852  22.201  48.879  1.00  0.00    -0.481 OA
ENDROOT
BRANCH   1  12
ATOM     12  C   UNL     1      10.517  24.514  48.305  1.00  0.00     0.003 A 
ATOM     13  C   UNL     1      10.741  25.163  47.080  1.00  0.00     0.058 A 
ATOM     14  C   UNL     1       9.825  26.101  46.593  1.00  0.00     0.161 A 
ATOM     15  C   UNL     1       9.348  24.799  49.027  1.00  0.00     0.058 A 
ATOM     16  C   UNL     1       8.663  26.394  47.327  1.00  0.00     0.200 A 
ATOM     17  C   UNL     1       8.424  25.738  48.548  1.00  0.00     0.161 A 
BRANCH  14  18
ATOM     18  O   UNL     1      10.086  26.731  45.376  1.00  0.00    -0.504 OA
ATOM     19  H   UNL     1       9.878  26.294  44.487  1.00  0.00     0.293 HD
ENDBRANCH  14  18
BRANCH  16  20
ATOM     20  O   UNL     1       7.754  27.333  46.835  1.00  0.00    -0.502 OA
ATOM     21  H   UNL     1       8.025  28.284  46.618  1.00  0.00     0.293 HD
ENDBRANCH  16  20
BRANCH  17  22
ATOM     22  O   UNL     1       7.270  26.018  49.277  1.00  0.00    -0.504 OA
ATOM     23  H   UNL     1       6.358  25.697  48.972  1.00  0.00     0.293 HD
ENDBRANCH  17  22
ENDBRANCH   1  12
BRANCH   2  24
ATOM     24  O   UNL     1      12.819  25.048  50.112  1.00  0.00    -0.381 OA
ATOM     25  H   UNL     1      12.825  25.335  49.162  1.00  0.00     0.211 HD
ENDBRANCH   2  24
BRANCH   6  26
ATOM     26  O   UNL     1      14.037  20.411  52.107  1.00  0.00    -0.507 OA
ATOM     27  H   UNL     1      14.181  21.298  52.575  1.00  0.00     0.293 HD
ENDBRANCH   6  26
BRANCH   8  28
ATOM     28  O   UNL     1      11.043  17.444  49.751  1.00  0.00    -0.508 OA
ATOM     29  H   UNL     1      10.791  17.139  48.818  1.00  0.00     0.293 HD
ENDBRANCH   8  28
TORSDOF 7
ENDMDL
MODEL 5
REMARK VINA RESULT:     0.000      3.433      5.168
REMARK INTER + INTRA:          -0.384
REMARK INTER:                   0.000
REMARK INTRA:                  -0.384
REMARK UNBOUND:                -0.384
REMARK SMILES O=C1c2c(O)cc(O)cc2O[C@@H](c2cc(O)c(O)c(O)c2)[C@@H]1O
REMARK SMILES IDX 12 1 22 2 2 3 1 4 3 5 4 6 6 7 7 8 9 9 10 10 11 11 13 12
REMARK SMILES IDX 14 13 15 14 21 15 17 16 19 17 16 18 18 20 20 22 23 24 5 26
REMARK SMILES IDX 8 28
REMARK H PARENT 16 19 18 21 20 23 23 25 5 27 8 29
REMARK Flexibility Score: inf
ROOT
ATOM      1  C   UNL     1      14.246  15.040  52.515  1.00  0.00     0.240 C 
ATOM      2  C   UNL     1      14.674  15.595  51.138  1.00  0.00     0.231 C 
ATOM      3  C   UNL     1      15.435  14.547  50.364  1.00  0.00     0.202 C 
ATOM      4  O   UNL     1      15.380  14.541  49.104  1.00  0.00    -0.291 OA
ATOM      5  C   UNL     1      16.306  13.592  51.094  1.00  0.00     0.105 A 
ATOM      6  C   UNL     1      17.199  12.718  50.435  1.00  0.00     0.133 A 
ATOM      7  C   UNL     1      18.033  11.878  51.189  1.00  0.00     0.093 A 
ATOM      8  C   UNL     1      17.992  11.904  52.586  1.00  0.00     0.123 A 
ATOM      9  C   UNL     1      17.105  12.767  53.240  1.00  0.00     0.093 A 
ATOM     10  C   UNL     1      16.255  13.594  52.501  1.00  0.00     0.138 A 
ATOM     11  O   UNL     1      15.357  14.431  53.175  1.00  0.00    -0.481 OA
ENDROOT
BRANCH   1  12
ATOM     12  C   UNL     1      13.669  16.132  53.384  1.00  0.00     0.003 A 
ATOM     13  C   UNL     1      12.364  16.026  53.890  1.00  0.00     0.058 A 
ATOM     14  C   UNL     1      11.838  17.022  54.720  1.00  0.00     0.161 A 
ATOM     15  C   UNL     1      14.453  17.241  53.739  1.00  0.00     0.058 A 
ATOM     16  C   UNL     1      12.622  18.137  55.061  1.00  0.00     0.200 A 
ATOM     17  C   UNL     1      13.935  18.244  54.569  1.00  0.00     0.161 A 
BRANCH  14  18
ATOM     18  O   UNL     1      10.535  16.886  55.197  1.00  0.00    -0.504 OA
ATOM     19  H   UNL     1       9.727  17.134  54.639  1.00  0.00     0.293 HD
ENDBRANCH  14  18
BRANCH  16  20
ATOM     20  O   UNL     1      12.090  19.128  55.888  1.00  0.00    -0.502 OA
ATOM     21  H   UNL     1      11.139  19.463  55.786  1.00  0.00     0.293 HD
ENDBRANCH  16  20
BRANCH  17  22
ATOM     22  O   UNL     1      14.720  19.344  54.909  1.00  0.00    -0.504 OA
ATOM     23  H   UNL     1      15.435  19.701  54.284  1.00  0.00     0.293 HD
ENDBRANCH  17  22
ENDBRANCH   1  12
BRANCH   2  24
ATOM     24  O   UNL     1      13.557  16.051  50.412  1.00  0.00    -0.381 OA
ATOM     25  H   UNL     1      12.814  15.412  50.570  1.00  0.00     0.211 HD
ENDBRANCH   2  24
BRANCH   6  26
ATOM     26  O   UNL     1      17.268  12.686  49.043  1.00  0.00    -0.507 OA
ATOM     27  H   UNL     1      16.749  12.007  48.500  1.00  0.00     0.293 HD
ENDBRANCH   6  26
BRANCH   8  28
ATOM     28  O   UNL     1      18.836  11.069  53.314  1.00  0.00    -0.508 OA
ATOM     29  H   UNL     1      18.531  10.628  54.174  1.00  0.00     0.293 HD
ENDBRANCH   8  28
TORSDOF 7
ENDMDL
MODEL 6
REMARK VINA RESULT:     0.000      4.535      7.794
REMARK INTER + INTRA:          -0.384
REMARK INTER:                   0.000
REMARK INTRA:                  -0.384
REMARK UNBOUND:                -0.384
REMARK SMILES O=C1c2c(O)cc(O)cc2O[C@@H](c2cc(O)c(O)c(O)c2)[C@@H]1O
REMARK SMILES IDX 12 1 22 2 2 3 1 4 3 5 4 6 6 7 7 8 9 9 10 10 11 11 13 12
REMARK SMILES IDX 14 13 15 14 21 15 17 16 19 17 16 18 18 20 20 22 23 24 5 26
REMARK SMILES IDX 8 28
REMARK H PARENT 16 19 18 21 20 23 23 25 5 27 8 29
REMARK Flexibility Score: inf
ROOT
ATOM      1  C   UNL     1      11.145  20.700  54.321  1.00  0.00     0.240 C 
ATOM      2  C   UNL     1      11.110  22.005  53.496  1.00  0.00     0.231 C 
ATOM      3  C   UNL     1      10.875  23.191  54.399  1.00  0.00     0.202 C 
ATOM      4  O   UNL     1      11.354  24.316  54.089  1.00  0.00    -0.291 OA
ATOM      5  C   UNL     1      10.011  23.034  55.597  1.00  0.00     0.105 A 
ATOM      6  C   UNL     1       9.582  24.132  56.376  1.00  0.00     0.133 A 
ATOM      7  C   UNL     1       8.722  23.918  57.463  1.00  0.00     0.093 A 
ATOM      8  C   UNL     1       8.280  22.630  57.778  1.00  0.00     0.123 A 
ATOM      9  C   UNL     1       8.707  21.541  57.009  1.00  0.00     0.093 A 
ATOM     10  C   UNL     1       9.580  21.737  55.935  1.00  0.00     0.138 A 
ATOM     11  O   UNL     1      10.016  20.632  55.195  1.00  0.00    -0.481 OA
ENDROOT
BRANCH   1  12
ATOM     12  C   UNL     1      11.168  19.489  53.419  1.00  0.00     0.003 A 
ATOM     13  C   UNL     1      12.219  18.560  53.500  1.00  0.00     0.058 A 
ATOM     14  C   UNL     1      12.228  17.423  52.686  1.00  0.00     0.161 A 
ATOM     15  C   UNL     1      10.111  19.251  52.527  1.00  0.00     0.058 A 
ATOM     16  C   UNL     1      11.175  17.196  51.784  1.00  0.00     0.200 A 
ATOM     17  C   UNL     1      10.112  18.114  51.707  1.00  0.00     0.161 A 
BRANCH  14  18
ATOM     18  O   UNL     1      13.293  16.527  52.789  1.00  0.00    -0.504 OA
ATOM     19  H   UNL     1      13.390  15.731  52.170  1.00  0.00     0.293 HD
ENDBRANCH  14  18
BRANCH  16  20
ATOM     20  O   UNL     1      11.192  16.059  50.974  1.00  0.00    -0.502 OA
ATOM     21  H   UNL     1      10.545  15.935  50.205  1.00  0.00     0.293 HD
ENDBRANCH  16  20
BRANCH  17  22
ATOM     22  O   UNL     1       9.061  17.892  50.820  1.00  0.00    -0.504 OA
ATOM     23  H   UNL     1       8.262  17.320  51.075  1.00  0.00     0.293 HD
ENDBRANCH  17  22
ENDBRANCH   1  12
BRANCH   2  24
ATOM     24  O   UNL     1      12.296  22.160  52.753  1.00  0.00    -0.381 OA
ATOM     25  H   UNL     1      12.267  21.512  52.002  1.00  0.00     0.211 HD
ENDBRANCH   2  24
BRANCH   6  26
ATOM     26  O   UNL     1       9.997  25.428  56.071  1.00  0.00    -0.507 OA
ATOM     27  H   UNL     1      10.696  25.907  56.626  1.00  0.00     0.293 HD
ENDBRANCH   6  26
BRANCH   8  28
ATOM     28  O   UNL     1       7.418  22.442  58.855  1.00  0.00    -0.508 OA
ATOM     29  H   UNL     1       6.412  22.431  58.734  1.00  0.00     0.293 HD
ENDBRANCH   8  28
TORSDOF 7
ENDMDL
MODEL 7
REMARK VINA RESULT:     0.000      6.758      9.089
REMARK INTER + INTRA:          -0.384
REMARK INTER:                   0.000
REMARK INTRA:                  -0.384
REMARK UNBOUND:                -0.384
REMARK SMILES O=C1c2c(O)cc(O)cc2O[C@@H](c2cc(O)c(O)c(O)c2)[C@@H]1O
REMARK SMILES IDX 12 1 22 2 2 3 1 4 3 5 4 6 6 7 7 8 9 9 10 10 11 11 13 12
REMARK SMILES IDX 14 13 15 14 21 15 17 16 19 17 16 18 18 20 20 22 23 24 5 26
REMARK SMILES IDX 8 28
REMARK H PARENT 16 19 18 21 20 23 23 25 5 27 8 29
REMARK Flexibility Score: inf
ROOT
ATOM      1  C   UNL     1      11.610  20.607  48.793  1.00  0.00     0.240 C 
ATOM      2  C   UNL     1      12.310  20.413  50.155  1.00  0.00     0.231 C 
ATOM      3  C   UNL     1      12.929  21.710  50.617  1.00  0.00     0.202 C 
ATOM      4  O   UNL     1      13.031  21.948  51.852  1.00  0.00    -0.291 OA
ATOM      5  C   UNL     1      13.486  22.650  49.611  1.00  0.00     0.105 A 
ATOM      6  C   UNL     1      14.254  23.780  49.968  1.00  0.00     0.133 A 
ATOM      7  C   UNL     1      14.796  24.597  48.964  1.00  0.00     0.093 A 
ATOM      8  C   UNL     1      14.589  24.297  47.615  1.00  0.00     0.123 A 
ATOM      9  C   UNL     1      13.826  23.179  47.260  1.00  0.00     0.093 A 
ATOM     10  C   UNL     1      13.263  22.369  48.249  1.00  0.00     0.138 A 
ATOM     11  O   UNL     1      12.481  21.270  47.873  1.00  0.00    -0.481 OA
ENDROOT
BRANCH   1  12
ATOM     12  C   UNL     1      11.168  19.283  48.217  1.00  0.00     0.003 A 
ATOM     13  C   UNL     1       9.816  19.052  47.914  1.00  0.00     0.058 A 
ATOM     14  C   UNL     1       9.410  17.838  47.353  1.00  0.00     0.161 A 
ATOM     15  C   UNL     1      12.114  18.288  47.927  1.00  0.00     0.058 A 
ATOM     16  C   UNL     1      10.359  16.838  47.078  1.00  0.00     0.200 A 
ATOM     17  C   UNL     1      11.716  17.067  47.366  1.00  0.00     0.161 A 
BRANCH  14  18
ATOM     18  O   UNL     1       8.057  17.642  47.073  1.00  0.00    -0.504 OA
ATOM     19  H   UNL     1       7.398  17.338  47.780  1.00  0.00     0.293 HD
ENDBRANCH  14  18
BRANCH  16  20
ATOM     20  O   UNL     1       9.944  15.628  46.520  1.00  0.00    -0.502 OA
ATOM     21  H   UNL     1       9.124  15.559  45.928  1.00  0.00     0.293 HD
ENDBRANCH  16  20
BRANCH  17  22
ATOM     22  O   UNL     1      12.663  16.083  47.089  1.00  0.00    -0.504 OA
ATOM     23  H   UNL     1      13.380  16.218  46.384  1.00  0.00     0.293 HD
ENDBRANCH  17  22
ENDBRANCH   1  12
BRANCH   2  24
ATOM     24  O   UNL     1      11.411  19.911  51.114  1.00  0.00    -0.381 OA
ATOM     25  H   UNL     1      11.794  20.095  52.012  1.00  0.00     0.211 HD
ENDBRANCH   2  24
BRANCH   6  26
ATOM     26  O   UNL     1      14.487  24.090  51.307  1.00  0.00    -0.507 OA
ATOM     27  H   UNL     1      15.096  24.853  51.578  1.00  0.00     0.293 HD
ENDBRANCH   6  26
BRANCH   8  28
ATOM     28  O   UNL     1      15.145  25.116  46.635  1.00  0.00    -0.508 OA
ATOM     29  H   UNL     1      15.275  24.791  45.684  1.00  0.00     0.293 HD
ENDBRANCH   8  28
TORSDOF 7
ENDMDL
MODEL 8
REMARK VINA RESULT:     0.000      7.155      8.805
REMARK INTER + INTRA:          -0.384
REMARK INTER:                   0.000
REMARK INTRA:                  -0.384
REMARK UNBOUND:                -0.384
REMARK SMILES O=C1c2c(O)cc(O)cc2O[C@@H](c2cc(O)c(O)c(O)c2)[C@@H]1O
REMARK SMILES IDX 12 1 22 2 2 3 1 4 3 5 4 6 6 7 7 8 9 9 10 10 11 11 13 12
REMARK SMILES IDX 14 13 15 14 21 15 17 16 19 17 16 18 18 20 20 22 23 24 5 26
REMARK SMILES IDX 8 28
REMARK H PARENT 16 19 18 21 20 23 23 25 5 27 8 29
REMARK Flexibility Score: inf
ROOT
ATOM      1  C   UNL     1       9.821  12.248  48.890  1.00  0.00     0.240 C 
ATOM      2  C   UNL     1       9.196  11.018  48.196  1.00  0.00     0.231 C 
ATOM      3  C   UNL     1      10.128  10.485  47.134  1.00  0.00     0.202 C 
ATOM      4  O   UNL     1      10.122   9.254  46.862  1.00  0.00    -0.291 OA
ATOM      5  C   UNL     1      10.975  11.432  46.367  1.00  0.00     0.105 A 
ATOM      6  C   UNL     1      11.718  11.042  45.231  1.00  0.00     0.133 A 
ATOM      7  C   UNL     1      12.456  12.001  44.520  1.00  0.00     0.093 A 
ATOM      8  C   UNL     1      12.456  13.339  44.921  1.00  0.00     0.123 A 
ATOM      9  C   UNL     1      11.722  13.727  46.049  1.00  0.00     0.093 A 
ATOM     10  C   UNL     1      10.999  12.779  46.778  1.00  0.00     0.138 A 
ATOM     11  O   UNL     1      10.294  13.183  47.918  1.00  0.00    -0.481 OA
ENDROOT
BRANCH   1  12
ATOM     12  C   UNL     1       8.824  12.919  49.804  1.00  0.00     0.003 A 
ATOM     13  C   UNL     1       9.103  13.075  51.172  1.00  0.00     0.058 A 
ATOM     14  C   UNL     1       8.195  13.722  52.015  1.00  0.00     0.161 A 
ATOM     15  C   UNL     1       7.631  13.443  49.285  1.00  0.00     0.058 A 
ATOM     16  C   UNL     1       6.994  14.232  51.494  1.00  0.00     0.200 A 
ATOM     17  C   UNL     1       6.713  14.093  50.123  1.00  0.00     0.161 A 
BRANCH  14  18
ATOM     18  O   UNL     1       8.503  13.851  53.370  1.00  0.00    -0.504 OA
ATOM     19  H   UNL     1       8.532  13.054  53.994  1.00  0.00     0.293 HD
ENDBRANCH  14  18
BRANCH  16  20
ATOM     20  O   UNL     1       6.091  14.876  52.342  1.00  0.00    -0.502 OA
ATOM     21  H   UNL     1       5.164  15.149  52.037  1.00  0.00     0.293 HD
ENDBRANCH  16  20
BRANCH  17  22
ATOM     22  O   UNL     1       5.527  14.603  49.598  1.00  0.00    -0.504 OA
ATOM     23  H   UNL     1       4.929  14.045  48.997  1.00  0.00     0.293 HD
ENDBRANCH  17  22
ENDBRANCH   1  12
BRANCH   2  24
ATOM     24  O   UNL     1       8.876  10.021  49.136  1.00  0.00    -0.381 OA
ATOM     25  H   UNL     1       8.000   9.633  48.877  1.00  0.00     0.211 HD
ENDBRANCH   2  24
BRANCH   6  26
ATOM     26  O   UNL     1      11.720   9.715  44.802  1.00  0.00    -0.507 OA
ATOM     27  H   UNL     1      12.334   9.023  45.217  1.00  0.00     0.293 HD
ENDBRANCH   6  26
BRANCH   8  28
ATOM     28  O   UNL     1      13.187  14.276  44.195  1.00  0.00    -0.508 OA
ATOM     29  H   UNL     1      13.729  14.998  44.655  1.00  0.00     0.293 HD
ENDBRANCH   8  28
TORSDOF 7
ENDMDL
MODEL 9
REMARK VINA RESULT:     0.000      5.543      6.694
REMARK INTER + INTRA:          -0.384
REMARK INTER:                   0.000
REMARK INTRA:                  -0.384
REMARK UNBOUND:                -0.384
REMARK SMILES O=C1c2c(O)cc(O)cc2O[C@@H](c2cc(O)c(O)c(O)c2)[C@@H]1O
REMARK SMILES IDX 12 1 22 2 2 3 1 4 3 5 4 6 6 7 7 8 9 9 10 10 11 11 13 12
REMARK SMILES IDX 14 13 15 14 21 15 17 16 19 17 16 18 18 20 20 22 23 24 5 26
REMARK SMILES IDX 8 28
REMARK H PARENT 16 19 18 21 20 23 23 25 5 27 8 29
REMARK Flexibility Score: inf
ROOT
ATOM      1  C   UNL     1       9.086  22.597  56.816  1.00  0.00     0.240 C 
ATOM      2  C   UNL     1      10.210  23.546  57.287  1.00  0.00     0.231 C 
ATOM      3  C   UNL     1      11.203  23.776  56.174  1.00  0.00     0.202 C 
ATOM      4  O   UNL     1      11.824  24.872  56.110  1.00  0.00    -0.291 OA
ATOM      5  C   UNL     1      11.497  22.676  55.221  1.00  0.00     0.105 A 
ATOM      6  C   UNL     1      12.551  22.742  54.283  1.00  0.00     0.133 A 
ATOM      7  C   UNL     1      12.807  21.644  53.448  1.00  0.00     0.093 A 
ATOM      8  C   UNL     1      12.035  20.483  53.543  1.00  0.00     0.123 A 
ATOM      9  C   UNL     1      10.989  20.418  54.470  1.00  0.00     0.093 A 
ATOM     10  C   UNL     1      10.709  21.511  55.293  1.00  0.00     0.138 A 
ATOM     11  O   UNL     1       9.641  21.435  56.196  1.00  0.00    -0.481 OA
ENDROOT
BRANCH   1  12
ATOM     12  C   UNL     1       8.202  22.189  57.970  1.00  0.00     0.003 A 
ATOM     13  C   UNL     1       6.823  22.452  57.940  1.00  0.00     0.058 A 
ATOM     14  C   UNL     1       5.998  22.049  58.994  1.00  0.00     0.161 A 
ATOM     15  C   UNL     1       8.743  21.494  59.063  1.00  0.00     0.058 A 
ATOM     16  C   UNL     1       6.546  21.365  60.093  1.00  0.00     0.200 A 
ATOM     17  C   UNL     1       7.923  21.086  60.125  1.00  0.00     0.161 A 
BRANCH  14  18
ATOM     18  O   UNL     1       4.634  22.335  58.932  1.00  0.00    -0.504 OA
ATOM     19  H   UNL     1       4.231  23.145  59.387  1.00  0.00     0.293 HD
ENDBRANCH  14  18
BRANCH  16  20
ATOM     20  O   UNL     1       5.715  20.968  61.143  1.00  0.00    -0.502 OA
ATOM     21  H   UNL     1       5.867  21.273  62.097  1.00  0.00     0.293 HD
ENDBRANCH  16  20
BRANCH  17  22
ATOM     22  O   UNL     1       8.472  20.403  61.208  1.00  0.00    -0.504 OA
ATOM     23  H   UNL     1       7.893  20.046  61.960  1.00  0.00     0.293 HD
ENDBRANCH  17  22
ENDBRANCH   1  12
BRANCH   2  24
ATOM     24  O   UNL     1       9.677  24.763  57.750  1.00  0.00    -0.381 OA
ATOM     25  H   UNL     1       9.121  25.145  57.022  1.00  0.00     0.211 HD
ENDBRANCH   2  24
BRANCH   6  26
ATOM     26  O   UNL     1      13.345  23.884  54.181  1.00  0.00    -0.507 OA
ATOM     27  H   UNL     1      14.285  23.913  54.559  1.00  0.00     0.293 HD
ENDBRANCH   6  26
BRANCH   8  28
ATOM     28  O   UNL     1      12.314  19.401  52.711  1.00  0.00    -0.508 OA
ATOM     29  H   UNL     1      11.595  18.739  52.443  1.00  0.00     0.293 HD
ENDBRANCH   8  28
TORSDOF 7
ENDMDL
