MODEL 1
REMARK VINA RESULT:    -6.101      0.000      0.000
REMARK INTER + INTRA:         -10.642
REMARK INTER:                  -9.311
REMARK INTRA:                  -1.332
REMARK UNBOUND:                -1.332
REMARK SMILES CC(=O)CCC=C(C)CCC=C(C)CCC=C(C)C
REMARK SMILES IDX 10 1 11 2 12 3 13 4 14 5 15 6 16 7 18 8 17 9 19 10 9 11 7 12
REMARK SMILES IDX 6 13 8 14 5 15 4 16 2 17 3 18 1 19
REMARK H PARENT
REMARK Flexibility Score: inf
ROOT
ATOM      1  C   UNL     1      35.162   9.908 106.483  1.00  0.00     0.032 C 
ENDROOT
BRANCH   1   2
ATOM      2  C   UNL     1      35.707  11.257 106.895  1.00  0.00    -0.028 C 
ATOM      3  C   UNL     1      35.680  12.386 106.149  1.00  0.00    -0.077 C 
ATOM      4  C   UNL     1      36.309  13.629 106.728  1.00  0.00     0.039 C 
BRANCH   3   5
ATOM      5  C   UNL     1      35.045  12.464 104.775  1.00  0.00     0.034 C 
BRANCH   5   6
ATOM      6  C   UNL     1      33.673  13.146 104.832  1.00  0.00     0.032 C 
BRANCH   6   7
ATOM      7  C   UNL     1      32.576  12.124 104.990  1.00  0.00    -0.028 C 
ATOM      8  C   UNL     1      30.765  13.851 105.111  1.00  0.00     0.039 C 
ATOM      9  C   UNL     1      31.267  12.426 105.142  1.00  0.00    -0.080 C 
ATOM     10  C   UNL     1      30.287  11.297 105.332  1.00  0.00     0.039 C 
ENDBRANCH   6   7
ENDBRANCH   5   6
ENDBRANCH   3   5
ENDBRANCH   1   2
BRANCH   1  11
ATOM     11  C   UNL     1      34.841   9.040 107.709  1.00  0.00     0.034 C 
BRANCH  11  12
ATOM     12  C   UNL     1      33.485   8.372 107.597  1.00  0.00    -0.077 C 
ATOM     13  C   UNL     1      33.131   7.439 108.507  1.00  0.00    -0.028 C 
ATOM     14  C   UNL     1      32.553   8.773 106.479  1.00  0.00     0.039 C 
BRANCH  13  15
ATOM     15  C   UNL     1      31.802   6.718 108.477  1.00  0.00     0.035 C 
BRANCH  15  16
ATOM     16  C   UNL     1      31.972   5.194 108.479  1.00  0.00     0.079 C 
BRANCH  16  17
ATOM     17  C   UNL     1      32.219   4.658 107.090  1.00  0.00     0.130 C 
ATOM     18  O   UNL     1      31.456   4.958 106.185  1.00  0.00    -0.300 OA
ATOM     19  C   UNL     1      33.392   3.771 106.793  1.00  0.00     0.087 C 
ENDBRANCH  16  17
ENDBRANCH  15  16
ENDBRANCH  13  15
ENDBRANCH  11  12
ENDBRANCH   1  11
TORSDOF 9
ENDMDL
MODEL 2
REMARK VINA RESULT:    -5.963      1.857      4.010
REMARK INTER + INTRA:         -10.432
REMARK INTER:                  -9.224
REMARK INTRA:                  -1.208
REMARK UNBOUND:                -1.332
REMARK SMILES CC(=O)CCC=C(C)CCC=C(C)CCC=C(C)C
REMARK SMILES IDX 10 1 11 2 12 3 13 4 14 5 15 6 16 7 18 8 17 9 19 10 9 11 7 12
REMARK SMILES IDX 6 13 8 14 5 15 4 16 2 17 3 18 1 19
REMARK H PARENT
REMARK Flexibility Score: inf
ROOT
ATOM      1  C   UNL     1      33.601   9.984 105.520  1.00  0.00     0.032 C 
ENDROOT
BRANCH   1   2
ATOM      2  C   UNL     1      33.926  11.421 105.178  1.00  0.00    -0.028 C 
ATOM      3  C   UNL     1      34.751  12.236 105.876  1.00  0.00    -0.077 C 
ATOM      4  C   UNL     1      34.919  13.654 105.389  1.00  0.00     0.039 C 
BRANCH   3   5
ATOM      5  C   UNL     1      35.515  11.794 107.109  1.00  0.00     0.034 C 
BRANCH   5   6
ATOM      6  C   UNL     1      36.854  12.531 107.229  1.00  0.00     0.032 C 
BRANCH   6   7
ATOM      7  C   UNL     1      37.936  11.797 106.479  1.00  0.00    -0.028 C 
ATOM      8  C   UNL     1      38.591  13.805 105.134  1.00  0.00     0.039 C 
ATOM      9  C   UNL     1      38.709  12.348 105.517  1.00  0.00    -0.080 C 
ATOM     10  C   UNL     1      39.724  11.476 104.823  1.00  0.00     0.039 C 
ENDBRANCH   6   7
ENDBRANCH   5   6
ENDBRANCH   3   5
ENDBRANCH   1   2
BRANCH   1  11
ATOM     11  C   UNL     1      32.117   9.676 105.275  1.00  0.00     0.034 C 
BRANCH  11  12
ATOM     12  C   UNL     1      31.656   8.447 106.033  1.00  0.00    -0.077 C 
ATOM     13  C   UNL     1      32.136   8.217 107.275  1.00  0.00    -0.028 C 
ATOM     14  C   UNL     1      30.659   7.513 105.391  1.00  0.00     0.039 C 
BRANCH  13  15
ATOM     15  C   UNL     1      31.736   7.021 108.107  1.00  0.00     0.035 C 
BRANCH  15  16
ATOM     16  C   UNL     1      32.860   5.981 108.199  1.00  0.00     0.079 C 
BRANCH  16  17
ATOM     17  C   UNL     1      32.556   4.757 107.371  1.00  0.00     0.130 C 
ATOM     18  O   UNL     1      31.414   4.555 106.991  1.00  0.00    -0.300 OA
ATOM     19  C   UNL     1      33.634   3.783 106.995  1.00  0.00     0.087 C 
ENDBRANCH  16  17
ENDBRANCH  15  16
ENDBRANCH  13  15
ENDBRANCH  11  12
ENDBRANCH   1  11
TORSDOF 9
ENDMDL
MODEL 3
REMARK VINA RESULT:    -5.793      3.586      7.678
REMARK INTER + INTRA:         -10.172
REMARK INTER:                  -8.890
REMARK INTRA:                  -1.283
REMARK UNBOUND:                -1.332
REMARK SMILES CC(=O)CCC=C(C)CCC=C(C)CCC=C(C)C
REMARK SMILES IDX 10 1 11 2 12 3 13 4 14 5 15 6 16 7 18 8 17 9 19 10 9 11 7 12
REMARK SMILES IDX 6 13 8 14 5 15 4 16 2 17 3 18 1 19
REMARK H PARENT
REMARK Flexibility Score: inf
ROOT
ATOM      1  C   UNL     1      35.493   9.699 107.003  1.00  0.00     0.032 C 
ENDROOT
BRANCH   1   2
ATOM      2  C   UNL     1      34.129   9.509 106.378  1.00  0.00    -0.028 C 
ATOM      3  C   UNL     1      33.087   8.845 106.931  1.00  0.00    -0.077 C 
ATOM      4  C   UNL     1      31.814   8.737 106.130  1.00  0.00     0.039 C 
BRANCH   3   5
ATOM      5  C   UNL     1      33.135   8.217 108.310  1.00  0.00     0.034 C 
BRANCH   5   6
ATOM      6  C   UNL     1      32.200   7.006 108.403  1.00  0.00     0.032 C 
BRANCH   6   7
ATOM      7  C   UNL     1      32.948   5.730 108.113  1.00  0.00    -0.028 C 
ATOM      8  C   UNL     1      31.394   5.047 106.271  1.00  0.00     0.039 C 
ATOM      9  C   UNL     1      32.584   4.826 107.176  1.00  0.00    -0.080 C 
ATOM     10  C   UNL     1      33.408   3.573 107.028  1.00  0.00     0.039 C 
ENDBRANCH   6   7
ENDBRANCH   5   6
ENDBRANCH   3   5
ENDBRANCH   1   2
BRANCH   1  11
ATOM     11  C   UNL     1      35.629  11.097 107.624  1.00  0.00     0.034 C 
BRANCH  11  12
ATOM     12  C   UNL     1      36.658  11.944 106.903  1.00  0.00    -0.077 C 
ATOM     13  C   UNL     1      37.318  11.425 105.844  1.00  0.00    -0.028 C 
ATOM     14  C   UNL     1      36.915  13.356 107.373  1.00  0.00     0.039 C 
BRANCH  13  15
ATOM     15  C   UNL     1      38.360  12.192 105.064  1.00  0.00     0.035 C 
BRANCH  15  16
ATOM     16  C   UNL     1      39.747  11.544 105.162  1.00  0.00     0.079 C 
BRANCH  16  17
ATOM     17  C   UNL     1      40.513  12.045 106.361  1.00  0.00     0.130 C 
ATOM     18  O   UNL     1      40.466  13.229 106.654  1.00  0.00    -0.300 OA
ATOM     19  C   UNL     1      41.325  11.114 107.213  1.00  0.00     0.087 C 
ENDBRANCH  16  17
ENDBRANCH  15  16
ENDBRANCH  13  15
ENDBRANCH  11  12
ENDBRANCH   1  11
TORSDOF 9
ENDMDL
MODEL 4
REMARK VINA RESULT:    -5.710      1.244      2.348
REMARK INTER + INTRA:         -10.046
REMARK INTER:                  -8.291
REMARK INTRA:                  -1.755
REMARK UNBOUND:                -1.332
REMARK SMILES CC(=O)CCC=C(C)CCC=C(C)CCC=C(C)C
REMARK SMILES IDX 10 1 11 2 12 3 13 4 14 5 15 6 16 7 18 8 17 9 19 10 9 11 7 12
REMARK SMILES IDX 6 13 8 14 5 15 4 16 2 17 3 18 1 19
REMARK H PARENT
REMARK Flexibility Score: inf
ROOT
ATOM      1  C   UNL     1      35.077   9.626 106.509  1.00  0.00     0.032 C 
ENDROOT
BRANCH   1   2
ATOM      2  C   UNL     1      36.246   9.979 105.616  1.00  0.00    -0.028 C 
ATOM      3  C   UNL     1      37.031  11.076 105.732  1.00  0.00    -0.077 C 
ATOM      4  C   UNL     1      38.130  11.267 104.718  1.00  0.00     0.039 C 
BRANCH   3   5
ATOM      5  C   UNL     1      36.864  12.109 106.829  1.00  0.00     0.034 C 
BRANCH   5   6
ATOM      6  C   UNL     1      36.413  13.459 106.259  1.00  0.00     0.032 C 
BRANCH   6   7
ATOM      7  C   UNL     1      34.921  13.475 106.042  1.00  0.00    -0.028 C 
ATOM      8  C   UNL     1      35.119  13.276 103.554  1.00  0.00     0.039 C 
ATOM      9  C   UNL     1      34.324  13.420 104.831  1.00  0.00    -0.080 C 
ATOM     10  C   UNL     1      32.820  13.488 104.767  1.00  0.00     0.039 C 
ENDBRANCH   6   7
ENDBRANCH   5   6
ENDBRANCH   3   5
ENDBRANCH   1   2
BRANCH   1  11
ATOM     11  C   UNL     1      33.741   9.988 105.845  1.00  0.00     0.034 C 
BRANCH  11  12
ATOM     12  C   UNL     1      32.628   9.041 106.247  1.00  0.00    -0.077 C 
ATOM     13  C   UNL     1      32.816   8.207 107.294  1.00  0.00    -0.028 C 
ATOM     14  C   UNL     1      31.328   9.059 105.480  1.00  0.00     0.039 C 
BRANCH  13  15
ATOM     15  C   UNL     1      31.766   7.228 107.768  1.00  0.00     0.035 C 
BRANCH  15  16
ATOM     16  C   UNL     1      32.384   5.912 108.257  1.00  0.00     0.079 C 
BRANCH  16  17
ATOM     17  C   UNL     1      32.318   4.838 107.201  1.00  0.00     0.130 C 
ATOM     18  O   UNL     1      31.338   4.766 106.476  1.00  0.00    -0.300 OA
ATOM     19  C   UNL     1      33.438   3.859 107.013  1.00  0.00     0.087 C 
ENDBRANCH  16  17
ENDBRANCH  15  16
ENDBRANCH  13  15
ENDBRANCH  11  12
ENDBRANCH   1  11
TORSDOF 9
ENDMDL
MODEL 5
REMARK VINA RESULT:    -5.680      2.778      4.986
REMARK INTER + INTRA:         -10.000
REMARK INTER:                  -9.191
REMARK INTRA:                  -0.809
REMARK UNBOUND:                -1.332
REMARK SMILES CC(=O)CCC=C(C)CCC=C(C)CCC=C(C)C
REMARK SMILES IDX 10 1 11 2 12 3 13 4 14 5 15 6 16 7 18 8 17 9 19 10 9 11 7 12
REMARK SMILES IDX 6 13 8 14 5 15 4 16 2 17 3 18 1 19
REMARK H PARENT
REMARK Flexibility Score: inf
ROOT
ATOM      1  C   UNL     1      35.267  10.380 106.198  1.00  0.00     0.032 C 
ENDROOT
BRANCH   1   2
ATOM      2  C   UNL     1      35.589  11.718 106.825  1.00  0.00    -0.028 C 
ATOM      3  C   UNL     1      36.769  12.375 106.734  1.00  0.00    -0.077 C 
ATOM      4  C   UNL     1      36.903  13.689 107.462  1.00  0.00     0.039 C 
BRANCH   3   5
ATOM      5  C   UNL     1      37.950  11.863 105.933  1.00  0.00     0.034 C 
BRANCH   5   6
ATOM      6  C   UNL     1      39.195  12.729 106.160  1.00  0.00     0.032 C 
BRANCH   6   7
ATOM      7  C   UNL     1      40.317  11.909 106.743  1.00  0.00    -0.028 C 
ATOM      8  C   UNL     1      41.161  11.175 104.501  1.00  0.00     0.039 C 
ATOM      9  C   UNL     1      41.194  11.184 106.012  1.00  0.00    -0.080 C 
ATOM     10  C   UNL     1      42.240  10.377 106.738  1.00  0.00     0.039 C 
ENDBRANCH   6   7
ENDBRANCH   5   6
ENDBRANCH   3   5
ENDBRANCH   1   2
BRANCH   1  11
ATOM     11  C   UNL     1      35.055   9.301 107.269  1.00  0.00     0.034 C 
BRANCH  11  12
ATOM     12  C   UNL     1      33.674   8.682 107.190  1.00  0.00    -0.077 C 
ATOM     13  C   UNL     1      33.331   7.715 108.070  1.00  0.00    -0.028 C 
ATOM     14  C   UNL     1      32.705   9.166 106.139  1.00  0.00     0.039 C 
BRANCH  13  15
ATOM     15  C   UNL     1      31.980   7.039 108.069  1.00  0.00     0.035 C 
BRANCH  15  16
ATOM     16  C   UNL     1      32.087   5.535 108.350  1.00  0.00     0.079 C 
BRANCH  16  17
ATOM     17  C   UNL     1      32.298   4.744 107.083  1.00  0.00     0.130 C 
ATOM     18  O   UNL     1      31.516   4.876 106.154  1.00  0.00    -0.300 OA
ATOM     19  C   UNL     1      33.457   3.803 106.934  1.00  0.00     0.087 C 
ENDBRANCH  16  17
ENDBRANCH  15  16
ENDBRANCH  13  15
ENDBRANCH  11  12
ENDBRANCH   1  11
TORSDOF 9
ENDMDL
MODEL 6
REMARK VINA RESULT:    -5.525      2.458      7.321
REMARK INTER + INTRA:          -9.764
REMARK INTER:                  -9.206
REMARK INTRA:                  -0.558
REMARK UNBOUND:                -1.332
REMARK SMILES CC(=O)CCC=C(C)CCC=C(C)CCC=C(C)C
REMARK SMILES IDX 10 1 11 2 12 3 13 4 14 5 15 6 16 7 18 8 17 9 19 10 9 11 7 12
REMARK SMILES IDX 6 13 8 14 5 15 4 16 2 17 3 18 1 19
REMARK H PARENT
REMARK Flexibility Score: inf
ROOT
ATOM      1  C   UNL     1      31.101  10.186 105.726  1.00  0.00     0.032 C 
ENDROOT
BRANCH   1   2
ATOM      2  C   UNL     1      30.676   9.071 104.797  1.00  0.00    -0.028 C 
ATOM      3  C   UNL     1      30.695   7.748 105.083  1.00  0.00    -0.077 C 
ATOM      4  C   UNL     1      30.261   6.786 104.005  1.00  0.00     0.039 C 
BRANCH   3   5
ATOM      5  C   UNL     1      31.120   7.191 106.427  1.00  0.00     0.034 C 
BRANCH   5   6
ATOM      6  C   UNL     1      30.626   5.752 106.616  1.00  0.00     0.032 C 
BRANCH   6   7
ATOM      7  C   UNL     1      31.775   4.778 106.547  1.00  0.00    -0.028 C 
ATOM      8  C   UNL     1      32.960   5.790 108.507  1.00  0.00     0.039 C 
ATOM      9  C   UNL     1      32.844   4.798 107.373  1.00  0.00    -0.080 C 
ATOM     10  C   UNL     1      33.939   3.785 107.156  1.00  0.00     0.039 C 
ENDBRANCH   6   7
ENDBRANCH   5   6
ENDBRANCH   3   5
ENDBRANCH   1   2
BRANCH   1  11
ATOM     11  C   UNL     1      30.560  11.542 105.250  1.00  0.00     0.034 C 
BRANCH  11  12
ATOM     12  C   UNL     1      31.663  12.567 105.077  1.00  0.00    -0.077 C 
ATOM     13  C   UNL     1      32.948  12.153 105.018  1.00  0.00    -0.028 C 
ATOM     14  C   UNL     1      31.302  14.029 104.961  1.00  0.00     0.039 C 
BRANCH  13  15
ATOM     15  C   UNL     1      34.114  13.100 104.849  1.00  0.00     0.035 C 
BRANCH  15  16
ATOM     16  C   UNL     1      35.459  12.363 104.847  1.00  0.00     0.079 C 
BRANCH  16  17
ATOM     17  C   UNL     1      35.670  11.584 106.121  1.00  0.00     0.130 C 
ATOM     18  O   UNL     1      35.798  12.182 107.178  1.00  0.00    -0.300 OA
ATOM     19  C   UNL     1      35.717  10.085 106.120  1.00  0.00     0.087 C 
ENDBRANCH  16  17
ENDBRANCH  15  16
ENDBRANCH  13  15
ENDBRANCH  11  12
ENDBRANCH   1  11
TORSDOF 9
ENDMDL
MODEL 7
REMARK VINA RESULT:    -5.518      3.525      7.666
REMARK INTER + INTRA:          -9.753
REMARK INTER:                  -8.825
REMARK INTRA:                  -0.929
REMARK UNBOUND:                -1.332
REMARK SMILES CC(=O)CCC=C(C)CCC=C(C)CCC=C(C)C
REMARK SMILES IDX 10 1 11 2 12 3 13 4 14 5 15 6 16 7 18 8 17 9 19 10 9 11 7 12
REMARK SMILES IDX 6 13 8 14 5 15 4 16 2 17 3 18 1 19
REMARK H PARENT
REMARK Flexibility Score: inf
ROOT
ATOM      1  C   UNL     1      34.441  10.177 105.885  1.00  0.00     0.032 C 
ENDROOT
BRANCH   1   2
ATOM      2  C   UNL     1      33.081   9.645 105.491  1.00  0.00    -0.028 C 
ATOM      3  C   UNL     1      32.309   8.815 106.230  1.00  0.00    -0.077 C 
ATOM      4  C   UNL     1      30.993   8.367 105.644  1.00  0.00     0.039 C 
BRANCH   3   5
ATOM      5  C   UNL     1      32.695   8.323 107.611  1.00  0.00     0.034 C 
BRANCH   5   6
ATOM      6  C   UNL     1      31.855   7.109 108.026  1.00  0.00     0.032 C 
BRANCH   6   7
ATOM      7  C   UNL     1      32.680   5.849 107.982  1.00  0.00    -0.028 C 
ATOM      8  C   UNL     1      31.441   4.914 106.017  1.00  0.00     0.039 C 
ATOM      9  C   UNL     1      32.490   4.841 107.102  1.00  0.00    -0.080 C 
ATOM     10  C   UNL     1      33.368   3.620 107.207  1.00  0.00     0.039 C 
ENDBRANCH   6   7
ENDBRANCH   5   6
ENDBRANCH   3   5
ENDBRANCH   1   2
BRANCH   1  11
ATOM     11  C   UNL     1      34.576  11.667 105.539  1.00  0.00     0.034 C 
BRANCH  11  12
ATOM     12  C   UNL     1      35.928  11.994 104.937  1.00  0.00    -0.077 C 
ATOM     13  C   UNL     1      36.995  11.228 105.254  1.00  0.00    -0.028 C 
ATOM     14  C   UNL     1      36.052  13.159 103.985  1.00  0.00     0.039 C 
BRANCH  13  15
ATOM     15  C   UNL     1      38.381  11.475 104.705  1.00  0.00     0.035 C 
BRANCH  15  16
ATOM     16  C   UNL     1      39.327  12.051 105.767  1.00  0.00     0.079 C 
BRANCH  16  17
ATOM     17  C   UNL     1      40.694  11.417 105.698  1.00  0.00     0.130 C 
ATOM     18  O   UNL     1      41.191  11.174 104.610  1.00  0.00    -0.300 OA
ATOM     19  C   UNL     1      41.464  11.086 106.943  1.00  0.00     0.087 C 
ENDBRANCH  16  17
ENDBRANCH  15  16
ENDBRANCH  13  15
ENDBRANCH  11  12
ENDBRANCH   1  11
TORSDOF 9
ENDMDL
MODEL 8
REMARK VINA RESULT:    -5.319      1.789      3.516
REMARK INTER + INTRA:          -9.450
REMARK INTER:                  -8.151
REMARK INTRA:                  -1.298
REMARK UNBOUND:                -1.332
REMARK SMILES CC(=O)CCC=C(C)CCC=C(C)CCC=C(C)C
REMARK SMILES IDX 10 1 11 2 12 3 13 4 14 5 15 6 16 7 18 8 17 9 19 10 9 11 7 12
REMARK SMILES IDX 6 13 8 14 5 15 4 16 2 17 3 18 1 19
REMARK H PARENT
REMARK Flexibility Score: inf
ROOT
ATOM      1  C   UNL     1      34.472  10.386 105.836  1.00  0.00     0.032 C 
ENDROOT
BRANCH   1   2
ATOM      2  C   UNL     1      35.028  11.707 106.320  1.00  0.00    -0.028 C 
ATOM      3  C   UNL     1      35.163  12.831 105.578  1.00  0.00    -0.077 C 
ATOM      4  C   UNL     1      35.773  14.042 106.238  1.00  0.00     0.039 C 
BRANCH   3   5
ATOM      5  C   UNL     1      34.725  12.934 104.130  1.00  0.00     0.034 C 
BRANCH   5   6
ATOM      6  C   UNL     1      35.892  13.341 103.223  1.00  0.00     0.032 C 
BRANCH   6   7
ATOM      7  C   UNL     1      36.971  12.288 103.235  1.00  0.00    -0.028 C 
ATOM      8  C   UNL     1      38.717  13.857 104.107  1.00  0.00     0.039 C 
ATOM      9  C   UNL     1      38.251  12.510 103.605  1.00  0.00    -0.080 C 
ATOM     10  C   UNL     1      39.231  11.367 103.525  1.00  0.00     0.039 C 
ENDBRANCH   6   7
ENDBRANCH   5   6
ENDBRANCH   3   5
ENDBRANCH   1   2
BRANCH   1  11
ATOM     11  C   UNL     1      34.543   9.317 106.936  1.00  0.00     0.034 C 
BRANCH  11  12
ATOM     12  C   UNL     1      33.229   8.581 107.103  1.00  0.00    -0.077 C 
ATOM     13  C   UNL     1      33.086   7.707 108.125  1.00  0.00    -0.028 C 
ATOM     14  C   UNL     1      32.103   8.848 106.134  1.00  0.00     0.039 C 
BRANCH  13  15
ATOM     15  C   UNL     1      31.816   6.927 108.372  1.00  0.00     0.035 C 
BRANCH  15  16
ATOM     16  C   UNL     1      32.082   5.424 108.522  1.00  0.00     0.079 C 
BRANCH  16  17
ATOM     17  C   UNL     1      32.319   4.764 107.187  1.00  0.00     0.130 C 
ATOM     18  O   UNL     1      31.560   4.992 106.258  1.00  0.00    -0.300 OA
ATOM     19  C   UNL     1      33.479   3.836 106.970  1.00  0.00     0.087 C 
ENDBRANCH  16  17
ENDBRANCH  15  16
ENDBRANCH  13  15
ENDBRANCH  11  12
ENDBRANCH   1  11
TORSDOF 9
ENDMDL
MODEL 9
REMARK VINA RESULT:    -5.282      3.099      7.057
REMARK INTER + INTRA:          -9.393
REMARK INTER:                  -8.060
REMARK INTRA:                  -1.333
REMARK UNBOUND:                -1.332
REMARK SMILES CC(=O)CCC=C(C)CCC=C(C)CCC=C(C)C
REMARK SMILES IDX 10 1 11 2 12 3 13 4 14 5 15 6 16 7 18 8 17 9 19 10 9 11 7 12
REMARK SMILES IDX 6 13 8 14 5 15 4 16 2 17 3 18 1 19
REMARK H PARENT
REMARK Flexibility Score: inf
ROOT
ATOM      1  C   UNL     1      33.716   8.853 106.246  1.00  0.00     0.032 C 
ENDROOT
BRANCH   1   2
ATOM      2  C   UNL     1      32.514   9.744 106.027  1.00  0.00    -0.028 C 
ATOM      3  C   UNL     1      31.320   9.356 105.521  1.00  0.00    -0.077 C 
ATOM      4  C   UNL     1      30.252  10.406 105.348  1.00  0.00     0.039 C 
BRANCH   3   5
ATOM      5  C   UNL     1      31.003   7.924 105.133  1.00  0.00     0.034 C 
BRANCH   5   6
ATOM      6  C   UNL     1      30.663   7.075 106.364  1.00  0.00     0.032 C 
BRANCH   6   7
ATOM      7  C   UNL     1      31.397   5.759 106.324  1.00  0.00    -0.028 C 
ATOM      8  C   UNL     1      32.553   6.153 108.510  1.00  0.00     0.039 C 
ATOM      9  C   UNL     1      32.269   5.341 107.268  1.00  0.00    -0.080 C 
ATOM     10  C   UNL     1      32.961   4.017 107.071  1.00  0.00     0.039 C 
ENDBRANCH   6   7
ENDBRANCH   5   6
ENDBRANCH   3   5
ENDBRANCH   1   2
BRANCH   1  11
ATOM     11  C   UNL     1      34.552   9.333 107.442  1.00  0.00     0.034 C 
BRANCH  11  12
ATOM     12  C   UNL     1      35.471  10.480 107.073  1.00  0.00    -0.077 C 
ATOM     13  C   UNL     1      35.875  10.617 105.791  1.00  0.00    -0.028 C 
ATOM     14  C   UNL     1      35.906  11.453 108.142  1.00  0.00     0.039 C 
BRANCH  13  15
ATOM     15  C   UNL     1      36.791  11.727 105.328  1.00  0.00     0.035 C 
BRANCH  15  16
ATOM     16  C   UNL     1      37.944  11.201 104.464  1.00  0.00     0.079 C 
BRANCH  16  17
ATOM     17  C   UNL     1      39.286  11.489 105.090  1.00  0.00     0.130 C 
ATOM     18  O   UNL     1      40.305  11.123 104.525  1.00  0.00    -0.300 OA
ATOM     19  C   UNL     1      39.398  12.229 106.390  1.00  0.00     0.087 C 
ENDBRANCH  16  17
ENDBRANCH  15  16
ENDBRANCH  13  15
ENDBRANCH  11  12
ENDBRANCH   1  11
TORSDOF 9
ENDMDL
