MODEL 1
REMARK VINA RESULT:    -6.567      0.000      0.000
REMARK INTER + INTRA:          -6.567
REMARK INTER:                  -6.567
REMARK INTRA:                   0.000
REMARK UNBOUND:                 0.000
REMARK SMILES C=C1CCC[C@@]2(C)CC(=O)C(=C(C)C)C[C@H]12
REMARK SMILES IDX 13 1 12 2 11 3 15 4 16 5 2 6 1 7 3 8 4 9 5 10 6 11 8 12 9 13
REMARK SMILES IDX 10 14 7 15 14 16
REMARK H PARENT
REMARK Flexibility Score: inf
ROOT
ATOM      1  C   UNL     1     -18.797  11.755 -30.448  1.00  0.00     0.039 C 
ATOM      2  C   UNL     1     -17.528  12.067 -29.687  1.00  0.00    -0.070 C 
ATOM      3  C   UNL     1     -16.478  12.714 -30.273  1.00  0.00    -0.006 C 
ATOM      4  C   UNL     1     -15.184  12.967 -29.510  1.00  0.00     0.047 C 
ATOM      5  C   UNL     1     -13.940  12.993 -30.434  1.00  0.00     0.025 C 
ATOM      6  C   UNL     1     -12.614  13.282 -29.729  1.00  0.00    -0.073 C 
ATOM      7  C   UNL     1     -12.498  13.515 -28.407  1.00  0.00     0.008 C 
ATOM      8  C   UNL     1     -11.377  13.256 -30.595  1.00  0.00     0.031 C 
ATOM      9  C   UNL     1     -11.554  14.177 -31.805  1.00  0.00     0.005 C 
ATOM     10  C   UNL     1     -12.860  13.879 -32.561  1.00  0.00     0.008 C 
ATOM     11  C   UNL     1     -14.124  13.952 -31.651  1.00  0.00    -0.018 C 
ATOM     12  C   UNL     1     -15.342  13.474 -32.479  1.00  0.00     0.088 C 
ATOM     13  C   UNL     1     -16.574  13.317 -31.635  1.00  0.00     0.159 C 
ATOM     14  O   UNL     1     -17.676  13.717 -32.097  1.00  0.00    -0.295 OA
ATOM     15  C   UNL     1     -14.354  15.421 -31.200  1.00  0.00     0.012 C 
ATOM     16  C   UNL     1     -17.458  11.595 -28.253  1.00  0.00     0.039 C 
ENDROOT
TORSDOF 0
ENDMDL
MODEL 2
REMARK VINA RESULT:    -6.397      1.489      1.953
REMARK INTER + INTRA:          -6.397
REMARK INTER:                  -6.397
REMARK INTRA:                   0.000
REMARK UNBOUND:                 0.000
REMARK SMILES C=C1CCC[C@@]2(C)CC(=O)C(=C(C)C)C[C@H]12
REMARK SMILES IDX 13 1 12 2 11 3 15 4 16 5 2 6 1 7 3 8 4 9 5 10 6 11 8 12 9 13
REMARK SMILES IDX 10 14 7 15 14 16
REMARK H PARENT
REMARK Flexibility Score: inf
ROOT
ATOM      1  C   UNL     1     -17.905  12.439 -29.699  1.00  0.00     0.039 C 
ATOM      2  C   UNL     1     -16.526  11.821 -29.658  1.00  0.00    -0.070 C 
ATOM      3  C   UNL     1     -15.403  12.548 -29.936  1.00  0.00    -0.006 C 
ATOM      4  C   UNL     1     -14.027  11.896 -29.949  1.00  0.00     0.047 C 
ATOM      5  C   UNL     1     -13.051  12.577 -30.942  1.00  0.00     0.025 C 
ATOM      6  C   UNL     1     -11.640  11.990 -30.971  1.00  0.00    -0.073 C 
ATOM      7  C   UNL     1     -11.232  10.966 -30.196  1.00  0.00     0.008 C 
ATOM      8  C   UNL     1     -10.685  12.595 -31.972  1.00  0.00     0.031 C 
ATOM      9  C   UNL     1     -10.630  14.116 -31.805  1.00  0.00     0.005 C 
ATOM     10  C   UNL     1     -12.037  14.740 -31.817  1.00  0.00     0.008 C 
ATOM     11  C   UNL     1     -12.988  14.124 -30.747  1.00  0.00    -0.018 C 
ATOM     12  C   UNL     1     -14.405  14.709 -30.968  1.00  0.00     0.088 C 
ATOM     13  C   UNL     1     -15.438  14.029 -30.117  1.00  0.00     0.159 C 
ATOM     14  O   UNL     1     -16.316  14.736 -29.555  1.00  0.00    -0.295 OA
ATOM     15  C   UNL     1     -12.490  14.507 -29.326  1.00  0.00     0.012 C 
ATOM     16  C   UNL     1     -16.447  10.347 -29.332  1.00  0.00     0.039 C 
ENDROOT
TORSDOF 0
ENDMDL
MODEL 3
REMARK VINA RESULT:    -6.302      1.681      4.933
REMARK INTER + INTRA:          -6.302
REMARK INTER:                  -6.302
REMARK INTRA:                   0.000
REMARK UNBOUND:                 0.000
REMARK SMILES C=C1CCC[C@@]2(C)CC(=O)C(=C(C)C)C[C@H]12
REMARK SMILES IDX 13 1 12 2 11 3 15 4 16 5 2 6 1 7 3 8 4 9 5 10 6 11 8 12 9 13
REMARK SMILES IDX 10 14 7 15 14 16
REMARK H PARENT
REMARK Flexibility Score: inf
ROOT
ATOM      1  C   UNL     1     -11.003  14.724 -31.643  1.00  0.00     0.039 C 
ATOM      2  C   UNL     1     -11.717  13.443 -31.277  1.00  0.00    -0.070 C 
ATOM      3  C   UNL     1     -13.049  13.424 -30.972  1.00  0.00    -0.006 C 
ATOM      4  C   UNL     1     -13.740  12.135 -30.546  1.00  0.00     0.047 C 
ATOM      5  C   UNL     1     -14.923  12.383 -29.575  1.00  0.00     0.025 C 
ATOM      6  C   UNL     1     -15.681  11.128 -29.144  1.00  0.00    -0.073 C 
ATOM      7  C   UNL     1     -15.382   9.883 -29.564  1.00  0.00     0.008 C 
ATOM      8  C   UNL     1     -16.802  11.332 -28.152  1.00  0.00     0.031 C 
ATOM      9  C   UNL     1     -17.775  12.399 -28.660  1.00  0.00     0.005 C 
ATOM     10  C   UNL     1     -17.043  13.692 -29.061  1.00  0.00     0.008 C 
ATOM     11  C   UNL     1     -15.919  13.456 -30.114  1.00  0.00    -0.018 C 
ATOM     12  C   UNL     1     -15.154  14.788 -30.309  1.00  0.00     0.088 C 
ATOM     13  C   UNL     1     -13.925  14.618 -31.155  1.00  0.00     0.159 C 
ATOM     14  O   UNL     1     -13.665  15.493 -32.023  1.00  0.00    -0.295 OA
ATOM     15  C   UNL     1     -16.555  13.027 -31.466  1.00  0.00     0.012 C 
ATOM     16  C   UNL     1     -10.881  12.185 -31.225  1.00  0.00     0.039 C 
ENDROOT
TORSDOF 0
ENDMDL
MODEL 4
REMARK VINA RESULT:    -6.229      2.262      3.712
REMARK INTER + INTRA:          -6.229
REMARK INTER:                  -6.229
REMARK INTRA:                   0.000
REMARK UNBOUND:                 0.000
REMARK SMILES C=C1CCC[C@@]2(C)CC(=O)C(=C(C)C)C[C@H]12
REMARK SMILES IDX 13 1 12 2 11 3 15 4 16 5 2 6 1 7 3 8 4 9 5 10 6 11 8 12 9 13
REMARK SMILES IDX 10 14 7 15 14 16
REMARK H PARENT
REMARK Flexibility Score: inf
ROOT
ATOM      1  C   UNL     1     -17.002  10.174 -26.375  1.00  0.00     0.039 C 
ATOM      2  C   UNL     1     -16.953  10.703 -27.790  1.00  0.00    -0.070 C 
ATOM      3  C   UNL     1     -15.846  11.334 -28.284  1.00  0.00    -0.006 C 
ATOM      4  C   UNL     1     -15.834  11.914 -29.692  1.00  0.00     0.047 C 
ATOM      5  C   UNL     1     -14.911  13.153 -29.821  1.00  0.00     0.025 C 
ATOM      6  C   UNL     1     -14.827  13.756 -31.223  1.00  0.00    -0.073 C 
ATOM      7  C   UNL     1     -15.481  13.269 -32.295  1.00  0.00     0.008 C 
ATOM      8  C   UNL     1     -13.981  15.000 -31.366  1.00  0.00     0.031 C 
ATOM      9  C   UNL     1     -12.579  14.758 -30.801  1.00  0.00     0.005 C 
ATOM     10  C   UNL     1     -12.632  14.191 -29.371  1.00  0.00     0.008 C 
ATOM     11  C   UNL     1     -13.478  12.887 -29.262  1.00  0.00    -0.018 C 
ATOM     12  C   UNL     1     -13.593  12.511 -27.764  1.00  0.00     0.088 C 
ATOM     13  C   UNL     1     -14.557  11.382 -27.535  1.00  0.00     0.159 C 
ATOM     14  O   UNL     1     -14.243  10.480 -26.713  1.00  0.00    -0.295 OA
ATOM     15  C   UNL     1     -12.764  11.737 -30.026  1.00  0.00     0.012 C 
ATOM     16  C   UNL     1     -18.201  10.537 -28.626  1.00  0.00     0.039 C 
ENDROOT
TORSDOF 0
ENDMDL
MODEL 5
REMARK VINA RESULT:    -5.971      8.671     11.895
REMARK INTER + INTRA:          -5.971
REMARK INTER:                  -5.971
REMARK INTRA:                   0.000
REMARK UNBOUND:                 0.000
REMARK SMILES C=C1CCC[C@@]2(C)CC(=O)C(=C(C)C)C[C@H]12
REMARK SMILES IDX 13 1 12 2 11 3 15 4 16 5 2 6 1 7 3 8 4 9 5 10 6 11 8 12 9 13
REMARK SMILES IDX 10 14 7 15 14 16
REMARK H PARENT
REMARK Flexibility Score: inf
ROOT
ATOM      1  C   UNL     1     -24.724  16.241 -31.058  1.00  0.00     0.039 C 
ATOM      2  C   UNL     1     -24.247  14.873 -30.628  1.00  0.00    -0.070 C 
ATOM      3  C   UNL     1     -25.118  13.901 -30.226  1.00  0.00    -0.006 C 
ATOM      4  C   UNL     1     -24.618  12.547 -29.739  1.00  0.00     0.047 C 
ATOM      5  C   UNL     1     -25.557  11.905 -28.687  1.00  0.00     0.025 C 
ATOM      6  C   UNL     1     -25.126  10.525 -28.189  1.00  0.00    -0.073 C 
ATOM      7  C   UNL     1     -24.026   9.877 -28.619  1.00  0.00     0.008 C 
ATOM      8  C   UNL     1     -25.991   9.901 -27.119  1.00  0.00     0.031 C 
ATOM      9  C   UNL     1     -27.456   9.877 -27.565  1.00  0.00     0.005 C 
ATOM     10  C   UNL     1     -27.931  11.265 -28.030  1.00  0.00     0.008 C 
ATOM     11  C   UNL     1     -27.043  11.867 -29.161  1.00  0.00    -0.018 C 
ATOM     12  C   UNL     1     -27.516  13.318 -29.424  1.00  0.00     0.088 C 
ATOM     13  C   UNL     1     -26.597  14.054 -30.356  1.00  0.00     0.159 C 
ATOM     14  O   UNL     1     -27.103  14.784 -31.249  1.00  0.00    -0.295 OA
ATOM     15  C   UNL     1     -27.215  11.028 -30.458  1.00  0.00     0.012 C 
ATOM     16  C   UNL     1     -22.754  14.639 -30.626  1.00  0.00     0.039 C 
ENDROOT
TORSDOF 0
ENDMDL
MODEL 6
REMARK VINA RESULT:    -5.945      1.899      4.963
REMARK INTER + INTRA:          -5.945
REMARK INTER:                  -5.945
REMARK INTRA:                   0.000
REMARK UNBOUND:                 0.000
REMARK SMILES C=C1CCC[C@@]2(C)CC(=O)C(=C(C)C)C[C@H]12
REMARK SMILES IDX 13 1 12 2 11 3 15 4 16 5 2 6 1 7 3 8 4 9 5 10 6 11 8 12 9 13
REMARK SMILES IDX 10 14 7 15 14 16
REMARK H PARENT
REMARK Flexibility Score: inf
ROOT
ATOM      1  C   UNL     1     -13.969  15.085 -31.608  1.00  0.00     0.039 C 
ATOM      2  C   UNL     1     -13.641  14.179 -30.444  1.00  0.00    -0.070 C 
ATOM      3  C   UNL     1     -14.497  13.196 -30.034  1.00  0.00    -0.006 C 
ATOM      4  C   UNL     1     -14.179  12.330 -28.822  1.00  0.00     0.047 C 
ATOM      5  C   UNL     1     -15.452  11.849 -28.079  1.00  0.00     0.025 C 
ATOM      6  C   UNL     1     -15.196  10.943 -26.875  1.00  0.00    -0.073 C 
ATOM      7  C   UNL     1     -13.971  10.558 -26.466  1.00  0.00     0.008 C 
ATOM      8  C   UNL     1     -16.415  10.507 -26.096  1.00  0.00     0.031 C 
ATOM      9  C   UNL     1     -17.448   9.875 -27.034  1.00  0.00     0.005 C 
ATOM     10  C   UNL     1     -17.758  10.786 -28.234  1.00  0.00     0.008 C 
ATOM     11  C   UNL     1     -16.487  11.188 -29.041  1.00  0.00    -0.018 C 
ATOM     12  C   UNL     1     -16.903  12.228 -30.111  1.00  0.00     0.088 C 
ATOM     13  C   UNL     1     -15.717  12.828 -30.810  1.00  0.00     0.159 C 
ATOM     14  O   UNL     1     -15.776  12.997 -32.057  1.00  0.00    -0.295 OA
ATOM     15  C   UNL     1     -15.901   9.933 -29.747  1.00  0.00     0.012 C 
ATOM     16  C   UNL     1     -12.336  14.433 -29.725  1.00  0.00     0.039 C 
ENDROOT
TORSDOF 0
ENDMDL
MODEL 7
REMARK VINA RESULT:    -5.938      9.492     13.393
REMARK INTER + INTRA:          -5.938
REMARK INTER:                  -5.938
REMARK INTRA:                   0.000
REMARK UNBOUND:                 0.000
REMARK SMILES C=C1CCC[C@@]2(C)CC(=O)C(=C(C)C)C[C@H]12
REMARK SMILES IDX 13 1 12 2 11 3 15 4 16 5 2 6 1 7 3 8 4 9 5 10 6 11 8 12 9 13
REMARK SMILES IDX 10 14 7 15 14 16
REMARK H PARENT
REMARK Flexibility Score: inf
ROOT
ATOM      1  C   UNL     1     -24.145   9.878 -27.128  1.00  0.00     0.039 C 
ATOM      2  C   UNL     1     -24.435  10.392 -28.519  1.00  0.00    -0.070 C 
ATOM      3  C   UNL     1     -25.713  10.539 -28.979  1.00  0.00    -0.006 C 
ATOM      4  C   UNL     1     -25.988  11.001 -30.404  1.00  0.00     0.047 C 
ATOM      5  C   UNL     1     -27.310  10.426 -30.976  1.00  0.00     0.025 C 
ATOM      6  C   UNL     1     -27.659  10.887 -32.391  1.00  0.00    -0.073 C 
ATOM      7  C   UNL     1     -26.907  11.738 -33.115  1.00  0.00     0.008 C 
ATOM      8  C   UNL     1     -28.911  10.296 -32.996  1.00  0.00     0.031 C 
ATOM      9  C   UNL     1     -30.103  10.497 -32.056  1.00  0.00     0.005 C 
ATOM     10  C   UNL     1     -29.795  10.001 -30.632  1.00  0.00     0.008 C 
ATOM     11  C   UNL     1     -28.521  10.657 -30.019  1.00  0.00    -0.018 C 
ATOM     12  C   UNL     1     -28.224   9.961 -28.667  1.00  0.00     0.088 C 
ATOM     13  C   UNL     1     -26.902  10.383 -28.092  1.00  0.00     0.159 C 
ATOM     14  O   UNL     1     -26.830  10.611 -26.855  1.00  0.00    -0.295 OA
ATOM     15  C   UNL     1     -28.782  12.169 -29.771  1.00  0.00     0.012 C 
ATOM     16  C   UNL     1     -23.244  10.700 -29.397  1.00  0.00     0.039 C 
ENDROOT
TORSDOF 0
ENDMDL
MODEL 8
REMARK VINA RESULT:    -5.909      2.157      5.744
REMARK INTER + INTRA:          -5.909
REMARK INTER:                  -5.909
REMARK INTRA:                   0.000
REMARK UNBOUND:                 0.000
REMARK SMILES C=C1CCC[C@@]2(C)CC(=O)C(=C(C)C)C[C@H]12
REMARK SMILES IDX 13 1 12 2 11 3 15 4 16 5 2 6 1 7 3 8 4 9 5 10 6 11 8 12 9 13
REMARK SMILES IDX 10 14 7 15 14 16
REMARK H PARENT
REMARK Flexibility Score: inf
ROOT
ATOM      1  C   UNL     1     -12.149  14.315 -30.116  1.00  0.00     0.039 C 
ATOM      2  C   UNL     1     -13.637  14.173 -30.339  1.00  0.00    -0.070 C 
ATOM      3  C   UNL     1     -14.412  13.381 -29.539  1.00  0.00    -0.006 C 
ATOM      4  C   UNL     1     -15.899  13.202 -29.813  1.00  0.00     0.047 C 
ATOM      5  C   UNL     1     -16.428  11.816 -29.363  1.00  0.00     0.025 C 
ATOM      6  C   UNL     1     -17.925  11.592 -29.577  1.00  0.00    -0.073 C 
ATOM      7  C   UNL     1     -18.758  12.511 -30.102  1.00  0.00     0.008 C 
ATOM      8  C   UNL     1     -18.457  10.228 -29.202  1.00  0.00     0.031 C 
ATOM      9  C   UNL     1     -18.062   9.879 -27.765  1.00  0.00     0.005 C 
ATOM     10  C   UNL     1     -16.550  10.053 -27.532  1.00  0.00     0.008 C 
ATOM     11  C   UNL     1     -16.038  11.481 -27.889  1.00  0.00    -0.018 C 
ATOM     12  C   UNL     1     -14.493  11.481 -27.774  1.00  0.00     0.088 C 
ATOM     13  C   UNL     1     -13.886  12.753 -28.291  1.00  0.00     0.159 C 
ATOM     14  O   UNL     1     -12.942  13.277 -27.643  1.00  0.00    -0.295 OA
ATOM     15  C   UNL     1     -16.627  12.511 -26.887  1.00  0.00     0.012 C 
ATOM     16  C   UNL     1     -14.227  14.918 -31.513  1.00  0.00     0.039 C 
ENDROOT
TORSDOF 0
ENDMDL
MODEL 9
REMARK VINA RESULT:    -5.650      8.816     13.182
REMARK INTER + INTRA:          -5.650
REMARK INTER:                  -5.650
REMARK INTRA:                   0.000
REMARK UNBOUND:                 0.000
REMARK SMILES C=C1CCC[C@@]2(C)CC(=O)C(=C(C)C)C[C@H]12
REMARK SMILES IDX 13 1 12 2 11 3 15 4 16 5 2 6 1 7 3 8 4 9 5 10 6 11 8 12 9 13
REMARK SMILES IDX 10 14 7 15 14 16
REMARK H PARENT
REMARK Flexibility Score: inf
ROOT
ATOM      1  C   UNL     1     -23.140  14.160 -30.497  1.00  0.00     0.039 C 
ATOM      2  C   UNL     1     -24.634  14.396 -30.503  1.00  0.00    -0.070 C 
ATOM      3  C   UNL     1     -25.522  13.388 -30.256  1.00  0.00    -0.006 C 
ATOM      4  C   UNL     1     -27.024  13.629 -30.325  1.00  0.00     0.047 C 
ATOM      5  C   UNL     1     -27.813  12.366 -30.757  1.00  0.00     0.025 C 
ATOM      6  C   UNL     1     -29.332  12.536 -30.806  1.00  0.00    -0.073 C 
ATOM      7  C   UNL     1     -29.975  13.678 -30.493  1.00  0.00     0.008 C 
ATOM      8  C   UNL     1     -30.123  11.339 -31.282  1.00  0.00     0.031 C 
ATOM      9  C   UNL     1     -29.747  10.097 -30.470  1.00  0.00     0.005 C 
ATOM     10  C   UNL     1     -28.225   9.876 -30.439  1.00  0.00     0.008 C 
ATOM     11  C   UNL     1     -27.438  11.112 -29.908  1.00  0.00    -0.018 C 
ATOM     12  C   UNL     1     -25.925  10.831 -30.081  1.00  0.00     0.088 C 
ATOM     13  C   UNL     1     -25.087  12.041 -29.785  1.00  0.00     0.159 C 
ATOM     14  O   UNL     1     -24.025  11.890 -29.123  1.00  0.00    -0.295 OA
ATOM     15  C   UNL     1     -27.752  11.319 -28.400  1.00  0.00     0.012 C 
ATOM     16  C   UNL     1     -25.104  15.794 -30.834  1.00  0.00     0.039 C 
ENDROOT
TORSDOF 0
ENDMDL
