MODEL 1
REMARK VINA RESULT:    -6.041      0.000      0.000
REMARK INTER + INTRA:          -6.854
REMARK INTER:                  -6.747
REMARK INTRA:                  -0.107
REMARK UNBOUND:                -0.107
REMARK SMILES COc1cc(OC)c2ccc(=O)oc2c1
REMARK SMILES IDX 3 1 15 2 14 3 8 4 9 5 10 6 11 7 12 8 13 9 5 10 4 11 2 12
REMARK SMILES IDX 1 13 6 14 7 15
REMARK H PARENT
REMARK Flexibility Score: inf
ROOT
ATOM      1  C   UNL     1      43.688  64.374   3.210  1.00  0.00     0.126 A 
ATOM      2  C   UNL     1      43.088  65.500   3.800  1.00  0.00     0.094 A 
ATOM      3  C   UNL     1      43.856  66.625   4.113  1.00  0.00     0.145 A 
ATOM      4  C   UNL     1      45.242  66.635   3.837  1.00  0.00     0.060 A 
ATOM      5  C   UNL     1      45.971  67.787   4.169  1.00  0.00     0.023 A 
ATOM      6  C   UNL     1      45.317  68.871   4.752  1.00  0.00     0.095 A 
ATOM      7  C   UNL     1      43.944  68.786   4.993  1.00  0.00     0.336 A 
ATOM      8  O   UNL     1      43.335  69.754   5.519  1.00  0.00    -0.246 OA
ATOM      9  O   UNL     1      43.273  67.684   4.671  1.00  0.00    -0.422 OA
ATOM     10  C   UNL     1      45.852  65.512   3.247  1.00  0.00     0.133 A 
ATOM     11  C   UNL     1      45.062  64.387   2.939  1.00  0.00     0.093 A 
ENDROOT
BRANCH   1  12
ATOM     12  O   UNL     1      42.958  63.222   2.878  1.00  0.00    -0.496 OA
ATOM     13  C   UNL     1      43.251  61.916   3.364  1.00  0.00     0.278 C 
ENDBRANCH   1  12
BRANCH  10  14
ATOM     14  O   UNL     1      47.233  65.541   2.981  1.00  0.00    -0.496 OA
ATOM     15  C   UNL     1      48.198  64.714   3.623  1.00  0.00     0.278 C 
ENDBRANCH  10  14
TORSDOF 2
ENDMDL
MODEL 2
REMARK VINA RESULT:    -5.724      2.102      3.941
REMARK INTER + INTRA:          -6.501
REMARK INTER:                  -6.393
REMARK INTRA:                  -0.108
REMARK UNBOUND:                -0.107
REMARK SMILES COc1cc(OC)c2ccc(=O)oc2c1
REMARK SMILES IDX 3 1 15 2 14 3 8 4 9 5 10 6 11 7 12 8 13 9 5 10 4 11 2 12
REMARK SMILES IDX 1 13 6 14 7 15
REMARK H PARENT
REMARK Flexibility Score: inf
ROOT
ATOM      1  C   UNL     1      47.228  63.697   2.564  1.00  0.00     0.126 A 
ATOM      2  C   UNL     1      48.033  64.834   2.753  1.00  0.00     0.094 A 
ATOM      3  C   UNL     1      47.476  66.019   3.240  1.00  0.00     0.145 A 
ATOM      4  C   UNL     1      46.098  66.079   3.546  1.00  0.00     0.060 A 
ATOM      5  C   UNL     1      45.584  67.291   4.032  1.00  0.00     0.023 A 
ATOM      6  C   UNL     1      46.434  68.382   4.198  1.00  0.00     0.095 A 
ATOM      7  C   UNL     1      47.786  68.245   3.873  1.00  0.00     0.336 A 
ATOM      8  O   UNL     1      48.570  69.219   4.014  1.00  0.00    -0.246 OA
ATOM      9  O   UNL     1      48.252  67.087   3.413  1.00  0.00    -0.422 OA
ATOM     10  C   UNL     1      45.283  64.946   3.361  1.00  0.00     0.133 A 
ATOM     11  C   UNL     1      45.864  63.760   2.868  1.00  0.00     0.093 A 
ENDROOT
BRANCH   1  12
ATOM     12  O   UNL     1      47.744  62.485   2.078  1.00  0.00    -0.496 OA
ATOM     13  C   UNL     1      48.905  62.375   1.261  1.00  0.00     0.278 C 
ENDBRANCH   1  12
BRANCH  10  14
ATOM     14  O   UNL     1      43.914  65.026   3.671  1.00  0.00    -0.496 OA
ATOM     15  C   UNL     1      42.875  64.422   2.907  1.00  0.00     0.278 C 
ENDBRANCH  10  14
TORSDOF 2
ENDMDL
MODEL 3
REMARK VINA RESULT:    -5.699      1.137      3.431
REMARK INTER + INTRA:          -6.473
REMARK INTER:                  -6.369
REMARK INTRA:                  -0.104
REMARK UNBOUND:                -0.107
REMARK SMILES COc1cc(OC)c2ccc(=O)oc2c1
REMARK SMILES IDX 3 1 15 2 14 3 8 4 9 5 10 6 11 7 12 8 13 9 5 10 4 11 2 12
REMARK SMILES IDX 1 13 6 14 7 15
REMARK H PARENT
REMARK Flexibility Score: inf
ROOT
ATOM      1  C   UNL     1      46.783  64.416   3.191  1.00  0.00     0.126 A 
ATOM      2  C   UNL     1      46.640  65.744   3.628  1.00  0.00     0.094 A 
ATOM      3  C   UNL     1      45.369  66.293   3.812  1.00  0.00     0.145 A 
ATOM      4  C   UNL     1      44.218  65.513   3.560  1.00  0.00     0.060 A 
ATOM      5  C   UNL     1      42.963  66.106   3.758  1.00  0.00     0.023 A 
ATOM      6  C   UNL     1      42.888  67.428   4.194  1.00  0.00     0.095 A 
ATOM      7  C   UNL     1      44.071  68.135   4.423  1.00  0.00     0.336 A 
ATOM      8  O   UNL     1      44.025  69.330   4.816  1.00  0.00    -0.246 OA
ATOM      9  O   UNL     1      45.250  67.552   4.227  1.00  0.00    -0.422 OA
ATOM     10  C   UNL     1      44.350  64.181   3.121  1.00  0.00     0.133 A 
ATOM     11  C   UNL     1      45.642  63.646   2.941  1.00  0.00     0.093 A 
ENDROOT
BRANCH   1  12
ATOM     12  O   UNL     1      48.040  63.822   2.992  1.00  0.00    -0.496 OA
ATOM     13  C   UNL     1      49.048  63.718   3.993  1.00  0.00     0.278 C 
ENDBRANCH   1  12
BRANCH  10  14
ATOM     14  O   UNL     1      43.193  63.421   2.874  1.00  0.00    -0.496 OA
ATOM     15  C   UNL     1      43.050  62.040   3.191  1.00  0.00     0.278 C 
ENDBRANCH  10  14
TORSDOF 2
ENDMDL
MODEL 4
REMARK VINA RESULT:    -5.677      2.137      5.787
REMARK INTER + INTRA:          -6.448
REMARK INTER:                  -6.336
REMARK INTRA:                  -0.112
REMARK UNBOUND:                -0.107
REMARK SMILES COc1cc(OC)c2ccc(=O)oc2c1
REMARK SMILES IDX 3 1 15 2 14 3 8 4 9 5 10 6 11 7 12 8 13 9 5 10 4 11 2 12
REMARK SMILES IDX 1 13 6 14 7 15
REMARK H PARENT
REMARK Flexibility Score: inf
ROOT
ATOM      1  C   UNL     1      46.622  67.193   3.745  1.00  0.00     0.126 A 
ATOM      2  C   UNL     1      47.776  66.835   3.026  1.00  0.00     0.094 A 
ATOM      3  C   UNL     1      47.901  65.552   2.488  1.00  0.00     0.145 A 
ATOM      4  C   UNL     1      46.867  64.606   2.666  1.00  0.00     0.060 A 
ATOM      5  C   UNL     1      47.038  63.330   2.108  1.00  0.00     0.023 A 
ATOM      6  C   UNL     1      48.205  63.037   1.405  1.00  0.00     0.095 A 
ATOM      7  C   UNL     1      49.183  64.026   1.272  1.00  0.00     0.336 A 
ATOM      8  O   UNL     1      50.245  63.781   0.642  1.00  0.00    -0.246 OA
ATOM      9  O   UNL     1      49.000  65.228   1.809  1.00  0.00    -0.422 OA
ATOM     10  C   UNL     1      45.707  64.954   3.385  1.00  0.00     0.133 A 
ATOM     11  C   UNL     1      45.599  66.254   3.920  1.00  0.00     0.093 A 
ENDROOT
BRANCH   1  12
ATOM     12  O   UNL     1      46.452  68.470   4.303  1.00  0.00    -0.496 OA
ATOM     13  C   UNL     1      45.201  69.000   4.732  1.00  0.00     0.278 C 
ENDBRANCH   1  12
BRANCH  10  14
ATOM     14  O   UNL     1      44.689  63.999   3.551  1.00  0.00    -0.496 OA
ATOM     15  C   UNL     1      43.378  64.112   3.008  1.00  0.00     0.278 C 
ENDBRANCH  10  14
TORSDOF 2
ENDMDL
MODEL 5
REMARK VINA RESULT:    -5.629      1.555      5.289
REMARK INTER + INTRA:          -6.394
REMARK INTER:                  -6.283
REMARK INTRA:                  -0.110
REMARK UNBOUND:                -0.107
REMARK SMILES COc1cc(OC)c2ccc(=O)oc2c1
REMARK SMILES IDX 3 1 15 2 14 3 8 4 9 5 10 6 11 7 12 8 13 9 5 10 4 11 2 12
REMARK SMILES IDX 1 13 6 14 7 15
REMARK H PARENT
REMARK Flexibility Score: inf
ROOT
ATOM      1  C   UNL     1      46.604  67.922   4.029  1.00  0.00     0.126 A 
ATOM      2  C   UNL     1      46.516  66.576   3.635  1.00  0.00     0.094 A 
ATOM      3  C   UNL     1      45.281  65.922   3.631  1.00  0.00     0.145 A 
ATOM      4  C   UNL     1      44.113  66.612   4.024  1.00  0.00     0.060 A 
ATOM      5  C   UNL     1      42.896  65.914   4.004  1.00  0.00     0.023 A 
ATOM      6  C   UNL     1      42.875  64.579   3.602  1.00  0.00     0.095 A 
ATOM      7  C   UNL     1      44.073  63.965   3.228  1.00  0.00     0.336 A 
ATOM      8  O   UNL     1      44.075  62.760   2.863  1.00  0.00    -0.246 OA
ATOM      9  O   UNL     1      45.214  64.646   3.255  1.00  0.00    -0.422 OA
ATOM     10  C   UNL     1      44.190  67.961   4.421  1.00  0.00     0.133 A 
ATOM     11  C   UNL     1      45.444  68.604   4.418  1.00  0.00     0.093 A 
ENDROOT
BRANCH   1  12
ATOM     12  O   UNL     1      47.821  68.621   4.049  1.00  0.00    -0.496 OA
ATOM     13  C   UNL     1      48.947  68.298   3.239  1.00  0.00     0.278 C 
ENDBRANCH   1  12
BRANCH  10  14
ATOM     14  O   UNL     1      43.016  68.631   4.808  1.00  0.00    -0.496 OA
ATOM     15  C   UNL     1      42.892  69.434   5.978  1.00  0.00     0.278 C 
ENDBRANCH  10  14
TORSDOF 2
ENDMDL
MODEL 6
REMARK VINA RESULT:    -5.597      8.673     12.190
REMARK INTER + INTRA:          -6.359
REMARK INTER:                  -6.297
REMARK INTRA:                  -0.061
REMARK UNBOUND:                -0.107
REMARK SMILES COc1cc(OC)c2ccc(=O)oc2c1
REMARK SMILES IDX 3 1 15 2 14 3 8 4 9 5 10 6 11 7 12 8 13 9 5 10 4 11 2 12
REMARK SMILES IDX 1 13 6 14 7 15
REMARK H PARENT
REMARK Flexibility Score: inf
ROOT
ATOM      1  C   UNL     1      51.746  59.526   2.397  1.00  0.00     0.126 A 
ATOM      2  C   UNL     1      53.133  59.305   2.348  1.00  0.00     0.094 A 
ATOM      3  C   UNL     1      53.739  58.891   1.160  1.00  0.00     0.145 A 
ATOM      4  C   UNL     1      52.959  58.693  -0.001  1.00  0.00     0.060 A 
ATOM      5  C   UNL     1      53.612  58.277  -1.171  1.00  0.00     0.023 A 
ATOM      6  C   UNL     1      54.991  58.075  -1.155  1.00  0.00     0.095 A 
ATOM      7  C   UNL     1      55.694  58.291   0.033  1.00  0.00     0.336 A 
ATOM      8  O   UNL     1      56.940  58.113   0.068  1.00  0.00    -0.246 OA
ATOM      9  O   UNL     1      55.055  58.685   1.130  1.00  0.00    -0.422 OA
ATOM     10  C   UNL     1      51.568  58.912   0.037  1.00  0.00     0.133 A 
ATOM     11  C   UNL     1      50.975  59.329   1.245  1.00  0.00     0.093 A 
ENDROOT
BRANCH   1  12
ATOM     12  O   UNL     1      51.093  59.943   3.568  1.00  0.00    -0.496 OA
ATOM     13  C   UNL     1      50.373  61.165   3.696  1.00  0.00     0.278 C 
ENDBRANCH   1  12
BRANCH  10  14
ATOM     14  O   UNL     1      50.809  58.710  -1.129  1.00  0.00    -0.496 OA
ATOM     15  C   UNL     1      50.455  59.735  -2.051  1.00  0.00     0.278 C 
ENDBRANCH  10  14
TORSDOF 2
ENDMDL
MODEL 7
REMARK VINA RESULT:    -5.583      2.957      5.843
REMARK INTER + INTRA:          -6.342
REMARK INTER:                  -6.240
REMARK INTRA:                  -0.102
REMARK UNBOUND:                -0.107
REMARK SMILES COc1cc(OC)c2ccc(=O)oc2c1
REMARK SMILES IDX 3 1 15 2 14 3 8 4 9 5 10 6 11 7 12 8 13 9 5 10 4 11 2 12
REMARK SMILES IDX 1 13 6 14 7 15
REMARK H PARENT
REMARK Flexibility Score: inf
ROOT
ATOM      1  C   UNL     1      48.206  62.454   5.084  1.00  0.00     0.126 A 
ATOM      2  C   UNL     1      47.208  61.464   5.066  1.00  0.00     0.094 A 
ATOM      3  C   UNL     1      45.962  61.729   4.492  1.00  0.00     0.145 A 
ATOM      4  C   UNL     1      45.699  62.996   3.925  1.00  0.00     0.060 A 
ATOM      5  C   UNL     1      44.434  63.215   3.360  1.00  0.00     0.023 A 
ATOM      6  C   UNL     1      43.487  62.192   3.374  1.00  0.00     0.095 A 
ATOM      7  C   UNL     1      43.822  60.966   3.954  1.00  0.00     0.336 A 
ATOM      8  O   UNL     1      42.981  60.030   3.977  1.00  0.00    -0.246 OA
ATOM      9  O   UNL     1      45.027  60.780   4.483  1.00  0.00    -0.422 OA
ATOM     10  C   UNL     1      46.692  63.994   3.937  1.00  0.00     0.133 A 
ATOM     11  C   UNL     1      47.942  63.708   4.521  1.00  0.00     0.093 A 
ENDROOT
BRANCH   1  12
ATOM     12  O   UNL     1      49.472  62.234   5.649  1.00  0.00    -0.496 OA
ATOM     13  C   UNL     1      49.778  61.172   6.547  1.00  0.00     0.278 C 
ENDBRANCH   1  12
BRANCH  10  14
ATOM     14  O   UNL     1      46.411  65.249   3.368  1.00  0.00    -0.496 OA
ATOM     15  C   UNL     1      47.259  66.388   3.464  1.00  0.00     0.278 C 
ENDBRANCH  10  14
TORSDOF 2
ENDMDL
MODEL 8
REMARK VINA RESULT:    -5.511      7.628     10.813
REMARK INTER + INTRA:          -6.262
REMARK INTER:                  -6.155
REMARK INTRA:                  -0.107
REMARK UNBOUND:                -0.107
REMARK SMILES COc1cc(OC)c2ccc(=O)oc2c1
REMARK SMILES IDX 3 1 15 2 14 3 8 4 9 5 10 6 11 7 12 8 13 9 5 10 4 11 2 12
REMARK SMILES IDX 1 13 6 14 7 15
REMARK H PARENT
REMARK Flexibility Score: inf
ROOT
ATOM      1  C   UNL     1      52.277  59.728   4.076  1.00  0.00     0.126 A 
ATOM      2  C   UNL     1      53.383  59.441   4.895  1.00  0.00     0.094 A 
ATOM      3  C   UNL     1      53.449  59.949   6.195  1.00  0.00     0.145 A 
ATOM      4  C   UNL     1      52.402  60.757   6.693  1.00  0.00     0.060 A 
ATOM      5  C   UNL     1      52.512  61.245   8.004  1.00  0.00     0.023 A 
ATOM      6  C   UNL     1      53.635  60.923   8.765  1.00  0.00     0.095 A 
ATOM      7  C   UNL     1      54.629  60.119   8.202  1.00  0.00     0.336 A 
ATOM      8  O   UNL     1      55.650  59.818   8.873  1.00  0.00    -0.246 OA
ATOM      9  O   UNL     1      54.503  59.668   6.958  1.00  0.00    -0.422 OA
ATOM     10  C   UNL     1      51.290  61.051   5.881  1.00  0.00     0.133 A 
ATOM     11  C   UNL     1      51.241  60.529   4.573  1.00  0.00     0.093 A 
ENDROOT
BRANCH   1  12
ATOM     12  O   UNL     1      52.166  59.240   2.765  1.00  0.00    -0.496 OA
ATOM     13  C   UNL     1      53.224  59.248   1.812  1.00  0.00     0.278 C 
ENDBRANCH   1  12
BRANCH  10  14
ATOM     14  O   UNL     1      50.258  61.857   6.395  1.00  0.00    -0.496 OA
ATOM     15  C   UNL     1      48.869  61.577   6.255  1.00  0.00     0.278 C 
ENDBRANCH  10  14
TORSDOF 2
ENDMDL
