MODEL 1
REMARK VINA RESULT:    -7.854      0.000      0.000
REMARK INTER + INTRA:          -9.945
REMARK INTER:                  -9.690
REMARK INTRA:                  -0.254
REMARK UNBOUND:                -0.254
REMARK SMILES O=c1c(O)c(-c2cc(O)c(O)c(O)c2)oc2cc(O)cc(O)c12
REMARK SMILES IDX 5 1 3 2 2 3 1 4 23 5 21 6 20 7 18 8 17 9 16 10 15 11 6 12
REMARK SMILES IDX 7 13 8 14 14 15 10 16 12 17 9 18 11 20 13 22 4 24 22 26
REMARK SMILES IDX 19 28
REMARK H PARENT 9 19 11 21 13 23 4 25 22 27 19 29
REMARK Flexibility Score: inf
ROOT
ATOM      1  C   UNL     1      -4.705  66.945 -21.304  1.00  0.00     0.180 A 
ATOM      2  C   UNL     1      -4.687  65.638 -20.777  1.00  0.00     0.208 A 
ATOM      3  C   UNL     1      -3.451  65.007 -20.571  1.00  0.00     0.238 A 
ATOM      4  O   UNL     1      -3.425  63.833 -20.109  1.00  0.00    -0.285 OA
ATOM      5  C   UNL     1      -2.259  65.693 -20.874  1.00  0.00     0.111 A 
ATOM      6  C   UNL     1      -0.972  65.129 -20.693  1.00  0.00     0.134 A 
ATOM      7  C   UNL     1       0.169  65.881 -21.010  1.00  0.00     0.093 A 
ATOM      8  C   UNL     1       0.050  67.182 -21.505  1.00  0.00     0.123 A 
ATOM      9  C   UNL     1      -1.218  67.744 -21.687  1.00  0.00     0.094 A 
ATOM     10  C   UNL     1      -2.368  67.011 -21.378  1.00  0.00     0.146 A 
ATOM     11  O   UNL     1      -3.558  67.566 -21.565  1.00  0.00    -0.452 OA
ENDROOT
BRANCH   1  12
ATOM     12  C   UNL     1      -5.969  67.670 -21.567  1.00  0.00     0.029 A 
ATOM     13  C   UNL     1      -6.804  67.242 -22.609  1.00  0.00     0.062 A 
ATOM     14  C   UNL     1      -8.016  67.889 -22.873  1.00  0.00     0.162 A 
ATOM     15  C   UNL     1      -6.379  68.741 -20.761  1.00  0.00     0.062 A 
ATOM     16  C   UNL     1      -8.414  68.986 -22.070  1.00  0.00     0.200 A 
ATOM     17  C   UNL     1      -7.586  69.400 -21.010  1.00  0.00     0.162 A 
BRANCH  14  18
ATOM     18  O   UNL     1      -8.788  67.412 -23.935  1.00  0.00    -0.504 OA
ATOM     19  H   UNL     1      -8.879  66.436 -24.176  1.00  0.00     0.293 HD
ENDBRANCH  14  18
BRANCH  16  20
ATOM     20  O   UNL     1      -9.608  69.676 -22.290  1.00  0.00    -0.502 OA
ATOM     21  H   UNL     1     -10.272  69.446 -23.014  1.00  0.00     0.293 HD
ENDBRANCH  16  20
BRANCH  17  22
ATOM     22  O   UNL     1      -7.950  70.464 -20.186  1.00  0.00    -0.504 OA
ATOM     23  H   UNL     1      -7.293  71.184 -19.909  1.00  0.00     0.293 HD
ENDBRANCH  17  22
ENDBRANCH   1  12
BRANCH   2  24
ATOM     24  O   UNL     1      -5.882  64.999 -20.437  1.00  0.00    -0.502 OA
ATOM     25  H   UNL     1      -6.451  65.291 -19.651  1.00  0.00     0.293 HD
ENDBRANCH   2  24
BRANCH   6  26
ATOM     26  O   UNL     1      -0.820  63.832 -20.201  1.00  0.00    -0.507 OA
ATOM     27  H   UNL     1      -1.171  63.027 -20.705  1.00  0.00     0.293 HD
ENDBRANCH   6  26
BRANCH   8  28
ATOM     28  O   UNL     1       1.199  67.907 -21.811  1.00  0.00    -0.508 OA
ATOM     29  H   UNL     1       1.687  68.449 -21.107  1.00  0.00     0.293 HD
ENDBRANCH   8  28
TORSDOF 7
ENDMDL
MODEL 2
REMARK VINA RESULT:    -7.719      3.069      6.311
REMARK INTER + INTRA:          -9.778
REMARK INTER:                  -9.520
REMARK INTRA:                  -0.258
REMARK UNBOUND:                -0.254
REMARK SMILES O=c1c(O)c(-c2cc(O)c(O)c(O)c2)oc2cc(O)cc(O)c12
REMARK SMILES IDX 5 1 3 2 2 3 1 4 23 5 21 6 20 7 18 8 17 9 16 10 15 11 6 12
REMARK SMILES IDX 7 13 8 14 14 15 10 16 12 17 9 18 11 20 13 22 4 24 22 26
REMARK SMILES IDX 19 28
REMARK H PARENT 9 19 11 21 13 23 4 25 22 27 19 29
REMARK Flexibility Score: inf
ROOT
ATOM      1  C   UNL     1      -5.377  65.345 -21.522  1.00  0.00     0.180 A 
ATOM      2  C   UNL     1      -6.744  65.681 -21.566  1.00  0.00     0.208 A 
ATOM      3  C   UNL     1      -7.149  66.776 -22.345  1.00  0.00     0.238 A 
ATOM      4  O   UNL     1      -8.369  67.092 -22.383  1.00  0.00    -0.285 OA
ATOM      5  C   UNL     1      -6.189  67.501 -23.079  1.00  0.00     0.111 A 
ATOM      6  C   UNL     1      -6.514  68.616 -23.891  1.00  0.00     0.134 A 
ATOM      7  C   UNL     1      -5.501  69.280 -24.598  1.00  0.00     0.093 A 
ATOM      8  C   UNL     1      -4.174  68.855 -24.511  1.00  0.00     0.123 A 
ATOM      9  C   UNL     1      -3.847  67.756 -23.710  1.00  0.00     0.094 A 
ATOM     10  C   UNL     1      -4.841  67.080 -22.996  1.00  0.00     0.146 A 
ATOM     11  O   UNL     1      -4.502  66.044 -22.239  1.00  0.00    -0.452 OA
ENDROOT
BRANCH   1  12
ATOM     12  C   UNL     1      -4.870  64.216 -20.708  1.00  0.00     0.029 A 
ATOM     13  C   UNL     1      -4.304  63.105 -21.349  1.00  0.00     0.062 A 
ATOM     14  C   UNL     1      -3.795  62.029 -20.612  1.00  0.00     0.162 A 
ATOM     15  C   UNL     1      -4.892  64.257 -19.307  1.00  0.00     0.062 A 
ATOM     16  C   UNL     1      -3.842  62.066 -19.197  1.00  0.00     0.200 A 
ATOM     17  C   UNL     1      -4.389  63.193 -18.554  1.00  0.00     0.162 A 
BRANCH  14  18
ATOM     18  O   UNL     1      -3.258  60.953 -21.322  1.00  0.00    -0.504 OA
ATOM     19  H   UNL     1      -2.719  61.046 -22.171  1.00  0.00     0.293 HD
ENDBRANCH  14  18
BRANCH  16  20
ATOM     20  O   UNL     1      -3.358  61.020 -18.408  1.00  0.00    -0.502 OA
ATOM     21  H   UNL     1      -2.474  61.040 -17.920  1.00  0.00     0.293 HD
ENDBRANCH  16  20
BRANCH  17  22
ATOM     22  O   UNL     1      -4.437  63.274 -17.163  1.00  0.00    -0.504 OA
ATOM     23  H   UNL     1      -3.878  62.676 -16.565  1.00  0.00     0.293 HD
ENDBRANCH  17  22
ENDBRANCH   1  12
BRANCH   2  24
ATOM     24  O   UNL     1      -7.682  64.915 -20.869  1.00  0.00    -0.502 OA
ATOM     25  H   UNL     1      -8.658  64.874 -21.138  1.00  0.00     0.293 HD
ENDBRANCH   2  24
BRANCH   6  26
ATOM     26  O   UNL     1      -7.831  69.065 -23.999  1.00  0.00    -0.507 OA
ATOM     27  H   UNL     1      -8.170  69.853 -23.461  1.00  0.00     0.293 HD
ENDBRANCH   6  26
BRANCH   8  28
ATOM     28  O   UNL     1      -3.188  69.532 -25.225  1.00  0.00    -0.508 OA
ATOM     29  H   UNL     1      -3.219  70.538 -25.347  1.00  0.00     0.293 HD
ENDBRANCH   8  28
TORSDOF 7
ENDMDL
MODEL 3
REMARK VINA RESULT:    -7.691      1.481      3.252
REMARK INTER + INTRA:          -9.744
REMARK INTER:                  -9.379
REMARK INTRA:                  -0.365
REMARK UNBOUND:                -0.254
REMARK SMILES O=c1c(O)c(-c2cc(O)c(O)c(O)c2)oc2cc(O)cc(O)c12
REMARK SMILES IDX 5 1 3 2 2 3 1 4 23 5 21 6 20 7 18 8 17 9 16 10 15 11 6 12
REMARK SMILES IDX 7 13 8 14 14 15 10 16 12 17 9 18 11 20 13 22 4 24 22 26
REMARK SMILES IDX 19 28
REMARK H PARENT 9 19 11 21 13 23 4 25 22 27 19 29
REMARK Flexibility Score: inf
ROOT
ATOM      1  C   UNL     1      -5.023  66.491 -20.987  1.00  0.00     0.180 A 
ATOM      2  C   UNL     1      -3.717  66.758 -21.443  1.00  0.00     0.208 A 
ATOM      3  C   UNL     1      -2.674  65.904 -21.052  1.00  0.00     0.238 A 
ATOM      4  O   UNL     1      -1.500  66.140 -21.446  1.00  0.00    -0.285 OA
ATOM      5  C   UNL     1      -2.955  64.793 -20.232  1.00  0.00     0.111 A 
ATOM      6  C   UNL     1      -1.962  63.881 -19.796  1.00  0.00     0.134 A 
ATOM      7  C   UNL     1      -2.323  62.793 -18.988  1.00  0.00     0.093 A 
ATOM      8  C   UNL     1      -3.653  62.597 -18.608  1.00  0.00     0.123 A 
ATOM      9  C   UNL     1      -4.637  63.494 -19.035  1.00  0.00     0.094 A 
ATOM     10  C   UNL     1      -4.298  64.586 -19.840  1.00  0.00     0.146 A 
ATOM     11  O   UNL     1      -5.252  65.425 -20.227  1.00  0.00    -0.452 OA
ENDROOT
BRANCH   1  12
ATOM     12  C   UNL     1      -6.172  67.357 -21.341  1.00  0.00     0.029 A 
ATOM     13  C   UNL     1      -6.986  67.010 -22.429  1.00  0.00     0.062 A 
ATOM     14  C   UNL     1      -8.092  67.792 -22.780  1.00  0.00     0.162 A 
ATOM     15  C   UNL     1      -6.499  68.486 -20.577  1.00  0.00     0.062 A 
ATOM     16  C   UNL     1      -8.404  68.945 -22.018  1.00  0.00     0.200 A 
ATOM     17  C   UNL     1      -7.601  69.278 -20.911  1.00  0.00     0.162 A 
BRANCH  14  18
ATOM     18  O   UNL     1      -8.847  67.389 -23.883  1.00  0.00    -0.504 OA
ATOM     19  H   UNL     1      -9.550  66.665 -23.855  1.00  0.00     0.293 HD
ENDBRANCH  14  18
BRANCH  16  20
ATOM     20  O   UNL     1      -9.490  69.768 -22.323  1.00  0.00    -0.502 OA
ATOM     21  H   UNL     1     -10.455  69.515 -22.171  1.00  0.00     0.293 HD
ENDBRANCH  16  20
BRANCH  17  22
ATOM     22  O   UNL     1      -7.885  70.396 -20.127  1.00  0.00    -0.504 OA
ATOM     23  H   UNL     1      -7.655  70.438 -19.141  1.00  0.00     0.293 HD
ENDBRANCH  17  22
ENDBRANCH   1  12
BRANCH   2  24
ATOM     24  O   UNL     1      -3.474  67.838 -22.296  1.00  0.00    -0.502 OA
ATOM     25  H   UNL     1      -3.617  67.782 -23.297  1.00  0.00     0.293 HD
ENDBRANCH   2  24
BRANCH   6  26
ATOM     26  O   UNL     1      -0.625  64.049 -20.158  1.00  0.00    -0.507 OA
ATOM     27  H   UNL     1       0.035  63.281 -20.129  1.00  0.00     0.293 HD
ENDBRANCH   6  26
BRANCH   8  28
ATOM     28  O   UNL     1      -3.984  61.508 -17.806  1.00  0.00    -0.508 OA
ATOM     29  H   UNL     1      -3.275  60.986 -17.302  1.00  0.00     0.293 HD
ENDBRANCH   8  28
TORSDOF 7
ENDMDL
MODEL 4
REMARK VINA RESULT:    -7.640      3.452      6.226
REMARK INTER + INTRA:          -9.680
REMARK INTER:                  -9.329
REMARK INTRA:                  -0.351
REMARK UNBOUND:                -0.254
REMARK SMILES O=c1c(O)c(-c2cc(O)c(O)c(O)c2)oc2cc(O)cc(O)c12
REMARK SMILES IDX 5 1 3 2 2 3 1 4 23 5 21 6 20 7 18 8 17 9 16 10 15 11 6 12
REMARK SMILES IDX 7 13 8 14 14 15 10 16 12 17 9 18 11 20 13 22 4 24 22 26
REMARK SMILES IDX 19 28
REMARK H PARENT 9 19 11 21 13 23 4 25 22 27 19 29
REMARK Flexibility Score: inf
ROOT
ATOM      1  C   UNL     1      -3.141  65.147 -19.707  1.00  0.00     0.180 A 
ATOM      2  C   UNL     1      -4.232  64.634 -20.435  1.00  0.00     0.208 A 
ATOM      3  C   UNL     1      -4.848  63.454 -19.992  1.00  0.00     0.238 A 
ATOM      4  O   UNL     1      -5.820  62.980 -20.643  1.00  0.00    -0.285 OA
ATOM      5  C   UNL     1      -4.380  62.819 -18.824  1.00  0.00     0.111 A 
ATOM      6  C   UNL     1      -4.948  61.628 -18.309  1.00  0.00     0.134 A 
ATOM      7  C   UNL     1      -4.430  61.062 -17.134  1.00  0.00     0.093 A 
ATOM      8  C   UNL     1      -3.359  61.661 -16.467  1.00  0.00     0.123 A 
ATOM      9  C   UNL     1      -2.794  62.836 -16.972  1.00  0.00     0.094 A 
ATOM     10  C   UNL     1      -3.294  63.416 -18.142  1.00  0.00     0.146 A 
ATOM     11  O   UNL     1      -2.736  64.529 -18.602  1.00  0.00    -0.452 OA
ENDROOT
BRANCH   1  12
ATOM     12  C   UNL     1      -2.427  66.377 -20.122  1.00  0.00     0.029 A 
ATOM     13  C   UNL     1      -2.909  67.627 -19.708  1.00  0.00     0.062 A 
ATOM     14  C   UNL     1      -2.249  68.808 -20.062  1.00  0.00     0.162 A 
ATOM     15  C   UNL     1      -1.244  66.317 -20.872  1.00  0.00     0.062 A 
ATOM     16  C   UNL     1      -1.067  68.742 -20.841  1.00  0.00     0.200 A 
ATOM     17  C   UNL     1      -0.570  67.486 -21.235  1.00  0.00     0.162 A 
BRANCH  14  18
ATOM     18  O   UNL     1      -2.797  70.015 -19.623  1.00  0.00    -0.504 OA
ATOM     19  H   UNL     1      -3.699  70.366 -19.911  1.00  0.00     0.293 HD
ENDBRANCH  14  18
BRANCH  16  20
ATOM     20  O   UNL     1      -0.368  69.887 -21.232  1.00  0.00    -0.502 OA
ATOM     21  H   UNL     1       0.058  70.009 -22.139  1.00  0.00     0.293 HD
ENDBRANCH  16  20
BRANCH  17  22
ATOM     22  O   UNL     1       0.599  67.379 -21.988  1.00  0.00    -0.504 OA
ATOM     23  H   UNL     1       1.370  66.783 -21.710  1.00  0.00     0.293 HD
ENDBRANCH  17  22
ENDBRANCH   1  12
BRANCH   2  24
ATOM     24  O   UNL     1      -4.709  65.310 -21.562  1.00  0.00    -0.502 OA
ATOM     25  H   UNL     1      -5.372  64.894 -22.204  1.00  0.00     0.293 HD
ENDBRANCH   2  24
BRANCH   6  26
ATOM     26  O   UNL     1      -6.018  61.006 -18.952  1.00  0.00    -0.507 OA
ATOM     27  H   UNL     1      -6.569  60.289 -18.497  1.00  0.00     0.293 HD
ENDBRANCH   6  26
BRANCH   8  28
ATOM     28  O   UNL     1      -2.865  61.079 -15.302  1.00  0.00    -0.508 OA
ATOM     29  H   UNL     1      -3.478  60.828 -14.534  1.00  0.00     0.293 HD
ENDBRANCH   8  28
TORSDOF 7
ENDMDL
MODEL 5
REMARK VINA RESULT:    -7.639      1.495      3.692
REMARK INTER + INTRA:          -9.679
REMARK INTER:                  -9.329
REMARK INTRA:                  -0.351
REMARK UNBOUND:                -0.254
REMARK SMILES O=c1c(O)c(-c2cc(O)c(O)c(O)c2)oc2cc(O)cc(O)c12
REMARK SMILES IDX 5 1 3 2 2 3 1 4 23 5 21 6 20 7 18 8 17 9 16 10 15 11 6 12
REMARK SMILES IDX 7 13 8 14 14 15 10 16 12 17 9 18 11 20 13 22 4 24 22 26
REMARK SMILES IDX 19 28
REMARK H PARENT 9 19 11 21 13 23 4 25 22 27 19 29
REMARK Flexibility Score: inf
ROOT
ATOM      1  C   UNL     1      -5.066  66.409 -21.008  1.00  0.00     0.180 A 
ATOM      2  C   UNL     1      -3.773  66.686 -21.494  1.00  0.00     0.208 A 
ATOM      3  C   UNL     1      -2.708  65.865 -21.094  1.00  0.00     0.238 A 
ATOM      4  O   UNL     1      -1.544  66.111 -21.514  1.00  0.00    -0.285 OA
ATOM      5  C   UNL     1      -2.953  64.774 -20.236  1.00  0.00     0.111 A 
ATOM      6  C   UNL     1      -1.935  63.897 -19.788  1.00  0.00     0.134 A 
ATOM      7  C   UNL     1      -2.261  62.827 -18.941  1.00  0.00     0.093 A 
ATOM      8  C   UNL     1      -3.581  62.618 -18.533  1.00  0.00     0.123 A 
ATOM      9  C   UNL     1      -4.590  63.482 -18.971  1.00  0.00     0.094 A 
ATOM     10  C   UNL     1      -4.285  64.555 -19.815  1.00  0.00     0.146 A 
ATOM     11  O   UNL     1      -5.261  65.362 -20.211  1.00  0.00    -0.452 OA
ENDROOT
BRANCH   1  12
ATOM     12  C   UNL     1      -6.237  67.240 -21.369  1.00  0.00     0.029 A 
ATOM     13  C   UNL     1      -6.492  68.419 -20.654  1.00  0.00     0.062 A 
ATOM     14  C   UNL     1      -7.576  69.241 -20.981  1.00  0.00     0.162 A 
ATOM     15  C   UNL     1      -7.066  66.906 -22.450  1.00  0.00     0.062 A 
ATOM     16  C   UNL     1      -8.424  68.885 -22.058  1.00  0.00     0.200 A 
ATOM     17  C   UNL     1      -8.154  67.715 -22.791  1.00  0.00     0.162 A 
BRANCH  14  18
ATOM     18  O   UNL     1      -7.771  70.392 -20.215  1.00  0.00    -0.504 OA
ATOM     19  H   UNL     1      -7.217  71.232 -20.301  1.00  0.00     0.293 HD
ENDBRANCH  14  18
BRANCH  16  20
ATOM     20  O   UNL     1      -9.525  69.661 -22.427  1.00  0.00    -0.502 OA
ATOM     21  H   UNL     1      -9.896  70.420 -21.875  1.00  0.00     0.293 HD
ENDBRANCH  16  20
BRANCH  17  22
ATOM     22  O   UNL     1      -8.955  67.339 -23.869  1.00  0.00    -0.504 OA
ATOM     23  H   UNL     1      -9.195  66.372 -24.054  1.00  0.00     0.293 HD
ENDBRANCH  17  22
ENDBRANCH   1  12
BRANCH   2  24
ATOM     24  O   UNL     1      -3.566  67.743 -22.383  1.00  0.00    -0.502 OA
ATOM     25  H   UNL     1      -2.700  68.269 -22.410  1.00  0.00     0.293 HD
ENDBRANCH   2  24
BRANCH   6  26
ATOM     26  O   UNL     1      -0.608  64.079 -20.178  1.00  0.00    -0.507 OA
ATOM     27  H   UNL     1      -0.366  64.567 -21.032  1.00  0.00     0.293 HD
ENDBRANCH   6  26
BRANCH   8  28
ATOM     28  O   UNL     1      -3.878  61.547 -17.692  1.00  0.00    -0.508 OA
ATOM     29  H   UNL     1      -4.831  61.340 -17.417  1.00  0.00     0.293 HD
ENDBRANCH   8  28
TORSDOF 7
ENDMDL
MODEL 6
REMARK VINA RESULT:    -7.415      3.457      6.148
REMARK INTER + INTRA:          -9.404
REMARK INTER:                  -9.051
REMARK INTRA:                  -0.353
REMARK UNBOUND:                -0.254
REMARK SMILES O=c1c(O)c(-c2cc(O)c(O)c(O)c2)oc2cc(O)cc(O)c12
REMARK SMILES IDX 5 1 3 2 2 3 1 4 23 5 21 6 20 7 18 8 17 9 16 10 15 11 6 12
REMARK SMILES IDX 7 13 8 14 14 15 10 16 12 17 9 18 11 20 13 22 4 24 22 26
REMARK SMILES IDX 19 28
REMARK H PARENT 9 19 11 21 13 23 4 25 22 27 19 29
REMARK Flexibility Score: inf
ROOT
ATOM      1  C   UNL     1      -3.197  65.111 -19.747  1.00  0.00     0.180 A 
ATOM      2  C   UNL     1      -4.250  64.643 -20.558  1.00  0.00     0.208 A 
ATOM      3  C   UNL     1      -4.915  63.463 -20.191  1.00  0.00     0.238 A 
ATOM      4  O   UNL     1      -5.851  63.028 -20.916  1.00  0.00    -0.285 OA
ATOM      5  C   UNL     1      -4.534  62.785 -19.016  1.00  0.00     0.111 A 
ATOM      6  C   UNL     1      -5.156  61.591 -18.573  1.00  0.00     0.134 A 
ATOM      7  C   UNL     1      -4.725  60.981 -17.386  1.00  0.00     0.093 A 
ATOM      8  C   UNL     1      -3.687  61.537 -16.634  1.00  0.00     0.123 A 
ATOM      9  C   UNL     1      -3.069  62.715 -17.067  1.00  0.00     0.094 A 
ATOM     10  C   UNL     1      -3.483  63.339 -18.248  1.00  0.00     0.146 A 
ATOM     11  O   UNL     1      -2.875  64.453 -18.638  1.00  0.00    -0.452 OA
ENDROOT
BRANCH   1  12
ATOM     12  C   UNL     1      -2.435  66.337 -20.078  1.00  0.00     0.029 A 
ATOM     13  C   UNL     1      -1.262  66.234 -20.839  1.00  0.00     0.062 A 
ATOM     14  C   UNL     1      -0.528  67.373 -21.189  1.00  0.00     0.162 A 
ATOM     15  C   UNL     1      -2.892  67.607 -19.697  1.00  0.00     0.062 A 
ATOM     16  C   UNL     1      -0.981  68.651 -20.781  1.00  0.00     0.200 A 
ATOM     17  C   UNL     1      -2.172  68.756 -20.039  1.00  0.00     0.162 A 
BRANCH  14  18
ATOM     18  O   UNL     1       0.637  67.188 -21.938  1.00  0.00    -0.504 OA
ATOM     19  H   UNL     1       0.877  67.729 -22.756  1.00  0.00     0.293 HD
ENDBRANCH  14  18
BRANCH  16  20
ATOM     20  O   UNL     1      -0.288  69.822 -21.094  1.00  0.00    -0.502 OA
ATOM     21  H   UNL     1      -0.198  70.197 -22.027  1.00  0.00     0.293 HD
ENDBRANCH  16  20
BRANCH  17  22
ATOM     22  O   UNL     1      -2.660  69.997 -19.633  1.00  0.00    -0.504 OA
ATOM     23  H   UNL     1      -3.058  70.662 -20.285  1.00  0.00     0.293 HD
ENDBRANCH  17  22
ENDBRANCH   1  12
BRANCH   2  24
ATOM     24  O   UNL     1      -4.641  65.361 -21.691  1.00  0.00    -0.502 OA
ATOM     25  H   UNL     1      -4.561  64.983 -22.628  1.00  0.00     0.293 HD
ENDBRANCH   2  24
BRANCH   6  26
ATOM     26  O   UNL     1      -6.195  61.011 -19.302  1.00  0.00    -0.507 OA
ATOM     27  H   UNL     1      -6.649  61.500 -20.064  1.00  0.00     0.293 HD
ENDBRANCH   6  26
BRANCH   8  28
ATOM     28  O   UNL     1      -3.279  60.911 -15.459  1.00  0.00    -0.508 OA
ATOM     29  H   UNL     1      -3.051  59.924 -15.437  1.00  0.00     0.293 HD
ENDBRANCH   8  28
TORSDOF 7
ENDMDL
MODEL 7
REMARK VINA RESULT:    -7.387      2.458      6.434
REMARK INTER + INTRA:          -9.369
REMARK INTER:                  -9.610
REMARK INTRA:                   0.241
REMARK UNBOUND:                -0.254
REMARK SMILES O=c1c(O)c(-c2cc(O)c(O)c(O)c2)oc2cc(O)cc(O)c12
REMARK SMILES IDX 5 1 3 2 2 3 1 4 23 5 21 6 20 7 18 8 17 9 16 10 15 11 6 12
REMARK SMILES IDX 7 13 8 14 14 15 10 16 12 17 9 18 11 20 13 22 4 24 22 26
REMARK SMILES IDX 19 28
REMARK H PARENT 9 19 11 21 13 23 4 25 22 27 19 29
REMARK Flexibility Score: inf
ROOT
ATOM      1  C   UNL     1      -3.812  65.376 -21.051  1.00  0.00     0.180 A 
ATOM      2  C   UNL     1      -2.587  65.914 -21.493  1.00  0.00     0.208 A 
ATOM      3  C   UNL     1      -2.604  66.965 -22.423  1.00  0.00     0.238 A 
ATOM      4  O   UNL     1      -1.513  67.447 -22.833  1.00  0.00    -0.285 OA
ATOM      5  C   UNL     1      -3.837  67.471 -22.881  1.00  0.00     0.111 A 
ATOM      6  C   UNL     1      -3.941  68.530 -23.815  1.00  0.00     0.134 A 
ATOM      7  C   UNL     1      -5.207  68.985 -24.215  1.00  0.00     0.093 A 
ATOM      8  C   UNL     1      -6.368  68.403 -23.699  1.00  0.00     0.123 A 
ATOM      9  C   UNL     1      -6.271  67.356 -22.777  1.00  0.00     0.094 A 
ATOM     10  C   UNL     1      -5.019  66.888 -22.367  1.00  0.00     0.146 A 
ATOM     11  O   UNL     1      -4.956  65.890 -21.494  1.00  0.00    -0.452 OA
ENDROOT
BRANCH   1  12
ATOM     12  C   UNL     1      -3.876  64.255 -20.086  1.00  0.00     0.029 A 
ATOM     13  C   UNL     1      -4.921  63.324 -20.180  1.00  0.00     0.062 A 
ATOM     14  C   UNL     1      -5.002  62.240 -19.299  1.00  0.00     0.162 A 
ATOM     15  C   UNL     1      -2.883  64.070 -19.114  1.00  0.00     0.062 A 
ATOM     16  C   UNL     1      -4.008  62.072 -18.304  1.00  0.00     0.200 A 
ATOM     17  C   UNL     1      -2.946  62.992 -18.226  1.00  0.00     0.162 A 
BRANCH  14  18
ATOM     18  O   UNL     1      -6.078  61.363 -19.447  1.00  0.00    -0.504 OA
ATOM     19  H   UNL     1      -6.509  60.860 -18.685  1.00  0.00     0.293 HD
ENDBRANCH  14  18
BRANCH  16  20
ATOM     20  O   UNL     1      -4.039  61.014 -17.392  1.00  0.00    -0.502 OA
ATOM     21  H   UNL     1      -4.632  60.986 -16.576  1.00  0.00     0.293 HD
ENDBRANCH  16  20
BRANCH  17  22
ATOM     22  O   UNL     1      -1.939  62.851 -17.272  1.00  0.00    -0.504 OA
ATOM     23  H   UNL     1      -1.039  62.442 -17.491  1.00  0.00     0.293 HD
ENDBRANCH  17  22
ENDBRANCH   1  12
BRANCH   2  24
ATOM     24  O   UNL     1      -1.379  65.428 -20.986  1.00  0.00    -0.502 OA
ATOM     25  H   UNL     1      -1.288  64.495 -20.603  1.00  0.00     0.293 HD
ENDBRANCH   2  24
BRANCH   6  26
ATOM     26  O   UNL     1      -2.800  69.132 -24.348  1.00  0.00    -0.507 OA
ATOM     27  H   UNL     1      -2.517  70.068 -24.081  1.00  0.00     0.293 HD
ENDBRANCH   6  26
BRANCH   8  28
ATOM     28  O   UNL     1      -7.612  68.874 -24.112  1.00  0.00    -0.508 OA
ATOM     29  H   UNL     1      -8.463  68.353 -23.928  1.00  0.00     0.293 HD
ENDBRANCH   8  28
TORSDOF 7
ENDMDL
MODEL 8
REMARK VINA RESULT:    -7.357      2.061      7.472
REMARK INTER + INTRA:          -9.332
REMARK INTER:                  -9.057
REMARK INTRA:                  -0.274
REMARK UNBOUND:                -0.254
REMARK SMILES O=c1c(O)c(-c2cc(O)c(O)c(O)c2)oc2cc(O)cc(O)c12
REMARK SMILES IDX 5 1 3 2 2 3 1 4 23 5 21 6 20 7 18 8 17 9 16 10 15 11 6 12
REMARK SMILES IDX 7 13 8 14 14 15 10 16 12 17 9 18 11 20 13 22 4 24 22 26
REMARK SMILES IDX 19 28
REMARK H PARENT 9 19 11 21 13 23 4 25 22 27 19 29
REMARK Flexibility Score: inf
ROOT
ATOM      1  C   UNL     1      -2.735  68.062 -21.716  1.00  0.00     0.180 A 
ATOM      2  C   UNL     1      -3.236  68.426 -22.981  1.00  0.00     0.208 A 
ATOM      3  C   UNL     1      -4.620  68.598 -23.139  1.00  0.00     0.238 A 
ATOM      4  O   UNL     1      -5.080  68.913 -24.270  1.00  0.00    -0.285 OA
ATOM      5  C   UNL     1      -5.475  68.422 -22.032  1.00  0.00     0.111 A 
ATOM      6  C   UNL     1      -6.880  68.579 -22.106  1.00  0.00     0.134 A 
ATOM      7  C   UNL     1      -7.663  68.397 -20.957  1.00  0.00     0.093 A 
ATOM      8  C   UNL     1      -7.070  68.061 -19.737  1.00  0.00     0.123 A 
ATOM      9  C   UNL     1      -5.682  67.904 -19.658  1.00  0.00     0.094 A 
ATOM     10  C   UNL     1      -4.885  68.080 -20.793  1.00  0.00     0.146 A 
ATOM     11  O   UNL     1      -3.571  67.920 -20.691  1.00  0.00    -0.452 OA
ENDROOT
BRANCH   1  12
ATOM     12  C   UNL     1      -1.290  67.845 -21.475  1.00  0.00     0.029 A 
ATOM     13  C   UNL     1      -0.431  68.950 -21.398  1.00  0.00     0.062 A 
ATOM     14  C   UNL     1       0.936  68.784 -21.150  1.00  0.00     0.162 A 
ATOM     15  C   UNL     1      -0.770  66.560 -21.263  1.00  0.00     0.062 A 
ATOM     16  C   UNL     1       1.460  67.482 -20.961  1.00  0.00     0.200 A 
ATOM     17  C   UNL     1       0.593  66.375 -21.014  1.00  0.00     0.162 A 
BRANCH  14  18
ATOM     18  O   UNL     1       1.730  69.932 -21.100  1.00  0.00    -0.504 OA
ATOM     19  H   UNL     1       2.281  70.274 -21.873  1.00  0.00     0.293 HD
ENDBRANCH  14  18
BRANCH  16  20
ATOM     20  O   UNL     1       2.817  67.252 -20.718  1.00  0.00    -0.502 OA
ATOM     21  H   UNL     1       3.168  66.591 -20.041  1.00  0.00     0.293 HD
ENDBRANCH  16  20
BRANCH  17  22
ATOM     22  O   UNL     1       1.068  65.078 -20.817  1.00  0.00    -0.504 OA
ATOM     23  H   UNL     1       1.886  64.722 -21.297  1.00  0.00     0.293 HD
ENDBRANCH  17  22
ENDBRANCH   1  12
BRANCH   2  24
ATOM     24  O   UNL     1      -2.363  68.643 -24.050  1.00  0.00    -0.502 OA
ATOM     25  H   UNL     1      -1.543  68.068 -24.207  1.00  0.00     0.293 HD
ENDBRANCH   2  24
BRANCH   6  26
ATOM     26  O   UNL     1      -7.503  68.915 -23.310  1.00  0.00    -0.507 OA
ATOM     27  H   UNL     1      -7.187  69.695 -23.873  1.00  0.00     0.293 HD
ENDBRANCH   6  26
BRANCH   8  28
ATOM     28  O   UNL     1      -7.870  67.886 -18.610  1.00  0.00    -0.508 OA
ATOM     29  H   UNL     1      -8.737  68.397 -18.493  1.00  0.00     0.293 HD
ENDBRANCH   8  28
TORSDOF 7
ENDMDL
MODEL 9
REMARK VINA RESULT:    -7.348      6.283      8.458
REMARK INTER + INTRA:          -9.321
REMARK INTER:                  -9.231
REMARK INTRA:                  -0.090
REMARK UNBOUND:                -0.254
REMARK SMILES O=c1c(O)c(-c2cc(O)c(O)c(O)c2)oc2cc(O)cc(O)c12
REMARK SMILES IDX 5 1 3 2 2 3 1 4 23 5 21 6 20 7 18 8 17 9 16 10 15 11 6 12
REMARK SMILES IDX 7 13 8 14 14 15 10 16 12 17 9 18 11 20 13 22 4 24 22 26
REMARK SMILES IDX 19 28
REMARK H PARENT 9 19 11 21 13 23 4 25 22 27 19 29
REMARK Flexibility Score: inf
ROOT
ATOM      1  C   UNL     1      -3.332  62.377 -16.054  1.00  0.00     0.180 A 
ATOM      2  C   UNL     1      -4.241  61.358 -15.709  1.00  0.00     0.208 A 
ATOM      3  C   UNL     1      -4.218  60.842 -14.404  1.00  0.00     0.238 A 
ATOM      4  O   UNL     1      -5.020  59.921 -14.088  1.00  0.00    -0.285 OA
ATOM      5  C   UNL     1      -3.305  61.362 -13.465  1.00  0.00     0.111 A 
ATOM      6  C   UNL     1      -3.219  60.899 -12.129  1.00  0.00     0.134 A 
ATOM      7  C   UNL     1      -2.289  61.476 -11.251  1.00  0.00     0.093 A 
ATOM      8  C   UNL     1      -1.445  62.502 -11.681  1.00  0.00     0.123 A 
ATOM      9  C   UNL     1      -1.525  62.963 -12.999  1.00  0.00     0.094 A 
ATOM     10  C   UNL     1      -2.444  62.401 -13.890  1.00  0.00     0.146 A 
ATOM     11  O   UNL     1      -2.495  62.853 -15.137  1.00  0.00    -0.452 OA
ENDROOT
BRANCH   1  12
ATOM     12  C   UNL     1      -3.283  62.959 -17.415  1.00  0.00     0.029 A 
ATOM     13  C   UNL     1      -4.434  63.553 -17.953  1.00  0.00     0.062 A 
ATOM     14  C   UNL     1      -4.419  64.132 -19.226  1.00  0.00     0.162 A 
ATOM     15  C   UNL     1      -2.093  62.983 -18.158  1.00  0.00     0.062 A 
ATOM     16  C   UNL     1      -3.221  64.131 -19.981  1.00  0.00     0.200 A 
ATOM     17  C   UNL     1      -2.059  63.557 -19.431  1.00  0.00     0.162 A 
BRANCH  14  18
ATOM     18  O   UNL     1      -5.608  64.692 -19.698  1.00  0.00    -0.504 OA
ATOM     19  H   UNL     1      -6.461  64.747 -19.161  1.00  0.00     0.293 HD
ENDBRANCH  14  18
BRANCH  16  20
ATOM     20  O   UNL     1      -3.146  64.687 -21.261  1.00  0.00    -0.502 OA
ATOM     21  H   UNL     1      -2.393  65.278 -21.579  1.00  0.00     0.293 HD
ENDBRANCH  16  20
BRANCH  17  22
ATOM     22  O   UNL     1      -0.856  63.552 -20.136  1.00  0.00    -0.504 OA
ATOM     23  H   UNL     1      -0.291  62.716 -20.237  1.00  0.00     0.293 HD
ENDBRANCH  17  22
ENDBRANCH   1  12
BRANCH   2  24
ATOM     24  O   UNL     1      -5.170  60.894 -16.644  1.00  0.00    -0.502 OA
ATOM     25  H   UNL     1      -5.954  61.455 -16.955  1.00  0.00     0.293 HD
ENDBRANCH   2  24
BRANCH   6  26
ATOM     26  O   UNL     1      -4.048  59.875 -11.670  1.00  0.00    -0.507 OA
ATOM     27  H   UNL     1      -4.139  59.666 -10.683  1.00  0.00     0.293 HD
ENDBRANCH   6  26
BRANCH   8  28
ATOM     28  O   UNL     1      -0.531  63.058 -10.788  1.00  0.00    -0.508 OA
ATOM     29  H   UNL     1      -0.738  63.136  -9.799  1.00  0.00     0.293 HD
ENDBRANCH   8  28
TORSDOF 7
ENDMDL
