MODEL 1
REMARK VINA RESULT:    -5.734      0.000      0.000
REMARK INTER + INTRA:          -6.625
REMARK INTER:                  -6.572
REMARK INTRA:                  -0.053
REMARK UNBOUND:                -0.053
REMARK SMILES O=C([O-])c1cc(O)c(O)c(O)c1
REMARK SMILES IDX 4 1 5 2 12 3 6 4 10 5 8 6 2 7 1 8 3 9 7 10 11 12 9 14
REMARK H PARENT 7 11 11 13 9 15
REMARK Flexibility Score: inf
ROOT
ATOM      1  C   UNL     1     -33.115  11.168 -33.584  1.00  0.00     0.005 A 
ATOM      2  C   UNL     1     -33.884  11.867 -34.528  1.00  0.00     0.060 A 
ATOM      3  C   UNL     1     -32.235  10.171 -34.029  1.00  0.00     0.060 A 
ATOM      4  C   UNL     1     -33.784  11.584 -35.895  1.00  0.00     0.162 A 
ATOM      5  C   UNL     1     -32.121   9.875 -35.390  1.00  0.00     0.162 A 
ATOM      6  C   UNL     1     -32.892  10.575 -36.335  1.00  0.00     0.200 A 
ENDROOT
BRANCH   1   7
ATOM      7  C   UNL     1     -33.228  11.475 -32.140  1.00  0.00     0.072 C 
ATOM      8  O   UNL     1     -34.139  12.235 -31.716  1.00  0.00    -0.545 OA
ATOM      9  O   UNL     1     -32.330  10.927 -31.231  1.00  0.00    -0.545 OA
ENDBRANCH   1   7
BRANCH   4  10
ATOM     10  O   UNL     1     -34.581  12.323 -36.770  1.00  0.00    -0.504 OA
ATOM     11  H   UNL     1     -35.361  11.942 -37.285  1.00  0.00     0.293 HD
ENDBRANCH   4  10
BRANCH   5  12
ATOM     12  O   UNL     1     -31.233   8.875 -35.785  1.00  0.00    -0.504 OA
ATOM     13  H   UNL     1     -31.394   8.300 -36.603  1.00  0.00     0.293 HD
ENDBRANCH   5  12
BRANCH   6  14
ATOM     14  O   UNL     1     -32.748  10.248 -37.686  1.00  0.00    -0.502 OA
ATOM     15  H   UNL     1     -32.980  10.868 -38.449  1.00  0.00     0.293 HD
ENDBRANCH   6  14
TORSDOF 4
ENDMDL
MODEL 2
REMARK VINA RESULT:    -5.454      1.180      4.082
REMARK INTER + INTRA:          -6.303
REMARK INTER:                  -6.251
REMARK INTRA:                  -0.052
REMARK UNBOUND:                -0.053
REMARK SMILES O=C([O-])c1cc(O)c(O)c(O)c1
REMARK SMILES IDX 4 1 5 2 12 3 6 4 10 5 8 6 2 7 1 8 3 9 7 10 11 12 9 14
REMARK H PARENT 7 11 11 13 9 15
REMARK Flexibility Score: inf
ROOT
ATOM      1  C   UNL     1     -33.492  11.174 -34.778  1.00  0.00     0.005 A 
ATOM      2  C   UNL     1     -34.147  11.847 -33.734  1.00  0.00     0.060 A 
ATOM      3  C   UNL     1     -32.551  10.184 -34.461  1.00  0.00     0.060 A 
ATOM      4  C   UNL     1     -33.874  11.544 -32.395  1.00  0.00     0.162 A 
ATOM      5  C   UNL     1     -32.267   9.867 -33.131  1.00  0.00     0.162 A 
ATOM      6  C   UNL     1     -32.922  10.543 -32.085  1.00  0.00     0.200 A 
ENDROOT
BRANCH   1   7
ATOM      7  C   UNL     1     -33.787  11.501 -36.191  1.00  0.00     0.072 C 
ATOM      8  O   UNL     1     -34.310  12.605 -36.497  1.00  0.00    -0.545 OA
ATOM      9  O   UNL     1     -33.489  10.593 -37.201  1.00  0.00    -0.545 OA
ENDBRANCH   1   7
BRANCH   4  10
ATOM     10  O   UNL     1     -34.567  12.258 -31.415  1.00  0.00    -0.504 OA
ATOM     11  H   UNL     1     -34.254  12.360 -30.461  1.00  0.00     0.293 HD
ENDBRANCH   4  10
BRANCH   5  12
ATOM     12  O   UNL     1     -31.323   8.875 -32.865  1.00  0.00    -0.504 OA
ATOM     13  H   UNL     1     -31.568   7.999 -32.420  1.00  0.00     0.293 HD
ENDBRANCH   5  12
BRANCH   6  14
ATOM     14  O   UNL     1     -32.608  10.196 -30.768  1.00  0.00    -0.502 OA
ATOM     15  H   UNL     1     -32.470  10.863 -30.023  1.00  0.00     0.293 HD
ENDBRANCH   6  14
TORSDOF 4
ENDMDL
MODEL 3
REMARK VINA RESULT:    -5.362      1.152      4.668
REMARK INTER + INTRA:          -6.199
REMARK INTER:                  -6.148
REMARK INTRA:                  -0.051
REMARK UNBOUND:                -0.053
REMARK SMILES O=C([O-])c1cc(O)c(O)c(O)c1
REMARK SMILES IDX 4 1 5 2 12 3 6 4 10 5 8 6 2 7 1 8 3 9 7 10 11 12 9 14
REMARK H PARENT 7 11 11 13 9 15
REMARK Flexibility Score: inf
ROOT
ATOM      1  C   UNL     1     -33.452  11.176 -34.848  1.00  0.00     0.005 A 
ATOM      2  C   UNL     1     -32.484  10.211 -34.528  1.00  0.00     0.060 A 
ATOM      3  C   UNL     1     -34.146  11.812 -33.809  1.00  0.00     0.060 A 
ATOM      4  C   UNL     1     -32.205   9.881 -33.197  1.00  0.00     0.162 A 
ATOM      5  C   UNL     1     -33.880  11.496 -32.475  1.00  0.00     0.162 A 
ATOM      6  C   UNL     1     -32.911  10.529 -32.154  1.00  0.00     0.200 A 
ENDROOT
BRANCH   1   7
ATOM      7  C   UNL     1     -33.739  11.518 -36.259  1.00  0.00     0.072 C 
ATOM      8  O   UNL     1     -34.188  12.655 -36.564  1.00  0.00    -0.545 OA
ATOM      9  O   UNL     1     -33.516  10.589 -37.269  1.00  0.00    -0.545 OA
ENDBRANCH   1   7
BRANCH   4  10
ATOM     10  O   UNL     1     -31.228   8.912 -32.960  1.00  0.00    -0.504 OA
ATOM     11  H   UNL     1     -31.083   8.459 -32.069  1.00  0.00     0.293 HD
ENDBRANCH   4  10
BRANCH   5  12
ATOM     12  O   UNL     1     -34.596  12.155 -31.475  1.00  0.00    -0.504 OA
ATOM     13  H   UNL     1     -34.140  12.639 -30.711  1.00  0.00     0.293 HD
ENDBRANCH   5  12
BRANCH   6  14
ATOM     14  O   UNL     1     -32.677  10.242 -30.806  1.00  0.00    -0.502 OA
ATOM     15  H   UNL     1     -31.974  10.699 -30.242  1.00  0.00     0.293 HD
ENDBRANCH   6  14
TORSDOF 4
ENDMDL
MODEL 4
REMARK VINA RESULT:    -4.576      1.561      4.387
REMARK INTER + INTRA:          -5.297
REMARK INTER:                  -5.253
REMARK INTRA:                  -0.045
REMARK UNBOUND:                -0.053
REMARK SMILES O=C([O-])c1cc(O)c(O)c(O)c1
REMARK SMILES IDX 4 1 5 2 12 3 6 4 10 5 8 6 2 7 1 8 3 9 7 10 11 12 9 14
REMARK H PARENT 7 11 11 13 9 15
REMARK Flexibility Score: inf
ROOT
ATOM      1  C   UNL     1     -33.484  10.699 -35.653  1.00  0.00     0.005 A 
ATOM      2  C   UNL     1     -32.106  10.431 -35.624  1.00  0.00     0.060 A 
ATOM      3  C   UNL     1     -34.253  10.428 -34.513  1.00  0.00     0.060 A 
ATOM      4  C   UNL     1     -31.497   9.903 -34.480  1.00  0.00     0.162 A 
ATOM      5  C   UNL     1     -33.662   9.901 -33.362  1.00  0.00     0.162 A 
ATOM      6  C   UNL     1     -32.281   9.632 -33.332  1.00  0.00     0.200 A 
ENDROOT
BRANCH   1   7
ATOM      7  C   UNL     1     -34.119  11.258 -36.868  1.00  0.00     0.072 C 
ATOM      8  O   UNL     1     -34.404  12.483 -36.937  1.00  0.00    -0.545 OA
ATOM      9  O   UNL     1     -34.409  10.437 -37.952  1.00  0.00    -0.545 OA
ENDBRANCH   1   7
BRANCH   4  10
ATOM     10  O   UNL     1     -30.122   9.665 -34.528  1.00  0.00    -0.504 OA
ATOM     11  H   UNL     1     -29.555   9.452 -33.721  1.00  0.00     0.293 HD
ENDBRANCH   4  10
BRANCH   5  12
ATOM     12  O   UNL     1     -34.468   9.648 -32.252  1.00  0.00    -0.504 OA
ATOM     13  H   UNL     1     -34.565   8.722 -31.853  1.00  0.00     0.293 HD
ENDBRANCH   5  12
BRANCH   6  14
ATOM     14  O   UNL     1     -31.731   9.106 -32.161  1.00  0.00    -0.502 OA
ATOM     15  H   UNL     1     -31.970   9.419 -31.230  1.00  0.00     0.293 HD
ENDBRANCH   6  14
TORSDOF 4
ENDMDL
MODEL 5
REMARK VINA RESULT:    -4.391      2.116      4.571
REMARK INTER + INTRA:          -5.086
REMARK INTER:                  -5.034
REMARK INTRA:                  -0.052
REMARK UNBOUND:                -0.053
REMARK SMILES O=C([O-])c1cc(O)c(O)c(O)c1
REMARK SMILES IDX 4 1 5 2 12 3 6 4 10 5 8 6 2 7 1 8 3 9 7 10 11 12 9 14
REMARK H PARENT 7 11 11 13 9 15
REMARK Flexibility Score: inf
ROOT
ATOM      1  C   UNL     1     -33.428   9.206 -35.182  1.00  0.00     0.005 A 
ATOM      2  C   UNL     1     -34.515   9.015 -34.313  1.00  0.00     0.060 A 
ATOM      3  C   UNL     1     -32.178   9.539 -34.642  1.00  0.00     0.060 A 
ATOM      4  C   UNL     1     -34.365   9.150 -32.928  1.00  0.00     0.162 A 
ATOM      5  C   UNL     1     -32.009   9.677 -33.262  1.00  0.00     0.162 A 
ATOM      6  C   UNL     1     -33.098   9.486 -32.392  1.00  0.00     0.200 A 
ENDROOT
BRANCH   1   7
ATOM      7  C   UNL     1     -33.597   9.061 -36.645  1.00  0.00     0.072 C 
ATOM      8  O   UNL     1     -34.743   9.104 -37.166  1.00  0.00    -0.545 OA
ATOM      9  O   UNL     1     -32.490   8.875 -37.466  1.00  0.00    -0.545 OA
ENDBRANCH   1   7
BRANCH   4  10
ATOM     10  O   UNL     1     -35.492   8.943 -32.131  1.00  0.00    -0.504 OA
ATOM     11  H   UNL     1     -35.492   8.999 -31.123  1.00  0.00     0.293 HD
ENDBRANCH   4  10
BRANCH   5  12
ATOM     12  O   UNL     1     -30.747  10.010 -32.772  1.00  0.00    -0.504 OA
ATOM     13  H   UNL     1     -30.550  10.073 -31.780  1.00  0.00     0.293 HD
ENDBRANCH   5  12
BRANCH   6  14
ATOM     14  O   UNL     1     -32.886   9.635 -31.018  1.00  0.00    -0.502 OA
ATOM     15  H   UNL     1     -32.323  10.365 -30.607  1.00  0.00     0.293 HD
ENDBRANCH   6  14
TORSDOF 4
ENDMDL
MODEL 6
REMARK VINA RESULT:    -4.349     16.779     17.906
REMARK INTER + INTRA:          -5.037
REMARK INTER:                  -4.992
REMARK INTRA:                  -0.045
REMARK UNBOUND:                -0.053
REMARK SMILES O=C([O-])c1cc(O)c(O)c(O)c1
REMARK SMILES IDX 4 1 5 2 12 3 6 4 10 5 8 6 2 7 1 8 3 9 7 10 11 12 9 14
REMARK H PARENT 7 11 11 13 9 15
REMARK Flexibility Score: inf
ROOT
ATOM      1  C   UNL     1     -24.713  24.840 -31.023  1.00  0.00     0.005 A 
ATOM      2  C   UNL     1     -23.836  23.963 -30.365  1.00  0.00     0.060 A 
ATOM      3  C   UNL     1     -24.362  26.193 -31.135  1.00  0.00     0.060 A 
ATOM      4  C   UNL     1     -22.628  24.418 -29.825  1.00  0.00     0.162 A 
ATOM      5  C   UNL     1     -23.160  26.666 -30.604  1.00  0.00     0.162 A 
ATOM      6  C   UNL     1     -22.282  25.787 -29.943  1.00  0.00     0.200 A 
ENDROOT
BRANCH   1   7
ATOM      7  C   UNL     1     -25.988  24.349 -31.591  1.00  0.00     0.072 C 
ATOM      8  O   UNL     1     -26.154  24.289 -32.838  1.00  0.00    -0.545 OA
ATOM      9  O   UNL     1     -27.022  23.944 -30.754  1.00  0.00    -0.545 OA
ENDBRANCH   1   7
BRANCH   4  10
ATOM     10  O   UNL     1     -21.810  23.485 -29.186  1.00  0.00    -0.504 OA
ATOM     11  H   UNL     1     -22.149  22.642 -28.746  1.00  0.00     0.293 HD
ENDBRANCH   4  10
BRANCH   5  12
ATOM     12  O   UNL     1     -22.854  28.020 -30.739  1.00  0.00    -0.504 OA
ATOM     13  H   UNL     1     -23.567  28.725 -30.883  1.00  0.00     0.293 HD
ENDBRANCH   5  12
BRANCH   6  14
ATOM     14  O   UNL     1     -21.090  26.301 -29.426  1.00  0.00    -0.502 OA
ATOM     15  H   UNL     1     -20.258  25.752 -29.263  1.00  0.00     0.293 HD
ENDBRANCH   6  14
TORSDOF 4
ENDMDL
MODEL 7
REMARK VINA RESULT:    -4.260     16.748     17.728
REMARK INTER + INTRA:          -4.935
REMARK INTER:                  -4.890
REMARK INTRA:                  -0.045
REMARK UNBOUND:                -0.053
REMARK SMILES O=C([O-])c1cc(O)c(O)c(O)c1
REMARK SMILES IDX 4 1 5 2 12 3 6 4 10 5 8 6 2 7 1 8 3 9 7 10 11 12 9 14
REMARK H PARENT 7 11 11 13 9 15
REMARK Flexibility Score: inf
ROOT
ATOM      1  C   UNL     1     -24.772  24.838 -31.055  1.00  0.00     0.005 A 
ATOM      2  C   UNL     1     -24.452  26.202 -31.153  1.00  0.00     0.060 A 
ATOM      3  C   UNL     1     -23.873  23.974 -30.414  1.00  0.00     0.060 A 
ATOM      4  C   UNL     1     -23.258  26.704 -30.623  1.00  0.00     0.162 A 
ATOM      5  C   UNL     1     -22.677  24.458 -29.878  1.00  0.00     0.162 A 
ATOM      6  C   UNL     1     -22.356  25.824 -29.977  1.00  0.00     0.200 A 
ENDROOT
BRANCH   1   7
ATOM      7  C   UNL     1     -26.037  24.316 -31.618  1.00  0.00     0.072 C 
ATOM      8  O   UNL     1     -26.204  24.248 -32.865  1.00  0.00    -0.545 OA
ATOM      9  O   UNL     1     -27.061  23.893 -30.777  1.00  0.00    -0.545 OA
ENDBRANCH   1   7
BRANCH   4  10
ATOM     10  O   UNL     1     -23.012  28.071 -30.761  1.00  0.00    -0.504 OA
ATOM     11  H   UNL     1     -23.275  28.766 -30.077  1.00  0.00     0.293 HD
ENDBRANCH   4  10
BRANCH   5  12
ATOM     12  O   UNL     1     -21.813  23.561 -29.250  1.00  0.00    -0.504 OA
ATOM     13  H   UNL     1     -21.823  22.568 -29.451  1.00  0.00     0.293 HD
ENDBRANCH   5  12
BRANCH   6  14
ATOM     14  O   UNL     1     -21.149  26.266 -29.429  1.00  0.00    -0.502 OA
ATOM     15  H   UNL     1     -20.974  26.354 -28.437  1.00  0.00     0.293 HD
ENDBRANCH   6  14
TORSDOF 4
ENDMDL
MODEL 8
REMARK VINA RESULT:    -3.951      1.363      4.038
REMARK INTER + INTRA:          -4.581
REMARK INTER:                  -4.534
REMARK INTRA:                  -0.047
REMARK UNBOUND:                -0.053
REMARK SMILES O=C([O-])c1cc(O)c(O)c(O)c1
REMARK SMILES IDX 4 1 5 2 12 3 6 4 10 5 8 6 2 7 1 8 3 9 7 10 11 12 9 14
REMARK H PARENT 7 11 11 13 9 15
REMARK Flexibility Score: inf
ROOT
ATOM      1  C   UNL     1     -33.928  10.999 -36.424  1.00  0.00     0.005 A 
ATOM      2  C   UNL     1     -34.094  11.517 -35.129  1.00  0.00     0.060 A 
ATOM      3  C   UNL     1     -32.866  10.117 -36.672  1.00  0.00     0.060 A 
ATOM      4  C   UNL     1     -33.221  11.166 -34.093  1.00  0.00     0.162 A 
ATOM      5  C   UNL     1     -31.985   9.755 -35.650  1.00  0.00     0.162 A 
ATOM      6  C   UNL     1     -32.151  10.274 -34.353  1.00  0.00     0.200 A 
ENDROOT
BRANCH   1   7
ATOM      7  C   UNL     1     -34.857  11.376 -37.513  1.00  0.00     0.072 C 
ATOM      8  O   UNL     1     -35.439  10.491 -38.194  1.00  0.00    -0.545 OA
ATOM      9  O   UNL     1     -35.100  12.715 -37.799  1.00  0.00    -0.545 OA
ENDBRANCH   1   7
BRANCH   4  10
ATOM     10  O   UNL     1     -33.452  11.722 -32.834  1.00  0.00    -0.504 OA
ATOM     11  H   UNL     1     -34.233  12.323 -32.615  1.00  0.00     0.293 HD
ENDBRANCH   4  10
BRANCH   5  12
ATOM     12  O   UNL     1     -30.944   8.875 -35.944  1.00  0.00    -0.504 OA
ATOM     13  H   UNL     1     -30.110   9.169 -36.440  1.00  0.00     0.293 HD
ENDBRANCH   5  12
BRANCH   6  14
ATOM     14  O   UNL     1     -31.247   9.886 -33.360  1.00  0.00    -0.502 OA
ATOM     15  H   UNL     1     -30.816  10.523 -32.705  1.00  0.00     0.293 HD
ENDBRANCH   6  14
TORSDOF 4
ENDMDL
MODEL 9
REMARK VINA RESULT:    -3.185      0.076      2.445
REMARK INTER + INTRA:          -3.703
REMARK INTER:                  -3.650
REMARK INTRA:                  -0.053
REMARK UNBOUND:                -0.053
REMARK SMILES O=C([O-])c1cc(O)c(O)c(O)c1
REMARK SMILES IDX 4 1 5 2 12 3 6 4 10 5 8 6 2 7 1 8 3 9 7 10 11 12 9 14
REMARK H PARENT 7 11 11 13 9 15
REMARK Flexibility Score: inf
ROOT
ATOM      1  C   UNL     1     -33.125  11.130 -33.615  1.00  0.00     0.005 A 
ATOM      2  C   UNL     1     -32.228  10.152 -34.075  1.00  0.00     0.060 A 
ATOM      3  C   UNL     1     -33.917  11.817 -34.545  1.00  0.00     0.060 A 
ATOM      4  C   UNL     1     -32.117   9.860 -35.440  1.00  0.00     0.162 A 
ATOM      5  C   UNL     1     -33.820  11.538 -35.910  1.00  0.00     0.162 A 
ATOM      6  C   UNL     1     -32.921  10.559 -36.372  1.00  0.00     0.200 A 
ENDROOT
BRANCH   1   7
ATOM      7  C   UNL     1     -33.235  11.432 -32.170  1.00  0.00     0.072 C 
ATOM      8  O   UNL     1     -34.096  12.250 -31.750  1.00  0.00    -0.545 OA
ATOM      9  O   UNL     1     -32.389  10.816 -31.255  1.00  0.00    -0.545 OA
ENDBRANCH   1   7
BRANCH   4  10
ATOM     10  O   UNL     1     -31.203   8.875 -35.819  1.00  0.00    -0.504 OA
ATOM     11  H   UNL     1     -30.463   8.530 -35.226  1.00  0.00     0.293 HD
ENDBRANCH   4  10
BRANCH   5  12
ATOM     12  O   UNL     1     -34.628  12.248 -36.798  1.00  0.00    -0.504 OA
ATOM     13  H   UNL     1     -35.009  11.829 -37.638  1.00  0.00     0.293 HD
ENDBRANCH   5  12
BRANCH   6  14
ATOM     14  O   UNL     1     -32.856  10.312 -37.746  1.00  0.00    -0.502 OA
ATOM     15  H   UNL     1     -33.528   9.755 -38.255  1.00  0.00     0.293 HD
ENDBRANCH   6  14
TORSDOF 4
ENDMDL
