MODEL 1
REMARK VINA RESULT:    -3.785      0.000      0.000
REMARK INTER + INTRA:          -8.498
REMARK INTER:                  -6.662
REMARK INTRA:                  -1.836
REMARK UNBOUND:                -1.836
REMARK SMILES CCCCCCCCCCCCCCC(=O)[O-]
REMARK SMILES IDX 9 1 10 2 11 3 12 4 13 5 14 6 15 7 16 8 17 9 8 10 7 11 6 12
REMARK SMILES IDX 5 13 4 14 3 15 2 16 1 17
REMARK H PARENT
REMARK Flexibility Score: inf
ROOT
ATOM      1  C   UNL     1      23.229  35.016  12.501  1.00  0.00     0.000 C 
ENDROOT
BRANCH   1   2
ATOM      2  C   UNL     1      22.374  34.451  13.644  1.00  0.00     0.000 C 
BRANCH   2   3
ATOM      3  C   UNL     1      22.701  35.089  15.007  1.00  0.00     0.000 C 
BRANCH   3   4
ATOM      4  C   UNL     1      21.874  36.343  15.356  1.00  0.00     0.000 C 
BRANCH   4   5
ATOM      5  C   UNL     1      22.700  37.595  15.702  1.00  0.00     0.006 C 
BRANCH   5   6
ATOM      6  C   UNL     1      24.081  37.600  15.035  1.00  0.00     0.053 C 
BRANCH   6   7
ATOM      7  C   UNL     1      24.374  38.946  14.452  1.00  0.00     0.041 C 
ATOM      8  O   UNL     1      24.866  39.855  15.171  1.00  0.00    -0.550 OA
ATOM      9  O   UNL     1      24.058  39.212  13.125  1.00  0.00    -0.550 OA
ENDBRANCH   6   7
ENDBRANCH   5   6
ENDBRANCH   4   5
ENDBRANCH   3   4
ENDBRANCH   2   3
ENDBRANCH   1   2
BRANCH   1  10
ATOM     10  C   UNL     1      23.060  34.182  11.225  1.00  0.00     0.000 C 
BRANCH  10  11
ATOM     11  C   UNL     1      24.400  33.571  10.785  1.00  0.00    -0.000 C 
BRANCH  11  12
ATOM     12  C   UNL     1      24.383  32.034  10.791  1.00  0.00    -0.000 C 
BRANCH  12  13
ATOM     13  C   UNL     1      25.550  31.434  11.595  1.00  0.00    -0.000 C 
BRANCH  13  14
ATOM     14  C   UNL     1      26.192  32.453  12.551  1.00  0.00    -0.000 C 
BRANCH  14  15
ATOM     15  C   UNL     1      25.697  32.302  13.998  1.00  0.00    -0.000 C 
BRANCH  15  16
ATOM     16  C   UNL     1      26.066  33.533  14.834  1.00  0.00    -0.003 C 
ATOM     17  C   UNL     1      26.462  34.707  13.943  1.00  0.00     0.004 C 
ENDBRANCH  15  16
ENDBRANCH  14  15
ENDBRANCH  13  14
ENDBRANCH  12  13
ENDBRANCH  11  12
ENDBRANCH  10  11
ENDBRANCH   1  10
TORSDOF 13
ENDMDL
MODEL 2
REMARK VINA RESULT:    -3.749      1.087      2.283
REMARK INTER + INTRA:          -8.434
REMARK INTER:                  -6.278
REMARK INTRA:                  -2.156
REMARK UNBOUND:                -1.836
REMARK SMILES CCCCCCCCCCCCCCC(=O)[O-]
REMARK SMILES IDX 9 1 10 2 11 3 12 4 13 5 14 6 15 7 16 8 17 9 8 10 7 11 6 12
REMARK SMILES IDX 5 13 4 14 3 15 2 16 1 17
REMARK H PARENT
REMARK Flexibility Score: inf
ROOT
ATOM      1  C   UNL     1      24.021  33.731  10.599  1.00  0.00     0.000 C 
ENDROOT
BRANCH   1   2
ATOM      2  C   UNL     1      23.019  33.819  11.759  1.00  0.00     0.000 C 
BRANCH   2   3
ATOM      3  C   UNL     1      22.977  35.215  12.407  1.00  0.00     0.000 C 
BRANCH   3   4
ATOM      4  C   UNL     1      22.543  35.236  13.887  1.00  0.00     0.000 C 
BRANCH   4   5
ATOM      5  C   UNL     1      22.951  36.496  14.670  1.00  0.00     0.006 C 
BRANCH   5   6
ATOM      6  C   UNL     1      24.293  37.077  14.206  1.00  0.00     0.053 C 
BRANCH   6   7
ATOM      7  C   UNL     1      24.260  38.572  14.258  1.00  0.00     0.041 C 
ATOM      8  O   UNL     1      24.427  39.172  15.353  1.00  0.00    -0.550 OA
ATOM      9  O   UNL     1      23.996  39.302  13.106  1.00  0.00    -0.550 OA
ENDBRANCH   6   7
ENDBRANCH   5   6
ENDBRANCH   4   5
ENDBRANCH   3   4
ENDBRANCH   2   3
ENDBRANCH   1   2
BRANCH   1  10
ATOM     10  C   UNL     1      24.796  32.408  10.641  1.00  0.00     0.000 C 
BRANCH  10  11
ATOM     11  C   UNL     1      25.744  32.365  11.850  1.00  0.00    -0.000 C 
BRANCH  11  12
ATOM     12  C   UNL     1      26.604  33.633  11.977  1.00  0.00    -0.000 C 
BRANCH  12  13
ATOM     13  C   UNL     1      26.482  34.292  13.362  1.00  0.00    -0.000 C 
BRANCH  13  14
ATOM     14  C   UNL     1      26.405  33.262  14.500  1.00  0.00    -0.000 C 
BRANCH  14  15
ATOM     15  C   UNL     1      25.206  33.494  15.432  1.00  0.00    -0.000 C 
BRANCH  15  16
ATOM     16  C   UNL     1      24.542  32.165  15.812  1.00  0.00    -0.003 C 
ATOM     17  C   UNL     1      23.529  31.733  14.756  1.00  0.00     0.004 C 
ENDBRANCH  15  16
ENDBRANCH  14  15
ENDBRANCH  13  14
ENDBRANCH  12  13
ENDBRANCH  11  12
ENDBRANCH  10  11
ENDBRANCH   1  10
TORSDOF 13
ENDMDL
MODEL 3
REMARK VINA RESULT:    -3.718      0.983      3.054
REMARK INTER + INTRA:          -8.380
REMARK INTER:                  -6.332
REMARK INTRA:                  -2.049
REMARK UNBOUND:                -1.836
REMARK SMILES CCCCCCCCCCCCCCC(=O)[O-]
REMARK SMILES IDX 9 1 10 2 11 3 12 4 13 5 14 6 15 7 16 8 17 9 8 10 7 11 6 12
REMARK SMILES IDX 5 13 4 14 3 15 2 16 1 17
REMARK H PARENT
REMARK Flexibility Score: inf
ROOT
ATOM      1  C   UNL     1      22.974  33.350  15.555  1.00  0.00     0.000 C 
ENDROOT
BRANCH   1   2
ATOM      2  C   UNL     1      22.754  33.625  14.061  1.00  0.00     0.000 C 
BRANCH   2   3
ATOM      3  C   UNL     1      22.382  35.091  13.772  1.00  0.00     0.000 C 
BRANCH   3   4
ATOM      4  C   UNL     1      21.892  35.895  14.993  1.00  0.00     0.000 C 
BRANCH   4   5
ATOM      5  C   UNL     1      22.680  37.183  15.287  1.00  0.00     0.006 C 
BRANCH   5   6
ATOM      6  C   UNL     1      23.893  37.362  14.364  1.00  0.00     0.053 C 
BRANCH   6   7
ATOM      7  C   UNL     1      24.185  38.815  14.163  1.00  0.00     0.041 C 
ATOM      8  O   UNL     1      23.958  39.360  13.051  1.00  0.00    -0.550 OA
ATOM      9  O   UNL     1      24.753  39.559  15.191  1.00  0.00    -0.550 OA
ENDBRANCH   6   7
ENDBRANCH   5   6
ENDBRANCH   4   5
ENDBRANCH   3   4
ENDBRANCH   2   3
ENDBRANCH   1   2
BRANCH   1  10
ATOM     10  C   UNL     1      24.441  33.008  15.840  1.00  0.00     0.000 C 
BRANCH  10  11
ATOM     11  C   UNL     1      25.313  34.274  15.835  1.00  0.00    -0.000 C 
BRANCH  11  12
ATOM     12  C   UNL     1      26.546  34.143  14.926  1.00  0.00    -0.000 C 
BRANCH  12  13
ATOM     13  C   UNL     1      26.312  34.734  13.525  1.00  0.00    -0.000 C 
BRANCH  13  14
ATOM     14  C   UNL     1      26.766  33.787  12.402  1.00  0.00    -0.000 C 
BRANCH  14  15
ATOM     15  C   UNL     1      25.949  32.488  12.355  1.00  0.00    -0.000 C 
BRANCH  15  16
ATOM     16  C   UNL     1      25.312  32.291  10.973  1.00  0.00    -0.003 C 
ATOM     17  C   UNL     1      24.272  33.370  10.687  1.00  0.00     0.004 C 
ENDBRANCH  15  16
ENDBRANCH  14  15
ENDBRANCH  13  14
ENDBRANCH  12  13
ENDBRANCH  11  12
ENDBRANCH  10  11
ENDBRANCH   1  10
TORSDOF 13
ENDMDL
MODEL 4
REMARK VINA RESULT:    -3.692      0.956      3.117
REMARK INTER + INTRA:          -8.334
REMARK INTER:                  -6.405
REMARK INTRA:                  -1.929
REMARK UNBOUND:                -1.836
REMARK SMILES CCCCCCCCCCCCCCC(=O)[O-]
REMARK SMILES IDX 9 1 10 2 11 3 12 4 13 5 14 6 15 7 16 8 17 9 8 10 7 11 6 12
REMARK SMILES IDX 5 13 4 14 3 15 2 16 1 17
REMARK H PARENT
REMARK Flexibility Score: inf
ROOT
ATOM      1  C   UNL     1      26.550  34.625  13.486  1.00  0.00     0.000 C 
ENDROOT
BRANCH   1   2
ATOM      2  C   UNL     1      26.163  33.804  14.725  1.00  0.00     0.000 C 
BRANCH   2   3
ATOM      3  C   UNL     1      25.081  34.490  15.581  1.00  0.00     0.000 C 
BRANCH   3   4
ATOM      4  C   UNL     1      25.432  35.913  16.061  1.00  0.00     0.000 C 
BRANCH   4   5
ATOM      5  C   UNL     1      24.361  36.980  15.777  1.00  0.00     0.006 C 
BRANCH   5   6
ATOM      6  C   UNL     1      24.486  37.591  14.376  1.00  0.00     0.053 C 
BRANCH   6   7
ATOM      7  C   UNL     1      24.362  39.081  14.444  1.00  0.00     0.041 C 
ATOM      8  O   UNL     1      23.718  39.704  13.559  1.00  0.00    -0.550 OA
ATOM      9  O   UNL     1      24.998  39.786  15.458  1.00  0.00    -0.550 OA
ENDBRANCH   6   7
ENDBRANCH   5   6
ENDBRANCH   4   5
ENDBRANCH   3   4
ENDBRANCH   2   3
ENDBRANCH   1   2
BRANCH   1  10
ATOM     10  C   UNL     1      26.561  33.749  12.228  1.00  0.00     0.000 C 
BRANCH  10  11
ATOM     11  C   UNL     1      25.813  32.428  12.471  1.00  0.00    -0.000 C 
BRANCH  11  12
ATOM     12  C   UNL     1      24.462  32.366  11.740  1.00  0.00    -0.000 C 
BRANCH  12  13
ATOM     13  C   UNL     1      24.227  33.584  10.830  1.00  0.00    -0.000 C 
BRANCH  13  14
ATOM     14  C   UNL     1      22.921  34.324  11.162  1.00  0.00    -0.000 C 
BRANCH  14  15
ATOM     15  C   UNL     1      22.969  35.031  12.525  1.00  0.00    -0.000 C 
BRANCH  15  16
ATOM     16  C   UNL     1      22.132  34.275  13.564  1.00  0.00    -0.003 C 
ATOM     17  C   UNL     1      21.573  35.224  14.619  1.00  0.00     0.004 C 
ENDBRANCH  15  16
ENDBRANCH  14  15
ENDBRANCH  13  14
ENDBRANCH  12  13
ENDBRANCH  11  12
ENDBRANCH  10  11
ENDBRANCH   1  10
TORSDOF 13
ENDMDL
MODEL 5
REMARK VINA RESULT:    -3.662      2.019      5.397
REMARK INTER + INTRA:          -8.282
REMARK INTER:                  -6.668
REMARK INTRA:                  -1.614
REMARK UNBOUND:                -1.836
REMARK SMILES CCCCCCCCCCCCCCC(=O)[O-]
REMARK SMILES IDX 9 1 10 2 11 3 12 4 13 5 14 6 15 7 16 8 17 9 8 10 7 11 6 12
REMARK SMILES IDX 5 13 4 14 3 15 2 16 1 17
REMARK H PARENT
REMARK Flexibility Score: inf
ROOT
ATOM      1  C   UNL     1      22.816  34.260  11.076  1.00  0.00     0.000 C 
ENDROOT
BRANCH   1   2
ATOM      2  C   UNL     1      24.190  33.691  10.697  1.00  0.00     0.000 C 
BRANCH   2   3
ATOM      3  C   UNL     1      24.186  32.157  10.563  1.00  0.00     0.000 C 
BRANCH   3   4
ATOM      4  C   UNL     1      25.194  31.419  11.466  1.00  0.00     0.000 C 
BRANCH   4   5
ATOM      5  C   UNL     1      25.189  31.853  12.942  1.00  0.00     0.006 C 
BRANCH   5   6
ATOM      6  C   UNL     1      26.549  32.385  13.411  1.00  0.00     0.053 C 
BRANCH   6   7
ATOM      7  C   UNL     1      26.678  33.840  13.091  1.00  0.00     0.041 C 
ATOM      8  O   UNL     1      26.105  34.702  13.808  1.00  0.00    -0.550 OA
ATOM      9  O   UNL     1      27.394  34.244  11.970  1.00  0.00    -0.550 OA
ENDBRANCH   6   7
ENDBRANCH   5   6
ENDBRANCH   4   5
ENDBRANCH   3   4
ENDBRANCH   2   3
ENDBRANCH   1   2
BRANCH   1  10
ATOM     10  C   UNL     1      22.894  35.065  12.378  1.00  0.00     0.000 C 
BRANCH  10  11
ATOM     11  C   UNL     1      22.551  34.185  13.591  1.00  0.00    -0.000 C 
BRANCH  11  12
ATOM     12  C   UNL     1      22.769  34.907  14.931  1.00  0.00    -0.000 C 
BRANCH  12  13
ATOM     13  C   UNL     1      21.814  36.098  15.121  1.00  0.00    -0.000 C 
BRANCH  13  14
ATOM     14  C   UNL     1      22.561  37.416  15.382  1.00  0.00    -0.000 C 
BRANCH  14  15
ATOM     15  C   UNL     1      24.080  37.285  15.194  1.00  0.00    -0.000 C 
BRANCH  15  16
ATOM     16  C   UNL     1      24.533  37.977  13.902  1.00  0.00    -0.003 C 
ATOM     17  C   UNL     1      23.876  39.346  13.750  1.00  0.00     0.004 C 
ENDBRANCH  15  16
ENDBRANCH  14  15
ENDBRANCH  13  14
ENDBRANCH  12  13
ENDBRANCH  11  12
ENDBRANCH  10  11
ENDBRANCH   1  10
TORSDOF 13
ENDMDL
MODEL 6
REMARK VINA RESULT:    -3.465      1.919      5.652
REMARK INTER + INTRA:          -7.935
REMARK INTER:                  -6.158
REMARK INTRA:                  -1.776
REMARK UNBOUND:                -1.836
REMARK SMILES CCCCCCCCCCCCCCC(=O)[O-]
REMARK SMILES IDX 9 1 10 2 11 3 12 4 13 5 14 6 15 7 16 8 17 9 8 10 7 11 6 12
REMARK SMILES IDX 5 13 4 14 3 15 2 16 1 17
REMARK H PARENT
REMARK Flexibility Score: inf
ROOT
ATOM      1  C   UNL     1      26.292  34.793  13.918  1.00  0.00     0.000 C 
ENDROOT
BRANCH   1   2
ATOM      2  C   UNL     1      26.882  34.231  12.618  1.00  0.00     0.000 C 
BRANCH   2   3
ATOM      3  C   UNL     1      26.486  32.764  12.367  1.00  0.00     0.000 C 
BRANCH   3   4
ATOM      4  C   UNL     1      25.491  32.544  11.209  1.00  0.00     0.000 C 
BRANCH   4   5
ATOM      5  C   UNL     1      24.005  32.619  11.602  1.00  0.00     0.006 C 
BRANCH   5   6
ATOM      6  C   UNL     1      23.355  33.955  11.222  1.00  0.00     0.053 C 
BRANCH   6   7
ATOM      7  C   UNL     1      22.851  34.655  12.444  1.00  0.00     0.041 C 
ATOM      8  O   UNL     1      23.081  35.882  12.612  1.00  0.00    -0.550 OA
ATOM      9  O   UNL     1      22.168  33.942  13.422  1.00  0.00    -0.550 OA
ENDBRANCH   6   7
ENDBRANCH   5   6
ENDBRANCH   4   5
ENDBRANCH   3   4
ENDBRANCH   2   3
ENDBRANCH   1   2
BRANCH   1  10
ATOM     10  C   UNL     1      25.767  33.666  14.816  1.00  0.00     0.000 C 
BRANCH  10  11
ATOM     11  C   UNL     1      24.713  34.193  15.802  1.00  0.00    -0.000 C 
BRANCH  11  12
ATOM     12  C   UNL     1      24.627  35.728  15.816  1.00  0.00    -0.000 C 
BRANCH  12  13
ATOM     13  C   UNL     1      23.207  36.237  16.119  1.00  0.00    -0.000 C 
BRANCH  13  14
ATOM     14  C   UNL     1      23.043  37.737  15.823  1.00  0.00    -0.000 C 
BRANCH  14  15
ATOM     15  C   UNL     1      24.349  38.524  16.005  1.00  0.00    -0.000 C 
BRANCH  15  16
ATOM     16  C   UNL     1      24.553  39.520  14.856  1.00  0.00    -0.003 C 
ATOM     17  C   UNL     1      24.670  38.799  13.517  1.00  0.00     0.004 C 
ENDBRANCH  15  16
ENDBRANCH  14  15
ENDBRANCH  13  14
ENDBRANCH  12  13
ENDBRANCH  11  12
ENDBRANCH  10  11
ENDBRANCH   1  10
TORSDOF 13
ENDMDL
MODEL 7
REMARK VINA RESULT:    -3.432      1.160      3.000
REMARK INTER + INTRA:          -7.877
REMARK INTER:                  -6.420
REMARK INTRA:                  -1.458
REMARK UNBOUND:                -1.836
REMARK SMILES CCCCCCCCCCCCCCC(=O)[O-]
REMARK SMILES IDX 9 1 10 2 11 3 12 4 13 5 14 6 15 7 16 8 17 9 8 10 7 11 6 12
REMARK SMILES IDX 5 13 4 14 3 15 2 16 1 17
REMARK H PARENT
REMARK Flexibility Score: inf
ROOT
ATOM      1  C   UNL     1      25.680  35.224  13.923  1.00  0.00     0.000 C 
ENDROOT
BRANCH   1   2
ATOM      2  C   UNL     1      24.226  34.831  13.625  1.00  0.00     0.000 C 
BRANCH   2   3
ATOM      3  C   UNL     1      23.270  36.039  13.616  1.00  0.00     0.000 C 
BRANCH   3   4
ATOM      4  C   UNL     1      22.514  36.285  14.937  1.00  0.00     0.000 C 
BRANCH   4   5
ATOM      5  C   UNL     1      22.695  37.688  15.541  1.00  0.00     0.006 C 
BRANCH   5   6
ATOM      6  C   UNL     1      24.167  38.063  15.749  1.00  0.00     0.053 C 
BRANCH   6   7
ATOM      7  C   UNL     1      24.502  39.306  14.987  1.00  0.00     0.041 C 
ATOM      8  O   UNL     1      25.197  40.210  15.522  1.00  0.00    -0.550 OA
ATOM      9  O   UNL     1      24.005  39.489  13.703  1.00  0.00    -0.550 OA
ENDBRANCH   6   7
ENDBRANCH   5   6
ENDBRANCH   4   5
ENDBRANCH   3   4
ENDBRANCH   2   3
ENDBRANCH   1   2
BRANCH   1  10
ATOM     10  C   UNL     1      26.316  34.255  14.927  1.00  0.00     0.000 C 
BRANCH  10  11
ATOM     11  C   UNL     1      25.485  32.969  15.053  1.00  0.00    -0.000 C 
BRANCH  11  12
ATOM     12  C   UNL     1      26.349  31.698  15.031  1.00  0.00    -0.000 C 
BRANCH  12  13
ATOM     13  C   UNL     1      26.597  31.177  13.605  1.00  0.00    -0.000 C 
BRANCH  13  14
ATOM     14  C   UNL     1      25.423  31.471  12.657  1.00  0.00    -0.000 C 
BRANCH  14  15
ATOM     15  C   UNL     1      25.815  32.397  11.495  1.00  0.00    -0.000 C 
BRANCH  15  16
ATOM     16  C   UNL     1      24.688  32.482  10.459  1.00  0.00    -0.003 C 
ATOM     17  C   UNL     1      24.668  31.248   9.563  1.00  0.00     0.004 C 
ENDBRANCH  15  16
ENDBRANCH  14  15
ENDBRANCH  13  14
ENDBRANCH  12  13
ENDBRANCH  11  12
ENDBRANCH  10  11
ENDBRANCH   1  10
TORSDOF 13
ENDMDL
MODEL 8
REMARK VINA RESULT:    -3.405      1.310      2.364
REMARK INTER + INTRA:          -7.829
REMARK INTER:                  -5.665
REMARK INTRA:                  -2.164
REMARK UNBOUND:                -1.836
REMARK SMILES CCCCCCCCCCCCCCC(=O)[O-]
REMARK SMILES IDX 9 1 10 2 11 3 12 4 13 5 14 6 15 7 16 8 17 9 8 10 7 11 6 12
REMARK SMILES IDX 5 13 4 14 3 15 2 16 1 17
REMARK H PARENT
REMARK Flexibility Score: inf
ROOT
ATOM      1  C   UNL     1      24.084  33.758  10.737  1.00  0.00     0.000 C 
ENDROOT
BRANCH   1   2
ATOM      2  C   UNL     1      22.766  34.380  11.217  1.00  0.00     0.000 C 
BRANCH   2   3
ATOM      3  C   UNL     1      22.902  35.097  12.574  1.00  0.00     0.000 C 
BRANCH   3   4
ATOM      4  C   UNL     1      22.136  34.440  13.740  1.00  0.00     0.000 C 
BRANCH   4   5
ATOM      5  C   UNL     1      21.785  35.383  14.904  1.00  0.00     0.006 C 
BRANCH   5   6
ATOM      6  C   UNL     1      22.991  35.707  15.794  1.00  0.00     0.053 C 
BRANCH   6   7
ATOM      7  C   UNL     1      23.349  37.155  15.681  1.00  0.00     0.041 C 
ATOM      8  O   UNL     1      22.477  38.000  15.347  1.00  0.00    -0.550 OA
ATOM      9  O   UNL     1      24.658  37.566  15.898  1.00  0.00    -0.550 OA
ENDBRANCH   6   7
ENDBRANCH   5   6
ENDBRANCH   4   5
ENDBRANCH   3   4
ENDBRANCH   2   3
ENDBRANCH   1   2
BRANCH   1  10
ATOM     10  C   UNL     1      24.246  32.332  11.275  1.00  0.00     0.000 C 
BRANCH  10  11
ATOM     11  C   UNL     1      25.712  32.042  11.635  1.00  0.00    -0.000 C 
BRANCH  11  12
ATOM     12  C   UNL     1      25.858  31.260  12.951  1.00  0.00    -0.000 C 
BRANCH  12  13
ATOM     13  C   UNL     1      24.642  31.431  13.877  1.00  0.00    -0.000 C 
BRANCH  13  14
ATOM     14  C   UNL     1      24.855  32.528  14.933  1.00  0.00    -0.000 C 
BRANCH  14  15
ATOM     15  C   UNL     1      26.339  32.848  15.166  1.00  0.00    -0.000 C 
BRANCH  15  16
ATOM     16  C   UNL     1      26.578  34.363  15.175  1.00  0.00    -0.003 C 
ATOM     17  C   UNL     1      26.255  34.980  13.817  1.00  0.00     0.004 C 
ENDBRANCH  15  16
ENDBRANCH  14  15
ENDBRANCH  13  14
ENDBRANCH  12  13
ENDBRANCH  11  12
ENDBRANCH  10  11
ENDBRANCH   1  10
TORSDOF 13
ENDMDL
MODEL 9
REMARK VINA RESULT:    -3.265      2.730      5.883
REMARK INTER + INTRA:          -7.583
REMARK INTER:                  -5.977
REMARK INTRA:                  -1.606
REMARK UNBOUND:                -1.836
REMARK SMILES CCCCCCCCCCCCCCC(=O)[O-]
REMARK SMILES IDX 9 1 10 2 11 3 12 4 13 5 14 6 15 7 16 8 17 9 8 10 7 11 6 12
REMARK SMILES IDX 5 13 4 14 3 15 2 16 1 17
REMARK H PARENT
REMARK Flexibility Score: inf
ROOT
ATOM      1  C   UNL     1      24.847  32.951  15.233  1.00  0.00     0.000 C 
ENDROOT
BRANCH   1   2
ATOM      2  C   UNL     1      25.177  34.442  15.390  1.00  0.00     0.000 C 
BRANCH   2   3
ATOM      3  C   UNL     1      25.686  35.082  14.085  1.00  0.00     0.000 C 
BRANCH   3   4
ATOM      4  C   UNL     1      26.793  34.292  13.358  1.00  0.00     0.000 C 
BRANCH   4   5
ATOM      5  C   UNL     1      26.516  33.995  11.874  1.00  0.00     0.006 C 
BRANCH   5   6
ATOM      6  C   UNL     1      25.846  32.633  11.655  1.00  0.00     0.053 C 
BRANCH   6   7
ATOM      7  C   UNL     1      24.753  32.747  10.639  1.00  0.00     0.041 C 
ATOM      8  O   UNL     1      23.935  33.702  10.692  1.00  0.00    -0.550 OA
ATOM      9  O   UNL     1      24.609  31.770   9.661  1.00  0.00    -0.550 OA
ENDBRANCH   6   7
ENDBRANCH   5   6
ENDBRANCH   4   5
ENDBRANCH   3   4
ENDBRANCH   2   3
ENDBRANCH   1   2
BRANCH   1  10
ATOM     10  C   UNL     1      23.430  32.757  14.679  1.00  0.00     0.000 C 
BRANCH  10  11
ATOM     11  C   UNL     1      22.385  33.396  15.607  1.00  0.00    -0.000 C 
BRANCH  11  12
ATOM     12  C   UNL     1      21.619  34.548  14.936  1.00  0.00    -0.000 C 
BRANCH  12  13
ATOM     13  C   UNL     1      21.686  35.853  15.749  1.00  0.00    -0.000 C 
BRANCH  13  14
ATOM     14  C   UNL     1      22.448  36.967  15.014  1.00  0.00    -0.000 C 
BRANCH  14  15
ATOM     15  C   UNL     1      23.185  37.915  15.972  1.00  0.00    -0.000 C 
BRANCH  15  16
ATOM     16  C   UNL     1      24.387  38.569  15.279  1.00  0.00    -0.003 C 
ATOM     17  C   UNL     1      24.012  39.081  13.892  1.00  0.00     0.004 C 
ENDBRANCH  15  16
ENDBRANCH  14  15
ENDBRANCH  13  14
ENDBRANCH  12  13
ENDBRANCH  11  12
ENDBRANCH  10  11
ENDBRANCH   1  10
TORSDOF 13
ENDMDL
