MODEL 1
REMARK VINA RESULT:    -4.725      0.000      0.000
REMARK INTER + INTRA:          -8.388
REMARK INTER:                  -7.211
REMARK INTRA:                  -1.176
REMARK UNBOUND:                -1.176
REMARK SMILES CCCCCCCCCCC(=O)[O-]
REMARK SMILES IDX 7 1 8 2 9 3 10 4 11 5 12 6 13 7 6 8 5 9 4 10 3 11 2 12 1 13
REMARK H PARENT
REMARK Flexibility Score: inf
ROOT
ATOM      1  C   UNL     1       1.461  46.477   9.042  1.00  0.00     0.000 C 
ENDROOT
BRANCH   1   2
ATOM      2  C   UNL     1       2.703  46.876   9.854  1.00  0.00     0.000 C 
BRANCH   2   3
ATOM      3  C   UNL     1       4.004  46.785   9.036  1.00  0.00     0.006 C 
BRANCH   3   4
ATOM      4  C   UNL     1       5.251  46.800   9.928  1.00  0.00     0.053 C 
BRANCH   4   5
ATOM      5  C   UNL     1       6.317  47.697   9.377  1.00  0.00     0.041 C 
ATOM      6  O   UNL     1       7.530  47.371   9.467  1.00  0.00    -0.550 OA
ATOM      7  O   UNL     1       5.967  48.876   8.732  1.00  0.00    -0.550 OA
ENDBRANCH   4   5
ENDBRANCH   3   4
ENDBRANCH   2   3
ENDBRANCH   1   2
BRANCH   1   8
ATOM      8  C   UNL     1       1.012  45.032   9.324  1.00  0.00     0.000 C 
BRANCH   8   9
ATOM      9  C   UNL     1       0.770  44.776  10.820  1.00  0.00    -0.000 C 
BRANCH   9  10
ATOM     10  C   UNL     1       1.574  43.577  11.352  1.00  0.00    -0.000 C 
BRANCH  10  11
ATOM     11  C   UNL     1       2.630  43.089  10.338  1.00  0.00    -0.000 C 
BRANCH  11  12
ATOM     12  C   UNL     1       4.079  43.301  10.809  1.00  0.00    -0.003 C 
ATOM     13  C   UNL     1       4.175  44.077  12.120  1.00  0.00     0.004 C 
ENDBRANCH  11  12
ENDBRANCH  10  11
ENDBRANCH   9  10
ENDBRANCH   8   9
ENDBRANCH   1   8
TORSDOF 9
ENDMDL
MODEL 2
REMARK VINA RESULT:    -4.553      0.831      2.751
REMARK INTER + INTRA:          -8.125
REMARK INTER:                  -7.161
REMARK INTRA:                  -0.964
REMARK UNBOUND:                -1.176
REMARK SMILES CCCCCCCCCCC(=O)[O-]
REMARK SMILES IDX 7 1 8 2 9 3 10 4 11 5 12 6 13 7 6 8 5 9 4 10 3 11 2 12 1 13
REMARK H PARENT
REMARK Flexibility Score: inf
ROOT
ATOM      1  C   UNL     1       4.295  44.808  11.453  1.00  0.00     0.000 C 
ENDROOT
BRANCH   1   2
ATOM      2  C   UNL     1       4.146  46.194  10.806  1.00  0.00     0.000 C 
BRANCH   2   3
ATOM      3  C   UNL     1       4.737  46.254   9.386  1.00  0.00     0.006 C 
BRANCH   3   4
ATOM      4  C   UNL     1       4.919  47.696   8.896  1.00  0.00     0.053 C 
BRANCH   4   5
ATOM      5  C   UNL     1       6.306  48.198   9.155  1.00  0.00     0.041 C 
ATOM      6  O   UNL     1       6.568  49.425   9.044  1.00  0.00    -0.550 OA
ATOM      7  O   UNL     1       7.302  47.315   9.552  1.00  0.00    -0.550 OA
ENDBRANCH   4   5
ENDBRANCH   3   4
ENDBRANCH   2   3
ENDBRANCH   1   2
BRANCH   1   8
ATOM      8  C   UNL     1       4.078  43.661  10.450  1.00  0.00     0.000 C 
BRANCH   8   9
ATOM      9  C   UNL     1       2.661  43.072  10.535  1.00  0.00    -0.000 C 
BRANCH   9  10
ATOM     10  C   UNL     1       1.850  43.650  11.708  1.00  0.00    -0.000 C 
BRANCH  10  11
ATOM     11  C   UNL     1       0.710  44.573  11.229  1.00  0.00    -0.000 C 
BRANCH  11  12
ATOM     12  C   UNL     1       0.783  44.914   9.731  1.00  0.00    -0.003 C 
ATOM     13  C   UNL     1       0.760  46.416   9.456  1.00  0.00     0.004 C 
ENDBRANCH  11  12
ENDBRANCH  10  11
ENDBRANCH   9  10
ENDBRANCH   8   9
ENDBRANCH   1   8
TORSDOF 9
ENDMDL
MODEL 3
REMARK VINA RESULT:    -4.523      2.500      4.622
REMARK INTER + INTRA:          -8.078
REMARK INTER:                  -7.213
REMARK INTRA:                  -0.865
REMARK UNBOUND:                -1.176
REMARK SMILES CCCCCCCCCCC(=O)[O-]
REMARK SMILES IDX 7 1 8 2 9 3 10 4 11 5 12 6 13 7 6 8 5 9 4 10 3 11 2 12 1 13
REMARK H PARENT
REMARK Flexibility Score: inf
ROOT
ATOM      1  C   UNL     1       1.076  45.725   9.041  1.00  0.00     0.000 C 
ENDROOT
BRANCH   1   2
ATOM      2  C   UNL     1       1.401  44.521   9.940  1.00  0.00     0.000 C 
BRANCH   2   3
ATOM      3  C   UNL     1       2.170  43.414   9.196  1.00  0.00     0.006 C 
BRANCH   3   4
ATOM      4  C   UNL     1       3.683  43.500   9.434  1.00  0.00     0.053 C 
BRANCH   4   5
ATOM      5  C   UNL     1       4.026  43.330  10.882  1.00  0.00     0.041 C 
ATOM      6  O   UNL     1       4.605  44.255  11.510  1.00  0.00    -0.550 OA
ATOM      7  O   UNL     1       3.675  42.162  11.547  1.00  0.00    -0.550 OA
ENDBRANCH   4   5
ENDBRANCH   3   4
ENDBRANCH   2   3
ENDBRANCH   1   2
BRANCH   1   8
ATOM      8  C   UNL     1       1.865  46.986   9.434  1.00  0.00     0.000 C 
BRANCH   8   9
ATOM      9  C   UNL     1       2.383  47.756   8.209  1.00  0.00    -0.000 C 
BRANCH   9  10
ATOM     10  C   UNL     1       3.918  47.745   8.110  1.00  0.00    -0.000 C 
BRANCH  10  11
ATOM     11  C   UNL     1       4.572  46.989   9.286  1.00  0.00    -0.000 C 
BRANCH  11  12
ATOM     12  C   UNL     1       6.059  47.328   9.484  1.00  0.00    -0.003 C 
ATOM     13  C   UNL     1       6.394  48.778   9.139  1.00  0.00     0.004 C 
ENDBRANCH  11  12
ENDBRANCH  10  11
ENDBRANCH   9  10
ENDBRANCH   8   9
ENDBRANCH   1   8
TORSDOF 9
ENDMDL
MODEL 4
REMARK VINA RESULT:    -4.389      3.880      5.879
REMARK INTER + INTRA:          -7.874
REMARK INTER:                  -7.358
REMARK INTRA:                  -0.516
REMARK UNBOUND:                -1.176
REMARK SMILES CCCCCCCCCCC(=O)[O-]
REMARK SMILES IDX 7 1 8 2 9 3 10 4 11 5 12 6 13 7 6 8 5 9 4 10 3 11 2 12 1 13
REMARK H PARENT
REMARK Flexibility Score: inf
ROOT
ATOM      1  C   UNL     1       2.030  43.726   9.588  1.00  0.00     0.000 C 
ENDROOT
BRANCH   1   2
ATOM      2  C   UNL     1       2.897  42.484   9.846  1.00  0.00     0.000 C 
BRANCH   2   3
ATOM      3  C   UNL     1       3.434  42.421  11.287  1.00  0.00     0.006 C 
BRANCH   3   4
ATOM      4  C   UNL     1       2.676  41.399  12.143  1.00  0.00     0.053 C 
BRANCH   4   5
ATOM      5  C   UNL     1       3.529  40.213  12.474  1.00  0.00     0.041 C 
ATOM      6  O   UNL     1       4.757  40.360  12.710  1.00  0.00    -0.550 OA
ATOM      7  O   UNL     1       2.959  38.948  12.558  1.00  0.00    -0.550 OA
ENDBRANCH   4   5
ENDBRANCH   3   4
ENDBRANCH   2   3
ENDBRANCH   1   2
BRANCH   1   8
ATOM      8  C   UNL     1       1.985  44.675  10.798  1.00  0.00     0.000 C 
BRANCH   8   9
ATOM      9  C   UNL     1       2.553  46.066  10.472  1.00  0.00    -0.000 C 
BRANCH   9  10
ATOM     10  C   UNL     1       3.609  46.024   9.353  1.00  0.00    -0.000 C 
BRANCH  10  11
ATOM     11  C   UNL     1       5.009  46.430   9.858  1.00  0.00    -0.000 C 
BRANCH  11  12
ATOM     12  C   UNL     1       5.584  47.668   9.149  1.00  0.00    -0.003 C 
ATOM     13  C   UNL     1       7.081  47.853   9.386  1.00  0.00     0.004 C 
ENDBRANCH  11  12
ENDBRANCH  10  11
ENDBRANCH   9  10
ENDBRANCH   8   9
ENDBRANCH   1   8
TORSDOF 9
ENDMDL
MODEL 5
REMARK VINA RESULT:    -4.333      3.134      5.128
REMARK INTER + INTRA:          -7.789
REMARK INTER:                  -6.796
REMARK INTRA:                  -0.993
REMARK UNBOUND:                -1.176
REMARK SMILES CCCCCCCCCCC(=O)[O-]
REMARK SMILES IDX 7 1 8 2 9 3 10 4 11 5 12 6 13 7 6 8 5 9 4 10 3 11 2 12 1 13
REMARK H PARENT
REMARK Flexibility Score: inf
ROOT
ATOM      1  C   UNL     1       4.155  45.843   9.465  1.00  0.00     0.000 C 
ENDROOT
BRANCH   1   2
ATOM      2  C   UNL     1       4.032  45.845  10.997  1.00  0.00     0.000 C 
BRANCH   2   3
ATOM      3  C   UNL     1       4.273  44.455  11.614  1.00  0.00     0.006 C 
BRANCH   3   4
ATOM      4  C   UNL     1       2.960  43.707  11.883  1.00  0.00     0.053 C 
BRANCH   4   5
ATOM      5  C   UNL     1       2.873  42.439  11.090  1.00  0.00     0.041 C 
ATOM      6  O   UNL     1       2.658  42.478   9.850  1.00  0.00    -0.550 OA
ATOM      7  O   UNL     1       3.065  41.213  11.717  1.00  0.00    -0.550 OA
ENDBRANCH   4   5
ENDBRANCH   3   4
ENDBRANCH   2   3
ENDBRANCH   1   2
BRANCH   1   8
ATOM      8  C   UNL     1       4.404  47.248   8.891  1.00  0.00     0.000 C 
BRANCH   8   9
ATOM      9  C   UNL     1       3.259  47.719   7.980  1.00  0.00    -0.000 C 
BRANCH   9  10
ATOM     10  C   UNL     1       1.900  47.736   8.702  1.00  0.00    -0.000 C 
BRANCH  10  11
ATOM     11  C   UNL     1       0.810  46.987   7.907  1.00  0.00    -0.000 C 
BRANCH  11  12
ATOM     12  C   UNL     1       0.497  45.587   8.461  1.00  0.00    -0.003 C 
ATOM     13  C   UNL     1       0.420  45.549   9.986  1.00  0.00     0.004 C 
ENDBRANCH  11  12
ENDBRANCH  10  11
ENDBRANCH   9  10
ENDBRANCH   8   9
ENDBRANCH   1   8
TORSDOF 9
ENDMDL
MODEL 6
REMARK VINA RESULT:    -4.255      1.892      3.423
REMARK INTER + INTRA:          -7.669
REMARK INTER:                  -6.790
REMARK INTRA:                  -0.879
REMARK UNBOUND:                -1.176
REMARK SMILES CCCCCCCCCCC(=O)[O-]
REMARK SMILES IDX 7 1 8 2 9 3 10 4 11 5 12 6 13 7 6 8 5 9 4 10 3 11 2 12 1 13
REMARK H PARENT
REMARK Flexibility Score: inf
ROOT
ATOM      1  C   UNL     1       4.230  44.237  12.038  1.00  0.00     0.000 C 
ENDROOT
BRANCH   1   2
ATOM      2  C   UNL     1       4.816  44.999  10.839  1.00  0.00     0.000 C 
BRANCH   2   3
ATOM      3  C   UNL     1       4.113  46.346  10.590  1.00  0.00     0.006 C 
BRANCH   3   4
ATOM      4  C   UNL     1       4.583  47.012   9.290  1.00  0.00     0.053 C 
BRANCH   4   5
ATOM      5  C   UNL     1       3.442  47.618   8.533  1.00  0.00     0.041 C 
ATOM      6  O   UNL     1       3.616  48.054   7.364  1.00  0.00    -0.550 OA
ATOM      7  O   UNL     1       2.177  47.668   9.105  1.00  0.00    -0.550 OA
ENDBRANCH   4   5
ENDBRANCH   3   4
ENDBRANCH   2   3
ENDBRANCH   1   2
BRANCH   1   8
ATOM      8  C   UNL     1       3.963  42.755  11.721  1.00  0.00     0.000 C 
BRANCH   8   9
ATOM      9  C   UNL     1       2.574  42.529  11.105  1.00  0.00    -0.000 C 
BRANCH   9  10
ATOM     10  C   UNL     1       2.538  42.843   9.599  1.00  0.00    -0.000 C 
BRANCH  10  11
ATOM     11  C   UNL     1       1.538  43.970   9.262  1.00  0.00    -0.000 C 
BRANCH  11  12
ATOM     12  C   UNL     1       0.940  44.652  10.504  1.00  0.00    -0.003 C 
ATOM     13  C   UNL     1      -0.250  45.551  10.179  1.00  0.00     0.004 C 
ENDBRANCH  11  12
ENDBRANCH  10  11
ENDBRANCH   9  10
ENDBRANCH   8   9
ENDBRANCH   1   8
TORSDOF 9
ENDMDL
MODEL 7
REMARK VINA RESULT:    -4.251      2.684      5.174
REMARK INTER + INTRA:          -7.664
REMARK INTER:                  -6.988
REMARK INTRA:                  -0.676
REMARK UNBOUND:                -1.176
REMARK SMILES CCCCCCCCCCC(=O)[O-]
REMARK SMILES IDX 7 1 8 2 9 3 10 4 11 5 12 6 13 7 6 8 5 9 4 10 3 11 2 12 1 13
REMARK H PARENT
REMARK Flexibility Score: inf
ROOT
ATOM      1  C   UNL     1       3.845  43.419  10.798  1.00  0.00     0.000 C 
ENDROOT
BRANCH   1   2
ATOM      2  C   UNL     1       2.495  42.857  11.270  1.00  0.00     0.000 C 
BRANCH   2   3
ATOM      3  C   UNL     1       1.367  43.904  11.225  1.00  0.00     0.006 C 
BRANCH   3   4
ATOM      4  C   UNL     1       1.097  44.402   9.799  1.00  0.00     0.053 C 
BRANCH   4   5
ATOM      5  C   UNL     1       0.509  45.780   9.796  1.00  0.00     0.041 C 
ATOM      6  O   UNL     1       1.226  46.775   9.510  1.00  0.00    -0.550 OA
ATOM      7  O   UNL     1      -0.840  45.960  10.074  1.00  0.00    -0.550 OA
ENDBRANCH   4   5
ENDBRANCH   3   4
ENDBRANCH   2   3
ENDBRANCH   1   2
BRANCH   1   8
ATOM      8  C   UNL     1       4.351  44.567  11.689  1.00  0.00     0.000 C 
BRANCH   8   9
ATOM      9  C   UNL     1       4.193  45.941  11.017  1.00  0.00    -0.000 C 
BRANCH   9  10
ATOM     10  C   UNL     1       4.894  46.013   9.649  1.00  0.00    -0.000 C 
BRANCH  10  11
ATOM     11  C   UNL     1       4.740  47.399   8.988  1.00  0.00    -0.000 C 
BRANCH  11  12
ATOM     12  C   UNL     1       5.993  48.282   9.114  1.00  0.00    -0.003 C 
ATOM     13  C   UNL     1       7.252  47.490   9.459  1.00  0.00     0.004 C 
ENDBRANCH  11  12
ENDBRANCH  10  11
ENDBRANCH   9  10
ENDBRANCH   8   9
ENDBRANCH   1   8
TORSDOF 9
ENDMDL
MODEL 8
REMARK VINA RESULT:    -4.140      2.062      3.889
REMARK INTER + INTRA:          -7.494
REMARK INTER:                  -6.564
REMARK INTRA:                  -0.930
REMARK UNBOUND:                -1.176
REMARK SMILES CCCCCCCCCCC(=O)[O-]
REMARK SMILES IDX 7 1 8 2 9 3 10 4 11 5 12 6 13 7 6 8 5 9 4 10 3 11 2 12 1 13
REMARK H PARENT
REMARK Flexibility Score: inf
ROOT
ATOM      1  C   UNL     1       1.486  44.017   9.192  1.00  0.00     0.000 C 
ENDROOT
BRANCH   1   2
ATOM      2  C   UNL     1       0.720  45.022  10.067  1.00  0.00     0.000 C 
BRANCH   2   3
ATOM      3  C   UNL     1       0.041  46.131   9.244  1.00  0.00     0.006 C 
BRANCH   3   4
ATOM      4  C   UNL     1       0.831  46.477   7.975  1.00  0.00     0.053 C 
BRANCH   4   5
ATOM      5  C   UNL     1       1.479  47.823   8.075  1.00  0.00     0.041 C 
ATOM      6  O   UNL     1       2.610  48.024   7.558  1.00  0.00    -0.550 OA
ATOM      7  O   UNL     1       0.819  48.867   8.711  1.00  0.00    -0.550 OA
ENDBRANCH   4   5
ENDBRANCH   3   4
ENDBRANCH   2   3
ENDBRANCH   1   2
BRANCH   1   8
ATOM      8  C   UNL     1       2.644  43.340   9.946  1.00  0.00     0.000 C 
BRANCH   8   9
ATOM      9  C   UNL     1       2.870  43.950  11.339  1.00  0.00    -0.000 C 
BRANCH   9  10
ATOM     10  C   UNL     1       4.206  44.706  11.442  1.00  0.00    -0.000 C 
BRANCH  10  11
ATOM     11  C   UNL     1       4.118  46.127  10.846  1.00  0.00    -0.000 C 
BRANCH  11  12
ATOM     12  C   UNL     1       4.796  46.261   9.472  1.00  0.00    -0.003 C 
ATOM     13  C   UNL     1       5.735  47.461   9.381  1.00  0.00     0.004 C 
ENDBRANCH  11  12
ENDBRANCH  10  11
ENDBRANCH   9  10
ENDBRANCH   8   9
ENDBRANCH   1   8
TORSDOF 9
ENDMDL
MODEL 9
REMARK VINA RESULT:    -4.123      3.183      4.963
REMARK INTER + INTRA:          -7.468
REMARK INTER:                  -6.504
REMARK INTRA:                  -0.963
REMARK UNBOUND:                -1.176
REMARK SMILES CCCCCCCCCCC(=O)[O-]
REMARK SMILES IDX 7 1 8 2 9 3 10 4 11 5 12 6 13 7 6 8 5 9 4 10 3 11 2 12 1 13
REMARK H PARENT
REMARK Flexibility Score: inf
ROOT
ATOM      1  C   UNL     1       0.766  45.046   9.505  1.00  0.00     0.000 C 
ENDROOT
BRANCH   1   2
ATOM      2  C   UNL     1       0.535  44.772  10.999  1.00  0.00     0.000 C 
BRANCH   2   3
ATOM      3  C   UNL     1       1.818  44.335  11.729  1.00  0.00     0.006 C 
BRANCH   3   4
ATOM      4  C   UNL     1       1.841  42.827  12.006  1.00  0.00     0.053 C 
BRANCH   4   5
ATOM      5  C   UNL     1       2.913  42.135  11.220  1.00  0.00     0.041 C 
ATOM      6  O   UNL     1       2.839  42.071   9.965  1.00  0.00    -0.550 OA
ATOM      7  O   UNL     1       4.012  41.592  11.873  1.00  0.00    -0.550 OA
ENDBRANCH   4   5
ENDBRANCH   3   4
ENDBRANCH   2   3
ENDBRANCH   1   2
BRANCH   1   8
ATOM      8  C   UNL     1       0.104  46.353   9.035  1.00  0.00     0.000 C 
BRANCH   8   9
ATOM      9  C   UNL     1       0.847  46.991   7.851  1.00  0.00    -0.000 C 
BRANCH   9  10
ATOM     10  C   UNL     1       1.889  48.032   8.299  1.00  0.00    -0.000 C 
BRANCH  10  11
ATOM     11  C   UNL     1       3.330  47.488   8.212  1.00  0.00    -0.000 C 
BRANCH  11  12
ATOM     12  C   UNL     1       3.861  46.939   9.547  1.00  0.00    -0.003 C 
ATOM     13  C   UNL     1       4.417  45.521   9.433  1.00  0.00     0.004 C 
ENDBRANCH  11  12
ENDBRANCH  10  11
ENDBRANCH   9  10
ENDBRANCH   8   9
ENDBRANCH   1   8
TORSDOF 9
ENDMDL
