MODEL 1
REMARK VINA RESULT:    -5.174      0.000      0.000
REMARK INTER + INTRA:          -7.083
REMARK INTER:                  -6.989
REMARK INTRA:                  -0.093
REMARK UNBOUND:                -0.093
REMARK SMILES C=C1C(=O)O[C@@H]2[C@@H]1CCC(C)=CCC[C@@]1(C)O[C@@H]21
REMARK SMILES IDX 6 1 7 2 2 3 1 4 3 5 4 6 5 7 8 8 9 9 10 10 11 11 12 12 18 14
REMARK SMILES IDX 15 15 17 16 16 17 14 18 13 19
REMARK H PARENT
REMARK Flexibility Score: 70.00
ROOT
ATOM      1  C   UNL     1       3.936   6.770  19.831  1.00  0.00     0.216 C 
ATOM      2  C   UNL     1       3.403   6.010  21.093  1.00  0.00     0.070 C 
ATOM      3  C   UNL     1       3.097   4.643  20.549  1.00  0.00     0.037 C 
ATOM      4  C   UNL     1       2.402   3.689  21.169  1.00  0.00     0.021 C 
ATOM      5  C   UNL     1       3.667   4.553  19.231  1.00  0.00     0.334 C 
ATOM      6  O   UNL     1       3.687   3.522  18.506  1.00  0.00    -0.247 OA
ATOM      7  O   UNL     1       4.204   5.762  18.856  1.00  0.00    -0.455 OA
ENDROOT
BRANCH   2   8
ATOM      8  C   UNL     1       4.462   5.892  22.217  1.00  0.00     0.017 C 
BRANCH   8   9
ATOM      9  C   UNL     1       4.323   6.956  23.324  1.00  0.00     0.031 C 
BRANCH   9  10
ATOM     10  C   UNL     1       5.293   8.112  23.157  1.00  0.00    -0.077 C 
ATOM     11  C   UNL     1       6.689   7.946  23.703  1.00  0.00     0.039 C 
ATOM     12  C   UNL     1       4.989   9.285  22.555  1.00  0.00    -0.028 CG0
ATOM     13  G   UNL     1       3.692   9.623  21.860  1.00  0.00     0.000 G0
ENDBRANCH   9  10
ENDBRANCH   8   9
ENDBRANCH   2   8
BRANCH   1  14
ATOM     14  C   UNL     1       2.841   7.695  19.265  1.00  0.00     0.192 C 
ATOM     15  C   UNL     1       2.862   9.170  19.502  1.00  0.00     0.096 C 
ATOM     16  O   UNL     1       3.381   8.600  18.322  1.00  0.00    -0.362 OA
ATOM     17  C   UNL     1       1.564   9.937  19.246  1.00  0.00     0.045 C 
BRANCH  15  18
ATOM     18  C   UNL     1       3.954   9.841  20.350  1.00  0.00     0.042 C 
BRANCH  18  19
ATOM     19  C   UNL     1       3.702   9.630  21.855  1.00  0.00     0.030 CG0
ATOM     20  G   UNL     1       4.991   9.286  22.563  1.00  0.00     0.000 G0
ENDBRANCH  18  19
ENDBRANCH  15  18
ENDBRANCH   1  14
TORSDOF 0
ENDMDL
MODEL 2
REMARK VINA RESULT:    -5.064      2.318      4.240
REMARK INTER + INTRA:          -6.933
REMARK INTER:                  -6.852
REMARK INTRA:                  -0.081
REMARK UNBOUND:                -0.093
REMARK SMILES C=C1C(=O)O[C@@H]2[C@@H]1CCC(C)=CCC[C@@]1(C)O[C@@H]21
REMARK SMILES IDX 6 1 7 2 2 3 1 4 3 5 4 6 5 7 8 8 9 9 10 10 11 11 12 12 18 14
REMARK SMILES IDX 15 15 17 16 16 17 14 18 13 19
REMARK H PARENT
REMARK Flexibility Score: 70.00
ROOT
ATOM      1  C   UNL     1       5.092   8.764  20.344  1.00  0.00     0.216 C 
ATOM      2  C   UNL     1       6.504   8.374  20.899  1.00  0.00     0.070 C 
ATOM      3  C   UNL     1       7.436   9.024  19.916  1.00  0.00     0.037 C 
ATOM      4  C   UNL     1       8.746   8.801  19.810  1.00  0.00     0.021 C 
ATOM      5  C   UNL     1       6.661   9.915  19.094  1.00  0.00     0.334 C 
ATOM      6  O   UNL     1       7.120  10.698  18.219  1.00  0.00    -0.247 OA
ATOM      7  O   UNL     1       5.324   9.804  19.394  1.00  0.00    -0.455 OA
ENDROOT
BRANCH   2   8
ATOM      8  C   UNL     1       6.772   8.941  22.316  1.00  0.00     0.017 C 
BRANCH   8   9
ATOM      9  C   UNL     1       6.684   7.888  23.439  1.00  0.00     0.031 C 
BRANCH   9  10
ATOM     10  C   UNL     1       5.367   7.939  24.194  1.00  0.00    -0.077 C 
ATOM     11  C   UNL     1       5.267   8.872  25.376  1.00  0.00     0.039 C 
ATOM     12  C   UNL     1       4.278   7.200  23.882  1.00  0.00    -0.028 CG0
ATOM     13  G   UNL     1       4.131   6.283  22.692  1.00  0.00     0.000 G0
ENDBRANCH   9  10
ENDBRANCH   8   9
ENDBRANCH   2   8
BRANCH   1  14
ATOM     14  C   UNL     1       4.468   7.571  19.594  1.00  0.00     0.192 C 
ATOM     15  C   UNL     1       3.481   6.662  20.252  1.00  0.00     0.096 C 
ATOM     16  O   UNL     1       3.072   7.742  19.444  1.00  0.00    -0.362 OA
ATOM     17  C   UNL     1       3.219   5.313  19.581  1.00  0.00     0.045 C 
BRANCH  15  18
ATOM     18  C   UNL     1       3.061   6.845  21.719  1.00  0.00     0.042 C 
BRANCH  18  19
ATOM     19  C   UNL     1       4.127   6.285  22.680  1.00  0.00     0.030 CG0
ATOM     20  G   UNL     1       4.290   7.194  23.874  1.00  0.00     0.000 G0
ENDBRANCH  18  19
ENDBRANCH  15  18
ENDBRANCH   1  14
TORSDOF 0
ENDMDL
MODEL 3
REMARK VINA RESULT:    -5.043      1.519      3.791
REMARK INTER + INTRA:          -6.905
REMARK INTER:                  -6.839
REMARK INTRA:                  -0.067
REMARK UNBOUND:                -0.093
REMARK SMILES C=C1C(=O)O[C@@H]2[C@@H]1CCC(C)=CCC[C@@]1(C)O[C@@H]21
REMARK SMILES IDX 6 1 7 2 2 3 1 4 3 5 4 6 5 7 8 8 9 9 10 10 11 11 12 12 18 14
REMARK SMILES IDX 15 15 17 16 16 17 14 18 13 19
REMARK H PARENT
REMARK Flexibility Score: 70.00
ROOT
ATOM      1  C   UNL     1       3.512   6.398  21.240  1.00  0.00     0.216 C 
ATOM      2  C   UNL     1       3.831   6.640  19.726  1.00  0.00     0.070 C 
ATOM      3  C   UNL     1       3.922   5.243  19.180  1.00  0.00     0.037 C 
ATOM      4  C   UNL     1       4.401   4.896  17.987  1.00  0.00     0.021 C 
ATOM      5  C   UNL     1       3.419   4.342  20.184  1.00  0.00     0.334 C 
ATOM      6  O   UNL     1       3.258   3.100  20.045  1.00  0.00    -0.247 OA
ATOM      7  O   UNL     1       3.126   5.027  21.340  1.00  0.00    -0.455 OA
ENDROOT
BRANCH   2   8
ATOM      8  C   UNL     1       2.707   7.409  18.989  1.00  0.00     0.017 C 
BRANCH   8   9
ATOM      9  C   UNL     1       3.079   8.859  18.616  1.00  0.00     0.031 C 
BRANCH   9  10
ATOM     10  C   UNL     1       2.483   9.884  19.565  1.00  0.00    -0.077 C 
ATOM     11  C   UNL     1       1.125  10.449  19.231  1.00  0.00     0.039 C 
ATOM     12  C   UNL     1       3.090  10.329  20.690  1.00  0.00    -0.028 CG0
ATOM     13  G   UNL     1       4.397   9.829  21.258  1.00  0.00     0.000 G0
ENDBRANCH   9  10
ENDBRANCH   8   9
ENDBRANCH   2   8
BRANCH   1  14
ATOM     14  C   UNL     1       4.783   6.593  22.090  1.00  0.00     0.192 C 
ATOM     15  C   UNL     1       5.085   7.893  22.761  1.00  0.00     0.096 C 
ATOM     16  O   UNL     1       4.455   6.833  23.444  1.00  0.00    -0.362 OA
ATOM     17  C   UNL     1       6.519   8.113  23.243  1.00  0.00     0.045 C 
BRANCH  15  18
ATOM     18  C   UNL     1       4.166   9.115  22.613  1.00  0.00     0.042 C 
BRANCH  18  19
ATOM     19  C   UNL     1       4.401   9.834  21.271  1.00  0.00     0.030 CG0
ATOM     20  G   UNL     1       3.093  10.326  20.700  1.00  0.00     0.000 G0
ENDBRANCH  18  19
ENDBRANCH  15  18
ENDBRANCH   1  14
TORSDOF 0
ENDMDL
MODEL 4
REMARK VINA RESULT:    -5.033      2.434      4.774
REMARK INTER + INTRA:          -6.892
REMARK INTER:                  -6.822
REMARK INTRA:                  -0.070
REMARK UNBOUND:                -0.093
REMARK SMILES C=C1C(=O)O[C@@H]2[C@@H]1CCC(C)=CCC[C@@]1(C)O[C@@H]21
REMARK SMILES IDX 6 1 7 2 2 3 1 4 3 5 4 6 5 7 8 8 9 9 10 10 11 11 12 12 18 14
REMARK SMILES IDX 15 15 17 16 16 17 14 18 13 19
REMARK H PARENT
REMARK Flexibility Score: 70.00
ROOT
ATOM      1  C   UNL     1       5.616   8.140  21.380  1.00  0.00     0.216 C 
ATOM      2  C   UNL     1       4.149   8.165  20.834  1.00  0.00     0.070 C 
ATOM      3  C   UNL     1       4.253   9.082  19.648  1.00  0.00     0.037 C 
ATOM      4  C   UNL     1       3.234   9.615  18.975  1.00  0.00     0.021 C 
ATOM      5  C   UNL     1       5.650   9.300  19.379  1.00  0.00     0.334 C 
ATOM      6  O   UNL     1       6.121   9.944  18.404  1.00  0.00    -0.247 OA
ATOM      7  O   UNL     1       6.424   8.700  20.344  1.00  0.00    -0.455 OA
ENDROOT
BRANCH   2   8
ATOM      8  C   UNL     1       3.656   6.773  20.367  1.00  0.00     0.017 C 
BRANCH   8   9
ATOM      9  C   UNL     1       2.973   5.945  21.474  1.00  0.00     0.031 C 
BRANCH   9  10
ATOM     10  C   UNL     1       3.908   4.938  22.120  1.00  0.00    -0.077 C 
ATOM     11  C   UNL     1       4.156   3.639  21.393  1.00  0.00     0.039 C 
ATOM     12  C   UNL     1       4.531   5.124  23.306  1.00  0.00    -0.028 CG0
ATOM     13  G   UNL     1       4.500   6.378  24.146  1.00  0.00     0.000 G0
ENDBRANCH   9  10
ENDBRANCH   8   9
ENDBRANCH   2   8
BRANCH   1  14
ATOM     14  C   UNL     1       5.739   9.050  22.618  1.00  0.00     0.192 C 
ATOM     15  C   UNL     1       5.904   8.486  23.991  1.00  0.00     0.096 C 
ATOM     16  O   UNL     1       7.008   8.909  23.225  1.00  0.00    -0.362 OA
ATOM     17  C   UNL     1       5.629   9.422  25.168  1.00  0.00     0.045 C 
BRANCH  15  18
ATOM     18  C   UNL     1       5.924   6.971  24.250  1.00  0.00     0.042 C 
BRANCH  18  19
ATOM     19  C   UNL     1       4.509   6.368  24.156  1.00  0.00     0.030 CG0
ATOM     20  G   UNL     1       4.525   5.114  23.315  1.00  0.00     0.000 G0
ENDBRANCH  18  19
ENDBRANCH  15  18
ENDBRANCH   1  14
TORSDOF 0
ENDMDL
MODEL 5
REMARK VINA RESULT:    -5.019      2.746      4.741
REMARK INTER + INTRA:          -6.873
REMARK INTER:                  -6.706
REMARK INTRA:                  -0.167
REMARK UNBOUND:                -0.093
REMARK SMILES C=C1C(=O)O[C@@H]2[C@@H]1CCC(C)=CCC[C@@]1(C)O[C@@H]21
REMARK SMILES IDX 6 1 7 2 2 3 1 4 3 5 4 6 5 7 8 8 9 9 10 10 11 11 12 12 18 14
REMARK SMILES IDX 15 15 17 16 16 17 14 18 13 19
REMARK H PARENT
REMARK Flexibility Score: 70.00
ROOT
ATOM      1  C   UNL     1       4.210   8.406  22.262  1.00  0.00     0.216 C 
ATOM      2  C   UNL     1       5.007   7.164  22.786  1.00  0.00     0.070 C 
ATOM      3  C   UNL     1       5.446   7.605  24.153  1.00  0.00     0.037 C 
ATOM      4  C   UNL     1       6.350   6.998  24.922  1.00  0.00     0.021 C 
ATOM      5  C   UNL     1       4.734   8.813  24.478  1.00  0.00     0.334 C 
ATOM      6  O   UNL     1       4.778   9.420  25.581  1.00  0.00    -0.247 OA
ATOM      7  O   UNL     1       3.977   9.227  23.407  1.00  0.00    -0.455 OA
ENDROOT
BRANCH   2   8
ATOM      8  C   UNL     1       4.129   5.894  22.911  1.00  0.00     0.017 C 
BRANCH   8   9
ATOM      9  C   UNL     1       4.300   4.896  21.748  1.00  0.00     0.031 C 
BRANCH   9  10
ATOM     10  C   UNL     1       3.186   4.992  20.720  1.00  0.00    -0.077 C 
ATOM     11  C   UNL     1       1.926   4.199  20.969  1.00  0.00     0.039 C 
ATOM     12  C   UNL     1       3.248   5.736  19.592  1.00  0.00    -0.028 CG0
ATOM     13  G   UNL     1       4.365   6.672  19.199  1.00  0.00     0.000 G0
ENDBRANCH   9  10
ENDBRANCH   8   9
ENDBRANCH   2   8
BRANCH   1  14
ATOM     14  C   UNL     1       5.072   9.213  21.272  1.00  0.00     0.192 C 
ATOM     15  C   UNL     1       4.881   9.100  19.794  1.00  0.00     0.096 C 
ATOM     16  O   UNL     1       4.281  10.132  20.544  1.00  0.00    -0.362 OA
ATOM     17  C   UNL     1       6.008   9.620  18.902  1.00  0.00     0.045 C 
BRANCH  15  18
ATOM     18  C   UNL     1       3.840   8.149  19.181  1.00  0.00     0.042 C 
BRANCH  18  19
ATOM     19  C   UNL     1       4.354   6.697  19.157  1.00  0.00     0.030 CG0
ATOM     20  G   UNL     1       3.271   5.747  19.607  1.00  0.00     0.000 G0
ENDBRANCH  18  19
ENDBRANCH  15  18
ENDBRANCH   1  14
TORSDOF 0
ENDMDL
MODEL 6
REMARK VINA RESULT:    -4.621      2.070      4.354
REMARK INTER + INTRA:          -6.335
REMARK INTER:                  -6.247
REMARK INTRA:                  -0.087
REMARK UNBOUND:                -0.093
REMARK SMILES C=C1C(=O)O[C@@H]2[C@@H]1CCC(C)=CCC[C@@]1(C)O[C@@H]21
REMARK SMILES IDX 6 1 7 2 2 3 1 4 3 5 4 6 5 7 8 8 9 9 10 10 11 11 12 12 18 14
REMARK SMILES IDX 15 15 17 16 16 17 14 18 13 19
REMARK H PARENT
REMARK Flexibility Score: 70.00
ROOT
ATOM      1  C   UNL     1       2.260   7.036  20.628  1.00  0.00     0.216 C 
ATOM      2  C   UNL     1       3.626   7.794  20.514  1.00  0.00     0.070 C 
ATOM      3  C   UNL     1       3.321   8.875  19.515  1.00  0.00     0.037 C 
ATOM      4  C   UNL     1       4.213   9.650  18.900  1.00  0.00     0.021 C 
ATOM      5  C   UNL     1       1.895   8.911  19.324  1.00  0.00     0.334 C 
ATOM      6  O   UNL     1       1.266   9.750  18.625  1.00  0.00    -0.247 OA
ATOM      7  O   UNL     1       1.291   7.890  20.020  1.00  0.00    -0.455 OA
ENDROOT
BRANCH   2   8
ATOM      8  C   UNL     1       4.071   8.438  21.850  1.00  0.00     0.017 C 
BRANCH   8   9
ATOM      9  C   UNL     1       5.264   7.729  22.522  1.00  0.00     0.031 C 
BRANCH   9  10
ATOM     10  C   UNL     1       4.842   6.813  23.658  1.00  0.00    -0.077 C 
ATOM     11  C   UNL     1       4.764   7.399  25.045  1.00  0.00     0.039 C 
ATOM     12  C   UNL     1       4.537   5.503  23.510  1.00  0.00    -0.028 CG0
ATOM     13  G   UNL     1       4.458   4.744  22.207  1.00  0.00     0.000 G0
ENDBRANCH   9  10
ENDBRANCH   8   9
ENDBRANCH   2   8
BRANCH   1  14
ATOM     14  C   UNL     1       2.309   5.726  19.817  1.00  0.00     0.192 C 
ATOM     15  C   UNL     1       2.643   4.419  20.459  1.00  0.00     0.096 C 
ATOM     16  O   UNL     1       1.310   4.825  20.250  1.00  0.00    -0.362 OA
ATOM     17  C   UNL     1       3.045   3.269  19.534  1.00  0.00     0.045 C 
BRANCH  15  18
ATOM     18  C   UNL     1       2.990   4.314  21.952  1.00  0.00     0.042 C 
BRANCH  18  19
ATOM     19  C   UNL     1       4.450   4.726  22.219  1.00  0.00     0.030 CG0
ATOM     20  G   UNL     1       4.553   5.497  23.513  1.00  0.00     0.000 G0
ENDBRANCH  18  19
ENDBRANCH  15  18
ENDBRANCH   1  14
TORSDOF 0
ENDMDL
MODEL 7
REMARK VINA RESULT:    -4.474     15.934     18.005
REMARK INTER + INTRA:          -6.137
REMARK INTER:                  -6.041
REMARK INTRA:                  -0.096
REMARK UNBOUND:                -0.093
REMARK SMILES C=C1C(=O)O[C@@H]2[C@@H]1CCC(C)=CCC[C@@]1(C)O[C@@H]21
REMARK SMILES IDX 6 1 7 2 2 3 1 4 3 5 4 6 5 7 8 8 9 9 10 10 11 11 12 12 18 14
REMARK SMILES IDX 15 15 17 16 16 17 14 18 13 19
REMARK H PARENT
REMARK Flexibility Score: 70.00
ROOT
ATOM      1  C   UNL     1      12.532  -0.997  33.607  1.00  0.00     0.216 C 
ATOM      2  C   UNL     1      12.725  -1.709  32.225  1.00  0.00     0.070 C 
ATOM      3  C   UNL     1      11.470  -2.527  32.096  1.00  0.00     0.037 C 
ATOM      4  C   UNL     1      11.250  -3.492  31.205  1.00  0.00     0.021 C 
ATOM      5  C   UNL     1      10.556  -2.097  33.122  1.00  0.00     0.334 C 
ATOM      6  O   UNL     1       9.369  -2.497  33.264  1.00  0.00    -0.247 OA
ATOM      7  O   UNL     1      11.155  -1.172  33.943  1.00  0.00    -0.455 OA
ENDROOT
BRANCH   2   8
ATOM      8  C   UNL     1      12.814  -0.713  31.042  1.00  0.00     0.017 C 
BRANCH   8   9
ATOM      9  C   UNL     1      14.251  -0.463  30.540  1.00  0.00     0.031 C 
BRANCH   9  10
ATOM     10  C   UNL     1      14.840   0.837  31.061  1.00  0.00    -0.077 C 
ATOM     11  C   UNL     1      14.562   2.099  30.282  1.00  0.00     0.039 C 
ATOM     12  C   UNL     1      15.602   0.939  32.174  1.00  0.00    -0.028 CG0
ATOM     13  G   UNL     1      15.919  -0.173  33.145  1.00  0.00     0.000 G0
ENDBRANCH   9  10
ENDBRANCH   8   9
ENDBRANCH   2   8
BRANCH   1  14
ATOM     14  C   UNL     1      13.374  -1.700  34.689  1.00  0.00     0.192 C 
ATOM     15  C   UNL     1      14.688  -1.150  35.140  1.00  0.00     0.096 C 
ATOM     16  O   UNL     1      13.493  -0.890  35.842  1.00  0.00    -0.362 OA
ATOM     17  C   UNL     1      15.613  -2.093  35.910  1.00  0.00     0.045 C 
BRANCH  15  18
ATOM     18  C   UNL     1      15.287   0.125  34.526  1.00  0.00     0.042 C 
BRANCH  18  19
ATOM     19  C   UNL     1      15.926  -0.161  33.154  1.00  0.00     0.030 CG0
ATOM     20  G   UNL     1      15.597   0.943  32.178  1.00  0.00     0.000 G0
ENDBRANCH  18  19
ENDBRANCH  15  18
ENDBRANCH   1  14
TORSDOF 0
ENDMDL
MODEL 8
REMARK VINA RESULT:    -4.395      2.432      4.819
REMARK INTER + INTRA:          -6.030
REMARK INTER:                  -5.919
REMARK INTRA:                  -0.111
REMARK UNBOUND:                -0.093
REMARK SMILES C=C1C(=O)O[C@@H]2[C@@H]1CCC(C)=CCC[C@@]1(C)O[C@@H]21
REMARK SMILES IDX 6 1 7 2 2 3 1 4 3 5 4 6 5 7 8 8 9 9 10 10 11 11 12 12 18 14
REMARK SMILES IDX 15 15 17 16 16 17 14 18 13 19
REMARK H PARENT
REMARK Flexibility Score: 70.00
ROOT
ATOM      1  C   UNL     1       4.145   7.064  20.461  1.00  0.00     0.216 C 
ATOM      2  C   UNL     1       2.751   6.577  19.938  1.00  0.00     0.070 C 
ATOM      3  C   UNL     1       2.345   7.681  19.004  1.00  0.00     0.037 C 
ATOM      4  C   UNL     1       1.134   7.860  18.479  1.00  0.00     0.021 C 
ATOM      5  C   UNL     1       3.491   8.527  18.794  1.00  0.00     0.334 C 
ATOM      6  O   UNL     1       3.550   9.502  17.998  1.00  0.00    -0.247 OA
ATOM      7  O   UNL     1       4.538   8.122  19.588  1.00  0.00    -0.455 OA
ENDROOT
BRANCH   2   8
ATOM      8  C   UNL     1       2.834   5.243  19.155  1.00  0.00     0.017 C 
BRANCH   8   9
ATOM      9  C   UNL     1       2.545   3.994  20.011  1.00  0.00     0.031 C 
BRANCH   9  10
ATOM     10  C   UNL     1       3.808   3.283  20.464  1.00  0.00    -0.077 C 
ATOM     11  C   UNL     1       4.467   2.330  19.498  1.00  0.00     0.039 C 
ATOM     12  C   UNL     1       4.382   3.444  21.679  1.00  0.00    -0.028 CG0
ATOM     13  G   UNL     1       3.947   4.413  22.752  1.00  0.00     0.000 G0
ENDBRANCH   9  10
ENDBRANCH   8   9
ENDBRANCH   2   8
BRANCH   1  14
ATOM     14  C   UNL     1       4.006   7.650  21.880  1.00  0.00     0.192 C 
ATOM     15  C   UNL     1       4.461   6.897  23.087  1.00  0.00     0.096 C 
ATOM     16  O   UNL     1       5.275   7.865  22.465  1.00  0.00    -0.362 OA
ATOM     17  C   UNL     1       3.939   7.372  24.444  1.00  0.00     0.045 C 
BRANCH  15  18
ATOM     18  C   UNL     1       5.058   5.485  22.985  1.00  0.00     0.042 C 
BRANCH  18  19
ATOM     19  C   UNL     1       3.961   4.427  22.764  1.00  0.00     0.030 CG0
ATOM     20  G   UNL     1       4.374   3.454  21.686  1.00  0.00     0.000 G0
ENDBRANCH  18  19
ENDBRANCH  15  18
ENDBRANCH   1  14
TORSDOF 0
ENDMDL
MODEL 9
REMARK VINA RESULT:    -4.345      2.869      4.614
REMARK INTER + INTRA:          -5.963
REMARK INTER:                  -6.824
REMARK INTRA:                   0.861
REMARK UNBOUND:                -0.093
REMARK SMILES C=C1C(=O)O[C@@H]2[C@@H]1CCC(C)=CCC[C@@]1(C)O[C@@H]21
REMARK SMILES IDX 6 1 7 2 2 3 1 4 3 5 4 6 5 7 8 8 9 9 10 10 11 11 12 12 18 14
REMARK SMILES IDX 15 15 17 16 16 17 14 18 13 19
REMARK H PARENT
REMARK Flexibility Score: 70.00
ROOT
ATOM      1  C   UNL     1       4.677   9.196  21.380  1.00  0.00     0.216 C 
ATOM      2  C   UNL     1       4.687   8.059  20.302  1.00  0.00     0.070 C 
ATOM      3  C   UNL     1       3.418   8.316  19.540  1.00  0.00     0.037 C 
ATOM      4  C   UNL     1       2.846   7.489  18.666  1.00  0.00     0.021 C 
ATOM      5  C   UNL     1       2.916   9.605  19.937  1.00  0.00     0.334 C 
ATOM      6  O   UNL     1       1.918  10.192  19.440  1.00  0.00    -0.247 OA
ATOM      7  O   UNL     1       3.686  10.129  20.948  1.00  0.00    -0.455 OA
ENDROOT
BRANCH   2   8
ATOM      8  C   UNL     1       5.896   8.153  19.338  1.00  0.00     0.017 C 
BRANCH   8   9
ATOM      9  C   UNL     1       6.840   9.336  19.630  1.00  0.00     0.031 C 
BRANCH   9  10
ATOM     10  C   UNL     1       8.136   8.907  20.294  1.00  0.00    -0.077 C 
ATOM     11  C   UNL     1       9.325   8.628  19.408  1.00  0.00     0.039 C 
ATOM     12  C   UNL     1       8.296   8.751  21.629  1.00  0.00    -0.028 CG0
ATOM     13  G   UNL     1       7.274   9.066  22.695  1.00  0.00     0.000 G0
ENDBRANCH   9  10
ENDBRANCH   8   9
ENDBRANCH   2   8
BRANCH   1  14
ATOM     14  C   UNL     1       4.233   8.633  22.744  1.00  0.00     0.192 C 
ATOM     15  C   UNL     1       5.199   7.967  23.669  1.00  0.00     0.096 C 
ATOM     16  O   UNL     1       4.857   9.328  23.805  1.00  0.00    -0.362 OA
ATOM     17  C   UNL     1       4.613   7.112  24.793  1.00  0.00     0.045 C 
BRANCH  15  18
ATOM     18  C   UNL     1       6.678   7.776  23.297  1.00  0.00     0.042 C 
BRANCH  18  19
ATOM     19  C   UNL     1       7.278   9.065  22.706  1.00  0.00     0.030 CG0
ATOM     20  G   UNL     1       8.299   8.734  21.644  1.00  0.00     0.000 G0
ENDBRANCH  18  19
ENDBRANCH  15  18
ENDBRANCH   1  14
TORSDOF 0
ENDMDL
