MODEL 1
REMARK VINA RESULT:    -8.129      0.000      0.000
REMARK INTER + INTRA:         -12.870
REMARK INTER:                 -11.217
REMARK INTRA:                  -1.653
REMARK UNBOUND:                -1.653
REMARK SMILES CC[C@@H](CC[C@@H](C)[C@@H]1CC[C@@H]2[C@H]3CC=C4C[C@@H](O)CC[C@@]4(C)[C@@H]3CC[C@]21C)C(C)C
REMARK SMILES IDX 5 1 4 2 3 3 2 4 1 5 28 6 29 7 30 8 6 9 7 10 8 11 9 12 26 13
REMARK SMILES IDX 10 14 11 15 25 16 27 17 12 18 24 19 23 20 13 21 21 22 14 23
REMARK SMILES IDX 15 24 20 25 22 26 16 27 19 28 17 29 18 30
REMARK H PARENT 18 31
REMARK Flexibility Score: inf
ROOT
ATOM      1  C   UNL     1     -23.920 -29.159 110.778  1.00  0.00     0.004 C 
ENDROOT
BRANCH   1   2
ATOM      2  C   UNL     1     -23.430 -27.763 111.212  1.00  0.00     0.004 C 
BRANCH   2   3
ATOM      3  C   UNL     1     -23.361 -27.533 112.753  1.00  0.00    -0.009 C 
BRANCH   3   4
ATOM      4  C   UNL     1     -23.788 -28.805 113.547  1.00  0.00     0.000 C 
ATOM      5  C   UNL     1     -25.153 -28.707 114.234  1.00  0.00     0.004 C 
ENDBRANCH   3   4
BRANCH   3   6
ATOM      6  C   UNL     1     -24.155 -26.244 113.175  1.00  0.00    -0.014 C 
ATOM      7  C   UNL     1     -24.071 -25.139 112.101  1.00  0.00     0.007 C 
ATOM      8  C   UNL     1     -23.660 -25.657 114.512  1.00  0.00     0.007 C 
ENDBRANCH   3   6
ENDBRANCH   2   3
ENDBRANCH   1   2
BRANCH   1   9
ATOM      9  C   UNL     1     -25.295 -29.139 110.034  1.00  0.00    -0.011 C 
ATOM     10  C   UNL     1     -26.371 -29.720 110.975  1.00  0.00     0.008 C 
BRANCH   9  11
ATOM     11  C   UNL     1     -25.678 -27.696 109.547  1.00  0.00    -0.002 C 
ATOM     12  C   UNL     1     -26.796 -27.025 110.394  1.00  0.00     0.005 C 
ATOM     13  C   UNL     1     -26.201 -27.527 108.084  1.00  0.00    -0.026 C 
ATOM     14  C   UNL     1     -27.539 -26.049 109.469  1.00  0.00     0.005 C 
ATOM     15  C   UNL     1     -26.750 -26.091 108.169  1.00  0.00    -0.001 C 
ATOM     16  C   UNL     1     -25.123 -27.532 106.974  1.00  0.00     0.007 C 
ATOM     17  C   UNL     1     -27.304 -28.588 107.763  1.00  0.00     0.012 C 
ATOM     18  C   UNL     1     -27.446 -25.611 106.879  1.00  0.00     0.000 C 
ATOM     19  C   UNL     1     -25.693 -27.048 105.620  1.00  0.00     0.005 C 
ATOM     20  C   UNL     1     -26.423 -25.669 105.703  1.00  0.00     0.003 C 
ATOM     21  C   UNL     1     -27.973 -24.173 107.054  1.00  0.00     0.031 C 
ATOM     22  C   UNL     1     -27.088 -25.200 104.353  1.00  0.00    -0.008 C 
ATOM     23  C   UNL     1     -28.219 -23.438 105.763  1.00  0.00    -0.027 C 
ATOM     24  C   UNL     1     -27.731 -23.824 104.563  1.00  0.00    -0.065 C 
ATOM     25  C   UNL     1     -25.996 -25.060 103.253  1.00  0.00     0.014 C 
ATOM     26  C   UNL     1     -28.178 -26.200 103.874  1.00  0.00     0.016 C 
ATOM     27  C   UNL     1     -27.707 -22.789 103.455  1.00  0.00     0.063 C 
ATOM     28  C   UNL     1     -26.487 -24.446 101.923  1.00  0.00     0.033 C 
ATOM     29  C   UNL     1     -27.630 -23.417 102.058  1.00  0.00     0.118 C 
BRANCH  29  30
ATOM     30  O   UNL     1     -27.456 -22.409 101.095  1.00  0.00    -0.393 OA
ATOM     31  H   UNL     1     -26.521 -22.084 101.181  1.00  0.00     0.210 HD
ENDBRANCH  29  30
ENDBRANCH   9  11
ENDBRANCH   1   9
TORSDOF 7
ENDMDL
MODEL 2
REMARK VINA RESULT:    -7.942      2.174      4.077
REMARK INTER + INTRA:         -12.613
REMARK INTER:                 -10.699
REMARK INTRA:                  -1.914
REMARK UNBOUND:                -1.653
REMARK SMILES CC[C@@H](CC[C@@H](C)[C@@H]1CC[C@@H]2[C@H]3CC=C4C[C@@H](O)CC[C@@]4(C)[C@@H]3CC[C@]21C)C(C)C
REMARK SMILES IDX 5 1 4 2 3 3 2 4 1 5 28 6 29 7 30 8 6 9 7 10 8 11 9 12 26 13
REMARK SMILES IDX 10 14 11 15 25 16 27 17 12 18 24 19 23 20 13 21 21 22 14 23
REMARK SMILES IDX 15 24 20 25 22 26 16 27 19 28 17 29 18 30
REMARK H PARENT 18 31
REMARK Flexibility Score: inf
ROOT
ATOM      1  C   UNL     1     -26.511 -28.902 114.432  1.00  0.00     0.004 C 
ENDROOT
BRANCH   1   2
ATOM      2  C   UNL     1     -26.834 -27.596 115.186  1.00  0.00     0.004 C 
BRANCH   2   3
ATOM      3  C   UNL     1     -25.626 -26.939 115.923  1.00  0.00    -0.009 C 
BRANCH   3   4
ATOM      4  C   UNL     1     -25.884 -26.812 117.456  1.00  0.00     0.000 C 
ATOM      5  C   UNL     1     -26.478 -25.472 117.899  1.00  0.00     0.004 C 
ENDBRANCH   3   4
BRANCH   3   6
ATOM      6  C   UNL     1     -25.215 -25.580 115.250  1.00  0.00    -0.014 C 
ATOM      7  C   UNL     1     -26.268 -25.104 114.226  1.00  0.00     0.007 C 
ATOM      8  C   UNL     1     -23.851 -25.665 114.536  1.00  0.00     0.007 C 
ENDBRANCH   3   6
ENDBRANCH   2   3
ENDBRANCH   1   2
BRANCH   1   9
ATOM      9  C   UNL     1     -25.346 -28.760 113.400  1.00  0.00    -0.011 C 
ATOM     10  C   UNL     1     -24.205 -29.712 113.814  1.00  0.00     0.008 C 
BRANCH   9  11
ATOM     11  C   UNL     1     -25.823 -29.043 111.931  1.00  0.00    -0.002 C 
ATOM     12  C   UNL     1     -24.775 -29.798 111.066  1.00  0.00     0.005 C 
ATOM     13  C   UNL     1     -26.203 -27.824 111.032  1.00  0.00    -0.026 C 
ATOM     14  C   UNL     1     -25.015 -29.387 109.605  1.00  0.00     0.005 C 
ATOM     15  C   UNL     1     -26.265 -28.521 109.661  1.00  0.00    -0.001 C 
ATOM     16  C   UNL     1     -27.598 -27.203 111.285  1.00  0.00     0.007 C 
ATOM     17  C   UNL     1     -25.104 -26.715 111.108  1.00  0.00     0.012 C 
ATOM     18  C   UNL     1     -26.539 -27.563 108.483  1.00  0.00     0.000 C 
ATOM     19  C   UNL     1     -28.004 -26.227 110.155  1.00  0.00     0.005 C 
ATOM     20  C   UNL     1     -27.904 -26.847 108.724  1.00  0.00     0.003 C 
ATOM     21  C   UNL     1     -26.573 -28.339 107.153  1.00  0.00     0.031 C 
ATOM     22  C   UNL     1     -28.227 -25.842 107.554  1.00  0.00    -0.008 C 
ATOM     23  C   UNL     1     -27.295 -27.632 106.036  1.00  0.00    -0.027 C 
ATOM     24  C   UNL     1     -28.130 -26.585 106.215  1.00  0.00    -0.065 C 
ATOM     25  C   UNL     1     -29.682 -25.312 107.707  1.00  0.00     0.014 C 
ATOM     26  C   UNL     1     -27.239 -24.642 107.539  1.00  0.00     0.016 C 
ATOM     27  C   UNL     1     -29.085 -26.254 105.084  1.00  0.00     0.063 C 
ATOM     28  C   UNL     1     -30.187 -24.445 106.532  1.00  0.00     0.033 C 
ATOM     29  C   UNL     1     -29.606 -24.812 105.149  1.00  0.00     0.118 C 
BRANCH  29  30
ATOM     30  O   UNL     1     -30.596 -24.623 104.170  1.00  0.00    -0.393 OA
ATOM     31  H   UNL     1     -30.795 -25.515 103.783  1.00  0.00     0.210 HD
ENDBRANCH  29  30
ENDBRANCH   9  11
ENDBRANCH   1   9
TORSDOF 7
ENDMDL
MODEL 3
REMARK VINA RESULT:    -7.864      1.390      2.302
REMARK INTER + INTRA:         -12.505
REMARK INTER:                 -10.410
REMARK INTRA:                  -2.094
REMARK UNBOUND:                -1.653
REMARK SMILES CC[C@@H](CC[C@@H](C)[C@@H]1CC[C@@H]2[C@H]3CC=C4C[C@@H](O)CC[C@@]4(C)[C@@H]3CC[C@]21C)C(C)C
REMARK SMILES IDX 5 1 4 2 3 3 2 4 1 5 28 6 29 7 30 8 6 9 7 10 8 11 9 12 26 13
REMARK SMILES IDX 10 14 11 15 25 16 27 17 12 18 24 19 23 20 13 21 21 22 14 23
REMARK SMILES IDX 15 24 20 25 22 26 16 27 19 28 17 29 18 30
REMARK H PARENT 18 31
REMARK Flexibility Score: inf
ROOT
ATOM      1  C   UNL     1     -24.640 -29.225 112.603  1.00  0.00     0.004 C 
ENDROOT
BRANCH   1   2
ATOM      2  C   UNL     1     -24.114 -28.485 113.850  1.00  0.00     0.004 C 
BRANCH   2   3
ATOM      3  C   UNL     1     -23.476 -27.088 113.573  1.00  0.00    -0.009 C 
BRANCH   3   4
ATOM      4  C   UNL     1     -24.065 -25.989 114.509  1.00  0.00     0.000 C 
ATOM      5  C   UNL     1     -25.271 -26.432 115.342  1.00  0.00     0.004 C 
ENDBRANCH   3   4
BRANCH   3   6
ATOM      6  C   UNL     1     -23.559 -26.713 112.049  1.00  0.00    -0.014 C 
ATOM      7  C   UNL     1     -22.178 -26.791 111.363  1.00  0.00     0.007 C 
ATOM      8  C   UNL     1     -24.135 -25.302 111.819  1.00  0.00     0.007 C 
ENDBRANCH   3   6
ENDBRANCH   2   3
ENDBRANCH   1   2
BRANCH   1   9
ATOM      9  C   UNL     1     -26.199 -29.276 112.514  1.00  0.00    -0.011 C 
ATOM     10  C   UNL     1     -26.767 -29.420 113.942  1.00  0.00     0.008 C 
BRANCH   9  11
ATOM     11  C   UNL     1     -26.789 -28.014 111.789  1.00  0.00    -0.002 C 
ATOM     12  C   UNL     1     -28.222 -27.635 112.256  1.00  0.00     0.005 C 
ATOM     13  C   UNL     1     -26.930 -28.059 110.233  1.00  0.00    -0.026 C 
ATOM     14  C   UNL     1     -28.913 -26.940 111.073  1.00  0.00     0.005 C 
ATOM     15  C   UNL     1     -27.822 -26.824 110.019  1.00  0.00    -0.001 C 
ATOM     16  C   UNL     1     -25.630 -27.821 109.428  1.00  0.00     0.007 C 
ATOM     17  C   UNL     1     -27.606 -29.392 109.775  1.00  0.00     0.012 C 
ATOM     18  C   UNL     1     -28.249 -26.608 108.551  1.00  0.00     0.000 C 
ATOM     19  C   UNL     1     -25.923 -27.570 107.930  1.00  0.00     0.005 C 
ATOM     20  C   UNL     1     -26.969 -26.439 107.675  1.00  0.00     0.003 C 
ATOM     21  C   UNL     1     -29.145 -25.361 108.429  1.00  0.00     0.031 C 
ATOM     22  C   UNL     1     -27.348 -26.228 106.160  1.00  0.00    -0.008 C 
ATOM     23  C   UNL     1     -29.217 -24.777 107.042  1.00  0.00    -0.027 C 
ATOM     24  C   UNL     1     -28.347 -25.070 106.049  1.00  0.00    -0.065 C 
ATOM     25  C   UNL     1     -26.075 -25.846 105.351  1.00  0.00     0.014 C 
ATOM     26  C   UNL     1     -27.986 -27.506 105.546  1.00  0.00     0.016 C 
ATOM     27  C   UNL     1     -28.289 -24.118 104.870  1.00  0.00     0.063 C 
ATOM     28  C   UNL     1     -26.332 -25.448 103.880  1.00  0.00     0.033 C 
ATOM     29  C   UNL     1     -27.690 -24.763 103.614  1.00  0.00     0.118 C 
BRANCH  29  30
ATOM     30  O   UNL     1     -27.525 -23.789 102.615  1.00  0.00    -0.393 OA
ATOM     31  H   UNL     1     -28.112 -23.025 102.855  1.00  0.00     0.210 HD
ENDBRANCH  29  30
ENDBRANCH   9  11
ENDBRANCH   1   9
TORSDOF 7
ENDMDL
MODEL 4
REMARK VINA RESULT:    -7.837      1.556      2.175
REMARK INTER + INTRA:         -12.468
REMARK INTER:                 -10.898
REMARK INTRA:                  -1.570
REMARK UNBOUND:                -1.653
REMARK SMILES CC[C@@H](CC[C@@H](C)[C@@H]1CC[C@@H]2[C@H]3CC=C4C[C@@H](O)CC[C@@]4(C)[C@@H]3CC[C@]21C)C(C)C
REMARK SMILES IDX 5 1 4 2 3 3 2 4 1 5 28 6 29 7 30 8 6 9 7 10 8 11 9 12 26 13
REMARK SMILES IDX 10 14 11 15 25 16 27 17 12 18 24 19 23 20 13 21 21 22 14 23
REMARK SMILES IDX 15 24 20 25 22 26 16 27 19 28 17 29 18 30
REMARK H PARENT 18 31
REMARK Flexibility Score: inf
ROOT
ATOM      1  C   UNL     1     -25.153 -28.890 108.910  1.00  0.00     0.004 C 
ENDROOT
BRANCH   1   2
ATOM      2  C   UNL     1     -25.010 -29.602 110.271  1.00  0.00     0.004 C 
BRANCH   2   3
ATOM      3  C   UNL     1     -24.227 -28.804 111.359  1.00  0.00    -0.009 C 
BRANCH   3   4
ATOM      4  C   UNL     1     -24.852 -28.992 112.775  1.00  0.00     0.000 C 
ATOM      5  C   UNL     1     -23.953 -29.713 113.784  1.00  0.00     0.004 C 
ENDBRANCH   3   4
BRANCH   3   6
ATOM      6  C   UNL     1     -24.058 -27.296 110.952  1.00  0.00    -0.014 C 
ATOM      7  C   UNL     1     -22.684 -26.736 111.376  1.00  0.00     0.007 C 
ATOM      8  C   UNL     1     -25.154 -26.395 111.556  1.00  0.00     0.007 C 
ENDBRANCH   3   6
ENDBRANCH   2   3
ENDBRANCH   1   2
BRANCH   1   9
ATOM      9  C   UNL     1     -26.636 -28.632 108.489  1.00  0.00    -0.011 C 
ATOM     10  C   UNL     1     -27.562 -29.350 109.493  1.00  0.00     0.008 C 
BRANCH   9  11
ATOM     11  C   UNL     1     -26.964 -27.098 108.403  1.00  0.00    -0.002 C 
ATOM     12  C   UNL     1     -28.240 -26.685 109.190  1.00  0.00     0.005 C 
ATOM     13  C   UNL     1     -27.210 -26.476 106.991  1.00  0.00    -0.026 C 
ATOM     14  C   UNL     1     -28.826 -25.453 108.485  1.00  0.00     0.005 C 
ATOM     15  C   UNL     1     -27.806 -25.119 107.406  1.00  0.00    -0.001 C 
ATOM     16  C   UNL     1     -25.943 -26.175 106.154  1.00  0.00     0.007 C 
ATOM     17  C   UNL     1     -28.202 -27.356 106.162  1.00  0.00     0.012 C 
ATOM     18  C   UNL     1     -28.264 -24.248 106.218  1.00  0.00     0.000 C 
ATOM     19  C   UNL     1     -26.265 -25.284 104.931  1.00  0.00     0.005 C 
ATOM     20  C   UNL     1     -27.037 -23.975 105.293  1.00  0.00     0.003 C 
ATOM     21  C   UNL     1     -28.856 -22.918 106.721  1.00  0.00     0.031 C 
ATOM     22  C   UNL     1     -27.452 -23.098 104.051  1.00  0.00    -0.008 C 
ATOM     23  C   UNL     1     -28.878 -21.816 105.694  1.00  0.00    -0.027 C 
ATOM     24  C   UNL     1     -28.164 -21.832 104.547  1.00  0.00    -0.065 C 
ATOM     25  C   UNL     1     -26.179 -22.661 103.270  1.00  0.00     0.014 C 
ATOM     26  C   UNL     1     -28.404 -23.871 103.096  1.00  0.00     0.016 C 
ATOM     27  C   UNL     1     -27.963 -20.510 103.832  1.00  0.00     0.063 C 
ATOM     28  C   UNL     1     -26.431 -21.656 102.123  1.00  0.00     0.033 C 
ATOM     29  C   UNL     1     -27.609 -20.685 102.349  1.00  0.00     0.118 C 
BRANCH  29  30
ATOM     30  O   UNL     1     -27.288 -19.436 101.791  1.00  0.00    -0.393 OA
ATOM     31  H   UNL     1     -26.316 -19.450 101.588  1.00  0.00     0.210 HD
ENDBRANCH  29  30
ENDBRANCH   9  11
ENDBRANCH   1   9
TORSDOF 7
ENDMDL
MODEL 5
REMARK VINA RESULT:    -7.736      2.954      8.750
REMARK INTER + INTRA:         -12.328
REMARK INTER:                 -10.078
REMARK INTRA:                  -2.250
REMARK UNBOUND:                -1.653
REMARK SMILES CC[C@@H](CC[C@@H](C)[C@@H]1CC[C@@H]2[C@H]3CC=C4C[C@@H](O)CC[C@@]4(C)[C@@H]3CC[C@]21C)C(C)C
REMARK SMILES IDX 5 1 4 2 3 3 2 4 1 5 28 6 29 7 30 8 6 9 7 10 8 11 9 12 26 13
REMARK SMILES IDX 10 14 11 15 25 16 27 17 12 18 24 19 23 20 13 21 21 22 14 23
REMARK SMILES IDX 15 24 20 25 22 26 16 27 19 28 17 29 18 30
REMARK H PARENT 18 31
REMARK Flexibility Score: inf
ROOT
ATOM      1  C   UNL     1     -28.975 -22.181 103.836  1.00  0.00     0.004 C 
ENDROOT
BRANCH   1   2
ATOM      2  C   UNL     1     -27.432 -22.168 103.839  1.00  0.00     0.004 C 
BRANCH   2   3
ATOM      3  C   UNL     1     -26.765 -22.239 102.430  1.00  0.00    -0.009 C 
BRANCH   3   4
ATOM      4  C   UNL     1     -27.793 -22.623 101.323  1.00  0.00     0.000 C 
ATOM      5  C   UNL     1     -27.617 -24.029 100.742  1.00  0.00     0.004 C 
ENDBRANCH   3   4
BRANCH   3   6
ATOM      6  C   UNL     1     -25.495 -23.164 102.444  1.00  0.00    -0.014 C 
ATOM      7  C   UNL     1     -25.240 -23.768 103.842  1.00  0.00     0.007 C 
ATOM      8  C   UNL     1     -24.220 -22.422 101.998  1.00  0.00     0.007 C 
ENDBRANCH   3   6
ENDBRANCH   2   3
ENDBRANCH   1   2
BRANCH   1   9
ATOM      9  C   UNL     1     -29.592 -23.524 104.345  1.00  0.00    -0.011 C 
ATOM     10  C   UNL     1     -30.566 -24.053 103.272  1.00  0.00     0.008 C 
BRANCH   9  11
ATOM     11  C   UNL     1     -28.487 -24.585 104.689  1.00  0.00    -0.002 C 
ATOM     12  C   UNL     1     -28.551 -25.865 103.809  1.00  0.00     0.005 C 
ATOM     13  C   UNL     1     -28.449 -25.163 106.141  1.00  0.00    -0.026 C 
ATOM     14  C   UNL     1     -27.982 -27.019 104.648  1.00  0.00     0.005 C 
ATOM     15  C   UNL     1     -27.492 -26.348 105.922  1.00  0.00    -0.001 C 
ATOM     16  C   UNL     1     -27.804 -24.255 107.215  1.00  0.00     0.007 C 
ATOM     17  C   UNL     1     -29.877 -25.604 106.600  1.00  0.00     0.012 C 
ATOM     18  C   UNL     1     -27.288 -27.227 107.174  1.00  0.00     0.000 C 
ATOM     19  C   UNL     1     -27.528 -25.027 108.527  1.00  0.00     0.005 C 
ATOM     20  C   UNL     1     -26.710 -26.342 108.321  1.00  0.00     0.003 C 
ATOM     21  C   UNL     1     -26.328 -28.392 106.866  1.00  0.00     0.031 C 
ATOM     22  C   UNL     1     -26.495 -27.189 109.633  1.00  0.00    -0.008 C 
ATOM     23  C   UNL     1     -25.682 -29.006 108.079  1.00  0.00    -0.027 C 
ATOM     24  C   UNL     1     -25.648 -28.424 109.299  1.00  0.00    -0.065 C 
ATOM     25  C   UNL     1     -25.718 -26.341 110.682  1.00  0.00     0.014 C 
ATOM     26  C   UNL     1     -27.847 -27.653 110.243  1.00  0.00     0.016 C 
ATOM     27  C   UNL     1     -24.629 -28.946 110.293  1.00  0.00     0.063 C 
ATOM     28  C   UNL     1     -25.294 -27.108 111.954  1.00  0.00     0.033 C 
ATOM     29  C   UNL     1     -24.988 -28.607 111.745  1.00  0.00     0.118 C 
BRANCH  29  30
ATOM     30  O   UNL     1     -23.932 -28.982 112.593  1.00  0.00    -0.393 OA
ATOM     31  H   UNL     1     -23.139 -29.140 112.016  1.00  0.00     0.210 HD
ENDBRANCH  29  30
ENDBRANCH   9  11
ENDBRANCH   1   9
TORSDOF 7
ENDMDL
MODEL 6
REMARK VINA RESULT:    -7.700      1.544      2.284
REMARK INTER + INTRA:         -12.278
REMARK INTER:                 -10.493
REMARK INTRA:                  -1.785
REMARK UNBOUND:                -1.653
REMARK SMILES CC[C@@H](CC[C@@H](C)[C@@H]1CC[C@@H]2[C@H]3CC=C4C[C@@H](O)CC[C@@]4(C)[C@@H]3CC[C@]21C)C(C)C
REMARK SMILES IDX 5 1 4 2 3 3 2 4 1 5 28 6 29 7 30 8 6 9 7 10 8 11 9 12 26 13
REMARK SMILES IDX 10 14 11 15 25 16 27 17 12 18 24 19 23 20 13 21 21 22 14 23
REMARK SMILES IDX 15 24 20 25 22 26 16 27 19 28 17 29 18 30
REMARK H PARENT 18 31
REMARK Flexibility Score: inf
ROOT
ATOM      1  C   UNL     1     -27.100 -29.006 110.305  1.00  0.00     0.004 C 
ENDROOT
BRANCH   1   2
ATOM      2  C   UNL     1     -25.672 -28.638 109.853  1.00  0.00     0.004 C 
BRANCH   2   3
ATOM      3  C   UNL     1     -24.628 -28.495 111.004  1.00  0.00    -0.009 C 
BRANCH   3   4
ATOM      4  C   UNL     1     -25.225 -28.918 112.381  1.00  0.00     0.000 C 
ATOM      5  C   UNL     1     -24.222 -29.550 113.350  1.00  0.00     0.004 C 
ENDBRANCH   3   4
BRANCH   3   6
ATOM      6  C   UNL     1     -23.988 -27.060 111.020  1.00  0.00    -0.014 C 
ATOM      7  C   UNL     1     -22.495 -27.102 111.410  1.00  0.00     0.007 C 
ATOM      8  C   UNL     1     -24.713 -26.102 111.986  1.00  0.00     0.007 C 
ENDBRANCH   3   6
ENDBRANCH   2   3
ENDBRANCH   1   2
BRANCH   1   9
ATOM      9  C   UNL     1     -28.137 -27.853 110.110  1.00  0.00    -0.011 C 
ATOM     10  C   UNL     1     -28.579 -27.351 111.500  1.00  0.00     0.008 C 
BRANCH   9  11
ATOM     11  C   UNL     1     -27.559 -26.684 109.235  1.00  0.00    -0.002 C 
ATOM     12  C   UNL     1     -27.499 -25.318 109.975  1.00  0.00     0.005 C 
ATOM     13  C   UNL     1     -28.294 -26.327 107.904  1.00  0.00    -0.026 C 
ATOM     14  C   UNL     1     -27.626 -24.221 108.907  1.00  0.00     0.005 C 
ATOM     15  C   UNL     1     -27.621 -24.979 107.589  1.00  0.00    -0.001 C 
ATOM     16  C   UNL     1     -28.015 -27.262 106.703  1.00  0.00     0.007 C 
ATOM     17  C   UNL     1     -29.835 -26.203 108.138  1.00  0.00     0.012 C 
ATOM     18  C   UNL     1     -28.190 -24.273 106.341  1.00  0.00     0.000 C 
ATOM     19  C   UNL     1     -28.524 -26.655 105.374  1.00  0.00     0.005 C 
ATOM     20  C   UNL     1     -28.005 -25.207 105.105  1.00  0.00     0.003 C 
ATOM     21  C   UNL     1     -27.469 -22.931 106.106  1.00  0.00     0.031 C 
ATOM     22  C   UNL     1     -28.583 -24.537 103.801  1.00  0.00    -0.008 C 
ATOM     23  C   UNL     1     -27.578 -22.402 104.700  1.00  0.00    -0.027 C 
ATOM     24  C   UNL     1     -27.965 -23.143 103.637  1.00  0.00    -0.065 C 
ATOM     25  C   UNL     1     -28.191 -25.388 102.558  1.00  0.00     0.014 C 
ATOM     26  C   UNL     1     -30.130 -24.400 103.865  1.00  0.00     0.016 C 
ATOM     27  C   UNL     1     -27.633 -22.609 102.257  1.00  0.00     0.063 C 
ATOM     28  C   UNL     1     -28.553 -24.756 101.196  1.00  0.00     0.033 C 
ATOM     29  C   UNL     1     -28.516 -23.213 101.158  1.00  0.00     0.118 C 
BRANCH  29  30
ATOM     30  O   UNL     1     -28.055 -22.795  99.898  1.00  0.00    -0.393 OA
ATOM     31  H   UNL     1     -27.190 -23.255  99.739  1.00  0.00     0.210 HD
ENDBRANCH  29  30
ENDBRANCH   9  11
ENDBRANCH   1   9
TORSDOF 7
ENDMDL
MODEL 7
REMARK VINA RESULT:    -7.536      6.781     10.366
REMARK INTER + INTRA:         -12.053
REMARK INTER:                 -10.494
REMARK INTRA:                  -1.558
REMARK UNBOUND:                -1.653
REMARK SMILES CC[C@@H](CC[C@@H](C)[C@@H]1CC[C@@H]2[C@H]3CC=C4C[C@@H](O)CC[C@@]4(C)[C@@H]3CC[C@]21C)C(C)C
REMARK SMILES IDX 5 1 4 2 3 3 2 4 1 5 28 6 29 7 30 8 6 9 7 10 8 11 9 12 26 13
REMARK SMILES IDX 10 14 11 15 25 16 27 17 12 18 24 19 23 20 13 21 21 22 14 23
REMARK SMILES IDX 15 24 20 25 22 26 16 27 19 28 17 29 18 30
REMARK H PARENT 18 31
REMARK Flexibility Score: inf
ROOT
ATOM      1  C   UNL     1     -25.653 -26.810 114.649  1.00  0.00     0.004 C 
ENDROOT
BRANCH   1   2
ATOM      2  C   UNL     1     -24.187 -26.509 114.274  1.00  0.00     0.004 C 
BRANCH   2   3
ATOM      3  C   UNL     1     -23.476 -27.614 113.433  1.00  0.00    -0.009 C 
BRANCH   3   4
ATOM      4  C   UNL     1     -22.994 -27.070 112.054  1.00  0.00     0.000 C 
ATOM      5  C   UNL     1     -23.279 -25.584 111.814  1.00  0.00     0.004 C 
ENDBRANCH   3   4
BRANCH   3   6
ATOM      6  C   UNL     1     -24.367 -28.903 113.313  1.00  0.00    -0.014 C 
ATOM      7  C   UNL     1     -23.696 -30.128 113.971  1.00  0.00     0.007 C 
ATOM      8  C   UNL     1     -24.694 -29.260 111.849  1.00  0.00     0.007 C 
ENDBRANCH   3   6
ENDBRANCH   2   3
ENDBRANCH   1   2
BRANCH   1   9
ATOM      9  C   UNL     1     -25.847 -27.218 116.145  1.00  0.00    -0.011 C 
ATOM     10  C   UNL     1     -25.543 -25.991 117.030  1.00  0.00     0.008 C 
BRANCH   9  11
ATOM     11  C   UNL     1     -27.288 -27.779 116.419  1.00  0.00    -0.002 C 
ATOM     12  C   UNL     1     -27.622 -27.937 117.929  1.00  0.00     0.005 C 
ATOM     13  C   UNL     1     -27.657 -29.179 115.833  1.00  0.00    -0.026 C 
ATOM     14  C   UNL     1     -28.642 -29.080 118.048  1.00  0.00     0.005 C 
ATOM     15  C   UNL     1     -28.959 -29.450 116.607  1.00  0.00    -0.001 C 
ATOM     16  C   UNL     1     -28.013 -29.211 114.327  1.00  0.00     0.007 C 
ATOM     17  C   UNL     1     -26.532 -30.222 116.138  1.00  0.00     0.012 C 
ATOM     18  C   UNL     1     -29.573 -30.838 116.331  1.00  0.00     0.000 C 
ATOM     19  C   UNL     1     -28.661 -30.555 113.920  1.00  0.00     0.005 C 
ATOM     20  C   UNL     1     -29.883 -30.957 114.807  1.00  0.00     0.003 C 
ATOM     21  C   UNL     1     -30.863 -31.030 117.152  1.00  0.00     0.031 C 
ATOM     22  C   UNL     1     -30.502 -32.366 114.465  1.00  0.00    -0.008 C 
ATOM     23  C   UNL     1     -31.789 -32.092 116.621  1.00  0.00    -0.027 C 
ATOM     24  C   UNL     1     -31.710 -32.617 115.377  1.00  0.00    -0.065 C 
ATOM     25  C   UNL     1     -31.000 -32.375 112.991  1.00  0.00     0.014 C 
ATOM     26  C   UNL     1     -29.469 -33.510 114.669  1.00  0.00     0.016 C 
ATOM     27  C   UNL     1     -32.929 -33.348 114.851  1.00  0.00     0.063 C 
ATOM     28  C   UNL     1     -31.781 -33.642 112.576  1.00  0.00     0.033 C 
ATOM     29  C   UNL     1     -32.594 -34.311 113.704  1.00  0.00     0.118 C 
BRANCH  29  30
ATOM     30  O   UNL     1     -33.782 -34.835 113.165  1.00  0.00    -0.393 OA
ATOM     31  H   UNL     1     -34.159 -34.140 112.565  1.00  0.00     0.210 HD
ENDBRANCH  29  30
ENDBRANCH   9  11
ENDBRANCH   1   9
TORSDOF 7
ENDMDL
MODEL 8
REMARK VINA RESULT:    -7.494      6.644      9.978
REMARK INTER + INTRA:         -11.995
REMARK INTER:                 -10.461
REMARK INTRA:                  -1.534
REMARK UNBOUND:                -1.653
REMARK SMILES CC[C@@H](CC[C@@H](C)[C@@H]1CC[C@@H]2[C@H]3CC=C4C[C@@H](O)CC[C@@]4(C)[C@@H]3CC[C@]21C)C(C)C
REMARK SMILES IDX 5 1 4 2 3 3 2 4 1 5 28 6 29 7 30 8 6 9 7 10 8 11 9 12 26 13
REMARK SMILES IDX 10 14 11 15 25 16 27 17 12 18 24 19 23 20 13 21 21 22 14 23
REMARK SMILES IDX 15 24 20 25 22 26 16 27 19 28 17 29 18 30
REMARK H PARENT 18 31
REMARK Flexibility Score: inf
ROOT
ATOM      1  C   UNL     1     -26.059 -26.701 115.313  1.00  0.00     0.004 C 
ENDROOT
BRANCH   1   2
ATOM      2  C   UNL     1     -24.659 -26.954 114.715  1.00  0.00     0.004 C 
BRANCH   2   3
ATOM      3  C   UNL     1     -24.647 -27.406 113.222  1.00  0.00    -0.009 C 
BRANCH   3   4
ATOM      4  C   UNL     1     -24.812 -28.951 113.085  1.00  0.00     0.000 C 
ATOM      5  C   UNL     1     -23.912 -29.778 114.008  1.00  0.00     0.004 C 
ENDBRANCH   3   4
BRANCH   3   6
ATOM      6  C   UNL     1     -23.388 -26.848 112.465  1.00  0.00    -0.014 C 
ATOM      7  C   UNL     1     -23.490 -25.327 112.225  1.00  0.00     0.007 C 
ATOM      8  C   UNL     1     -23.165 -27.538 111.104  1.00  0.00     0.007 C 
ENDBRANCH   3   6
ENDBRANCH   2   3
ENDBRANCH   1   2
BRANCH   1   9
ATOM      9  C   UNL     1     -26.327 -27.487 116.637  1.00  0.00    -0.011 C 
ATOM     10  C   UNL     1     -26.106 -26.531 117.828  1.00  0.00     0.008 C 
BRANCH   9  11
ATOM     11  C   UNL     1     -27.765 -28.116 116.666  1.00  0.00    -0.002 C 
ATOM     12  C   UNL     1     -28.240 -28.530 118.088  1.00  0.00     0.005 C 
ATOM     13  C   UNL     1     -28.021 -29.408 115.825  1.00  0.00    -0.026 C 
ATOM     14  C   UNL     1     -29.223 -29.697 117.914  1.00  0.00     0.005 C 
ATOM     15  C   UNL     1     -29.382 -29.831 116.407  1.00  0.00    -0.001 C 
ATOM     16  C   UNL     1     -28.227 -29.197 114.305  1.00  0.00     0.007 C 
ATOM     17  C   UNL     1     -26.894 -30.463 116.071  1.00  0.00     0.012 C 
ATOM     18  C   UNL     1     -29.914 -31.167 115.847  1.00  0.00     0.000 C 
ATOM     19  C   UNL     1     -28.780 -30.469 113.621  1.00  0.00     0.005 C 
ATOM     20  C   UNL     1     -30.067 -31.038 114.300  1.00  0.00     0.003 C 
ATOM     21  C   UNL     1     -31.270 -31.519 116.488  1.00  0.00     0.031 C 
ATOM     22  C   UNL     1     -30.596 -32.384 113.672  1.00  0.00    -0.008 C 
ATOM     23  C   UNL     1     -32.098 -32.498 115.699  1.00  0.00    -0.027 C 
ATOM     24  C   UNL     1     -31.877 -32.808 114.402  1.00  0.00    -0.065 C 
ATOM     25  C   UNL     1     -30.946 -32.160 112.173  1.00  0.00     0.014 C 
ATOM     26  C   UNL     1     -29.546 -33.523 113.792  1.00  0.00     0.016 C 
ATOM     27  C   UNL     1     -33.010 -33.467 113.640  1.00  0.00     0.063 C 
ATOM     28  C   UNL     1     -31.634 -33.357 111.478  1.00  0.00     0.033 C 
ATOM     29  C   UNL     1     -32.529 -34.220 112.393  1.00  0.00     0.118 C 
BRANCH  29  30
ATOM     30  O   UNL     1     -33.637 -34.672 111.657  1.00  0.00    -0.393 OA
ATOM     31  H   UNL     1     -34.202 -35.201 112.279  1.00  0.00     0.210 HD
ENDBRANCH  29  30
ENDBRANCH   9  11
ENDBRANCH   1   9
TORSDOF 7
ENDMDL
MODEL 9
REMARK VINA RESULT:    -7.361      2.338      4.771
REMARK INTER + INTRA:         -11.811
REMARK INTER:                 -10.181
REMARK INTRA:                  -1.630
REMARK UNBOUND:                -1.653
REMARK SMILES CC[C@@H](CC[C@@H](C)[C@@H]1CC[C@@H]2[C@H]3CC=C4C[C@@H](O)CC[C@@]4(C)[C@@H]3CC[C@]21C)C(C)C
REMARK SMILES IDX 5 1 4 2 3 3 2 4 1 5 28 6 29 7 30 8 6 9 7 10 8 11 9 12 26 13
REMARK SMILES IDX 10 14 11 15 25 16 27 17 12 18 24 19 23 20 13 21 21 22 14 23
REMARK SMILES IDX 15 24 20 25 22 26 16 27 19 28 17 29 18 30
REMARK H PARENT 18 31
REMARK Flexibility Score: inf
ROOT
ATOM      1  C   UNL     1     -26.023 -28.031 114.518  1.00  0.00     0.004 C 
ENDROOT
BRANCH   1   2
ATOM      2  C   UNL     1     -26.285 -29.197 115.494  1.00  0.00     0.004 C 
BRANCH   2   3
ATOM      3  C   UNL     1     -27.559 -30.045 115.189  1.00  0.00    -0.009 C 
BRANCH   3   4
ATOM      4  C   UNL     1     -28.529 -29.301 114.221  1.00  0.00     0.000 C 
ATOM      5  C   UNL     1     -28.839 -30.050 112.921  1.00  0.00     0.004 C 
ENDBRANCH   3   4
BRANCH   3   6
ATOM      6  C   UNL     1     -28.255 -30.530 116.512  1.00  0.00    -0.014 C 
ATOM      7  C   UNL     1     -27.346 -30.334 117.744  1.00  0.00     0.007 C 
ATOM      8  C   UNL     1     -28.672 -32.013 116.449  1.00  0.00     0.007 C 
ENDBRANCH   3   6
ENDBRANCH   2   3
ENDBRANCH   1   2
BRANCH   1   9
ATOM      9  C   UNL     1     -24.914 -28.336 113.460  1.00  0.00    -0.011 C 
ATOM     10  C   UNL     1     -23.996 -29.444 114.017  1.00  0.00     0.008 C 
BRANCH   9  11
ATOM     11  C   UNL     1     -25.523 -28.742 112.070  1.00  0.00    -0.002 C 
ATOM     12  C   UNL     1     -24.596 -29.657 111.223  1.00  0.00     0.005 C 
ATOM     13  C   UNL     1     -25.896 -27.602 111.069  1.00  0.00    -0.026 C 
ATOM     14  C   UNL     1     -24.924 -29.389 109.746  1.00  0.00     0.005 C 
ATOM     15  C   UNL     1     -26.109 -28.436 109.794  1.00  0.00    -0.001 C 
ATOM     16  C   UNL     1     -27.225 -26.861 111.350  1.00  0.00     0.007 C 
ATOM     17  C   UNL     1     -24.727 -26.571 110.941  1.00  0.00     0.012 C 
ATOM     18  C   UNL     1     -26.415 -27.592 108.539  1.00  0.00     0.000 C 
ATOM     19  C   UNL     1     -27.658 -25.986 110.150  1.00  0.00     0.005 C 
ATOM     20  C   UNL     1     -27.709 -26.760 108.795  1.00  0.00     0.003 C 
ATOM     21  C   UNL     1     -26.603 -28.503 107.310  1.00  0.00     0.031 C 
ATOM     22  C   UNL     1     -28.061 -25.867 107.545  1.00  0.00    -0.008 C 
ATOM     23  C   UNL     1     -27.365 -27.871 106.175  1.00  0.00    -0.027 C 
ATOM     24  C   UNL     1     -28.117 -26.754 106.294  1.00  0.00    -0.065 C 
ATOM     25  C   UNL     1     -29.463 -25.222 107.741  1.00  0.00     0.014 C 
ATOM     26  C   UNL     1     -27.004 -24.748 107.324  1.00  0.00     0.016 C 
ATOM     27  C   UNL     1     -29.135 -26.479 105.205  1.00  0.00     0.063 C 
ATOM     28  C   UNL     1     -30.004 -24.452 106.515  1.00  0.00     0.033 C 
ATOM     29  C   UNL     1     -29.559 -25.006 105.145  1.00  0.00     0.118 C 
BRANCH  29  30
ATOM     30  O   UNL     1     -30.609 -24.854 104.224  1.00  0.00    -0.393 OA
ATOM     31  H   UNL     1     -30.880 -23.899 104.249  1.00  0.00     0.210 HD
ENDBRANCH  29  30
ENDBRANCH   9  11
ENDBRANCH   1   9
TORSDOF 7
ENDMDL
