MODEL 1
REMARK VINA RESULT:    43.759      0.000      0.000
REMARK INTER + INTRA:          53.637
REMARK INTER:                  53.992
REMARK INTRA:                  -0.355
REMARK UNBOUND:                -0.355
REMARK SMILES O=c1c(O)c(-c2cc(O)c(O)c(O)c2)oc2cc(O)cc(O)c12
REMARK SMILES IDX 5 1 3 2 2 3 1 4 23 5 21 6 20 7 18 8 17 9 16 10 15 11 6 12
REMARK SMILES IDX 7 13 8 14 14 15 10 16 12 17 9 18 11 20 13 22 4 24 22 26
REMARK SMILES IDX 19 28
REMARK H PARENT 9 19 11 21 13 23 4 25 22 27 19 29
REMARK Flexibility Score: inf
ROOT
ATOM      1  C   UNL     1      12.099  67.217  10.867  1.00  0.00     0.180 A 
ATOM      2  C   UNL     1      12.581  68.032   9.830  1.00  0.00     0.208 A 
ATOM      3  C   UNL     1      13.949  68.346   9.791  1.00  0.00     0.238 A 
ATOM      4  O   UNL     1      14.366  69.122   8.891  1.00  0.00    -0.285 OA
ATOM      5  C   UNL     1      14.820  67.827  10.779  1.00  0.00     0.111 A 
ATOM      6  C   UNL     1      16.229  68.048  10.815  1.00  0.00     0.134 A 
ATOM      7  C   UNL     1      16.973  67.594  11.912  1.00  0.00     0.093 A 
ATOM      8  C   UNL     1      16.369  66.873  12.941  1.00  0.00     0.123 A 
ATOM      9  C   UNL     1      15.001  66.601  12.887  1.00  0.00     0.094 A 
ATOM     10  C   UNL     1      14.228  67.070  11.825  1.00  0.00     0.146 A 
ATOM     11  O   UNL     1      12.928  66.799  11.817  1.00  0.00    -0.452 OA
ENDROOT
BRANCH   1  12
ATOM     12  C   UNL     1      10.674  66.821  10.961  1.00  0.00     0.029 A 
ATOM     13  C   UNL     1      10.218  65.601  10.435  1.00  0.00     0.062 A 
ATOM     14  C   UNL     1       8.870  65.233  10.554  1.00  0.00     0.162 A 
ATOM     15  C   UNL     1       9.769  67.654  11.637  1.00  0.00     0.062 A 
ATOM     16  C   UNL     1       7.967  66.084  11.213  1.00  0.00     0.200 A 
ATOM     17  C   UNL     1       8.423  67.296  11.758  1.00  0.00     0.162 A 
BRANCH  14  18
ATOM     18  O   UNL     1       8.428  64.023  10.022  1.00  0.00    -0.504 OA
ATOM     19  H   UNL     1       7.685  63.490  10.459  1.00  0.00     0.293 HD
ENDBRANCH  14  18
BRANCH  16  20
ATOM     20  O   UNL     1       6.621  65.736  11.336  1.00  0.00    -0.502 OA
ATOM     21  H   UNL     1       6.311  64.772  11.336  1.00  0.00     0.293 HD
ENDBRANCH  16  20
BRANCH  17  22
ATOM     22  O   UNL     1       7.554  68.158  12.427  1.00  0.00    -0.504 OA
ATOM     23  H   UNL     1       7.882  68.980  12.919  1.00  0.00     0.293 HD
ENDBRANCH  17  22
ENDBRANCH   1  12
BRANCH   2  24
ATOM     24  O   UNL     1      11.702  68.552   8.877  1.00  0.00    -0.502 OA
ATOM     25  H   UNL     1      12.021  68.968   8.010  1.00  0.00     0.293 HD
ENDBRANCH   2  24
BRANCH   6  26
ATOM     26  O   UNL     1      16.947  68.676   9.793  1.00  0.00    -0.507 OA
ATOM     27  H   UNL     1      16.559  69.350   9.149  1.00  0.00     0.293 HD
ENDBRANCH   6  26
BRANCH   8  28
ATOM     28  O   UNL     1      17.142  66.424  14.010  1.00  0.00    -0.508 OA
ATOM     29  H   UNL     1      17.860  67.006  14.426  1.00  0.00     0.293 HD
ENDBRANCH   8  28
TORSDOF 7
ENDMDL
MODEL 2
REMARK VINA RESULT:    44.412     12.608     13.792
REMARK INTER + INTRA:          54.443
REMARK INTER:                  54.263
REMARK INTRA:                   0.180
REMARK UNBOUND:                -0.355
REMARK SMILES O=c1c(O)c(-c2cc(O)c(O)c(O)c2)oc2cc(O)cc(O)c12
REMARK SMILES IDX 5 1 3 2 2 3 1 4 23 5 21 6 20 7 18 8 17 9 16 10 15 11 6 12
REMARK SMILES IDX 7 13 8 14 14 15 10 16 12 17 9 18 11 20 13 22 4 24 22 26
REMARK SMILES IDX 19 28
REMARK H PARENT 9 19 11 21 13 23 4 25 22 27 19 29
REMARK Flexibility Score: inf
ROOT
ATOM      1  C   UNL     1      10.083  60.574  22.271  1.00  0.00     0.180 A 
ATOM      2  C   UNL     1      11.360  60.935  21.809  1.00  0.00     0.208 A 
ATOM      3  C   UNL     1      11.975  62.083  22.334  1.00  0.00     0.238 A 
ATOM      4  O   UNL     1      13.095  62.432  21.877  1.00  0.00    -0.285 OA
ATOM      5  C   UNL     1      11.314  62.845  23.328  1.00  0.00     0.111 A 
ATOM      6  C   UNL     1      11.860  64.002  23.959  1.00  0.00     0.134 A 
ATOM      7  C   UNL     1      11.065  64.753  24.834  1.00  0.00     0.093 A 
ATOM      8  C   UNL     1       9.767  64.351  25.150  1.00  0.00     0.123 A 
ATOM      9  C   UNL     1       9.243  63.188  24.583  1.00  0.00     0.094 A 
ATOM     10  C   UNL     1      10.000  62.439  23.681  1.00  0.00     0.146 A 
ATOM     11  O   UNL     1       9.461  61.345  23.156  1.00  0.00    -0.452 OA
ENDROOT
BRANCH   1  12
ATOM     12  C   UNL     1       9.381  59.364  21.783  1.00  0.00     0.029 A 
ATOM     13  C   UNL     1      10.088  58.206  21.419  1.00  0.00     0.062 A 
ATOM     14  C   UNL     1       9.405  57.063  20.981  1.00  0.00     0.162 A 
ATOM     15  C   UNL     1       7.979  59.352  21.736  1.00  0.00     0.062 A 
ATOM     16  C   UNL     1       8.001  57.067  20.915  1.00  0.00     0.200 A 
ATOM     17  C   UNL     1       7.290  58.216  21.298  1.00  0.00     0.162 A 
BRANCH  14  18
ATOM     18  O   UNL     1      10.117  55.922  20.616  1.00  0.00    -0.504 OA
ATOM     19  H   UNL     1       9.687  55.003  20.616  1.00  0.00     0.293 HD
ENDBRANCH  14  18
BRANCH  16  20
ATOM     20  O   UNL     1       7.305  55.939  20.477  1.00  0.00    -0.502 OA
ATOM     21  H   UNL     1       6.907  55.879  19.548  1.00  0.00     0.293 HD
ENDBRANCH  16  20
BRANCH  17  22
ATOM     22  O   UNL     1       5.896  58.249  21.253  1.00  0.00    -0.504 OA
ATOM     23  H   UNL     1       5.337  57.405  21.227  1.00  0.00     0.293 HD
ENDBRANCH  17  22
ENDBRANCH   1  12
BRANCH   2  24
ATOM     24  O   UNL     1      11.986  60.182  20.812  1.00  0.00    -0.502 OA
ATOM     25  H   UNL     1      11.680  60.196  19.846  1.00  0.00     0.293 HD
ENDBRANCH   2  24
BRANCH   6  26
ATOM     26  O   UNL     1      13.177  64.438  23.785  1.00  0.00    -0.507 OA
ATOM     27  H   UNL     1      13.440  65.366  23.490  1.00  0.00     0.293 HD
ENDBRANCH   6  26
BRANCH   8  28
ATOM     28  O   UNL     1       9.009  65.114  26.036  1.00  0.00    -0.508 OA
ATOM     29  H   UNL     1       9.423  65.867  26.575  1.00  0.00     0.293 HD
ENDBRANCH   8  28
TORSDOF 7
ENDMDL
