MODEL 1
REMARK VINA RESULT:     6.427      0.000      0.000
REMARK INTER + INTRA:           9.329
REMARK INTER:                   9.432
REMARK INTRA:                  -0.103
REMARK UNBOUND:                -0.103
REMARK SMILES O=C([O-])CCCCCCCC(=O)[O-]
REMARK SMILES IDX 7 1 6 2 5 3 4 4 2 5 1 6 3 7 8 8 9 9 10 10 11 11 12 12 13 13
REMARK H PARENT
REMARK Flexibility Score: inf
ROOT
ATOM      1  C   UNL     1      19.105 -58.748  -2.525  1.00  0.00     0.000 C 
ENDROOT
BRANCH   1   2
ATOM      2  C   UNL     1      17.734 -59.435  -2.545  1.00  0.00     0.000 C 
BRANCH   2   3
ATOM      3  C   UNL     1      17.791 -60.756  -3.326  1.00  0.00     0.006 C 
BRANCH   3   4
ATOM      4  C   UNL     1      19.101 -61.517  -3.088  1.00  0.00     0.053 C 
BRANCH   4   5
ATOM      5  C   UNL     1      18.882 -62.999  -3.051  1.00  0.00     0.041 C 
ATOM      6  O   UNL     1      18.525 -63.561  -1.983  1.00  0.00    -0.550 OA
ATOM      7  O   UNL     1      19.105 -63.763  -4.189  1.00  0.00    -0.550 OA
ENDBRANCH   4   5
ENDBRANCH   3   4
ENDBRANCH   2   3
ENDBRANCH   1   2
BRANCH   1   8
ATOM      8  C   UNL     1      18.974 -57.270  -2.135  1.00  0.00     0.000 C 
BRANCH   8   9
ATOM      9  C   UNL     1      17.520 -56.921  -1.784  1.00  0.00     0.006 C 
BRANCH   9  10
ATOM     10  C   UNL     1      16.753 -56.355  -2.987  1.00  0.00     0.053 C 
BRANCH  10  11
ATOM     11  C   UNL     1      17.480 -55.211  -3.623  1.00  0.00     0.041 C 
ATOM     12  O   UNL     1      17.611 -55.159  -4.874  1.00  0.00    -0.550 OA
ATOM     13  O   UNL     1      17.984 -54.183  -2.835  1.00  0.00    -0.550 OA
ENDBRANCH  10  11
ENDBRANCH   9  10
ENDBRANCH   8   9
ENDBRANCH   1   8
TORSDOF 8
ENDMDL
MODEL 2
REMARK VINA RESULT:     6.580      2.411      3.221
REMARK INTER + INTRA:           9.553
REMARK INTER:                   9.786
REMARK INTRA:                  -0.233
REMARK UNBOUND:                -0.103
REMARK SMILES O=C([O-])CCCCCCCC(=O)[O-]
REMARK SMILES IDX 7 1 6 2 5 3 4 4 2 5 1 6 3 7 8 8 9 9 10 10 11 11 12 12 13 13
REMARK H PARENT
REMARK Flexibility Score: inf
ROOT
ATOM      1  C   UNL     1      18.908 -58.149  -2.949  1.00  0.00     0.000 C 
ENDROOT
BRANCH   1   2
ATOM      2  C   UNL     1      18.899 -59.672  -2.770  1.00  0.00     0.000 C 
BRANCH   2   3
ATOM      3  C   UNL     1      17.599 -60.283  -3.313  1.00  0.00     0.006 C 
BRANCH   3   4
ATOM      4  C   UNL     1      16.351 -59.602  -2.738  1.00  0.00     0.053 C 
BRANCH   4   5
ATOM      5  C   UNL     1      15.332 -59.322  -3.801  1.00  0.00     0.041 C 
ATOM      6  O   UNL     1      15.244 -60.072  -4.808  1.00  0.00    -0.550 OA
ATOM      7  O   UNL     1      14.502 -58.214  -3.693  1.00  0.00    -0.550 OA
ENDBRANCH   4   5
ENDBRANCH   3   4
ENDBRANCH   2   3
ENDBRANCH   1   2
BRANCH   1   8
ATOM      8  C   UNL     1      18.815 -57.436  -1.594  1.00  0.00     0.000 C 
BRANCH   8   9
ATOM      9  C   UNL     1      17.677 -56.403  -1.594  1.00  0.00     0.006 C 
BRANCH   9  10
ATOM     10  C   UNL     1      17.029 -56.255  -2.977  1.00  0.00     0.053 C 
BRANCH  10  11
ATOM     11  C   UNL     1      17.532 -55.044  -3.701  1.00  0.00     0.041 C 
ATOM     12  O   UNL     1      17.903 -54.028  -3.056  1.00  0.00    -0.550 OA
ATOM     13  O   UNL     1      17.624 -55.050  -5.087  1.00  0.00    -0.550 OA
ENDBRANCH  10  11
ENDBRANCH   9  10
ENDBRANCH   8   9
ENDBRANCH   1   8
TORSDOF 8
ENDMDL
MODEL 3
REMARK VINA RESULT:     6.644      2.425      5.606
REMARK INTER + INTRA:           9.648
REMARK INTER:                   9.813
REMARK INTRA:                  -0.165
REMARK UNBOUND:                -0.103
REMARK SMILES O=C([O-])CCCCCCCC(=O)[O-]
REMARK SMILES IDX 7 1 6 2 5 3 4 4 2 5 1 6 3 7 8 8 9 9 10 10 11 11 12 12 13 13
REMARK H PARENT
REMARK Flexibility Score: inf
ROOT
ATOM      1  C   UNL     1      18.999 -58.155  -2.814  1.00  0.00     0.000 C 
ENDROOT
BRANCH   1   2
ATOM      2  C   UNL     1      18.678 -57.523  -1.454  1.00  0.00     0.000 C 
BRANCH   2   3
ATOM      3  C   UNL     1      17.755 -56.305  -1.616  1.00  0.00     0.006 C 
BRANCH   3   4
ATOM      4  C   UNL     1      17.103 -56.250  -3.003  1.00  0.00     0.053 C 
BRANCH   4   5
ATOM      5  C   UNL     1      17.558 -55.054  -3.782  1.00  0.00     0.041 C 
ATOM      6  O   UNL     1      17.875 -53.991  -3.188  1.00  0.00    -0.550 OA
ATOM      7  O   UNL     1      17.601 -55.105  -5.169  1.00  0.00    -0.550 OA
ENDBRANCH   4   5
ENDBRANCH   3   4
ENDBRANCH   2   3
ENDBRANCH   1   2
BRANCH   1   8
ATOM      8  C   UNL     1      18.944 -59.685  -2.736  1.00  0.00     0.000 C 
BRANCH   8   9
ATOM      9  C   UNL     1      17.653 -60.222  -3.373  1.00  0.00     0.006 C 
BRANCH   9  10
ATOM     10  C   UNL     1      16.396 -59.608  -2.744  1.00  0.00     0.053 C 
BRANCH  10  11
ATOM     11  C   UNL     1      15.346 -59.315  -3.771  1.00  0.00     0.041 C 
ATOM     12  O   UNL     1      15.133 -60.127  -4.709  1.00  0.00    -0.550 OA
ATOM     13  O   UNL     1      14.577 -58.162  -3.671  1.00  0.00    -0.550 OA
ENDBRANCH  10  11
ENDBRANCH   9  10
ENDBRANCH   8   9
ENDBRANCH   1   8
TORSDOF 8
ENDMDL
MODEL 4
REMARK VINA RESULT:     6.826      2.143      5.865
REMARK INTER + INTRA:           9.915
REMARK INTER:                  10.111
REMARK INTRA:                  -0.197
REMARK UNBOUND:                -0.103
REMARK SMILES O=C([O-])CCCCCCCC(=O)[O-]
REMARK SMILES IDX 7 1 6 2 5 3 4 4 2 5 1 6 3 7 8 8 9 9 10 10 11 11 12 12 13 13
REMARK H PARENT
REMARK Flexibility Score: inf
ROOT
ATOM      1  C   UNL     1      18.981 -57.796  -1.500  1.00  0.00     0.000 C 
ENDROOT
BRANCH   1   2
ATOM      2  C   UNL     1      17.996 -56.624  -1.417  1.00  0.00     0.000 C 
BRANCH   2   3
ATOM      3  C   UNL     1      16.969 -56.685  -2.557  1.00  0.00     0.006 C 
BRANCH   3   4
ATOM      4  C   UNL     1      16.543 -55.291  -3.032  1.00  0.00     0.053 C 
BRANCH   4   5
ATOM      5  C   UNL     1      17.545 -54.695  -3.972  1.00  0.00     0.041 C 
ATOM      6  O   UNL     1      18.283 -53.746  -3.596  1.00  0.00    -0.550 OA
ATOM      7  O   UNL     1      17.643 -55.166  -5.274  1.00  0.00    -0.550 OA
ENDBRANCH   4   5
ENDBRANCH   3   4
ENDBRANCH   2   3
ENDBRANCH   1   2
BRANCH   1   8
ATOM      8  C   UNL     1      19.092 -58.320  -2.937  1.00  0.00     0.000 C 
BRANCH   8   9
ATOM      9  C   UNL     1      19.125 -59.856  -2.960  1.00  0.00     0.006 C 
BRANCH   9  10
ATOM     10  C   UNL     1      17.865 -60.453  -3.600  1.00  0.00     0.053 C 
BRANCH  10  11
ATOM     11  C   UNL     1      16.616 -59.955  -2.941  1.00  0.00     0.041 C 
ATOM     12  O   UNL     1      16.497 -60.004  -1.689  1.00  0.00    -0.550 OA
ATOM     13  O   UNL     1      15.596 -59.405  -3.708  1.00  0.00    -0.550 OA
ENDBRANCH  10  11
ENDBRANCH   9  10
ENDBRANCH   8   9
ENDBRANCH   1   8
TORSDOF 8
ENDMDL
MODEL 5
REMARK VINA RESULT:     7.101      1.607      2.588
REMARK INTER + INTRA:          10.319
REMARK INTER:                  10.338
REMARK INTRA:                  -0.020
REMARK UNBOUND:                -0.103
REMARK SMILES O=C([O-])CCCCCCCC(=O)[O-]
REMARK SMILES IDX 7 1 6 2 5 3 4 4 2 5 1 6 3 7 8 8 9 9 10 10 11 11 12 12 13 13
REMARK H PARENT
REMARK Flexibility Score: inf
ROOT
ATOM      1  C   UNL     1      17.950 -57.190  -0.573  1.00  0.00     0.000 C 
ENDROOT
BRANCH   1   2
ATOM      2  C   UNL     1      19.079 -56.862  -1.557  1.00  0.00     0.000 C 
BRANCH   2   3
ATOM      3  C   UNL     1      19.118 -57.877  -2.710  1.00  0.00     0.006 C 
BRANCH   3   4
ATOM      4  C   UNL     1      19.124 -59.327  -2.209  1.00  0.00     0.053 C 
BRANCH   4   5
ATOM      5  C   UNL     1      18.115 -60.167  -2.929  1.00  0.00     0.041 C 
ATOM      6  O   UNL     1      16.884 -59.973  -2.752  1.00  0.00    -0.550 OA
ATOM      7  O   UNL     1      18.535 -61.187  -3.772  1.00  0.00    -0.550 OA
ENDBRANCH   4   5
ENDBRANCH   3   4
ENDBRANCH   2   3
ENDBRANCH   1   2
BRANCH   1   8
ATOM      8  C   UNL     1      16.581 -56.840  -1.170  1.00  0.00     0.000 C 
BRANCH   8   9
ATOM      9  C   UNL     1      16.662 -55.561  -2.017  1.00  0.00     0.006 C 
BRANCH   9  10
ATOM     10  C   UNL     1      16.710 -55.863  -3.521  1.00  0.00     0.053 C 
BRANCH  10  11
ATOM     11  C   UNL     1      17.560 -54.875  -4.259  1.00  0.00     0.041 C 
ATOM     12  O   UNL     1      17.940 -53.817  -3.693  1.00  0.00    -0.550 OA
ATOM     13  O   UNL     1      17.960 -55.140  -5.563  1.00  0.00    -0.550 OA
ENDBRANCH  10  11
ENDBRANCH   9  10
ENDBRANCH   8   9
ENDBRANCH   1   8
TORSDOF 8
ENDMDL
MODEL 6
REMARK VINA RESULT:     7.185      3.841      5.834
REMARK INTER + INTRA:          10.442
REMARK INTER:                  10.961
REMARK INTRA:                  -0.519
REMARK UNBOUND:                -0.103
REMARK SMILES O=C([O-])CCCCCCCC(=O)[O-]
REMARK SMILES IDX 7 1 6 2 5 3 4 4 2 5 1 6 3 7 8 8 9 9 10 10 11 11 12 12 13 13
REMARK H PARENT
REMARK Flexibility Score: inf
ROOT
ATOM      1  C   UNL     1      16.164 -59.610  -2.802  1.00  0.00     0.000 C 
ENDROOT
BRANCH   1   2
ATOM      2  C   UNL     1      17.544 -58.980  -2.578  1.00  0.00     0.000 C 
BRANCH   2   3
ATOM      3  C   UNL     1      17.444 -57.736  -1.682  1.00  0.00     0.006 C 
BRANCH   3   4
ATOM      4  C   UNL     1      18.142 -56.518  -2.298  1.00  0.00     0.053 C 
BRANCH   4   5
ATOM      5  C   UNL     1      17.172 -55.622  -3.007  1.00  0.00     0.041 C 
ATOM      6  O   UNL     1      16.086 -55.302  -2.457  1.00  0.00    -0.550 OA
ATOM      7  O   UNL     1      17.455 -55.167  -4.288  1.00  0.00    -0.550 OA
ENDBRANCH   4   5
ENDBRANCH   3   4
ENDBRANCH   2   3
ENDBRANCH   1   2
BRANCH   1   8
ATOM      8  C   UNL     1      15.445 -58.954  -3.987  1.00  0.00     0.000 C 
BRANCH   8   9
ATOM      9  C   UNL     1      13.939 -58.825  -3.714  1.00  0.00     0.006 C 
BRANCH   9  10
ATOM     10  C   UNL     1      13.483 -57.361  -3.656  1.00  0.00     0.053 C 
BRANCH  10  11
ATOM     11  C   UNL     1      12.013 -57.247  -3.389  1.00  0.00     0.041 C 
ATOM     12  O   UNL     1      11.405 -58.170  -2.787  1.00  0.00    -0.550 OA
ATOM     13  O   UNL     1      11.323 -56.103  -3.773  1.00  0.00    -0.550 OA
ENDBRANCH  10  11
ENDBRANCH   9  10
ENDBRANCH   8   9
ENDBRANCH   1   8
TORSDOF 8
ENDMDL
MODEL 7
REMARK VINA RESULT:     7.204      3.818      5.449
REMARK INTER + INTRA:          10.470
REMARK INTER:                  10.995
REMARK INTRA:                  -0.525
REMARK UNBOUND:                -0.103
REMARK SMILES O=C([O-])CCCCCCCC(=O)[O-]
REMARK SMILES IDX 7 1 6 2 5 3 4 4 2 5 1 6 3 7 8 8 9 9 10 10 11 11 12 12 13 13
REMARK H PARENT
REMARK Flexibility Score: inf
ROOT
ATOM      1  C   UNL     1      16.176 -59.636  -2.854  1.00  0.00     0.000 C 
ENDROOT
BRANCH   1   2
ATOM      2  C   UNL     1      15.439 -58.934  -4.000  1.00  0.00     0.000 C 
BRANCH   2   3
ATOM      3  C   UNL     1      13.937 -58.818  -3.700  1.00  0.00     0.006 C 
BRANCH   3   4
ATOM      4  C   UNL     1      13.442 -57.368  -3.761  1.00  0.00     0.053 C 
BRANCH   4   5
ATOM      5  C   UNL     1      11.997 -57.259  -3.379  1.00  0.00     0.041 C 
ATOM      6  O   UNL     1      11.447 -58.171  -2.708  1.00  0.00    -0.550 OA
ATOM      7  O   UNL     1      11.250 -56.163  -3.793  1.00  0.00    -0.550 OA
ENDBRANCH   4   5
ENDBRANCH   3   4
ENDBRANCH   2   3
ENDBRANCH   1   2
BRANCH   1   8
ATOM      8  C   UNL     1      17.553 -59.004  -2.617  1.00  0.00     0.000 C 
BRANCH   8   9
ATOM      9  C   UNL     1      17.449 -57.797  -1.673  1.00  0.00     0.006 C 
BRANCH   9  10
ATOM     10  C   UNL     1      18.127 -56.548  -2.250  1.00  0.00     0.053 C 
BRANCH  10  11
ATOM     11  C   UNL     1      17.160 -55.687  -3.003  1.00  0.00     0.041 C 
ATOM     12  O   UNL     1      16.052 -55.381  -2.490  1.00  0.00    -0.550 OA
ATOM     13  O   UNL     1      17.497 -55.193  -4.257  1.00  0.00    -0.550 OA
ENDBRANCH  10  11
ENDBRANCH   9  10
ENDBRANCH   8   9
ENDBRANCH   1   8
TORSDOF 8
ENDMDL
