MODEL 1
REMARK VINA RESULT:    -3.247      0.000      0.000
REMARK INTER + INTRA:          -3.259
REMARK INTER:                  -4.007
REMARK INTRA:                   0.748
REMARK UNBOUND:                 0.748
REMARK SMILES CC1=CC=CC(C)(C)CC1=O
REMARK SMILES IDX 1 1 2 2 3 3 10 4 11 5 9 6 4 8 5 9 6 10 7 11 8 12
REMARK H PARENT
REMARK Flexibility Score: 80.00
ROOT
ATOM      1  C   UNL     1       9.666   1.796  -4.369  1.00  0.00     0.048 C 
ATOM      2  C   UNL     1       8.481   2.398  -5.086  1.00  0.00    -0.008 C 
ATOM      3  C   UNL     1       7.918   3.501  -4.547  1.00  0.00     0.007 C 
ENDROOT
BRANCH   2   4
ATOM      4  C   UNL     1       8.079   1.772  -6.370  1.00  0.00     0.159 C 
ATOM      5  O   UNL     1       8.831   0.898  -6.883  1.00  0.00    -0.295 OA
BRANCH   4   6
ATOM      6  C   UNL     1       6.812   2.111  -7.093  1.00  0.00     0.091 CG0
ATOM      7  G   UNL     1       6.706   3.606  -7.468  1.00  0.00     0.000 G0
ENDBRANCH   4   6
ENDBRANCH   2   4
BRANCH   3   8
ATOM      8  C   UNL     1       6.781   4.320  -5.027  1.00  0.00    -0.003 C 
ATOM      9  C   UNL     1       6.251   4.391  -6.255  1.00  0.00    -0.020 C 
BRANCH   9  10
ATOM     10  C   UNL     1       6.689   3.606  -7.469  1.00  0.00    -0.010 CG0
ATOM     11  C   UNL     1       5.591   3.730  -8.549  1.00  0.00     0.016 C 
ATOM     12  C   UNL     1       7.993   4.206  -8.044  1.00  0.00     0.016 C 
ATOM     13  G   UNL     1       6.833   2.113  -7.099  1.00  0.00     0.000 G0
ENDBRANCH   9  10
ENDBRANCH   3   8
TORSDOF 0
ENDMDL
MODEL 2
REMARK VINA RESULT:    -3.091     16.409     17.458
REMARK INTER + INTRA:          -3.066
REMARK INTER:                  -3.816
REMARK INTRA:                   0.749
REMARK UNBOUND:                 0.748
REMARK SMILES CC1=CC=CC(C)(C)CC1=O
REMARK SMILES IDX 1 1 2 2 3 3 10 4 11 5 9 6 4 8 5 9 6 10 7 11 8 12
REMARK H PARENT
REMARK Flexibility Score: 80.00
ROOT
ATOM      1  C   UNL     1      -9.181   9.349  -6.619  1.00  0.00     0.048 C 
ATOM      2  C   UNL     1      -8.208  10.472  -6.343  1.00  0.00    -0.008 C 
ATOM      3  C   UNL     1      -8.100  11.448  -7.270  1.00  0.00     0.007 C 
ENDROOT
BRANCH   2   4
ATOM      4  C   UNL     1      -7.506  10.450  -5.036  1.00  0.00     0.159 C 
ATOM      5  O   UNL     1      -7.881   9.628  -4.156  1.00  0.00    -0.295 OA
BRANCH   4   6
ATOM      6  C   UNL     1      -6.354  11.348  -4.703  1.00  0.00     0.091 CG0
ATOM      7  G   UNL     1      -6.701  12.850  -4.810  1.00  0.00     0.000 G0
ENDBRANCH   4   6
ENDBRANCH   2   4
BRANCH   3   8
ATOM      8  C   UNL     1      -7.266  12.672  -7.269  1.00  0.00    -0.003 C 
ATOM      9  C   UNL     1      -6.673  13.289  -6.239  1.00  0.00    -0.020 C 
BRANCH   9  10
ATOM     10  C   UNL     1      -6.698  12.849  -4.795  1.00  0.00    -0.010 CG0
ATOM     11  C   UNL     1      -5.602  13.627  -4.032  1.00  0.00     0.016 C 
ATOM     12  C   UNL     1      -8.063  13.201  -4.158  1.00  0.00     0.016 C 
ATOM     13  G   UNL     1      -6.369  11.342  -4.704  1.00  0.00     0.000 G0
ENDBRANCH   9  10
ENDBRANCH   3   8
TORSDOF 0
ENDMDL
MODEL 3
REMARK VINA RESULT:    -3.069      1.688      2.420
REMARK INTER + INTRA:          -3.039
REMARK INTER:                  -3.802
REMARK INTRA:                   0.763
REMARK UNBOUND:                 0.748
REMARK SMILES CC1=CC=CC(C)(C)CC1=O
REMARK SMILES IDX 1 1 2 2 3 3 10 4 11 5 9 6 4 8 5 9 6 10 7 11 8 12
REMARK H PARENT
REMARK Flexibility Score: 80.00
ROOT
ATOM      1  C   UNL     1       9.624   0.600  -5.802  1.00  0.00     0.048 C 
ATOM      2  C   UNL     1       8.788   1.525  -6.655  1.00  0.00    -0.008 C 
ATOM      3  C   UNL     1       9.405   2.167  -7.671  1.00  0.00     0.007 C 
ENDROOT
BRANCH   2   4
ATOM      4  C   UNL     1       7.336   1.593  -6.355  1.00  0.00     0.159 C 
ATOM      5  O   UNL     1       6.843   0.763  -5.542  1.00  0.00    -0.295 OA
BRANCH   4   6
ATOM      6  C   UNL     1       6.415   2.609  -6.955  1.00  0.00     0.091 CG0
ATOM      7  G   UNL     1       6.376   2.559  -8.499  1.00  0.00     0.000 G0
ENDBRANCH   4   6
ENDBRANCH   2   4
BRANCH   3   8
ATOM      8  C   UNL     1       8.853   3.101  -8.679  1.00  0.00    -0.003 C 
ATOM      9  C   UNL     1       7.580   3.284  -9.054  1.00  0.00    -0.020 C 
BRANCH   9  10
ATOM     10  C   UNL     1       6.370   2.574  -8.496  1.00  0.00    -0.010 CG0
ATOM     11  C   UNL     1       5.106   3.336  -8.955  1.00  0.00     0.016 C 
ATOM     12  C   UNL     1       6.291   1.137  -9.063  1.00  0.00     0.016 C 
ATOM     13  G   UNL     1       6.415   2.603  -6.952  1.00  0.00     0.000 G0
ENDBRANCH   9  10
ENDBRANCH   3   8
TORSDOF 0
ENDMDL
MODEL 4
REMARK VINA RESULT:    -3.052      2.076      3.066
REMARK INTER + INTRA:          -3.018
REMARK INTER:                  -3.769
REMARK INTRA:                   0.751
REMARK UNBOUND:                 0.748
REMARK SMILES CC1=CC=CC(C)(C)CC1=O
REMARK SMILES IDX 1 1 2 2 3 3 10 4 11 5 9 6 4 8 5 9 6 10 7 11 8 12
REMARK H PARENT
REMARK Flexibility Score: 80.00
ROOT
ATOM      1  C   UNL     1       5.824   3.329  -5.530  1.00  0.00     0.048 C 
ATOM      2  C   UNL     1       6.358   3.257  -6.942  1.00  0.00    -0.008 C 
ATOM      3  C   UNL     1       6.506   4.419  -7.614  1.00  0.00     0.007 C 
ENDROOT
BRANCH   2   4
ATOM      4  C   UNL     1       6.750   1.919  -7.449  1.00  0.00     0.159 C 
ATOM      5  O   UNL     1       6.829   0.959  -6.635  1.00  0.00    -0.295 OA
BRANCH   4   6
ATOM      6  C   UNL     1       7.046   1.636  -8.889  1.00  0.00     0.091 CG0
ATOM      7  G   UNL     1       8.221   2.471  -9.446  1.00  0.00     0.000 G0
ENDBRANCH   4   6
ENDBRANCH   2   4
BRANCH   3   8
ATOM      8  C   UNL     1       7.023   4.669  -8.980  1.00  0.00    -0.003 C 
ATOM      9  C   UNL     1       7.757   3.869  -9.764  1.00  0.00    -0.020 C 
BRANCH   9  10
ATOM     10  C   UNL     1       8.219   2.469  -9.436  1.00  0.00    -0.010 CG0
ATOM     11  C   UNL     1       8.694   1.796 -10.743  1.00  0.00     0.016 C 
ATOM     12  C   UNL     1       9.421   2.524  -8.464  1.00  0.00     0.016 C 
ATOM     13  G   UNL     1       7.036   1.648  -8.874  1.00  0.00     0.000 G0
ENDBRANCH   9  10
ENDBRANCH   3   8
TORSDOF 0
ENDMDL
MODEL 5
REMARK VINA RESULT:    -3.048     16.278     17.539
REMARK INTER + INTRA:          -3.013
REMARK INTER:                  -3.774
REMARK INTRA:                   0.761
REMARK UNBOUND:                 0.748
REMARK SMILES CC1=CC=CC(C)(C)CC1=O
REMARK SMILES IDX 1 1 2 2 3 3 10 4 11 5 9 6 4 8 5 9 6 10 7 11 8 12
REMARK H PARENT
REMARK Flexibility Score: 80.00
ROOT
ATOM      1  C   UNL     1      -3.691  13.177  -4.270  1.00  0.00     0.048 C 
ATOM      2  C   UNL     1      -5.156  12.964  -3.968  1.00  0.00    -0.008 C 
ATOM      3  C   UNL     1      -5.706  13.709  -2.985  1.00  0.00     0.007 C 
ENDROOT
BRANCH   2   4
ATOM      4  C   UNL     1      -5.891  12.007  -4.831  1.00  0.00     0.159 C 
ATOM      5  O   UNL     1      -5.332  11.576  -5.877  1.00  0.00    -0.295 OA
BRANCH   4   6
ATOM      6  C   UNL     1      -7.267  11.504  -4.521  1.00  0.00     0.091 CG0
ATOM      7  G   UNL     1      -8.319  12.632  -4.421  1.00  0.00     0.000 G0
ENDBRANCH   4   6
ENDBRANCH   2   4
BRANCH   3   8
ATOM      8  C   UNL     1      -7.101  13.744  -2.486  1.00  0.00    -0.003 C 
ATOM      9  C   UNL     1      -8.220  13.308  -3.078  1.00  0.00    -0.020 C 
BRANCH   9  10
ATOM     10  C   UNL     1      -8.319  12.632  -4.425  1.00  0.00    -0.010 CG0
ATOM     11  C   UNL     1      -9.718  11.987  -4.543  1.00  0.00     0.016 C 
ATOM     12  C   UNL     1      -8.180  13.680  -5.554  1.00  0.00     0.016 C 
ATOM     13  G   UNL     1      -7.262  11.508  -4.522  1.00  0.00     0.000 G0
ENDBRANCH   9  10
ENDBRANCH   3   8
TORSDOF 0
ENDMDL
MODEL 6
REMARK VINA RESULT:    -3.033      1.931      2.857
REMARK INTER + INTRA:          -2.994
REMARK INTER:                  -3.748
REMARK INTRA:                   0.754
REMARK UNBOUND:                 0.748
REMARK SMILES CC1=CC=CC(C)(C)CC1=O
REMARK SMILES IDX 1 1 2 2 3 3 10 4 11 5 9 6 4 8 5 9 6 10 7 11 8 12
REMARK H PARENT
REMARK Flexibility Score: 80.00
ROOT
ATOM      1  C   UNL     1       7.129   4.365  -4.733  1.00  0.00     0.048 C 
ATOM      2  C   UNL     1       6.727   4.826  -6.115  1.00  0.00    -0.008 C 
ATOM      3  C   UNL     1       6.670   6.156  -6.338  1.00  0.00     0.007 C 
ENDROOT
BRANCH   2   4
ATOM      4  C   UNL     1       6.503   3.775  -7.138  1.00  0.00     0.159 C 
ATOM      5  O   UNL     1       6.849   2.589  -6.880  1.00  0.00    -0.295 OA
BRANCH   4   6
ATOM      6  C   UNL     1       5.870   4.040  -8.469  1.00  0.00     0.091 CG0
ATOM      7  G   UNL     1       6.643   5.076  -9.316  1.00  0.00     0.000 G0
ENDBRANCH   4   6
ENDBRANCH   2   4
BRANCH   3   8
ATOM      8  C   UNL     1       6.341   6.899  -7.577  1.00  0.00    -0.003 C 
ATOM      9  C   UNL     1       6.335   6.467  -8.844  1.00  0.00    -0.020 C 
BRANCH   9  10
ATOM     10  C   UNL     1       6.648   5.067  -9.317  1.00  0.00    -0.010 CG0
ATOM     11  C   UNL     1       6.171   4.931 -10.780  1.00  0.00     0.016 C 
ATOM     12  C   UNL     1       8.175   4.829  -9.289  1.00  0.00     0.016 C 
ATOM     13  G   UNL     1       5.869   4.042  -8.461  1.00  0.00     0.000 G0
ENDBRANCH   9  10
ENDBRANCH   3   8
TORSDOF 0
ENDMDL
MODEL 7
REMARK VINA RESULT:    -3.021      1.420      2.012
REMARK INTER + INTRA:          -2.979
REMARK INTER:                  -3.737
REMARK INTRA:                   0.757
REMARK UNBOUND:                 0.748
REMARK SMILES CC1=CC=CC(C)(C)CC1=O
REMARK SMILES IDX 1 1 2 2 3 3 10 4 11 5 9 6 4 8 5 9 6 10 7 11 8 12
REMARK H PARENT
REMARK Flexibility Score: 80.00
ROOT
ATOM      1  C   UNL     1       7.883   3.625  -4.069  1.00  0.00     0.048 C 
ATOM      2  C   UNL     1       7.522   3.301  -5.500  1.00  0.00    -0.008 C 
ATOM      3  C   UNL     1       6.311   3.700  -5.945  1.00  0.00     0.007 C 
ENDROOT
BRANCH   2   4
ATOM      4  C   UNL     1       8.562   2.638  -6.325  1.00  0.00     0.159 C 
ATOM      5  O   UNL     1       9.740   2.565  -5.878  1.00  0.00    -0.295 OA
BRANCH   4   6
ATOM      6  C   UNL     1       8.289   2.029  -7.665  1.00  0.00     0.091 CG0
ATOM      7  G   UNL     1       7.737   3.042  -8.694  1.00  0.00     0.000 G0
ENDBRANCH   4   6
ENDBRANCH   2   4
BRANCH   3   8
ATOM      8  C   UNL     1       5.695   3.553  -7.285  1.00  0.00    -0.003 C 
ATOM      9  C   UNL     1       6.281   3.290  -8.459  1.00  0.00    -0.020 C 
BRANCH   9  10
ATOM     10  C   UNL     1       7.753   3.046  -8.693  1.00  0.00    -0.010 CG0
ATOM     11  C   UNL     1       7.926   2.434 -10.101  1.00  0.00     0.016 C 
ATOM     12  C   UNL     1       8.524   4.387  -8.658  1.00  0.00     0.016 C 
ATOM     13  G   UNL     1       8.283   2.028  -7.658  1.00  0.00     0.000 G0
ENDBRANCH   9  10
ENDBRANCH   3   8
TORSDOF 0
ENDMDL
MODEL 8
REMARK VINA RESULT:    -2.957      2.099      3.240
REMARK INTER + INTRA:          -2.901
REMARK INTER:                  -3.655
REMARK INTRA:                   0.754
REMARK UNBOUND:                 0.748
REMARK SMILES CC1=CC=CC(C)(C)CC1=O
REMARK SMILES IDX 1 1 2 2 3 3 10 4 11 5 9 6 4 8 5 9 6 10 7 11 8 12
REMARK H PARENT
REMARK Flexibility Score: 80.00
ROOT
ATOM      1  C   UNL     1       6.375   6.519  -6.286  1.00  0.00     0.048 C 
ATOM      2  C   UNL     1       6.797   5.088  -6.524  1.00  0.00    -0.008 C 
ATOM      3  C   UNL     1       6.381   4.158  -5.637  1.00  0.00     0.007 C 
ENDROOT
BRANCH   2   4
ATOM      4  C   UNL     1       7.572   4.808  -7.758  1.00  0.00     0.159 C 
ATOM      5  O   UNL     1       7.666   5.709  -8.636  1.00  0.00    -0.295 OA
BRANCH   4   6
ATOM      6  C   UNL     1       8.270   3.509  -8.017  1.00  0.00     0.091 CG0
ATOM      7  G   UNL     1       7.311   2.297  -8.050  1.00  0.00     0.000 G0
ENDBRANCH   4   6
ENDBRANCH   2   4
BRANCH   3   8
ATOM      8  C   UNL     1       6.608   2.694  -5.617  1.00  0.00    -0.003 C 
ATOM      9  C   UNL     1       6.985   1.885  -6.615  1.00  0.00    -0.020 C 
BRANCH   9  10
ATOM     10  C   UNL     1       7.305   2.297  -8.033  1.00  0.00    -0.010 CG0
ATOM     11  C   UNL     1       8.030   1.122  -8.728  1.00  0.00     0.016 C 
ATOM     12  C   UNL     1       5.998   2.577  -8.809  1.00  0.00     0.016 C 
ATOM     13  G   UNL     1       8.261   3.511  -8.019  1.00  0.00     0.000 G0
ENDBRANCH   9  10
ENDBRANCH   3   8
TORSDOF 0
ENDMDL
MODEL 9
REMARK VINA RESULT:    -2.940     15.913     17.319
REMARK INTER + INTRA:          -2.880
REMARK INTER:                  -3.629
REMARK INTRA:                   0.749
REMARK UNBOUND:                 0.748
REMARK SMILES CC1=CC=CC(C)(C)CC1=O
REMARK SMILES IDX 1 1 2 2 3 3 10 4 11 5 9 6 4 8 5 9 6 10 7 11 8 12
REMARK H PARENT
REMARK Flexibility Score: 80.00
ROOT
ATOM      1  C   UNL     1      -3.736  12.002  -6.051  1.00  0.00     0.048 C 
ATOM      2  C   UNL     1      -5.199  12.281  -5.795  1.00  0.00    -0.008 C 
ATOM      3  C   UNL     1      -6.036  12.250  -6.854  1.00  0.00     0.007 C 
ENDROOT
BRANCH   2   4
ATOM      4  C   UNL     1      -5.609  12.489  -4.384  1.00  0.00     0.159 C 
ATOM      5  O   UNL     1      -4.778  12.249  -3.466  1.00  0.00    -0.295 OA
BRANCH   4   6
ATOM      6  C   UNL     1      -6.963  12.988  -3.983  1.00  0.00     0.091 CG0
ATOM      7  G   UNL     1      -8.116  12.081  -4.472  1.00  0.00     0.000 G0
ENDBRANCH   4   6
ENDBRANCH   2   4
BRANCH   3   8
ATOM      8  C   UNL     1      -7.503  12.452  -6.913  1.00  0.00    -0.003 C 
ATOM      9  C   UNL     1      -8.405  12.380  -5.926  1.00  0.00    -0.020 C 
BRANCH   9  10
ATOM     10  C   UNL     1      -8.123  12.091  -4.471  1.00  0.00    -0.010 CG0
ATOM     11  C   UNL     1      -9.380  12.458  -3.650  1.00  0.00     0.016 C 
ATOM     12  C   UNL     1      -7.849  10.582  -4.274  1.00  0.00     0.016 C 
ATOM     13  G   UNL     1      -6.954  12.977  -3.982  1.00  0.00     0.000 G0
ENDBRANCH   9  10
ENDBRANCH   3   8
TORSDOF 0
ENDMDL
