MODEL 1
REMARK VINA RESULT:     2.613      0.000      0.000
REMARK INTER + INTRA:           2.777
REMARK INTER:                   3.072
REMARK INTRA:                  -0.294
REMARK UNBOUND:                -0.294
REMARK SMILES O=c1cc(-c2ccc(O)c(O)c2)oc2cc(O)cc(O)c12
REMARK SMILES IDX 4 1 3 2 2 3 1 4 21 5 19 6 18 7 16 8 15 9 14 10 13 11 5 12
REMARK SMILES IDX 6 13 7 14 8 15 12 16 10 17 9 18 11 20 20 22 17 24
REMARK H PARENT 9 19 11 21 20 23 17 25
REMARK Flexibility Score: inf
ROOT
ATOM      1  C   UNL     1      24.733  64.952   3.709  1.00  0.00     0.138 A 
ATOM      2  C   UNL     1      23.777  64.940   4.734  1.00  0.00     0.100 A 
ATOM      3  C   UNL     1      22.419  64.950   4.413  1.00  0.00     0.197 A 
ATOM      4  O   UNL     1      21.586  64.876   5.353  1.00  0.00    -0.289 OA
ATOM      5  C   UNL     1      22.018  65.003   3.056  1.00  0.00     0.107 A 
ATOM      6  C   UNL     1      20.663  65.058   2.612  1.00  0.00     0.134 A 
ATOM      7  C   UNL     1      20.383  64.990   1.242  1.00  0.00     0.093 A 
ATOM      8  C   UNL     1      21.412  64.930   0.298  1.00  0.00     0.123 A 
ATOM      9  C   UNL     1      22.739  64.930   0.720  1.00  0.00     0.094 A 
ATOM     10  C   UNL     1      23.049  64.962   2.082  1.00  0.00     0.146 A 
ATOM     11  O   UNL     1      24.329  64.947   2.443  1.00  0.00    -0.456 OA
ENDROOT
BRANCH   1  12
ATOM     12  C   UNL     1      26.189  64.943   3.994  1.00  0.00     0.021 A 
ATOM     13  C   UNL     1      27.146  64.914   2.962  1.00  0.00     0.016 A 
ATOM     14  C   UNL     1      28.511  64.895   3.260  1.00  0.00     0.051 A 
ATOM     15  C   UNL     1      28.946  64.897   4.588  1.00  0.00     0.157 A 
ATOM     16  C   UNL     1      26.633  64.931   5.329  1.00  0.00     0.062 A 
ATOM     17  C   UNL     1      28.003  64.913   5.629  1.00  0.00     0.158 A 
BRANCH  15  18
ATOM     18  O   UNL     1      30.314  64.879   4.853  1.00  0.00    -0.504 OA
ATOM     19  H   UNL     1      30.695  65.192   5.739  1.00  0.00     0.293 HD
ENDBRANCH  15  18
BRANCH  17  20
ATOM     20  O   UNL     1      28.430  64.911   6.956  1.00  0.00    -0.504 OA
ATOM     21  H   UNL     1      28.888  65.715   7.368  1.00  0.00     0.293 HD
ENDBRANCH  17  20
ENDBRANCH   1  12
BRANCH   6  22
ATOM     22  O   UNL     1      19.566  65.203   3.467  1.00  0.00    -0.507 OA
ATOM     23  H   UNL     1      18.648  64.822   3.296  1.00  0.00     0.293 HD
ENDBRANCH   6  22
BRANCH   8  24
ATOM     24  O   UNL     1      21.124  64.878  -1.064  1.00  0.00    -0.508 OA
ATOM     25  H   UNL     1      20.903  64.004  -1.527  1.00  0.00     0.293 HD
ENDBRANCH   8  24
TORSDOF 5
ENDMDL
