MODEL 1
REMARK VINA RESULT:    -2.659      0.000      0.000
REMARK INTER + INTRA:          -3.495
REMARK INTER:                  -3.359
REMARK INTRA:                  -0.136
REMARK UNBOUND:                -0.136
REMARK SMILES CCCCCCO
REMARK SMILES IDX 4 1 3 2 2 3 1 4 5 5 6 6 7 7
REMARK H PARENT 7 8
REMARK Flexibility Score: inf
ROOT
ATOM      1  C   UNL     1     145.893 142.560 144.663  1.00  0.00     0.002 C 
ENDROOT
BRANCH   1   2
ATOM      2  C   UNL     1     147.330 142.010 144.670  1.00  0.00    -0.000 C 
BRANCH   2   3
ATOM      3  C   UNL     1     148.355 143.024 145.197  1.00  0.00    -0.003 C 
ATOM      4  C   UNL     1     149.328 143.446 144.098  1.00  0.00     0.004 C 
ENDBRANCH   2   3
ENDBRANCH   1   2
BRANCH   1   5
ATOM      5  C   UNL     1     145.514 143.377 143.412  1.00  0.00     0.028 C 
BRANCH   5   6
ATOM      6  C   UNL     1     145.485 144.891 143.645  1.00  0.00     0.156 C 
BRANCH   6   7
ATOM      7  O   UNL     1     145.217 145.563 142.446  1.00  0.00    -0.396 OA
ATOM      8  H   UNL     1     146.033 145.468 141.889  1.00  0.00     0.210 HD
ENDBRANCH   6   7
ENDBRANCH   5   6
ENDBRANCH   1   5
TORSDOF 5
ENDMDL
MODEL 2
REMARK VINA RESULT:    -2.643     12.445     13.524
REMARK INTER + INTRA:          -3.475
REMARK INTER:                  -3.254
REMARK INTRA:                  -0.220
REMARK UNBOUND:                -0.136
REMARK SMILES CCCCCCO
REMARK SMILES IDX 4 1 3 2 2 3 1 4 5 5 6 6 7 7
REMARK H PARENT 7 8
REMARK Flexibility Score: inf
ROOT
ATOM      1  C   UNL     1     134.277 139.564 144.625  1.00  0.00     0.002 C 
ENDROOT
BRANCH   1   2
ATOM      2  C   UNL     1     135.723 139.061 144.772  1.00  0.00    -0.000 C 
BRANCH   2   3
ATOM      3  C   UNL     1     136.244 138.359 143.509  1.00  0.00    -0.003 C 
ATOM      4  C   UNL     1     136.166 136.842 143.651  1.00  0.00     0.004 C 
ENDBRANCH   2   3
ENDBRANCH   1   2
BRANCH   1   5
ATOM      5  C   UNL     1     133.195 138.592 145.135  1.00  0.00     0.028 C 
BRANCH   5   6
ATOM      6  C   UNL     1     132.303 138.019 144.029  1.00  0.00     0.156 C 
BRANCH   6   7
ATOM      7  O   UNL     1     132.844 138.307 142.770  1.00  0.00    -0.396 OA
ATOM      8  H   UNL     1     133.693 138.792 142.939  1.00  0.00     0.210 HD
ENDBRANCH   6   7
ENDBRANCH   5   6
ENDBRANCH   1   5
TORSDOF 5
ENDMDL
MODEL 3
REMARK VINA RESULT:    -2.643      8.699      9.665
REMARK INTER + INTRA:          -3.474
REMARK INTER:                  -3.333
REMARK INTRA:                  -0.142
REMARK UNBOUND:                -0.136
REMARK SMILES CCCCCCO
REMARK SMILES IDX 4 1 3 2 2 3 1 4 5 5 6 6 7 7
REMARK H PARENT 7 8
REMARK Flexibility Score: inf
ROOT
ATOM      1  C   UNL     1     138.963 145.908 144.757  1.00  0.00     0.002 C 
ENDROOT
BRANCH   1   2
ATOM      2  C   UNL     1     139.546 147.330 144.686  1.00  0.00    -0.000 C 
BRANCH   2   3
ATOM      3  C   UNL     1     138.571 148.401 145.195  1.00  0.00    -0.003 C 
ATOM      4  C   UNL     1     138.094 149.297 144.054  1.00  0.00     0.004 C 
ENDBRANCH   2   3
ENDBRANCH   1   2
BRANCH   1   5
ATOM      5  C   UNL     1     138.186 145.460 143.503  1.00  0.00     0.028 C 
BRANCH   5   6
ATOM      6  C   UNL     1     136.665 145.569 143.644  1.00  0.00     0.156 C 
BRANCH   6   7
ATOM      7  O   UNL     1     136.038 145.233 142.438  1.00  0.00    -0.396 OA
ATOM      8  H   UNL     1     135.252 144.678 142.682  1.00  0.00     0.210 HD
ENDBRANCH   6   7
ENDBRANCH   5   6
ENDBRANCH   1   5
TORSDOF 5
ENDMDL
MODEL 4
REMARK VINA RESULT:    -2.642      8.731      9.689
REMARK INTER + INTRA:          -3.473
REMARK INTER:                  -3.355
REMARK INTRA:                  -0.118
REMARK UNBOUND:                -0.136
REMARK SMILES CCCCCCO
REMARK SMILES IDX 4 1 3 2 2 3 1 4 5 5 6 6 7 7
REMARK H PARENT 7 8
REMARK Flexibility Score: inf
ROOT
ATOM      1  C   UNL     1     142.960 134.673 143.594  1.00  0.00     0.002 C 
ENDROOT
BRANCH   1   2
ATOM      2  C   UNL     1     142.516 134.210 144.992  1.00  0.00    -0.000 C 
BRANCH   2   3
ATOM      3  C   UNL     1     143.315 133.003 145.504  1.00  0.00    -0.003 C 
ATOM      4  C   UNL     1     143.826 132.150 144.346  1.00  0.00     0.004 C 
ENDBRANCH   2   3
ENDBRANCH   1   2
BRANCH   1   5
ATOM      5  C   UNL     1     143.528 136.104 143.531  1.00  0.00     0.028 C 
BRANCH   5   6
ATOM      6  C   UNL     1     145.048 136.176 143.706  1.00  0.00     0.156 C 
BRANCH   6   7
ATOM      7  O   UNL     1     145.671 136.399 142.471  1.00  0.00    -0.396 OA
ATOM      8  H   UNL     1     145.193 137.164 142.056  1.00  0.00     0.210 HD
ENDBRANCH   6   7
ENDBRANCH   5   6
ENDBRANCH   1   5
TORSDOF 5
ENDMDL
MODEL 5
REMARK VINA RESULT:    -2.641      1.595      3.380
REMARK INTER + INTRA:          -3.473
REMARK INTER:                  -3.260
REMARK INTRA:                  -0.213
REMARK UNBOUND:                -0.136
REMARK SMILES CCCCCCO
REMARK SMILES IDX 4 1 3 2 2 3 1 4 5 5 6 6 7 7
REMARK H PARENT 7 8
REMARK Flexibility Score: inf
ROOT
ATOM      1  C   UNL     1     147.293 142.040 144.676  1.00  0.00     0.002 C 
ENDROOT
BRANCH   1   2
ATOM      2  C   UNL     1     145.853 142.568 144.794  1.00  0.00    -0.000 C 
BRANCH   2   3
ATOM      3  C   UNL     1     145.363 143.258 143.513  1.00  0.00    -0.003 C 
ATOM      4  C   UNL     1     145.425 144.777 143.647  1.00  0.00     0.004 C 
ENDBRANCH   2   3
ENDBRANCH   1   2
BRANCH   1   5
ATOM      5  C   UNL     1     148.382 143.000 145.195  1.00  0.00     0.028 C 
BRANCH   5   6
ATOM      6  C   UNL     1     149.332 143.508 144.106  1.00  0.00     0.156 C 
BRANCH   6   7
ATOM      7  O   UNL     1     148.762 143.328 142.839  1.00  0.00    -0.396 OA
ATOM      8  H   UNL     1     149.190 142.517 142.458  1.00  0.00     0.210 HD
ENDBRANCH   6   7
ENDBRANCH   5   6
ENDBRANCH   1   5
TORSDOF 5
ENDMDL
MODEL 6
REMARK VINA RESULT:    -2.627     12.620     13.962
REMARK INTER + INTRA:          -3.455
REMARK INTER:                  -3.328
REMARK INTRA:                  -0.127
REMARK UNBOUND:                -0.136
REMARK SMILES CCCCCCO
REMARK SMILES IDX 4 1 3 2 2 3 1 4 5 5 6 6 7 7
REMARK H PARENT 7 8
REMARK Flexibility Score: inf
ROOT
ATOM      1  C   UNL     1     134.540 138.696 143.596  1.00  0.00     0.002 C 
ENDROOT
BRANCH   1   2
ATOM      2  C   UNL     1     134.031 139.107 144.989  1.00  0.00    -0.000 C 
BRANCH   2   3
ATOM      3  C   UNL     1     132.972 138.145 145.546  1.00  0.00    -0.003 C 
ATOM      4  C   UNL     1     132.104 137.575 144.428  1.00  0.00     0.004 C 
ENDBRANCH   2   3
ENDBRANCH   1   2
BRANCH   1   5
ATOM      5  C   UNL     1     135.996 138.190 143.558  1.00  0.00     0.028 C 
BRANCH   5   6
ATOM      6  C   UNL     1     136.132 136.675 143.736  1.00  0.00     0.156 C 
BRANCH   6   7
ATOM      7  O   UNL     1     136.309 136.052 142.495  1.00  0.00    -0.396 OA
ATOM      8  H   UNL     1     136.287 135.075 142.672  1.00  0.00     0.210 HD
ENDBRANCH   6   7
ENDBRANCH   5   6
ENDBRANCH   1   5
TORSDOF 5
ENDMDL
MODEL 7
REMARK VINA RESULT:    -2.624      9.266     10.244
REMARK INTER + INTRA:          -3.451
REMARK INTER:                  -3.218
REMARK INTRA:                  -0.233
REMARK UNBOUND:                -0.136
REMARK SMILES CCCCCCO
REMARK SMILES IDX 4 1 3 2 2 3 1 4 5 5 6 6 7 7
REMARK H PARENT 7 8
REMARK Flexibility Score: inf
ROOT
ATOM      1  C   UNL     1     141.992 134.290 144.600  1.00  0.00     0.002 C 
ENDROOT
BRANCH   1   2
ATOM      2  C   UNL     1     142.511 135.722 144.820  1.00  0.00    -0.000 C 
BRANCH   2   3
ATOM      3  C   UNL     1     143.218 136.298 143.584  1.00  0.00    -0.003 C 
ATOM      4  C   UNL     1     144.734 136.188 143.716  1.00  0.00     0.004 C 
ENDBRANCH   2   3
ENDBRANCH   1   2
BRANCH   1   5
ATOM      5  C   UNL     1     142.913 133.175 145.132  1.00  0.00     0.028 C 
BRANCH   5   6
ATOM      6  C   UNL     1     143.586 132.348 144.033  1.00  0.00     0.156 C 
BRANCH   6   7
ATOM      7  O   UNL     1     143.266 132.863 142.770  1.00  0.00    -0.396 OA
ATOM      8  H   UNL     1     144.020 132.616 142.173  1.00  0.00     0.210 HD
ENDBRANCH   6   7
ENDBRANCH   5   6
ENDBRANCH   1   5
TORSDOF 5
ENDMDL
MODEL 8
REMARK VINA RESULT:    -2.507      7.312      8.846
REMARK INTER + INTRA:          -3.304
REMARK INTER:                  -3.206
REMARK INTRA:                  -0.098
REMARK UNBOUND:                -0.136
REMARK SMILES CCCCCCO
REMARK SMILES IDX 4 1 3 2 2 3 1 4 5 5 6 6 7 7
REMARK H PARENT 7 8
REMARK Flexibility Score: inf
ROOT
ATOM      1  C   UNL     1     138.446 147.216 143.619  1.00  0.00     0.002 C 
ENDROOT
BRANCH   1   2
ATOM      2  C   UNL     1     139.301 147.641 144.825  1.00  0.00    -0.000 C 
BRANCH   2   3
ATOM      3  C   UNL     1     140.246 146.532 145.309  1.00  0.00    -0.003 C 
ATOM      4  C   UNL     1     141.687 147.030 145.383  1.00  0.00     0.004 C 
ENDBRANCH   2   3
ENDBRANCH   1   2
BRANCH   1   5
ATOM      5  C   UNL     1     138.159 145.705 143.524  1.00  0.00     0.028 C 
BRANCH   5   6
ATOM      6  C   UNL     1     136.696 145.333 143.789  1.00  0.00     0.156 C 
BRANCH   6   7
ATOM      7  O   UNL     1     135.985 145.261 142.585  1.00  0.00    -0.396 OA
ATOM      8  H   UNL     1     136.532 145.747 141.913  1.00  0.00     0.210 HD
ENDBRANCH   6   7
ENDBRANCH   5   6
ENDBRANCH   1   5
TORSDOF 5
ENDMDL
MODEL 9
REMARK VINA RESULT:    -2.463      0.915      1.396
REMARK INTER + INTRA:          -3.247
REMARK INTER:                  -3.098
REMARK INTRA:                  -0.149
REMARK UNBOUND:                -0.136
REMARK SMILES CCCCCCO
REMARK SMILES IDX 4 1 3 2 2 3 1 4 5 5 6 6 7 7
REMARK H PARENT 7 8
REMARK Flexibility Score: inf
ROOT
ATOM      1  C   UNL     1     147.163 142.897 144.254  1.00  0.00     0.002 C 
ENDROOT
BRANCH   1   2
ATOM      2  C   UNL     1     148.478 143.467 143.696  1.00  0.00    -0.000 C 
BRANCH   2   3
ATOM      3  C   UNL     1     149.380 144.067 144.785  1.00  0.00    -0.003 C 
ATOM      4  C   UNL     1     148.843 143.753 146.178  1.00  0.00     0.004 C 
ENDBRANCH   2   3
ENDBRANCH   1   2
BRANCH   1   5
ATOM      5  C   UNL     1     145.887 143.385 143.541  1.00  0.00     0.028 C 
BRANCH   5   6
ATOM      6  C   UNL     1     145.476 144.813 143.913  1.00  0.00     0.156 C 
BRANCH   6   7
ATOM      7  O   UNL     1     145.442 145.623 142.772  1.00  0.00    -0.396 OA
ATOM      8  H   UNL     1     144.482 145.801 142.589  1.00  0.00     0.210 HD
ENDBRANCH   6   7
ENDBRANCH   5   6
ENDBRANCH   1   5
TORSDOF 5
ENDMDL
