MODEL 1
REMARK VINA RESULT:    -5.163      0.000      0.000
REMARK INTER + INTRA:          -6.833
REMARK INTER:                  -7.276
REMARK INTRA:                   0.443
REMARK UNBOUND:                 0.443
REMARK SMILES CC1=CCC(=C(C)C)C(=O)CC(C)=CCC1
REMARK SMILES IDX 12 1 14 2 13 3 15 4 16 5 2 6 1 7 3 8 11 10 9 11 10 12 5 13
REMARK SMILES IDX 6 14 7 15 8 16 4 17
REMARK H PARENT
REMARK Flexibility Score: 60.00
ROOT
ATOM      1  C   UNL     1     118.754 178.181 124.143  1.00  0.00    -0.070 C 
ATOM      2  C   UNL     1     117.531 177.610 124.079  1.00  0.00    -0.027 C 
ATOM      3  C   UNL     1     119.389 178.637 122.854  1.00  0.00     0.039 C 
ENDROOT
BRANCH   2   4
ATOM      4  C   UNL     1     116.693 177.180 125.264  1.00  0.00     0.032 C 
BRANCH   4   5
ATOM      5  C   UNL     1     117.231 175.950 126.023  1.00  0.00     0.034 C 
BRANCH   5   6
ATOM      6  C   UNL     1     117.283 176.150 127.528  1.00  0.00    -0.077 C 
ATOM      7  C   UNL     1     115.993 176.480 128.236  1.00  0.00     0.039 C 
ATOM      8  C   UNL     1     118.396 175.983 128.283  1.00  0.00    -0.023 CG0
ATOM      9  G   UNL     1     119.796 175.672 127.793  1.00  0.00     0.000 G0
ENDBRANCH   5   6
ENDBRANCH   4   5
ENDBRANCH   2   4
BRANCH   1  10
ATOM     10  C   UNL     1     119.471 178.466 125.447  1.00  0.00     0.111 C 
BRANCH  10  11
ATOM     11  C   UNL     1     120.332 177.306 125.874  1.00  0.00     0.163 C 
ATOM     12  O   UNL     1     120.959 176.673 124.982  1.00  0.00    -0.294 OA
BRANCH  11  13
ATOM     13  C   UNL     1     120.514 176.927 127.306  1.00  0.00    -0.002 C 
ATOM     14  C   UNL     1     121.231 177.725 128.154  1.00  0.00    -0.069 C 
ATOM     15  C   UNL     1     121.991 178.930 127.644  1.00  0.00     0.039 C 
ATOM     16  C   UNL     1     121.301 177.453 129.641  1.00  0.00     0.039 C 
BRANCH  13  17
ATOM     17  C   UNL     1     119.795 175.679 127.793  1.00  0.00     0.066 CG0
ATOM     18  G   UNL     1     118.393 175.976 128.285  1.00  0.00     0.000 G0
ENDBRANCH  13  17
ENDBRANCH  11  13
ENDBRANCH  10  11
ENDBRANCH   1  10
TORSDOF 0
ENDMDL
MODEL 2
REMARK VINA RESULT:    -4.967      1.979      3.782
REMARK INTER + INTRA:          -6.557
REMARK INTER:                  -6.784
REMARK INTRA:                   0.228
REMARK UNBOUND:                 0.443
REMARK SMILES CC1=CCC(=C(C)C)C(=O)CC(C)=CCC1
REMARK SMILES IDX 12 1 14 2 13 3 15 4 16 5 2 6 1 7 3 8 11 10 9 11 10 12 5 13
REMARK SMILES IDX 6 14 7 15 8 16 4 17
REMARK H PARENT
REMARK Flexibility Score: 60.00
ROOT
ATOM      1  C   UNL     1     120.492 177.902 126.315  1.00  0.00    -0.070 C 
ATOM      2  C   UNL     1     119.713 178.997 126.160  1.00  0.00    -0.027 C 
ATOM      3  C   UNL     1     121.838 178.081 126.969  1.00  0.00     0.039 C 
ENDROOT
BRANCH   2   4
ATOM      4  C   UNL     1     118.299 179.005 125.619  1.00  0.00     0.032 C 
BRANCH   4   5
ATOM      5  C   UNL     1     117.238 178.420 126.573  1.00  0.00     0.034 C 
BRANCH   5   6
ATOM      6  C   UNL     1     116.310 177.425 125.899  1.00  0.00    -0.077 C 
ATOM      7  C   UNL     1     115.495 177.910 124.726  1.00  0.00     0.039 C 
ATOM      8  C   UNL     1     116.219 176.116 126.237  1.00  0.00    -0.023 CG0
ATOM      9  G   UNL     1     116.922 175.414 127.382  1.00  0.00     0.000 G0
ENDBRANCH   5   6
ENDBRANCH   4   5
ENDBRANCH   2   4
BRANCH   1  10
ATOM     10  C   UNL     1     120.041 176.503 125.951  1.00  0.00     0.111 C 
BRANCH  10  11
ATOM     11  C   UNL     1     119.442 175.786 127.132  1.00  0.00     0.163 C 
ATOM     12  O   UNL     1     119.910 176.035 128.277  1.00  0.00    -0.294 OA
BRANCH  11  13
ATOM     13  C   UNL     1     118.285 174.852 127.001  1.00  0.00    -0.002 C 
ATOM     14  C   UNL     1     118.477 173.552 126.625  1.00  0.00    -0.069 C 
ATOM     15  C   UNL     1     119.835 173.055 126.182  1.00  0.00     0.039 C 
ATOM     16  C   UNL     1     117.350 172.541 126.636  1.00  0.00     0.039 C 
BRANCH  13  17
ATOM     17  C   UNL     1     116.914 175.382 127.391  1.00  0.00     0.066 CG0
ATOM     18  G   UNL     1     116.226 176.098 126.246  1.00  0.00     0.000 G0
ENDBRANCH  13  17
ENDBRANCH  11  13
ENDBRANCH  10  11
ENDBRANCH   1  10
TORSDOF 0
ENDMDL
MODEL 3
REMARK VINA RESULT:    -4.877      2.035      3.901
REMARK INTER + INTRA:          -6.430
REMARK INTER:                  -6.914
REMARK INTRA:                   0.484
REMARK UNBOUND:                 0.443
REMARK SMILES CC1=CCC(=C(C)C)C(=O)CC(C)=CCC1
REMARK SMILES IDX 12 1 14 2 13 3 15 4 16 5 2 6 1 7 3 8 11 10 9 11 10 12 5 13
REMARK SMILES IDX 6 14 7 15 8 16 4 17
REMARK H PARENT
REMARK Flexibility Score: 60.00
ROOT
ATOM      1  C   UNL     1     116.817 177.097 125.381  1.00  0.00    -0.070 C 
ATOM      2  C   UNL     1     117.624 177.898 124.648  1.00  0.00    -0.027 C 
ATOM      3  C   UNL     1     115.331 177.190 125.147  1.00  0.00     0.039 C 
ENDROOT
BRANCH   2   4
ATOM      4  C   UNL     1     119.137 177.881 124.668  1.00  0.00     0.032 C 
BRANCH   4   5
ATOM      5  C   UNL     1     119.780 178.783 125.741  1.00  0.00     0.034 C 
BRANCH   5   6
ATOM      6  C   UNL     1     120.621 178.013 126.744  1.00  0.00    -0.077 C 
ATOM      7  C   UNL     1     122.021 177.629 126.336  1.00  0.00     0.039 C 
ATOM      8  C   UNL     1     120.222 177.712 128.004  1.00  0.00    -0.023 CG0
ATOM      9  G   UNL     1     118.864 177.979 128.623  1.00  0.00     0.000 G0
ENDBRANCH   5   6
ENDBRANCH   4   5
ENDBRANCH   2   4
BRANCH   1  10
ATOM     10  C   UNL     1     117.337 176.055 126.349  1.00  0.00     0.111 C 
BRANCH  10  11
ATOM     11  C   UNL     1     116.996 176.401 127.775  1.00  0.00     0.163 C 
ATOM     12  O   UNL     1     115.782 176.388 128.115  1.00  0.00    -0.294 OA
BRANCH  11  13
ATOM     13  C   UNL     1     118.042 176.695 128.800  1.00  0.00    -0.002 C 
ATOM     14  C   UNL     1     118.300 175.808 129.807  1.00  0.00    -0.069 C 
ATOM     15  C   UNL     1     117.440 174.580 130.012  1.00  0.00     0.039 C 
ATOM     16  C   UNL     1     119.456 176.000 130.766  1.00  0.00     0.039 C 
BRANCH  13  17
ATOM     17  C   UNL     1     118.858 177.964 128.618  1.00  0.00     0.066 CG0
ATOM     18  G   UNL     1     120.217 177.692 128.004  1.00  0.00     0.000 G0
ENDBRANCH  13  17
ENDBRANCH  11  13
ENDBRANCH  10  11
ENDBRANCH   1  10
TORSDOF 0
ENDMDL
MODEL 4
REMARK VINA RESULT:    -4.865      2.032      4.689
REMARK INTER + INTRA:          -6.413
REMARK INTER:                  -6.989
REMARK INTRA:                   0.577
REMARK UNBOUND:                 0.443
REMARK SMILES CC1=CCC(=C(C)C)C(=O)CC(C)=CCC1
REMARK SMILES IDX 12 1 14 2 13 3 15 4 16 5 2 6 1 7 3 8 11 10 9 11 10 12 5 13
REMARK SMILES IDX 6 14 7 15 8 16 4 17
REMARK H PARENT
REMARK Flexibility Score: 60.00
ROOT
ATOM      1  C   UNL     1     119.648 178.230 127.305  1.00  0.00    -0.070 C 
ATOM      2  C   UNL     1     120.960 178.101 127.605  1.00  0.00    -0.027 C 
ATOM      3  C   UNL     1     118.656 178.155 128.437  1.00  0.00     0.039 C 
ENDROOT
BRANCH   2   4
ATOM      4  C   UNL     1     122.107 178.244 126.627  1.00  0.00     0.032 C 
BRANCH   4   5
ATOM      5  C   UNL     1     122.687 176.912 126.110  1.00  0.00     0.034 C 
BRANCH   5   6
ATOM      6  C   UNL     1     122.044 176.440 124.818  1.00  0.00    -0.077 C 
ATOM      7  C   UNL     1     122.754 176.754 123.526  1.00  0.00     0.039 C 
ATOM      8  C   UNL     1     120.913 175.695 124.756  1.00  0.00    -0.023 CG0
ATOM      9  G   UNL     1     120.027 175.277 125.912  1.00  0.00     0.000 G0
ENDBRANCH   5   6
ENDBRANCH   4   5
ENDBRANCH   2   4
BRANCH   1  10
ATOM     10  C   UNL     1     119.140 178.537 125.912  1.00  0.00     0.111 C 
BRANCH  10  11
ATOM     11  C   UNL     1     118.572 177.312 125.245  1.00  0.00     0.163 C 
ATOM     12  O   UNL     1     118.070 177.442 124.095  1.00  0.00    -0.294 OA
BRANCH  11  13
ATOM     13  C   UNL     1     118.639 175.957 125.867  1.00  0.00    -0.002 C 
ATOM     14  C   UNL     1     117.504 175.328 126.297  1.00  0.00    -0.069 C 
ATOM     15  C   UNL     1     116.168 176.038 126.303  1.00  0.00     0.039 C 
ATOM     16  C   UNL     1     117.519 173.895 126.784  1.00  0.00     0.039 C 
BRANCH  13  17
ATOM     17  C   UNL     1     119.999 175.279 125.911  1.00  0.00     0.066 CG0
ATOM     18  G   UNL     1     120.891 175.697 124.759  1.00  0.00     0.000 G0
ENDBRANCH  13  17
ENDBRANCH  11  13
ENDBRANCH  10  11
ENDBRANCH   1  10
TORSDOF 0
ENDMDL
MODEL 5
REMARK VINA RESULT:    -4.863      2.470      4.036
REMARK INTER + INTRA:          -6.411
REMARK INTER:                  -6.664
REMARK INTRA:                   0.253
REMARK UNBOUND:                 0.443
REMARK SMILES CC1=CCC(=C(C)C)C(=O)CC(C)=CCC1
REMARK SMILES IDX 12 1 14 2 13 3 15 4 16 5 2 6 1 7 3 8 11 10 9 11 10 12 5 13
REMARK SMILES IDX 6 14 7 15 8 16 4 17
REMARK H PARENT
REMARK Flexibility Score: 60.00
ROOT
ATOM      1  C   UNL     1     117.620 178.858 126.530  1.00  0.00    -0.070 C 
ATOM      2  C   UNL     1     118.419 178.998 125.448  1.00  0.00    -0.027 C 
ATOM      3  C   UNL     1     116.377 179.708 126.603  1.00  0.00     0.039 C 
ENDROOT
BRANCH   2   4
ATOM      4  C   UNL     1     119.650 178.170 125.147  1.00  0.00     0.032 C 
BRANCH   4   5
ATOM      5  C   UNL     1     119.364 176.707 124.750  1.00  0.00     0.034 C 
BRANCH   5   6
ATOM      6  C   UNL     1     120.171 175.700 125.551  1.00  0.00    -0.077 C 
ATOM      7  C   UNL     1     121.674 175.812 125.505  1.00  0.00     0.039 C 
ATOM      8  C   UNL     1     119.629 174.756 126.358  1.00  0.00    -0.023 CG0
ATOM      9  G   UNL     1     118.157 174.448 126.547  1.00  0.00     0.000 G0
ENDBRANCH   5   6
ENDBRANCH   4   5
ENDBRANCH   2   4
BRANCH   1  10
ATOM     10  C   UNL     1     117.862 177.830 127.616  1.00  0.00     0.111 C 
BRANCH  10  11
ATOM     11  C   UNL     1     117.027 176.594 127.408  1.00  0.00     0.163 C 
ATOM     12  O   UNL     1     115.876 176.732 126.912  1.00  0.00    -0.294 OA
BRANCH  11  13
ATOM     13  C   UNL     1     117.536 175.223 127.707  1.00  0.00    -0.002 C 
ATOM     14  C   UNL     1     117.382 174.676 128.950  1.00  0.00    -0.069 C 
ATOM     15  C   UNL     1     116.834 175.490 130.103  1.00  0.00     0.039 C 
ATOM     16  C   UNL     1     117.743 173.236 129.241  1.00  0.00     0.039 C 
BRANCH  13  17
ATOM     17  C   UNL     1     118.141 174.438 126.554  1.00  0.00     0.066 CG0
ATOM     18  G   UNL     1     119.613 174.745 126.357  1.00  0.00     0.000 G0
ENDBRANCH  13  17
ENDBRANCH  11  13
ENDBRANCH  10  11
ENDBRANCH   1  10
TORSDOF 0
ENDMDL
MODEL 6
REMARK VINA RESULT:    -4.857      1.547      2.103
REMARK INTER + INTRA:          -6.403
REMARK INTER:                  -6.658
REMARK INTRA:                   0.255
REMARK UNBOUND:                 0.443
REMARK SMILES CC1=CCC(=C(C)C)C(=O)CC(C)=CCC1
REMARK SMILES IDX 12 1 14 2 13 3 15 4 16 5 2 6 1 7 3 8 11 10 9 11 10 12 5 13
REMARK SMILES IDX 6 14 7 15 8 16 4 17
REMARK H PARENT
REMARK Flexibility Score: 60.00
ROOT
ATOM      1  C   UNL     1     120.732 177.439 124.003  1.00  0.00    -0.070 C 
ATOM      2  C   UNL     1     119.583 177.830 123.408  1.00  0.00    -0.027 C 
ATOM      3  C   UNL     1     121.769 176.751 123.153  1.00  0.00     0.039 C 
ENDROOT
BRANCH   2   4
ATOM      4  C   UNL     1     118.470 178.617 124.067  1.00  0.00     0.032 C 
BRANCH   4   5
ATOM      5  C   UNL     1     117.419 177.761 124.802  1.00  0.00     0.034 C 
BRANCH   5   6
ATOM      6  C   UNL     1     117.053 178.307 126.171  1.00  0.00    -0.077 C 
ATOM      7  C   UNL     1     116.163 179.522 126.226  1.00  0.00     0.039 C 
ATOM      8  C   UNL     1     117.417 177.733 127.344  1.00  0.00    -0.023 CG0
ATOM      9  G   UNL     1     118.317 176.528 127.534  1.00  0.00     0.000 G0
ENDBRANCH   5   6
ENDBRANCH   4   5
ENDBRANCH   2   4
BRANCH   1  10
ATOM     10  C   UNL     1     121.062 177.740 125.451  1.00  0.00     0.111 C 
BRANCH  10  11
ATOM     11  C   UNL     1     120.605 176.636 126.367  1.00  0.00     0.163 C 
ATOM     12  O   UNL     1     120.965 175.457 126.102  1.00  0.00    -0.294 OA
BRANCH  11  13
ATOM     13  C   UNL     1     119.801 176.897 127.598  1.00  0.00    -0.002 C 
ATOM     14  C   UNL     1     120.360 177.521 128.678  1.00  0.00    -0.069 C 
ATOM     15  C   UNL     1     121.841 177.826 128.728  1.00  0.00     0.039 C 
ATOM     16  C   UNL     1     119.535 177.941 129.875  1.00  0.00     0.039 C 
BRANCH  13  17
ATOM     17  C   UNL     1     118.326 176.528 127.558  1.00  0.00     0.066 CG0
ATOM     18  G   UNL     1     117.435 177.736 127.344  1.00  0.00     0.000 G0
ENDBRANCH  13  17
ENDBRANCH  11  13
ENDBRANCH  10  11
ENDBRANCH   1  10
TORSDOF 0
ENDMDL
MODEL 7
REMARK VINA RESULT:    -4.856      1.847      2.765
REMARK INTER + INTRA:          -6.401
REMARK INTER:                  -6.925
REMARK INTRA:                   0.524
REMARK UNBOUND:                 0.443
REMARK SMILES CC1=CCC(=C(C)C)C(=O)CC(C)=CCC1
REMARK SMILES IDX 12 1 14 2 13 3 15 4 16 5 2 6 1 7 3 8 11 10 9 11 10 12 5 13
REMARK SMILES IDX 6 14 7 15 8 16 4 17
REMARK H PARENT
REMARK Flexibility Score: 60.00
ROOT
ATOM      1  C   UNL     1     119.102 175.059 126.196  1.00  0.00    -0.070 C 
ATOM      2  C   UNL     1     117.854 174.931 126.699  1.00  0.00    -0.027 C 
ATOM      3  C   UNL     1     120.172 174.136 126.722  1.00  0.00     0.039 C 
ENDROOT
BRANCH   2   4
ATOM      4  C   UNL     1     116.632 175.693 126.232  1.00  0.00     0.032 C 
BRANCH   4   5
ATOM      5  C   UNL     1     116.058 176.688 127.260  1.00  0.00     0.034 C 
BRANCH   5   6
ATOM      6  C   UNL     1     116.418 178.133 126.960  1.00  0.00    -0.077 C 
ATOM      7  C   UNL     1     115.366 178.996 126.310  1.00  0.00     0.039 C 
ATOM      8  C   UNL     1     117.593 178.714 127.302  1.00  0.00    -0.023 CG0
ATOM      9  G   UNL     1     118.794 178.045 127.941  1.00  0.00     0.000 G0
ENDBRANCH   5   6
ENDBRANCH   4   5
ENDBRANCH   2   4
BRANCH   1  10
ATOM     10  C   UNL     1     119.453 176.012 125.072  1.00  0.00     0.111 C 
BRANCH  10  11
ATOM     11  C   UNL     1     119.555 177.433 125.560  1.00  0.00     0.163 C 
ATOM     12  O   UNL     1     119.257 178.359 124.758  1.00  0.00    -0.294 OA
BRANCH  11  13
ATOM     13  C   UNL     1     119.933 177.773 126.964  1.00  0.00    -0.002 C 
ATOM     14  C   UNL     1     121.246 177.913 127.319  1.00  0.00    -0.069 C 
ATOM     15  C   UNL     1     122.361 177.578 126.353  1.00  0.00     0.039 C 
ATOM     16  C   UNL     1     121.655 178.410 128.689  1.00  0.00     0.039 C 
BRANCH  13  17
ATOM     17  C   UNL     1     118.802 178.046 127.943  1.00  0.00     0.066 CG0
ATOM     18  G   UNL     1     117.607 178.699 127.276  1.00  0.00     0.000 G0
ENDBRANCH  13  17
ENDBRANCH  11  13
ENDBRANCH  10  11
ENDBRANCH   1  10
TORSDOF 0
ENDMDL
MODEL 8
REMARK VINA RESULT:    -4.664      1.650      2.421
REMARK INTER + INTRA:          -6.130
REMARK INTER:                  -6.772
REMARK INTRA:                   0.642
REMARK UNBOUND:                 0.443
REMARK SMILES CC1=CCC(=C(C)C)C(=O)CC(C)=CCC1
REMARK SMILES IDX 12 1 14 2 13 3 15 4 16 5 2 6 1 7 3 8 11 10 9 11 10 12 5 13
REMARK SMILES IDX 6 14 7 15 8 16 4 17
REMARK H PARENT
REMARK Flexibility Score: 60.00
ROOT
ATOM      1  C   UNL     1     119.434 175.755 125.632  1.00  0.00    -0.070 C 
ATOM      2  C   UNL     1     118.605 174.993 126.380  1.00  0.00    -0.027 C 
ATOM      3  C   UNL     1     120.820 175.229 125.358  1.00  0.00     0.039 C 
ENDROOT
BRANCH   2   4
ATOM      4  C   UNL     1     117.154 175.301 126.680  1.00  0.00     0.032 C 
BRANCH   4   5
ATOM      5  C   UNL     1     116.851 175.617 128.159  1.00  0.00     0.034 C 
BRANCH   5   6
ATOM      6  C   UNL     1     118.091 175.621 129.036  1.00  0.00    -0.077 C 
ATOM      7  C   UNL     1     118.382 174.381 129.844  1.00  0.00     0.039 C 
ATOM      8  C   UNL     1     118.989 176.635 129.085  1.00  0.00    -0.023 CG0
ATOM      9  G   UNL     1     118.897 177.974 128.381  1.00  0.00     0.000 G0
ENDBRANCH   5   6
ENDBRANCH   4   5
ENDBRANCH   2   4
BRANCH   1  10
ATOM     10  C   UNL     1     119.010 177.056 124.984  1.00  0.00     0.111 C 
BRANCH  10  11
ATOM     11  C   UNL     1     119.344 178.243 125.849  1.00  0.00     0.163 C 
ATOM     12  O   UNL     1     119.095 179.394 125.400  1.00  0.00    -0.294 OA
BRANCH  11  13
ATOM     13  C   UNL     1     119.894 178.099 127.230  1.00  0.00    -0.002 C 
ATOM     14  C   UNL     1     121.241 178.161 127.455  1.00  0.00    -0.069 C 
ATOM     15  C   UNL     1     122.226 178.222 126.308  1.00  0.00     0.039 C 
ATOM     16  C   UNL     1     121.819 178.178 128.854  1.00  0.00     0.039 C 
BRANCH  13  17
ATOM     17  C   UNL     1     118.895 177.976 128.369  1.00  0.00     0.066 CG0
ATOM     18  G   UNL     1     118.990 176.640 129.078  1.00  0.00     0.000 G0
ENDBRANCH  13  17
ENDBRANCH  11  13
ENDBRANCH  10  11
ENDBRANCH   1  10
TORSDOF 0
ENDMDL
MODEL 9
REMARK VINA RESULT:    -4.624      2.421      4.978
REMARK INTER + INTRA:          -6.073
REMARK INTER:                  -6.218
REMARK INTRA:                   0.145
REMARK UNBOUND:                 0.443
REMARK SMILES CC1=CCC(=C(C)C)C(=O)CC(C)=CCC1
REMARK SMILES IDX 12 1 14 2 13 3 15 4 16 5 2 6 1 7 3 8 11 10 9 11 10 12 5 13
REMARK SMILES IDX 6 14 7 15 8 16 4 17
REMARK H PARENT
REMARK Flexibility Score: 60.00
ROOT
ATOM      1  C   UNL     1     118.641 174.070 127.632  1.00  0.00    -0.070 C 
ATOM      2  C   UNL     1     119.892 173.923 127.139  1.00  0.00    -0.027 C 
ATOM      3  C   UNL     1     118.283 173.310 128.884  1.00  0.00     0.039 C 
ENDROOT
BRANCH   2   4
ATOM      4  C   UNL     1     120.468 174.672 125.957  1.00  0.00     0.032 C 
BRANCH   4   5
ATOM      5  C   UNL     1     120.955 176.101 126.271  1.00  0.00     0.034 C 
BRANCH   5   6
ATOM      6  C   UNL     1     120.416 177.144 125.308  1.00  0.00    -0.077 C 
ATOM      7  C   UNL     1     120.892 177.089 123.878  1.00  0.00     0.039 C 
ATOM      8  C   UNL     1     119.483 178.072 125.631  1.00  0.00    -0.023 CG0
ATOM      9  G   UNL     1     118.878 178.325 126.998  1.00  0.00     0.000 G0
ENDBRANCH   5   6
ENDBRANCH   4   5
ENDBRANCH   2   4
BRANCH   1  10
ATOM     10  C   UNL     1     117.623 175.024 127.045  1.00  0.00     0.111 C 
BRANCH  10  11
ATOM     11  C   UNL     1     117.539 176.304 127.836  1.00  0.00     0.163 C 
ATOM     12  O   UNL     1     117.530 176.223 129.095  1.00  0.00    -0.294 OA
BRANCH  11  13
ATOM     13  C   UNL     1     117.530 177.648 127.187  1.00  0.00    -0.002 C 
ATOM     14  C   UNL     1     116.351 178.259 126.863  1.00  0.00    -0.069 C 
ATOM     15  C   UNL     1     115.028 177.539 127.004  1.00  0.00     0.039 C 
ATOM     16  C   UNL     1     116.302 179.683 126.352  1.00  0.00     0.039 C 
BRANCH  13  17
ATOM     17  C   UNL     1     118.872 178.336 126.994  1.00  0.00     0.066 CG0
ATOM     18  G   UNL     1     119.473 178.055 125.630  1.00  0.00     0.000 G0
ENDBRANCH  13  17
ENDBRANCH  11  13
ENDBRANCH  10  11
ENDBRANCH   1  10
TORSDOF 0
ENDMDL
