MODEL 1
REMARK VINA RESULT:    -3.485      0.000      0.000
REMARK INTER + INTRA:          -4.142
REMARK INTER:                  -4.096
REMARK INTRA:                  -0.046
REMARK UNBOUND:                -0.046
REMARK SMILES O=C([O-])CCC(=O)[O-]
REMARK SMILES IDX 4 1 2 2 1 3 3 4 5 5 6 6 7 7 8 8
REMARK H PARENT
REMARK Flexibility Score: inf
ROOT
ATOM      1  C   UNL     1      12.846  -3.994 -14.842  1.00  0.00     0.059 C 
ENDROOT
BRANCH   1   2
ATOM      2  C   UNL     1      13.588  -5.119 -14.195  1.00  0.00     0.042 C 
ATOM      3  O   UNL     1      14.845  -5.170 -14.258  1.00  0.00    -0.550 OA
ATOM      4  O   UNL     1      12.896  -6.089 -13.481  1.00  0.00    -0.550 OA
ENDBRANCH   1   2
BRANCH   1   5
ATOM      5  C   UNL     1      13.525  -3.587 -16.152  1.00  0.00     0.059 C 
BRANCH   5   6
ATOM      6  C   UNL     1      12.517  -3.470 -17.249  1.00  0.00     0.042 C 
ATOM      7  O   UNL     1      11.308  -3.240 -16.979  1.00  0.00    -0.550 OA
ATOM      8  O   UNL     1      12.901  -3.661 -18.570  1.00  0.00    -0.550 OA
ENDBRANCH   5   6
ENDBRANCH   1   5
TORSDOF 3
ENDMDL
MODEL 2
REMARK VINA RESULT:    -3.472     16.599     17.701
REMARK INTER + INTRA:          -4.127
REMARK INTER:                  -4.051
REMARK INTRA:                  -0.076
REMARK UNBOUND:                -0.046
REMARK SMILES O=C([O-])CCC(=O)[O-]
REMARK SMILES IDX 4 1 2 2 1 3 3 4 5 5 6 6 7 7 8 8
REMARK H PARENT
REMARK Flexibility Score: inf
ROOT
ATOM      1  C   UNL     1      -3.474   0.611 -11.617  1.00  0.00     0.059 C 
ENDROOT
BRANCH   1   2
ATOM      2  C   UNL     1      -3.594   2.004 -11.087  1.00  0.00     0.042 C 
ATOM      3  O   UNL     1      -2.936   2.357 -10.073  1.00  0.00    -0.550 OA
ATOM      4  O   UNL     1      -4.397   2.930 -11.741  1.00  0.00    -0.550 OA
ENDBRANCH   1   2
BRANCH   1   5
ATOM      5  C   UNL     1      -4.068   0.520 -13.024  1.00  0.00     0.059 C 
BRANCH   5   6
ATOM      6  C   UNL     1      -3.008   0.167 -14.017  1.00  0.00     0.042 C 
ATOM      7  O   UNL     1      -3.256   0.208 -15.251  1.00  0.00    -0.550 OA
ATOM      8  O   UNL     1      -1.759  -0.255 -13.581  1.00  0.00    -0.550 OA
ENDBRANCH   5   6
ENDBRANCH   1   5
TORSDOF 3
ENDMDL
MODEL 3
REMARK VINA RESULT:    -3.471     16.696     17.926
REMARK INTER + INTRA:          -4.125
REMARK INTER:                  -4.046
REMARK INTRA:                  -0.079
REMARK UNBOUND:                -0.046
REMARK SMILES O=C([O-])CCC(=O)[O-]
REMARK SMILES IDX 4 1 2 2 1 3 3 4 5 5 6 6 7 7 8 8
REMARK H PARENT
REMARK Flexibility Score: inf
ROOT
ATOM      1  C   UNL     1      -4.182   0.513 -13.070  1.00  0.00     0.059 C 
ENDROOT
BRANCH   1   2
ATOM      2  C   UNL     1      -3.067   0.156 -14.000  1.00  0.00     0.042 C 
ATOM      3  O   UNL     1      -3.241   0.202 -15.246  1.00  0.00    -0.550 OA
ATOM      4  O   UNL     1      -1.819  -0.181 -13.492  1.00  0.00    -0.550 OA
ENDBRANCH   1   2
BRANCH   1   5
ATOM      5  C   UNL     1      -3.657   0.678 -11.642  1.00  0.00     0.059 C 
BRANCH   5   6
ATOM      6  C   UNL     1      -3.769   2.104 -11.205  1.00  0.00     0.042 C 
ATOM      7  O   UNL     1      -4.598   2.874 -11.757  1.00  0.00    -0.550 OA
ATOM      8  O   UNL     1      -2.924   2.597 -10.219  1.00  0.00    -0.550 OA
ENDBRANCH   5   6
ENDBRANCH   1   5
TORSDOF 3
ENDMDL
MODEL 4
REMARK VINA RESULT:    -3.402      0.797      4.194
REMARK INTER + INTRA:          -4.045
REMARK INTER:                  -4.009
REMARK INTRA:                  -0.036
REMARK UNBOUND:                -0.046
REMARK SMILES O=C([O-])CCC(=O)[O-]
REMARK SMILES IDX 4 1 2 2 1 3 3 4 5 5 6 6 7 7 8 8
REMARK H PARENT
REMARK Flexibility Score: inf
ROOT
ATOM      1  C   UNL     1      13.566  -3.367 -15.948  1.00  0.00     0.059 C 
ENDROOT
BRANCH   1   2
ATOM      2  C   UNL     1      12.759  -3.239 -17.200  1.00  0.00     0.042 C 
ATOM      3  O   UNL     1      13.329  -3.213 -18.323  1.00  0.00    -0.550 OA
ATOM      4  O   UNL     1      11.372  -3.195 -17.133  1.00  0.00    -0.550 OA
ENDBRANCH   1   2
BRANCH   1   5
ATOM      5  C   UNL     1      12.798  -4.170 -14.896  1.00  0.00     0.059 C 
BRANCH   5   6
ATOM      6  C   UNL     1      13.734  -4.709 -13.863  1.00  0.00     0.042 C 
ATOM      7  O   UNL     1      14.708  -5.431 -14.203  1.00  0.00    -0.550 OA
ATOM      8  O   UNL     1      13.506  -4.453 -12.517  1.00  0.00    -0.550 OA
ENDBRANCH   5   6
ENDBRANCH   1   5
TORSDOF 3
ENDMDL
MODEL 5
REMARK VINA RESULT:    -3.307      1.237      1.694
REMARK INTER + INTRA:          -3.933
REMARK INTER:                  -3.902
REMARK INTRA:                  -0.031
REMARK UNBOUND:                -0.046
REMARK SMILES O=C([O-])CCC(=O)[O-]
REMARK SMILES IDX 4 1 2 2 1 3 3 4 5 5 6 6 7 7 8 8
REMARK H PARENT
REMARK Flexibility Score: inf
ROOT
ATOM      1  C   UNL     1      13.939  -4.756 -14.656  1.00  0.00     0.059 C 
ENDROOT
BRANCH   1   2
ATOM      2  C   UNL     1      13.330  -5.881 -13.881  1.00  0.00     0.042 C 
ATOM      3  O   UNL     1      12.415  -5.655 -13.046  1.00  0.00    -0.550 OA
ATOM      4  O   UNL     1      13.740  -7.188 -14.114  1.00  0.00    -0.550 OA
ENDBRANCH   1   2
BRANCH   1   5
ATOM      5  C   UNL     1      12.850  -3.828 -15.198  1.00  0.00     0.059 C 
BRANCH   5   6
ATOM      6  C   UNL     1      13.201  -3.358 -16.573  1.00  0.00     0.042 C 
ATOM      7  O   UNL     1      12.446  -3.623 -17.546  1.00  0.00    -0.550 OA
ATOM      8  O   UNL     1      14.386  -2.667 -16.791  1.00  0.00    -0.550 OA
ENDBRANCH   5   6
ENDBRANCH   1   5
TORSDOF 3
ENDMDL
MODEL 6
REMARK VINA RESULT:    -3.289      1.276      3.928
REMARK INTER + INTRA:          -3.912
REMARK INTER:                  -3.880
REMARK INTRA:                  -0.032
REMARK UNBOUND:                -0.046
REMARK SMILES O=C([O-])CCC(=O)[O-]
REMARK SMILES IDX 4 1 2 2 1 3 3 4 5 5 6 6 7 7 8 8
REMARK H PARENT
REMARK Flexibility Score: inf
ROOT
ATOM      1  C   UNL     1      12.879  -3.921 -15.035  1.00  0.00     0.059 C 
ENDROOT
BRANCH   1   2
ATOM      2  C   UNL     1      13.215  -3.379 -16.387  1.00  0.00     0.042 C 
ATOM      3  O   UNL     1      14.308  -2.782 -16.578  1.00  0.00    -0.550 OA
ATOM      4  O   UNL     1      12.344  -3.573 -17.451  1.00  0.00    -0.550 OA
ENDBRANCH   1   2
BRANCH   1   5
ATOM      5  C   UNL     1      13.955  -4.904 -14.569  1.00  0.00     0.059 C 
BRANCH   5   6
ATOM      6  C   UNL     1      13.333  -6.063 -13.859  1.00  0.00     0.042 C 
ATOM      7  O   UNL     1      12.425  -5.873 -13.008  1.00  0.00    -0.550 OA
ATOM      8  O   UNL     1      13.789  -7.353 -14.102  1.00  0.00    -0.550 OA
ENDBRANCH   5   6
ENDBRANCH   1   5
TORSDOF 3
ENDMDL
MODEL 7
REMARK VINA RESULT:    -2.944     17.364     18.535
REMARK INTER + INTRA:          -3.506
REMARK INTER:                  -3.377
REMARK INTRA:                  -0.130
REMARK UNBOUND:                -0.046
REMARK SMILES O=C([O-])CCC(=O)[O-]
REMARK SMILES IDX 4 1 2 2 1 3 3 4 5 5 6 6 7 7 8 8
REMARK H PARENT
REMARK Flexibility Score: inf
ROOT
ATOM      1  C   UNL     1      -4.615   2.139 -11.007  1.00  0.00     0.059 C 
ENDROOT
BRANCH   1   2
ATOM      2  C   UNL     1      -3.904   3.454 -11.022  1.00  0.00     0.042 C 
ATOM      3  O   UNL     1      -4.385   4.429 -11.657  1.00  0.00    -0.550 OA
ATOM      4  O   UNL     1      -2.732   3.619 -10.295  1.00  0.00    -0.550 OA
ENDBRANCH   1   2
BRANCH   1   5
ATOM      5  C   UNL     1      -4.436   1.419 -12.345  1.00  0.00     0.059 C 
BRANCH   5   6
ATOM      6  C   UNL     1      -3.218   0.552 -12.314  1.00  0.00     0.042 C 
ATOM      7  O   UNL     1      -2.614   0.267 -13.382  1.00  0.00    -0.550 OA
ATOM      8  O   UNL     1      -2.774   0.019 -11.110  1.00  0.00    -0.550 OA
ENDBRANCH   5   6
ENDBRANCH   1   5
TORSDOF 3
ENDMDL
MODEL 8
REMARK VINA RESULT:    -2.909     11.737     12.766
REMARK INTER + INTRA:          -3.465
REMARK INTER:                  -3.370
REMARK INTRA:                  -0.095
REMARK UNBOUND:                -0.046
REMARK SMILES O=C([O-])CCC(=O)[O-]
REMARK SMILES IDX 4 1 2 2 1 3 3 4 5 5 6 6 7 7 8 8
REMARK H PARENT
REMARK Flexibility Score: inf
ROOT
ATOM      1  C   UNL     1       4.226  -3.888  -7.213  1.00  0.00     0.059 C 
ENDROOT
BRANCH   1   2
ATOM      2  C   UNL     1       4.953  -3.934  -8.519  1.00  0.00     0.042 C 
ATOM      3  O   UNL     1       5.332  -5.036  -8.996  1.00  0.00    -0.550 OA
ATOM      4  O   UNL     1       5.173  -2.764  -9.235  1.00  0.00    -0.550 OA
ENDBRANCH   1   2
BRANCH   1   5
ATOM      5  C   UNL     1       2.814  -4.455  -7.367  1.00  0.00     0.059 C 
BRANCH   5   6
ATOM      6  C   UNL     1       1.801  -3.356  -7.321  1.00  0.00     0.042 C 
ATOM      7  O   UNL     1       0.711  -3.522  -6.712  1.00  0.00    -0.550 OA
ATOM      8  O   UNL     1       2.039  -2.162  -7.991  1.00  0.00    -0.550 OA
ENDBRANCH   5   6
ENDBRANCH   1   5
TORSDOF 3
ENDMDL
MODEL 9
REMARK VINA RESULT:    -2.902     11.745     12.851
REMARK INTER + INTRA:          -3.456
REMARK INTER:                  -3.358
REMARK INTRA:                  -0.098
REMARK UNBOUND:                -0.046
REMARK SMILES O=C([O-])CCC(=O)[O-]
REMARK SMILES IDX 4 1 2 2 1 3 3 4 5 5 6 6 7 7 8 8
REMARK H PARENT
REMARK Flexibility Score: inf
ROOT
ATOM      1  C   UNL     1       2.828  -4.473  -7.368  1.00  0.00     0.059 C 
ENDROOT
BRANCH   1   2
ATOM      2  C   UNL     1       1.785  -3.404  -7.299  1.00  0.00     0.042 C 
ATOM      3  O   UNL     1       0.744  -3.576  -6.613  1.00  0.00    -0.550 OA
ATOM      4  O   UNL     1       1.985  -2.195  -7.953  1.00  0.00    -0.550 OA
ENDBRANCH   1   2
BRANCH   1   5
ATOM      5  C   UNL     1       4.225  -3.871  -7.209  1.00  0.00     0.059 C 
BRANCH   5   6
ATOM      6  C   UNL     1       4.961  -3.905  -8.509  1.00  0.00     0.042 C 
ATOM      7  O   UNL     1       5.416  -4.992  -8.953  1.00  0.00    -0.550 OA
ATOM      8  O   UNL     1       5.188  -2.728  -9.211  1.00  0.00    -0.550 OA
ENDBRANCH   5   6
ENDBRANCH   1   5
TORSDOF 3
ENDMDL
