MODEL 1
REMARK VINA RESULT:    -2.265      0.000      0.000
REMARK INTER + INTRA:          -2.265
REMARK INTER:                  -2.265
REMARK INTRA:                   0.000
REMARK UNBOUND:                 0.000
REMARK SMILES CC(=O)[O-]
REMARK SMILES IDX 1 1 2 2 3 3 4 4
REMARK H PARENT
REMARK Flexibility Score: inf
ROOT
ATOM      1  C   UNL     1      -9.257  30.012 -17.256  1.00  0.00     0.063 C 
ATOM      2  C   UNL     1      -9.116  30.842 -16.025  1.00  0.00     0.038 C 
ATOM      3  O   UNL     1      -9.020  30.289 -14.897  1.00  0.00    -0.550 OA
ATOM      4  O   UNL     1      -9.034  32.225 -16.122  1.00  0.00    -0.550 OA
ENDROOT
TORSDOF 0
ENDMDL
MODEL 2
REMARK VINA RESULT:    -2.140      1.383      1.694
REMARK INTER + INTRA:          -2.140
REMARK INTER:                  -2.140
REMARK INTRA:                   0.000
REMARK UNBOUND:                 0.000
REMARK SMILES CC(=O)[O-]
REMARK SMILES IDX 1 1 2 2 3 3 4 4
REMARK H PARENT
REMARK Flexibility Score: inf
ROOT
ATOM      1  C   UNL     1      -8.876  30.154 -14.935  1.00  0.00     0.063 C 
ATOM      2  C   UNL     1      -9.132  30.780 -16.265  1.00  0.00     0.038 C 
ATOM      3  O   UNL     1      -9.418  30.059 -17.257  1.00  0.00    -0.550 OA
ATOM      4  O   UNL     1      -9.108  32.161 -16.401  1.00  0.00    -0.550 OA
ENDROOT
TORSDOF 0
ENDMDL
MODEL 3
REMARK VINA RESULT:    -2.064      1.909      2.510
REMARK INTER + INTRA:          -2.064
REMARK INTER:                  -2.064
REMARK INTRA:                   0.000
REMARK UNBOUND:                 0.000
REMARK SMILES CC(=O)[O-]
REMARK SMILES IDX 1 1 2 2 3 3 4 4
REMARK H PARENT
REMARK Flexibility Score: inf
ROOT
ATOM      1  C   UNL     1      -9.266  30.915 -15.641  1.00  0.00     0.063 C 
ATOM      2  C   UNL     1      -8.650  29.800 -16.416  1.00  0.00     0.038 C 
ATOM      3  O   UNL     1      -8.943  29.636 -17.630  1.00  0.00    -0.550 OA
ATOM      4  O   UNL     1      -7.709  28.972 -15.817  1.00  0.00    -0.550 OA
ENDROOT
TORSDOF 0
ENDMDL
MODEL 4
REMARK VINA RESULT:    -1.695     12.228     12.283
REMARK INTER + INTRA:          -1.695
REMARK INTER:                  -1.695
REMARK INTRA:                   0.000
REMARK UNBOUND:                 0.000
REMARK SMILES CC(=O)[O-]
REMARK SMILES IDX 1 1 2 2 3 3 4 4
REMARK H PARENT
REMARK Flexibility Score: inf
ROOT
ATOM      1  C   UNL     1      -9.748  25.930  -4.807  1.00  0.00     0.063 C 
ATOM      2  C   UNL     1     -10.863  26.911  -4.681  1.00  0.00     0.038 C 
ATOM      3  O   UNL     1     -10.635  28.078  -4.265  1.00  0.00    -0.550 OA
ATOM      4  O   UNL     1     -12.148  26.560  -5.074  1.00  0.00    -0.550 OA
ENDROOT
TORSDOF 0
ENDMDL
MODEL 5
REMARK VINA RESULT:    -1.450      7.098      7.415
REMARK INTER + INTRA:          -1.450
REMARK INTER:                  -1.450
REMARK INTRA:                   0.000
REMARK UNBOUND:                 0.000
REMARK SMILES CC(=O)[O-]
REMARK SMILES IDX 1 1 2 2 3 3 4 4
REMARK H PARENT
REMARK Flexibility Score: inf
ROOT
ATOM      1  C   UNL     1      -4.876  27.867 -22.949  1.00  0.00     0.063 C 
ATOM      2  C   UNL     1      -6.065  28.089 -22.076  1.00  0.00     0.038 C 
ATOM      3  O   UNL     1      -7.148  27.494 -22.321  1.00  0.00    -0.550 OA
ATOM      4  O   UNL     1      -5.966  28.908 -20.960  1.00  0.00    -0.550 OA
ENDROOT
TORSDOF 0
ENDMDL
MODEL 6
REMARK VINA RESULT:    -1.422     12.225     12.388
REMARK INTER + INTRA:          -1.422
REMARK INTER:                  -1.422
REMARK INTRA:                   0.000
REMARK UNBOUND:                 0.000
REMARK SMILES CC(=O)[O-]
REMARK SMILES IDX 1 1 2 2 3 3 4 4
REMARK H PARENT
REMARK Flexibility Score: inf
ROOT
ATOM      1  C   UNL     1     -10.207  28.069  -4.404  1.00  0.00     0.063 C 
ATOM      2  C   UNL     1     -10.725  26.701  -4.695  1.00  0.00     0.038 C 
ATOM      3  O   UNL     1     -11.930  26.537  -5.022  1.00  0.00    -0.550 OA
ATOM      4  O   UNL     1      -9.867  25.609  -4.659  1.00  0.00    -0.550 OA
ENDROOT
TORSDOF 0
ENDMDL
MODEL 7
REMARK VINA RESULT:    -1.392      7.309      7.636
REMARK INTER + INTRA:          -1.392
REMARK INTER:                  -1.392
REMARK INTRA:                   0.000
REMARK UNBOUND:                 0.000
REMARK SMILES CC(=O)[O-]
REMARK SMILES IDX 1 1 2 2 3 3 4 4
REMARK H PARENT
REMARK Flexibility Score: inf
ROOT
ATOM      1  C   UNL     1      -6.104  28.715 -20.871  1.00  0.00     0.063 C 
ATOM      2  C   UNL     1      -6.065  27.967 -22.161  1.00  0.00     0.038 C 
ATOM      3  O   UNL     1      -7.120  27.470 -22.636  1.00  0.00    -0.550 OA
ATOM      4  O   UNL     1      -4.875  27.863 -22.870  1.00  0.00    -0.550 OA
ENDROOT
TORSDOF 0
ENDMDL
MODEL 8
REMARK VINA RESULT:    -1.302     21.377     21.655
REMARK INTER + INTRA:          -1.302
REMARK INTER:                  -1.302
REMARK INTRA:                   0.000
REMARK UNBOUND:                 0.000
REMARK SMILES CC(=O)[O-]
REMARK SMILES IDX 1 1 2 2 3 3 4 4
REMARK H PARENT
REMARK Flexibility Score: inf
ROOT
ATOM      1  C   UNL     1     -25.028  41.202  -4.017  1.00  0.00     0.063 C 
ATOM      2  C   UNL     1     -24.373  39.870  -3.867  1.00  0.00     0.038 C 
ATOM      3  O   UNL     1     -23.264  39.774  -3.277  1.00  0.00    -0.550 OA
ATOM      4  O   UNL     1     -25.010  38.725  -4.327  1.00  0.00    -0.550 OA
ENDROOT
TORSDOF 0
ENDMDL
MODEL 9
REMARK VINA RESULT:    -1.292     21.302     21.554
REMARK INTER + INTRA:          -1.292
REMARK INTER:                  -1.292
REMARK INTRA:                   0.000
REMARK UNBOUND:                 0.000
REMARK SMILES CC(=O)[O-]
REMARK SMILES IDX 1 1 2 2 3 3 4 4
REMARK H PARENT
REMARK Flexibility Score: inf
ROOT
ATOM      1  C   UNL     1     -25.125  38.907  -4.306  1.00  0.00     0.063 C 
ATOM      2  C   UNL     1     -24.268  40.036  -3.842  1.00  0.00     0.038 C 
ATOM      3  O   UNL     1     -23.215  39.804  -3.190  1.00  0.00    -0.550 OA
ATOM      4  O   UNL     1     -24.597  41.343  -4.174  1.00  0.00    -0.550 OA
ENDROOT
TORSDOF 0
ENDMDL
