MODEL 1
REMARK VINA RESULT:     7.857      0.000      0.000
REMARK INTER + INTRA:           9.680
REMARK INTER:                   9.923
REMARK INTRA:                  -0.243
REMARK UNBOUND:                -0.243
REMARK SMILES Oc1ccc(CCc2cc(O)cc(O)c2)cc1
REMARK SMILES IDX 6 1 5 2 4 3 3 4 2 5 16 6 17 7 1 8 7 10 8 11 15 12 9 13 13 14
REMARK SMILES IDX 10 15 12 16 14 17 11 19
REMARK H PARENT 1 9 14 18 11 20
REMARK Flexibility Score: inf
ROOT
ATOM      1  C   UNL     1       0.541   5.296  -9.990  1.00  0.00     0.040 C 
ENDROOT
BRANCH   1   2
ATOM      2  C   UNL     1      -0.110   6.140  -8.927  1.00  0.00    -0.047 A 
ATOM      3  C   UNL     1      -1.496   6.366  -8.953  1.00  0.00     0.007 A 
ATOM      4  C   UNL     1      -2.096   7.177  -7.985  1.00  0.00     0.046 A 
ATOM      5  C   UNL     1      -1.315   7.778  -6.987  1.00  0.00     0.115 A 
ATOM      6  C   UNL     1       0.669   6.754  -7.934  1.00  0.00     0.007 A 
ATOM      7  C   UNL     1       0.067   7.565  -6.966  1.00  0.00     0.046 A 
BRANCH   5   8
ATOM      8  O   UNL     1      -1.902   8.587  -6.017  1.00  0.00    -0.508 OA
ATOM      9  H   UNL     1      -1.347   9.204  -5.435  1.00  0.00     0.293 HD
ENDBRANCH   5   8
ENDBRANCH   1   2
BRANCH   1  10
ATOM     10  C   UNL     1       0.711   6.096 -11.283  1.00  0.00     0.040 C 
BRANCH  10  11
ATOM     11  C   UNL     1      -0.243   5.604 -12.339  1.00  0.00    -0.040 A 
ATOM     12  C   UNL     1      -1.510   5.120 -11.977  1.00  0.00     0.050 A 
ATOM     13  C   UNL     1       0.104   5.678 -13.698  1.00  0.00     0.050 A 
ATOM     14  C   UNL     1      -2.413   4.692 -12.961  1.00  0.00     0.119 A 
ATOM     15  C   UNL     1      -0.794   5.253 -14.682  1.00  0.00     0.119 A 
ATOM     16  C   UNL     1      -2.051   4.757 -14.311  1.00  0.00     0.092 A 
BRANCH  14  17
ATOM     17  O   UNL     1      -3.669   4.204 -12.609  1.00  0.00    -0.508 OA
ATOM     18  H   UNL     1      -3.853   3.210 -12.553  1.00  0.00     0.293 HD
ENDBRANCH  14  17
BRANCH  15  19
ATOM     19  O   UNL     1      -0.428   5.327 -16.025  1.00  0.00    -0.508 OA
ATOM     20  H   UNL     1      -0.809   4.688 -16.713  1.00  0.00     0.293 HD
ENDBRANCH  15  19
ENDBRANCH  10  11
ENDBRANCH   1  10
TORSDOF 6
ENDMDL
MODEL 2
REMARK VINA RESULT:     7.874      0.035      2.035
REMARK INTER + INTRA:           9.702
REMARK INTER:                   9.941
REMARK INTRA:                  -0.238
REMARK UNBOUND:                -0.243
REMARK SMILES Oc1ccc(CCc2cc(O)cc(O)c2)cc1
REMARK SMILES IDX 6 1 5 2 4 3 3 4 2 5 16 6 17 7 1 8 7 10 8 11 15 12 9 13 13 14
REMARK SMILES IDX 10 15 12 16 14 17 11 19
REMARK H PARENT 1 9 14 18 11 20
REMARK Flexibility Score: inf
ROOT
ATOM      1  C   UNL     1       0.510   5.250 -10.005  1.00  0.00     0.040 C 
ENDROOT
BRANCH   1   2
ATOM      2  C   UNL     1      -0.121   6.107  -8.941  1.00  0.00    -0.047 A 
ATOM      3  C   UNL     1      -1.501   6.364  -8.965  1.00  0.00     0.007 A 
ATOM      4  C   UNL     1      -2.081   7.188  -7.995  1.00  0.00     0.046 A 
ATOM      5  C   UNL     1      -1.285   7.770  -6.998  1.00  0.00     0.115 A 
ATOM      6  C   UNL     1       0.673   6.703  -7.948  1.00  0.00     0.007 A 
ATOM      7  C   UNL     1       0.091   7.526  -6.979  1.00  0.00     0.046 A 
BRANCH   5   8
ATOM      8  O   UNL     1      -1.852   8.591  -6.026  1.00  0.00    -0.508 OA
ATOM      9  H   UNL     1      -2.754   9.032  -6.165  1.00  0.00     0.293 HD
ENDBRANCH   5   8
ENDBRANCH   1   2
BRANCH   1  10
ATOM     10  C   UNL     1       0.725   6.056 -11.288  1.00  0.00     0.040 C 
BRANCH  10  11
ATOM     11  C   UNL     1      -0.255   5.634 -12.350  1.00  0.00    -0.040 A 
ATOM     12  C   UNL     1       0.102   5.698 -13.706  1.00  0.00     0.050 A 
ATOM     13  C   UNL     1      -1.510   5.118 -11.991  1.00  0.00     0.050 A 
ATOM     14  C   UNL     1      -0.797   5.273 -14.695  1.00  0.00     0.119 A 
ATOM     15  C   UNL     1      -2.409   4.694 -12.975  1.00  0.00     0.119 A 
ATOM     16  C   UNL     1      -2.051   4.775 -14.327  1.00  0.00     0.092 A 
BRANCH  14  17
ATOM     17  O   UNL     1      -0.453   5.341 -16.043  1.00  0.00    -0.508 OA
ATOM     18  H   UNL     1       0.089   6.112 -16.413  1.00  0.00     0.293 HD
ENDBRANCH  14  17
BRANCH  15  19
ATOM     19  O   UNL     1      -3.654   4.192 -12.599  1.00  0.00    -0.508 OA
ATOM     20  H   UNL     1      -4.116   3.468 -13.135  1.00  0.00     0.293 HD
ENDBRANCH  15  19
ENDBRANCH  10  11
ENDBRANCH   1  10
TORSDOF 6
ENDMDL
MODEL 3
REMARK VINA RESULT:     8.030      1.639      2.268
REMARK INTER + INTRA:           9.899
REMARK INTER:                  10.130
REMARK INTRA:                  -0.231
REMARK UNBOUND:                -0.243
REMARK SMILES Oc1ccc(CCc2cc(O)cc(O)c2)cc1
REMARK SMILES IDX 6 1 5 2 4 3 3 4 2 5 16 6 17 7 1 8 7 10 8 11 15 12 9 13 13 14
REMARK SMILES IDX 10 15 12 16 14 17 11 19
REMARK H PARENT 1 9 14 18 11 20
REMARK Flexibility Score: inf
ROOT
ATOM      1  C   UNL     1       0.197   4.960 -10.679  1.00  0.00     0.040 C 
ENDROOT
BRANCH   1   2
ATOM      2  C   UNL     1      -0.180   5.840  -9.517  1.00  0.00    -0.047 A 
ATOM      3  C   UNL     1       0.762   6.138  -8.520  1.00  0.00     0.007 A 
ATOM      4  C   UNL     1       0.403   6.928  -7.424  1.00  0.00     0.046 A 
ATOM      5  C   UNL     1      -0.906   7.420  -7.309  1.00  0.00     0.115 A 
ATOM      6  C   UNL     1      -1.492   6.324  -9.392  1.00  0.00     0.007 A 
ATOM      7  C   UNL     1      -1.850   7.115  -8.295  1.00  0.00     0.046 A 
BRANCH   5   8
ATOM      8  O   UNL     1      -1.275   8.209  -6.223  1.00  0.00    -0.508 OA
ATOM      9  H   UNL     1      -0.869   8.070  -5.305  1.00  0.00     0.293 HD
ENDBRANCH   5   8
ENDBRANCH   1   2
BRANCH   1  10
ATOM     10  C   UNL     1       0.022   5.711 -12.001  1.00  0.00     0.040 C 
BRANCH  10  11
ATOM     11  C   UNL     1      -1.418   5.681 -12.440  1.00  0.00    -0.040 A 
ATOM     12  C   UNL     1      -2.096   4.458 -12.559  1.00  0.00     0.050 A 
ATOM     13  C   UNL     1      -2.110   6.880 -12.679  1.00  0.00     0.050 A 
ATOM     14  C   UNL     1      -3.446   4.431 -12.935  1.00  0.00     0.119 A 
ATOM     15  C   UNL     1      -3.457   6.855 -13.055  1.00  0.00     0.119 A 
ATOM     16  C   UNL     1      -4.122   5.629 -13.185  1.00  0.00     0.092 A 
BRANCH  14  17
ATOM     17  O   UNL     1      -4.123   3.220 -13.061  1.00  0.00    -0.508 OA
ATOM     18  H   UNL     1      -4.703   3.020 -13.867  1.00  0.00     0.293 HD
ENDBRANCH  14  17
BRANCH  15  19
ATOM     19  O   UNL     1      -4.125   8.055 -13.296  1.00  0.00    -0.508 OA
ATOM     20  H   UNL     1      -3.633   8.878 -13.624  1.00  0.00     0.293 HD
ENDBRANCH  15  19
ENDBRANCH  10  11
ENDBRANCH   1  10
TORSDOF 6
ENDMDL
