MODEL 1
REMARK VINA RESULT:    -3.707      0.000      0.000
REMARK INTER + INTRA:          -8.033
REMARK INTER:                  -6.308
REMARK INTRA:                  -1.725
REMARK UNBOUND:                -1.725
REMARK SMILES CCCCCCCCCCCCCC(=O)[O-]
REMARK SMILES IDX 8 1 9 2 10 3 11 4 12 5 13 6 14 7 15 8 16 9 7 10 6 11 5 12
REMARK SMILES IDX 4 13 3 14 2 15 1 16
REMARK H PARENT
REMARK Flexibility Score: inf
ROOT
ATOM      1  C   UNL     1       3.996  -6.515   0.017  1.00  0.00     0.000 C 
ENDROOT
BRANCH   1   2
ATOM      2  C   UNL     1       4.914  -5.338  -0.349  1.00  0.00     0.000 C 
BRANCH   2   3
ATOM      3  C   UNL     1       5.895  -4.982   0.782  1.00  0.00     0.000 C 
BRANCH   3   4
ATOM      4  C   UNL     1       5.890  -3.482   1.127  1.00  0.00     0.000 C 
BRANCH   4   5
ATOM      5  C   UNL     1       4.759  -2.671   0.469  1.00  0.00     0.006 C 
BRANCH   5   6
ATOM      6  C   UNL     1       5.228  -1.305  -0.051  1.00  0.00     0.053 C 
BRANCH   6   7
ATOM      7  C   UNL     1       5.359  -1.331  -1.542  1.00  0.00     0.041 C 
ATOM      8  O   UNL     1       5.817  -2.352  -2.120  1.00  0.00    -0.550 OA
ATOM      9  O   UNL     1       5.023  -0.209  -2.288  1.00  0.00    -0.550 OA
ENDBRANCH   6   7
ENDBRANCH   5   6
ENDBRANCH   4   5
ENDBRANCH   3   4
ENDBRANCH   2   3
ENDBRANCH   1   2
BRANCH   1  10
ATOM     10  C   UNL     1       2.548  -6.300  -0.455  1.00  0.00     0.000 C 
BRANCH  10  11
ATOM     11  C   UNL     1       1.826  -5.199   0.338  1.00  0.00    -0.000 C 
BRANCH  11  12
ATOM     12  C   UNL     1       1.109  -5.744   1.586  1.00  0.00    -0.000 C 
BRANCH  12  13
ATOM     13  C   UNL     1       1.362  -4.885   2.834  1.00  0.00    -0.000 C 
BRANCH  13  14
ATOM     14  C   UNL     1       2.844  -4.529   3.015  1.00  0.00    -0.000 C 
BRANCH  14  15
ATOM     15  C   UNL     1       3.625  -5.711   3.601  1.00  0.00    -0.003 C 
ATOM     16  C   UNL     1       3.869  -5.525   5.097  1.00  0.00     0.004 C 
ENDBRANCH  14  15
ENDBRANCH  13  14
ENDBRANCH  12  13
ENDBRANCH  11  12
ENDBRANCH  10  11
ENDBRANCH   1  10
TORSDOF 12
ENDMDL
MODEL 2
REMARK VINA RESULT:    -3.593      2.278      5.604
REMARK INTER + INTRA:          -7.839
REMARK INTER:                  -6.446
REMARK INTRA:                  -1.393
REMARK UNBOUND:                -1.725
REMARK SMILES CCCCCCCCCCCCCC(=O)[O-]
REMARK SMILES IDX 8 1 9 2 10 3 11 4 12 5 13 6 14 7 15 8 16 9 7 10 6 11 5 12
REMARK SMILES IDX 4 13 3 14 2 15 1 16
REMARK H PARENT
REMARK Flexibility Score: inf
ROOT
ATOM      1  C   UNL     1       5.237  -5.009   2.179  1.00  0.00     0.000 C 
ENDROOT
BRANCH   1   2
ATOM      2  C   UNL     1       4.804  -6.211   3.032  1.00  0.00     0.000 C 
BRANCH   2   3
ATOM      3  C   UNL     1       3.384  -6.049   3.602  1.00  0.00     0.000 C 
BRANCH   3   4
ATOM      4  C   UNL     1       2.795  -4.650   3.351  1.00  0.00     0.000 C 
BRANCH   4   5
ATOM      5  C   UNL     1       1.633  -4.608   2.344  1.00  0.00     0.006 C 
BRANCH   5   6
ATOM      6  C   UNL     1       1.412  -5.948   1.630  1.00  0.00     0.053 C 
BRANCH   6   7
ATOM      7  C   UNL     1       1.490  -5.769   0.146  1.00  0.00     0.041 C 
ATOM      8  O   UNL     1       1.612  -4.617  -0.347  1.00  0.00    -0.550 OA
ATOM      9  O   UNL     1       1.377  -6.870  -0.694  1.00  0.00    -0.550 OA
ENDBRANCH   6   7
ENDBRANCH   5   6
ENDBRANCH   4   5
ENDBRANCH   3   4
ENDBRANCH   2   3
ENDBRANCH   1   2
BRANCH   1  10
ATOM     10  C   UNL     1       5.206  -5.316   0.671  1.00  0.00     0.000 C 
BRANCH  10  11
ATOM     11  C   UNL     1       5.065  -4.048  -0.185  1.00  0.00    -0.000 C 
BRANCH  11  12
ATOM     12  C   UNL     1       4.691  -2.810   0.650  1.00  0.00    -0.000 C 
BRANCH  12  13
ATOM     13  C   UNL     1       5.147  -1.497  -0.004  1.00  0.00    -0.000 C 
BRANCH  13  14
ATOM     14  C   UNL     1       5.346  -1.630  -1.521  1.00  0.00    -0.000 C 
BRANCH  14  15
ATOM     15  C   UNL     1       5.493  -0.252  -2.177  1.00  0.00    -0.003 C 
ATOM     16  C   UNL     1       6.817   0.404  -1.793  1.00  0.00     0.004 C 
ENDBRANCH  14  15
ENDBRANCH  13  14
ENDBRANCH  12  13
ENDBRANCH  11  12
ENDBRANCH  10  11
ENDBRANCH   1  10
TORSDOF 12
ENDMDL
MODEL 3
REMARK VINA RESULT:    -3.566      1.008      2.787
REMARK INTER + INTRA:          -7.793
REMARK INTER:                  -5.936
REMARK INTRA:                  -1.857
REMARK UNBOUND:                -1.725
REMARK SMILES CCCCCCCCCCCCCC(=O)[O-]
REMARK SMILES IDX 8 1 9 2 10 3 11 4 12 5 13 6 14 7 15 8 16 9 7 10 6 11 5 12
REMARK SMILES IDX 4 13 3 14 2 15 1 16
REMARK H PARENT
REMARK Flexibility Score: inf
ROOT
ATOM      1  C   UNL     1       4.852  -5.690   3.701  1.00  0.00     0.000 C 
ENDROOT
BRANCH   1   2
ATOM      2  C   UNL     1       5.241  -5.312   2.264  1.00  0.00     0.000 C 
BRANCH   2   3
ATOM      3  C   UNL     1       6.566  -4.532   2.196  1.00  0.00     0.000 C 
BRANCH   3   4
ATOM      4  C   UNL     1       6.496  -3.316   1.256  1.00  0.00     0.000 C 
BRANCH   4   5
ATOM      5  C   UNL     1       5.075  -2.913   0.823  1.00  0.00     0.006 C 
BRANCH   5   6
ATOM      6  C   UNL     1       4.857  -3.028  -0.692  1.00  0.00     0.053 C 
BRANCH   6   7
ATOM      7  C   UNL     1       5.508  -1.883  -1.402  1.00  0.00     0.041 C 
ATOM      8  O   UNL     1       5.065  -0.714  -1.259  1.00  0.00    -0.550 OA
ATOM      9  O   UNL     1       6.574  -2.115  -2.262  1.00  0.00    -0.550 OA
ENDBRANCH   6   7
ENDBRANCH   5   6
ENDBRANCH   4   5
ENDBRANCH   3   4
ENDBRANCH   2   3
ENDBRANCH   1   2
BRANCH   1  10
ATOM     10  C   UNL     1       3.333  -5.629   3.936  1.00  0.00     0.000 C 
BRANCH  10  11
ATOM     11  C   UNL     1       2.646  -4.559   3.073  1.00  0.00    -0.000 C 
BRANCH  11  12
ATOM     12  C   UNL     1       1.214  -4.956   2.669  1.00  0.00    -0.000 C 
BRANCH  12  13
ATOM     13  C   UNL     1       1.180  -5.854   1.424  1.00  0.00    -0.000 C 
BRANCH  13  14
ATOM     14  C   UNL     1       1.971  -5.264   0.247  1.00  0.00    -0.000 C 
BRANCH  14  15
ATOM     15  C   UNL     1       2.932  -6.303  -0.344  1.00  0.00    -0.003 C 
ATOM     16  C   UNL     1       2.963  -7.571   0.505  1.00  0.00     0.004 C 
ENDBRANCH  14  15
ENDBRANCH  13  14
ENDBRANCH  12  13
ENDBRANCH  11  12
ENDBRANCH  10  11
ENDBRANCH   1  10
TORSDOF 12
ENDMDL
MODEL 4
REMARK VINA RESULT:    -3.543      1.192      2.850
REMARK INTER + INTRA:          -7.753
REMARK INTER:                  -6.144
REMARK INTRA:                  -1.609
REMARK UNBOUND:                -1.725
REMARK SMILES CCCCCCCCCCCCCC(=O)[O-]
REMARK SMILES IDX 8 1 9 2 10 3 11 4 12 5 13 6 14 7 15 8 16 9 7 10 6 11 5 12
REMARK SMILES IDX 4 13 3 14 2 15 1 16
REMARK H PARENT
REMARK Flexibility Score: inf
ROOT
ATOM      1  C   UNL     1       5.589  -4.853   2.157  1.00  0.00     0.000 C 
ENDROOT
BRANCH   1   2
ATOM      2  C   UNL     1       5.148  -5.327   0.764  1.00  0.00     0.000 C 
BRANCH   2   3
ATOM      3  C   UNL     1       5.098  -4.181  -0.261  1.00  0.00     0.000 C 
BRANCH   3   4
ATOM      4  C   UNL     1       4.514  -2.882   0.322  1.00  0.00     0.000 C 
BRANCH   4   5
ATOM      5  C   UNL     1       5.524  -1.731   0.477  1.00  0.00     0.006 C 
BRANCH   5   6
ATOM      6  C   UNL     1       6.490  -1.619  -0.710  1.00  0.00     0.053 C 
BRANCH   6   7
ATOM      7  C   UNL     1       6.181  -0.400  -1.522  1.00  0.00     0.041 C 
ATOM      8  O   UNL     1       6.999   0.556  -1.565  1.00  0.00    -0.550 OA
ATOM      9  O   UNL     1       4.968  -0.300  -2.191  1.00  0.00    -0.550 OA
ENDBRANCH   6   7
ENDBRANCH   5   6
ENDBRANCH   4   5
ENDBRANCH   3   4
ENDBRANCH   2   3
ENDBRANCH   1   2
BRANCH   1  10
ATOM     10  C   UNL     1       5.161  -5.823   3.272  1.00  0.00     0.000 C 
BRANCH  10  11
ATOM     11  C   UNL     1       3.636  -5.997   3.349  1.00  0.00    -0.000 C 
BRANCH  11  12
ATOM     12  C   UNL     1       2.889  -4.651   3.374  1.00  0.00    -0.000 C 
BRANCH  12  13
ATOM     13  C   UNL     1       1.744  -4.592   2.351  1.00  0.00    -0.000 C 
BRANCH  13  14
ATOM     14  C   UNL     1       1.201  -5.983   1.992  1.00  0.00    -0.000 C 
BRANCH  14  15
ATOM     15  C   UNL     1       1.255  -6.219   0.478  1.00  0.00    -0.003 C 
ATOM     16  C   UNL     1       1.522  -4.918  -0.274  1.00  0.00     0.004 C 
ENDBRANCH  14  15
ENDBRANCH  13  14
ENDBRANCH  12  13
ENDBRANCH  11  12
ENDBRANCH  10  11
ENDBRANCH   1  10
TORSDOF 12
ENDMDL
MODEL 5
REMARK VINA RESULT:    -3.448      1.362      2.578
REMARK INTER + INTRA:          -7.592
REMARK INTER:                  -5.808
REMARK INTRA:                  -1.784
REMARK UNBOUND:                -1.725
REMARK SMILES CCCCCCCCCCCCCC(=O)[O-]
REMARK SMILES IDX 8 1 9 2 10 3 11 4 12 5 13 6 14 7 15 8 16 9 7 10 6 11 5 12
REMARK SMILES IDX 4 13 3 14 2 15 1 16
REMARK H PARENT
REMARK Flexibility Score: inf
ROOT
ATOM      1  C   UNL     1       1.132  -6.387   0.897  1.00  0.00     0.000 C 
ENDROOT
BRANCH   1   2
ATOM      2  C   UNL     1       2.084  -5.550   0.029  1.00  0.00     0.000 C 
BRANCH   2   3
ATOM      3  C   UNL     1       3.388  -6.295  -0.304  1.00  0.00     0.000 C 
BRANCH   3   4
ATOM      4  C   UNL     1       4.636  -5.404  -0.174  1.00  0.00     0.000 C 
BRANCH   4   5
ATOM      5  C   UNL     1       4.345  -3.899  -0.039  1.00  0.00     0.006 C 
BRANCH   5   6
ATOM      6  C   UNL     1       5.152  -3.044  -1.025  1.00  0.00     0.053 C 
BRANCH   6   7
ATOM      7  C   UNL     1       5.204  -1.621  -0.564  1.00  0.00     0.041 C 
ATOM      8  O   UNL     1       5.281  -1.357   0.665  1.00  0.00    -0.550 OA
ATOM      9  O   UNL     1       5.115  -0.587  -1.487  1.00  0.00    -0.550 OA
ENDBRANCH   6   7
ENDBRANCH   5   6
ENDBRANCH   4   5
ENDBRANCH   3   4
ENDBRANCH   2   3
ENDBRANCH   1   2
BRANCH   1  10
ATOM     10  C   UNL     1       0.921  -5.778   2.295  1.00  0.00     0.000 C 
BRANCH  10  11
ATOM     11  C   UNL     1       1.797  -4.539   2.536  1.00  0.00    -0.000 C 
BRANCH  11  12
ATOM     12  C   UNL     1       2.930  -4.805   3.543  1.00  0.00    -0.000 C 
BRANCH  12  13
ATOM     13  C   UNL     1       3.219  -6.303   3.725  1.00  0.00    -0.000 C 
BRANCH  13  14
ATOM     14  C   UNL     1       4.644  -6.686   3.299  1.00  0.00    -0.000 C 
BRANCH  14  15
ATOM     15  C   UNL     1       5.659  -5.639   3.773  1.00  0.00    -0.003 C 
ATOM     16  C   UNL     1       6.815  -5.504   2.786  1.00  0.00     0.004 C 
ENDBRANCH  14  15
ENDBRANCH  13  14
ENDBRANCH  12  13
ENDBRANCH  11  12
ENDBRANCH  10  11
ENDBRANCH   1  10
TORSDOF 12
ENDMDL
MODEL 6
REMARK VINA RESULT:    -3.443      1.745      3.573
REMARK INTER + INTRA:          -7.583
REMARK INTER:                  -5.588
REMARK INTRA:                  -1.995
REMARK UNBOUND:                -1.725
REMARK SMILES CCCCCCCCCCCCCC(=O)[O-]
REMARK SMILES IDX 8 1 9 2 10 3 11 4 12 5 13 6 14 7 15 8 16 9 7 10 6 11 5 12
REMARK SMILES IDX 4 13 3 14 2 15 1 16
REMARK H PARENT
REMARK Flexibility Score: inf
ROOT
ATOM      1  C   UNL     1       6.852  -3.036   1.378  1.00  0.00     0.000 C 
ENDROOT
BRANCH   1   2
ATOM      2  C   UNL     1       6.688  -1.600   0.857  1.00  0.00     0.000 C 
BRANCH   2   3
ATOM      3  C   UNL     1       5.264  -1.317   0.347  1.00  0.00     0.000 C 
BRANCH   3   4
ATOM      4  C   UNL     1       5.210  -1.077  -1.172  1.00  0.00     0.000 C 
BRANCH   4   5
ATOM      5  C   UNL     1       6.391  -1.668  -1.963  1.00  0.00     0.006 C 
BRANCH   5   6
ATOM      6  C   UNL     1       6.082  -3.050  -2.554  1.00  0.00     0.053 C 
BRANCH   6   7
ATOM      7  C   UNL     1       7.265  -3.955  -2.414  1.00  0.00     0.041 C 
ATOM      8  O   UNL     1       7.204  -5.145  -2.822  1.00  0.00    -0.550 OA
ATOM      9  O   UNL     1       8.418  -3.500  -1.787  1.00  0.00    -0.550 OA
ENDBRANCH   6   7
ENDBRANCH   5   6
ENDBRANCH   4   5
ENDBRANCH   3   4
ENDBRANCH   2   3
ENDBRANCH   1   2
BRANCH   1  10
ATOM     10  C   UNL     1       5.518  -3.802   1.424  1.00  0.00     0.000 C 
BRANCH  10  11
ATOM     11  C   UNL     1       5.567  -5.119   0.635  1.00  0.00    -0.000 C 
BRANCH  11  12
ATOM     12  C   UNL     1       4.355  -5.295  -0.297  1.00  0.00    -0.000 C 
BRANCH  12  13
ATOM     13  C   UNL     1       3.190  -4.362   0.067  1.00  0.00    -0.000 C 
BRANCH  13  14
ATOM     14  C   UNL     1       2.084  -5.078   0.857  1.00  0.00    -0.000 C 
BRANCH  14  15
ATOM     15  C   UNL     1       1.969  -4.512   2.277  1.00  0.00    -0.003 C 
ATOM     16  C   UNL     1       2.735  -5.373   3.278  1.00  0.00     0.004 C 
ENDBRANCH  14  15
ENDBRANCH  13  14
ENDBRANCH  12  13
ENDBRANCH  11  12
ENDBRANCH  10  11
ENDBRANCH   1  10
TORSDOF 12
ENDMDL
MODEL 7
REMARK VINA RESULT:    -3.414      3.108      6.085
REMARK INTER + INTRA:          -7.534
REMARK INTER:                  -5.794
REMARK INTRA:                  -1.740
REMARK UNBOUND:                -1.725
REMARK SMILES CCCCCCCCCCCCCC(=O)[O-]
REMARK SMILES IDX 8 1 9 2 10 3 11 4 12 5 13 6 14 7 15 8 16 9 7 10 6 11 5 12
REMARK SMILES IDX 4 13 3 14 2 15 1 16
REMARK H PARENT
REMARK Flexibility Score: inf
ROOT
ATOM      1  C   UNL     1       4.800  -4.856  -0.015  1.00  0.00     0.000 C 
ENDROOT
BRANCH   1   2
ATOM      2  C   UNL     1       3.335  -4.461   0.224  1.00  0.00     0.000 C 
BRANCH   2   3
ATOM      3  C   UNL     1       3.121  -3.790   1.592  1.00  0.00     0.000 C 
BRANCH   3   4
ATOM      4  C   UNL     1       1.983  -4.436   2.403  1.00  0.00     0.000 C 
BRANCH   4   5
ATOM      5  C   UNL     1       2.373  -5.722   3.153  1.00  0.00     0.006 C 
BRANCH   5   6
ATOM      6  C   UNL     1       3.479  -5.495   4.193  1.00  0.00     0.053 C 
BRANCH   6   7
ATOM      7  C   UNL     1       4.542  -6.540   4.063  1.00  0.00     0.041 C 
ATOM      8  O   UNL     1       4.552  -7.312   3.068  1.00  0.00    -0.550 OA
ATOM      9  O   UNL     1       5.491  -6.695   5.065  1.00  0.00    -0.550 OA
ENDBRANCH   6   7
ENDBRANCH   5   6
ENDBRANCH   4   5
ENDBRANCH   3   4
ENDBRANCH   2   3
ENDBRANCH   1   2
BRANCH   1  10
ATOM     10  C   UNL     1       5.700  -4.538   1.192  1.00  0.00     0.000 C 
BRANCH  10  11
ATOM     11  C   UNL     1       6.876  -3.620   0.825  1.00  0.00    -0.000 C 
BRANCH  11  12
ATOM     12  C   UNL     1       6.788  -2.245   1.510  1.00  0.00    -0.000 C 
BRANCH  12  13
ATOM     13  C   UNL     1       6.573  -1.099   0.509  1.00  0.00    -0.000 C 
BRANCH  13  14
ATOM     14  C   UNL     1       5.228  -1.202  -0.226  1.00  0.00    -0.000 C 
BRANCH  14  15
ATOM     15  C   UNL     1       5.406  -0.963  -1.730  1.00  0.00    -0.003 C 
ATOM     16  C   UNL     1       5.840  -2.240  -2.444  1.00  0.00     0.004 C 
ENDBRANCH  14  15
ENDBRANCH  13  14
ENDBRANCH  12  13
ENDBRANCH  11  12
ENDBRANCH  10  11
ENDBRANCH   1  10
TORSDOF 12
ENDMDL
MODEL 8
REMARK VINA RESULT:    -3.413      3.315      6.427
REMARK INTER + INTRA:          -7.533
REMARK INTER:                  -6.256
REMARK INTRA:                  -1.276
REMARK UNBOUND:                -1.725
REMARK SMILES CCCCCCCCCCCCCC(=O)[O-]
REMARK SMILES IDX 8 1 9 2 10 3 11 4 12 5 13 6 14 7 15 8 16 9 7 10 6 11 5 12
REMARK SMILES IDX 4 13 3 14 2 15 1 16
REMARK H PARENT
REMARK Flexibility Score: inf
ROOT
ATOM      1  C   UNL     1       5.431  -1.755  -1.647  1.00  0.00     0.000 C 
ENDROOT
BRANCH   1   2
ATOM      2  C   UNL     1       4.903  -1.782  -0.204  1.00  0.00     0.000 C 
BRANCH   2   3
ATOM      3  C   UNL     1       5.445  -2.977   0.600  1.00  0.00     0.000 C 
BRANCH   3   4
ATOM      4  C   UNL     1       4.330  -3.894   1.132  1.00  0.00     0.000 C 
BRANCH   4   5
ATOM      5  C   UNL     1       3.487  -4.586   0.046  1.00  0.00     0.006 C 
BRANCH   5   6
ATOM      6  C   UNL     1       1.984  -4.568   0.354  1.00  0.00     0.053 C 
BRANCH   6   7
ATOM      7  C   UNL     1       1.688  -5.402   1.562  1.00  0.00     0.041 C 
ATOM      8  O   UNL     1       1.901  -6.642   1.542  1.00  0.00    -0.550 OA
ATOM      9  O   UNL     1       1.130  -4.816   2.691  1.00  0.00    -0.550 OA
ENDBRANCH   6   7
ENDBRANCH   5   6
ENDBRANCH   4   5
ENDBRANCH   3   4
ENDBRANCH   2   3
ENDBRANCH   1   2
BRANCH   1  10
ATOM     10  C   UNL     1       5.473  -0.332  -2.232  1.00  0.00     0.000 C 
BRANCH  10  11
ATOM     11  C   UNL     1       6.767   0.414  -1.872  1.00  0.00    -0.000 C 
BRANCH  11  12
ATOM     12  C   UNL     1       7.980  -0.528  -1.759  1.00  0.00    -0.000 C 
BRANCH  12  13
ATOM     13  C   UNL     1       8.695  -0.409  -0.405  1.00  0.00    -0.000 C 
BRANCH  13  14
ATOM     14  C   UNL     1       7.898   0.418   0.614  1.00  0.00    -0.000 C 
BRANCH  14  15
ATOM     15  C   UNL     1       7.651  -0.384   1.898  1.00  0.00    -0.003 C 
ATOM     16  C   UNL     1       8.504   0.143   3.049  1.00  0.00     0.004 C 
ENDBRANCH  14  15
ENDBRANCH  13  14
ENDBRANCH  12  13
ENDBRANCH  11  12
ENDBRANCH  10  11
ENDBRANCH   1  10
TORSDOF 12
ENDMDL
MODEL 9
REMARK VINA RESULT:    -3.410      1.516      2.135
REMARK INTER + INTRA:          -7.527
REMARK INTER:                  -5.904
REMARK INTRA:                  -1.623
REMARK UNBOUND:                -1.725
REMARK SMILES CCCCCCCCCCCCCC(=O)[O-]
REMARK SMILES IDX 8 1 9 2 10 3 11 4 12 5 13 6 14 7 15 8 16 9 7 10 6 11 5 12
REMARK SMILES IDX 4 13 3 14 2 15 1 16
REMARK H PARENT
REMARK Flexibility Score: inf
ROOT
ATOM      1  C   UNL     1       6.094  -5.353   0.072  1.00  0.00     0.000 C 
ENDROOT
BRANCH   1   2
ATOM      2  C   UNL     1       6.546  -3.907  -0.186  1.00  0.00     0.000 C 
BRANCH   2   3
ATOM      3  C   UNL     1       6.090  -2.941   0.921  1.00  0.00     0.000 C 
BRANCH   3   4
ATOM      4  C   UNL     1       5.162  -1.829   0.400  1.00  0.00     0.000 C 
BRANCH   4   5
ATOM      5  C   UNL     1       5.177  -1.637  -1.127  1.00  0.00     0.006 C 
BRANCH   5   6
ATOM      6  C   UNL     1       5.774  -0.289  -1.554  1.00  0.00     0.053 C 
BRANCH   6   7
ATOM      7  C   UNL     1       7.245  -0.260  -1.282  1.00  0.00     0.041 C 
ATOM      8  O   UNL     1       8.024  -1.009  -1.929  1.00  0.00    -0.550 OA
ATOM      9  O   UNL     1       7.750   0.558  -0.280  1.00  0.00    -0.550 OA
ENDBRANCH   6   7
ENDBRANCH   5   6
ENDBRANCH   4   5
ENDBRANCH   3   4
ENDBRANCH   2   3
ENDBRANCH   1   2
BRANCH   1  10
ATOM     10  C   UNL     1       4.765  -5.426   0.845  1.00  0.00     0.000 C 
BRANCH  10  11
ATOM     11  C   UNL     1       3.550  -5.566  -0.086  1.00  0.00    -0.000 C 
BRANCH  11  12
ATOM     12  C   UNL     1       2.408  -4.603   0.287  1.00  0.00    -0.000 C 
BRANCH  12  13
ATOM     13  C   UNL     1       2.500  -4.111   1.739  1.00  0.00    -0.000 C 
BRANCH  13  14
ATOM     14  C   UNL     1       1.515  -4.832   2.671  1.00  0.00    -0.000 C 
BRANCH  14  15
ATOM     15  C   UNL     1       2.208  -5.975   3.423  1.00  0.00    -0.003 C 
ATOM     16  C   UNL     1       3.415  -5.467   4.207  1.00  0.00     0.004 C 
ENDBRANCH  14  15
ENDBRANCH  13  14
ENDBRANCH  12  13
ENDBRANCH  11  12
ENDBRANCH  10  11
ENDBRANCH   1  10
TORSDOF 12
ENDMDL
