MODEL 1
REMARK VINA RESULT:    -2.561      0.000      0.000
REMARK INTER + INTRA:          -4.221
REMARK INTER:                  -3.608
REMARK INTRA:                  -0.613
REMARK UNBOUND:                -0.613
REMARK SMILES CCCCCCCCC(=O)[O-]
REMARK SMILES IDX 6 1 7 2 8 3 9 4 10 5 11 6 5 7 4 8 3 9 2 10 1 11
REMARK H PARENT
REMARK Flexibility Score: inf
ROOT
ATOM      1  C   UNL     1      -1.754  -9.183   3.195  1.00  0.00     0.000 C 
ENDROOT
BRANCH   1   2
ATOM      2  C   UNL     1      -1.270  -8.865   4.622  1.00  0.00     0.006 C 
BRANCH   2   3
ATOM      3  C   UNL     1      -1.583  -7.419   5.029  1.00  0.00     0.053 C 
BRANCH   3   4
ATOM      4  C   UNL     1      -0.391  -6.525   4.873  1.00  0.00     0.041 C 
ATOM      5  O   UNL     1      -0.534  -5.274   4.869  1.00  0.00    -0.550 OA
ATOM      6  O   UNL     1       0.881  -7.072   4.762  1.00  0.00    -0.550 OA
ENDBRANCH   3   4
ENDBRANCH   2   3
ENDBRANCH   1   2
BRANCH   1   7
ATOM      7  C   UNL     1      -2.713 -10.384   3.150  1.00  0.00     0.000 C 
BRANCH   7   8
ATOM      8  C   UNL     1      -4.077 -10.026   2.535  1.00  0.00    -0.000 C 
BRANCH   8   9
ATOM      9  C   UNL     1      -4.177  -8.547   2.118  1.00  0.00    -0.000 C 
BRANCH   9  10
ATOM     10  C   UNL     1      -5.344  -7.770   2.752  1.00  0.00    -0.003 C 
ATOM     11  C   UNL     1      -4.893  -6.507   3.486  1.00  0.00     0.004 C 
ENDBRANCH   9  10
ENDBRANCH   8   9
ENDBRANCH   7   8
ENDBRANCH   1   7
TORSDOF 7
ENDMDL
MODEL 2
REMARK VINA RESULT:    -2.538      2.547      4.480
REMARK INTER + INTRA:          -4.190
REMARK INTER:                  -3.731
REMARK INTRA:                  -0.458
REMARK UNBOUND:                -0.613
REMARK SMILES CCCCCCCCC(=O)[O-]
REMARK SMILES IDX 6 1 7 2 8 3 9 4 10 5 11 6 5 7 4 8 3 9 2 10 1 11
REMARK H PARENT
REMARK Flexibility Score: inf
ROOT
ATOM      1  C   UNL     1      -2.090 -10.049   2.978  1.00  0.00     0.000 C 
ENDROOT
BRANCH   1   2
ATOM      2  C   UNL     1      -3.413  -9.409   3.437  1.00  0.00     0.006 C 
BRANCH   2   3
ATOM      3  C   UNL     1      -3.985  -8.447   2.388  1.00  0.00     0.053 C 
BRANCH   3   4
ATOM      4  C   UNL     1      -4.976  -7.494   2.985  1.00  0.00     0.041 C 
ATOM      5  O   UNL     1      -4.584  -6.408   3.488  1.00  0.00    -0.550 OA
ATOM      6  O   UNL     1      -6.332  -7.792   2.960  1.00  0.00    -0.550 OA
ENDBRANCH   3   4
ENDBRANCH   2   3
ENDBRANCH   1   2
BRANCH   1   7
ATOM      7  C   UNL     1      -0.901  -9.080   3.073  1.00  0.00     0.000 C 
BRANCH   7   8
ATOM      8  C   UNL     1      -0.213  -9.123   4.448  1.00  0.00    -0.000 C 
BRANCH   8   9
ATOM      9  C   UNL     1       0.143  -7.724   4.985  1.00  0.00    -0.000 C 
BRANCH   9  10
ATOM     10  C   UNL     1      -1.020  -6.715   4.993  1.00  0.00    -0.003 C 
ATOM     11  C   UNL     1      -0.558  -5.269   4.814  1.00  0.00     0.004 C 
ENDBRANCH   9  10
ENDBRANCH   8   9
ENDBRANCH   7   8
ENDBRANCH   1   7
TORSDOF 7
ENDMDL
MODEL 3
REMARK VINA RESULT:    -2.418      3.921      5.616
REMARK INTER + INTRA:          -4.019
REMARK INTER:                  -3.765
REMARK INTRA:                  -0.254
REMARK UNBOUND:                -0.613
REMARK SMILES CCCCCCCCC(=O)[O-]
REMARK SMILES IDX 6 1 7 2 8 3 9 4 10 5 11 6 5 7 4 8 3 9 2 10 1 11
REMARK H PARENT
REMARK Flexibility Score: inf
ROOT
ATOM      1  C   UNL     1      -3.163  -8.890   3.143  1.00  0.00     0.000 C 
ENDROOT
BRANCH   1   2
ATOM      2  C   UNL     1      -4.280  -9.517   2.290  1.00  0.00     0.006 C 
BRANCH   2   3
ATOM      3  C   UNL     1      -4.931  -8.496   1.347  1.00  0.00     0.053 C 
BRANCH   3   4
ATOM      4  C   UNL     1      -5.679  -9.163   0.233  1.00  0.00     0.041 C 
ATOM      5  O   UNL     1      -6.302  -8.470  -0.614  1.00  0.00    -0.550 OA
ATOM      6  O   UNL     1      -5.665 -10.546   0.113  1.00  0.00    -0.550 OA
ENDBRANCH   3   4
ENDBRANCH   2   3
ENDBRANCH   1   2
BRANCH   1   7
ATOM      7  C   UNL     1      -1.859  -9.704   3.100  1.00  0.00     0.000 C 
BRANCH   7   8
ATOM      8  C   UNL     1      -0.606  -8.813   3.141  1.00  0.00    -0.000 C 
BRANCH   8   9
ATOM      9  C   UNL     1      -0.143  -8.496   4.575  1.00  0.00    -0.000 C 
BRANCH   9  10
ATOM     10  C   UNL     1       0.513  -7.116   4.757  1.00  0.00    -0.003 C 
ATOM     11  C   UNL     1      -0.503  -5.977   4.843  1.00  0.00     0.004 C 
ENDBRANCH   9  10
ENDBRANCH   8   9
ENDBRANCH   7   8
ENDBRANCH   1   7
TORSDOF 7
ENDMDL
MODEL 4
REMARK VINA RESULT:    -2.390     14.854     15.718
REMARK INTER + INTRA:          -3.980
REMARK INTER:                  -3.697
REMARK INTRA:                  -0.283
REMARK UNBOUND:                -0.613
REMARK SMILES CCCCCCCCC(=O)[O-]
REMARK SMILES IDX 6 1 7 2 8 3 9 4 10 5 11 6 5 7 4 8 3 9 2 10 1 11
REMARK H PARENT
REMARK Flexibility Score: inf
ROOT
ATOM      1  C   UNL     1      13.034  -6.020   1.244  1.00  0.00     0.000 C 
ENDROOT
BRANCH   1   2
ATOM      2  C   UNL     1      12.119  -7.111   0.660  1.00  0.00     0.006 C 
BRANCH   2   3
ATOM      3  C   UNL     1      12.741  -8.509   0.773  1.00  0.00     0.053 C 
BRANCH   3   4
ATOM      4  C   UNL     1      12.247  -9.244   1.982  1.00  0.00     0.041 C 
ATOM      5  O   UNL     1      12.806  -9.076   3.098  1.00  0.00    -0.550 OA
ATOM      6  O   UNL     1      11.151 -10.092   1.883  1.00  0.00    -0.550 OA
ENDBRANCH   3   4
ENDBRANCH   2   3
ENDBRANCH   1   2
BRANCH   1   7
ATOM      7  C   UNL     1      12.312  -4.673   1.415  1.00  0.00     0.000 C 
BRANCH   7   8
ATOM      8  C   UNL     1      13.124  -3.671   2.254  1.00  0.00    -0.000 C 
BRANCH   8   9
ATOM      9  C   UNL     1      12.250  -2.859   3.228  1.00  0.00    -0.000 C 
BRANCH   9  10
ATOM     10  C   UNL     1      12.360  -3.279   4.705  1.00  0.00    -0.003 C 
ATOM     11  C   UNL     1      13.124  -4.589   4.899  1.00  0.00     0.004 C 
ENDBRANCH   9  10
ENDBRANCH   8   9
ENDBRANCH   7   8
ENDBRANCH   1   7
TORSDOF 7
ENDMDL
MODEL 5
REMARK VINA RESULT:    -2.374      2.779      4.582
REMARK INTER + INTRA:          -3.959
REMARK INTER:                  -3.493
REMARK INTRA:                  -0.466
REMARK UNBOUND:                -0.613
REMARK SMILES CCCCCCCCC(=O)[O-]
REMARK SMILES IDX 6 1 7 2 8 3 9 4 10 5 11 6 5 7 4 8 3 9 2 10 1 11
REMARK H PARENT
REMARK Flexibility Score: inf
ROOT
ATOM      1  C   UNL     1      -4.494  -8.141   2.137  1.00  0.00     0.000 C 
ENDROOT
BRANCH   1   2
ATOM      2  C   UNL     1      -4.567  -7.319   3.437  1.00  0.00     0.006 C 
BRANCH   2   3
ATOM      3  C   UNL     1      -5.959  -6.714   3.662  1.00  0.00     0.053 C 
BRANCH   3   4
ATOM      4  C   UNL     1      -5.887  -5.249   3.968  1.00  0.00     0.041 C 
ATOM      5  O   UNL     1      -5.044  -4.520   3.380  1.00  0.00    -0.550 OA
ATOM      6  O   UNL     1      -6.770  -4.683   4.878  1.00  0.00    -0.550 OA
ENDBRANCH   3   4
ENDBRANCH   2   3
ENDBRANCH   1   2
BRANCH   1   7
ATOM      7  C   UNL     1      -4.313  -9.645   2.398  1.00  0.00     0.000 C 
BRANCH   7   8
ATOM      8  C   UNL     1      -3.249  -9.934   3.470  1.00  0.00    -0.000 C 
BRANCH   8   9
ATOM      9  C   UNL     1      -2.115 -10.843   2.959  1.00  0.00    -0.000 C 
BRANCH   9  10
ATOM     10  C   UNL     1      -0.740 -10.162   2.840  1.00  0.00    -0.003 C 
ATOM     11  C   UNL     1      -0.711  -8.762   3.452  1.00  0.00     0.004 C 
ENDBRANCH   9  10
ENDBRANCH   8   9
ENDBRANCH   7   8
ENDBRANCH   1   7
TORSDOF 7
ENDMDL
MODEL 6
REMARK VINA RESULT:    -2.350     14.268     15.285
REMARK INTER + INTRA:          -3.924
REMARK INTER:                  -3.634
REMARK INTRA:                  -0.290
REMARK UNBOUND:                -0.613
REMARK SMILES CCCCCCCCC(=O)[O-]
REMARK SMILES IDX 6 1 7 2 8 3 9 4 10 5 11 6 5 7 4 8 3 9 2 10 1 11
REMARK H PARENT
REMARK Flexibility Score: inf
ROOT
ATOM      1  C   UNL     1      12.478  -5.968   0.618  1.00  0.00     0.000 C 
ENDROOT
BRANCH   1   2
ATOM      2  C   UNL     1      13.125  -5.478   1.926  1.00  0.00     0.006 C 
BRANCH   2   3
ATOM      3  C   UNL     1      12.812  -4.003   2.209  1.00  0.00     0.053 C 
BRANCH   3   4
ATOM      4  C   UNL     1      12.804  -3.705   3.678  1.00  0.00     0.041 C 
ATOM      5  O   UNL     1      12.848  -2.513   4.082  1.00  0.00    -0.550 OA
ATOM      6  O   UNL     1      12.718  -4.741   4.598  1.00  0.00    -0.550 OA
ENDBRANCH   3   4
ENDBRANCH   2   3
ENDBRANCH   1   2
BRANCH   1   7
ATOM      7  C   UNL     1      11.920  -7.396   0.733  1.00  0.00     0.000 C 
BRANCH   7   8
ATOM      8  C   UNL     1      13.030  -8.457   0.829  1.00  0.00    -0.000 C 
BRANCH   8   9
ATOM      9  C   UNL     1      12.480  -9.887   0.987  1.00  0.00    -0.000 C 
BRANCH   9  10
ATOM     10  C   UNL     1      11.313 -10.029   1.982  1.00  0.00    -0.003 C 
ATOM     11  C   UNL     1      11.775 -10.109   3.437  1.00  0.00     0.004 C 
ENDBRANCH   9  10
ENDBRANCH   8   9
ENDBRANCH   7   8
ENDBRANCH   1   7
TORSDOF 7
ENDMDL
MODEL 7
REMARK VINA RESULT:    -2.311      3.375      4.515
REMARK INTER + INTRA:          -3.870
REMARK INTER:                  -3.482
REMARK INTRA:                  -0.388
REMARK UNBOUND:                -0.613
REMARK SMILES CCCCCCCCC(=O)[O-]
REMARK SMILES IDX 6 1 7 2 8 3 9 4 10 5 11 6 5 7 4 8 3 9 2 10 1 11
REMARK H PARENT
REMARK Flexibility Score: inf
ROOT
ATOM      1  C   UNL     1      -4.484  -8.109   2.184  1.00  0.00     0.000 C 
ENDROOT
BRANCH   1   2
ATOM      2  C   UNL     1      -4.561  -7.315   3.501  1.00  0.00     0.006 C 
BRANCH   2   3
ATOM      3  C   UNL     1      -5.961  -6.740   3.749  1.00  0.00     0.053 C 
BRANCH   3   4
ATOM      4  C   UNL     1      -5.928  -5.256   3.956  1.00  0.00     0.041 C 
ATOM      5  O   UNL     1      -6.793  -4.699   4.682  1.00  0.00    -0.550 OA
ATOM      6  O   UNL     1      -4.925  -4.494   3.373  1.00  0.00    -0.550 OA
ENDBRANCH   3   4
ENDBRANCH   2   3
ENDBRANCH   1   2
BRANCH   1   7
ATOM      7  C   UNL     1      -4.504  -9.629   2.409  1.00  0.00     0.000 C 
BRANCH   7   8
ATOM      8  C   UNL     1      -5.765 -10.294   1.832  1.00  0.00    -0.000 C 
BRANCH   8   9
ATOM      9  C   UNL     1      -5.511 -10.992   0.483  1.00  0.00    -0.000 C 
BRANCH   9  10
ATOM     10  C   UNL     1      -6.344 -10.455  -0.695  1.00  0.00    -0.003 C 
ATOM     11  C   UNL     1      -6.693  -8.973  -0.553  1.00  0.00     0.004 C 
ENDBRANCH   9  10
ENDBRANCH   8   9
ENDBRANCH   7   8
ENDBRANCH   1   7
TORSDOF 7
ENDMDL
MODEL 8
REMARK VINA RESULT:    -2.302     14.498     15.394
REMARK INTER + INTRA:          -3.857
REMARK INTER:                  -3.562
REMARK INTRA:                  -0.295
REMARK UNBOUND:                -0.613
REMARK SMILES CCCCCCCCC(=O)[O-]
REMARK SMILES IDX 6 1 7 2 8 3 9 4 10 5 11 6 5 7 4 8 3 9 2 10 1 11
REMARK H PARENT
REMARK Flexibility Score: inf
ROOT
ATOM      1  C   UNL     1      13.125  -7.836   1.385  1.00  0.00     0.000 C 
ENDROOT
BRANCH   1   2
ATOM      2  C   UNL     1      13.025  -9.355   1.156  1.00  0.00     0.006 C 
BRANCH   2   3
ATOM      3  C   UNL     1      13.120 -10.145   2.468  1.00  0.00     0.053 C 
BRANCH   3   4
ATOM      4  C   UNL     1      11.877 -10.008   3.293  1.00  0.00     0.041 C 
ATOM      5  O   UNL     1      10.756 -10.309   2.803  1.00  0.00    -0.550 OA
ATOM      6  O   UNL     1      11.958  -9.577   4.610  1.00  0.00    -0.550 OA
ENDBRANCH   3   4
ENDBRANCH   2   3
ENDBRANCH   1   2
BRANCH   1   7
ATOM      7  C   UNL     1      12.101  -7.045   0.555  1.00  0.00     0.000 C 
BRANCH   7   8
ATOM      8  C   UNL     1      12.381  -5.532   0.559  1.00  0.00    -0.000 C 
BRANCH   8   9
ATOM      9  C   UNL     1      12.848  -5.013   1.932  1.00  0.00    -0.000 C 
BRANCH   9  10
ATOM     10  C   UNL     1      12.526  -3.534   2.212  1.00  0.00    -0.003 C 
ATOM     11  C   UNL     1      12.404  -3.221   3.703  1.00  0.00     0.004 C 
ENDBRANCH   9  10
ENDBRANCH   8   9
ENDBRANCH   7   8
ENDBRANCH   1   7
TORSDOF 7
ENDMDL
