MODEL 1
REMARK VINA RESULT:    -6.278      0.000      0.000
REMARK INTER + INTRA:          -7.865
REMARK INTER:                  -7.562
REMARK INTRA:                  -0.303
REMARK UNBOUND:                -0.303
REMARK SMILES Oc1cc(O)c2cc(O)c(-c3ccc(O)c(O)c3)[o+]c2c1.[Cl-]
REMARK SMILES IDX 10 1 19 2 20 3 21 4 2 5 3 6 4 7 6 8 7 9 8 10 11 11 12 12
REMARK SMILES IDX 13 13 14 14 18 15 16 16 15 17 17 19 9 21 1 23 5 25
REMARK H PARENT 15 18 17 20 9 22 1 24 5 26
REMARK Flexibility Score: inf
ROOT
ATOM      1  C   UNL     1     132.576 131.716 143.280  1.00  0.00     0.402 A 
ATOM      2  O   UNL     1     132.864 130.952 142.229  1.00  0.00    -0.202 OA
ATOM      3  C   UNL     1     132.486 129.682 142.124  1.00  0.00     0.368 A 
ATOM      4  C   UNL     1     132.840 128.961 140.981  1.00  0.00     0.162 A 
ATOM      5  C   UNL     1     132.459 127.625 140.845  1.00  0.00     0.128 A 
ATOM      6  C   UNL     1     131.720 127.004 141.859  1.00  0.00     0.093 A 
ATOM      7  C   UNL     1     131.354 127.706 143.013  1.00  0.00     0.136 A 
ATOM      8  C   UNL     1     131.738 129.066 143.155  1.00  0.00     0.125 A 
ATOM      9  C   UNL     1     131.403 129.850 144.270  1.00  0.00     0.078 A 
ATOM     10  C   UNL     1     131.813 131.186 144.336  1.00  0.00     0.223 A 
ENDROOT
BRANCH   1  11
ATOM     11  C   UNL     1     133.063 133.115 143.283  1.00  0.00     0.087 A 
ATOM     12  C   UNL     1     132.417 134.117 142.537  1.00  0.00     0.022 A 
ATOM     13  C   UNL     1     132.881 135.434 142.573  1.00  0.00     0.051 A 
ATOM     14  C   UNL     1     133.986 135.772 143.364  1.00  0.00     0.157 A 
ATOM     15  C   UNL     1     134.157 133.464 144.091  1.00  0.00     0.068 A 
ATOM     16  C   UNL     1     134.623 134.786 144.127  1.00  0.00     0.158 A 
BRANCH  14  17
ATOM     17  O   UNL     1     134.452 137.085 143.402  1.00  0.00    -0.504 OA
ATOM     18  H   UNL     1     133.815 137.873 143.427  1.00  0.00     0.293 HD
ENDBRANCH  14  17
BRANCH  16  19
ATOM     19  O   UNL     1     135.719 135.127 144.919  1.00  0.00    -0.504 OA
ATOM     20  H   UNL     1     136.572 135.494 144.513  1.00  0.00     0.293 HD
ENDBRANCH  16  19
ENDBRANCH   1  11
BRANCH  10  21
ATOM     21  O   UNL     1     131.439 131.980 145.420  1.00  0.00    -0.500 OA
ATOM     22  H   UNL     1     132.095 132.609 145.870  1.00  0.00     0.294 HD
ENDBRANCH  10  21
BRANCH   5  23
ATOM     23  O   UNL     1     132.820 126.922 139.698  1.00  0.00    -0.507 OA
ATOM     24  H   UNL     1     132.136 126.413 139.150  1.00  0.00     0.293 HD
ENDBRANCH   5  23
BRANCH   7  25
ATOM     25  O   UNL     1     130.620 127.014 143.981  1.00  0.00    -0.507 OA
ATOM     26  H   UNL     1     129.613 126.944 143.991  1.00  0.00     0.293 HD
ENDBRANCH   7  25
TORSDOF 6
ENDMDL
MODEL 2
REMARK VINA RESULT:    -6.187      2.864      7.669
REMARK INTER + INTRA:          -7.755
REMARK INTER:                  -7.453
REMARK INTRA:                  -0.303
REMARK UNBOUND:                -0.303
REMARK SMILES Oc1cc(O)c2cc(O)c(-c3ccc(O)c(O)c3)[o+]c2c1.[Cl-]
REMARK SMILES IDX 10 1 19 2 20 3 21 4 2 5 3 6 4 7 6 8 7 9 8 10 11 11 12 12
REMARK SMILES IDX 13 13 14 14 18 15 16 16 15 17 17 19 9 21 1 23 5 25
REMARK H PARENT 15 18 17 20 9 22 1 24 5 26
REMARK Flexibility Score: inf
ROOT
ATOM      1  C   UNL     1     133.023 127.837 143.770  1.00  0.00     0.402 A 
ATOM      2  O   UNL     1     132.230 128.897 143.911  1.00  0.00    -0.202 OA
ATOM      3  C   UNL     1     132.589 130.129 143.564  1.00  0.00     0.368 A 
ATOM      4  C   UNL     1     131.686 131.178 143.753  1.00  0.00     0.162 A 
ATOM      5  C   UNL     1     132.036 132.482 143.401  1.00  0.00     0.128 A 
ATOM      6  C   UNL     1     133.300 132.741 142.856  1.00  0.00     0.093 A 
ATOM      7  C   UNL     1     134.222 131.707 142.657  1.00  0.00     0.136 A 
ATOM      8  C   UNL     1     133.868 130.378 143.012  1.00  0.00     0.125 A 
ATOM      9  C   UNL     1     134.723 129.278 142.835  1.00  0.00     0.078 A 
ATOM     10  C   UNL     1     134.301 127.997 143.205  1.00  0.00     0.223 A 
ENDROOT
BRANCH   1  11
ATOM     11  C   UNL     1     132.511 126.517 144.204  1.00  0.00     0.087 A 
ATOM     12  C   UNL     1     131.605 125.787 143.413  1.00  0.00     0.022 A 
ATOM     13  C   UNL     1     131.153 124.534 143.832  1.00  0.00     0.051 A 
ATOM     14  C   UNL     1     131.609 123.985 145.038  1.00  0.00     0.157 A 
ATOM     15  C   UNL     1     132.980 125.953 145.401  1.00  0.00     0.068 A 
ATOM     16  C   UNL     1     132.527 124.695 145.821  1.00  0.00     0.158 A 
BRANCH  14  17
ATOM     17  O   UNL     1     131.159 122.735 145.459  1.00  0.00    -0.504 OA
ATOM     18  H   UNL     1     130.318 122.634 146.016  1.00  0.00     0.293 HD
ENDBRANCH  14  17
BRANCH  16  19
ATOM     19  O   UNL     1     132.984 124.143 147.018  1.00  0.00    -0.504 OA
ATOM     20  H   UNL     1     133.973 124.100 147.238  1.00  0.00     0.293 HD
ENDBRANCH  16  19
ENDBRANCH   1  11
BRANCH  10  21
ATOM     21  O   UNL     1     135.130 126.897 142.984  1.00  0.00    -0.500 OA
ATOM     22  H   UNL     1     135.706 126.508 143.722  1.00  0.00     0.294 HD
ENDBRANCH  10  21
BRANCH   5  23
ATOM     23  O   UNL     1     131.123 133.515 143.597  1.00  0.00    -0.507 OA
ATOM     24  H   UNL     1     130.155 133.330 143.832  1.00  0.00     0.293 HD
ENDBRANCH   5  23
BRANCH   7  25
ATOM     25  O   UNL     1     135.463 132.047 142.112  1.00  0.00    -0.507 OA
ATOM     26  H   UNL     1     135.586 132.562 141.252  1.00  0.00     0.293 HD
ENDBRANCH   7  25
TORSDOF 6
ENDMDL
MODEL 3
REMARK VINA RESULT:    -6.109      1.325      7.078
REMARK INTER + INTRA:          -7.662
REMARK INTER:                  -7.318
REMARK INTRA:                  -0.344
REMARK UNBOUND:                -0.303
REMARK SMILES Oc1cc(O)c2cc(O)c(-c3ccc(O)c(O)c3)[o+]c2c1.[Cl-]
REMARK SMILES IDX 10 1 19 2 20 3 21 4 2 5 3 6 4 7 6 8 7 9 8 10 11 11 12 12
REMARK SMILES IDX 13 13 14 14 18 15 16 16 15 17 17 19 9 21 1 23 5 25
REMARK H PARENT 15 18 17 20 9 22 1 24 5 26
REMARK Flexibility Score: inf
ROOT
ATOM      1  C   UNL     1     131.986 131.556 142.427  1.00  0.00     0.402 A 
ATOM      2  O   UNL     1     132.973 132.032 143.182  1.00  0.00    -0.202 OA
ATOM      3  C   UNL     1     133.208 133.330 143.346  1.00  0.00     0.368 A 
ATOM      4  C   UNL     1     134.272 133.731 144.158  1.00  0.00     0.162 A 
ATOM      5  C   UNL     1     134.543 135.086 144.346  1.00  0.00     0.128 A 
ATOM      6  C   UNL     1     133.747 136.050 143.716  1.00  0.00     0.093 A 
ATOM      7  C   UNL     1     132.675 135.674 142.898  1.00  0.00     0.136 A 
ATOM      8  C   UNL     1     132.394 134.295 142.707  1.00  0.00     0.125 A 
ATOM      9  C   UNL     1     131.333 133.826 141.915  1.00  0.00     0.078 A 
ATOM     10  C   UNL     1     131.115 132.452 141.778  1.00  0.00     0.223 A 
ENDROOT
BRANCH   1  11
ATOM     11  C   UNL     1     131.833 130.088 142.317  1.00  0.00     0.087 A 
ATOM     12  C   UNL     1     132.341 129.380 141.212  1.00  0.00     0.022 A 
ATOM     13  C   UNL     1     132.205 127.991 141.141  1.00  0.00     0.051 A 
ATOM     14  C   UNL     1     131.574 127.289 142.175  1.00  0.00     0.157 A 
ATOM     15  C   UNL     1     131.221 129.376 143.361  1.00  0.00     0.068 A 
ATOM     16  C   UNL     1     131.084 127.982 143.288  1.00  0.00     0.158 A 
BRANCH  14  17
ATOM     17  O   UNL     1     131.436 125.904 142.107  1.00  0.00    -0.504 OA
ATOM     18  H   UNL     1     131.354 125.422 141.219  1.00  0.00     0.293 HD
ENDBRANCH  14  17
BRANCH  16  19
ATOM     19  O   UNL     1     130.462 127.280 144.320  1.00  0.00    -0.504 OA
ATOM     20  H   UNL     1     130.510 126.268 144.376  1.00  0.00     0.293 HD
ENDBRANCH  16  19
ENDBRANCH   1  11
BRANCH  10  21
ATOM     21  O   UNL     1     130.032 131.985 141.033  1.00  0.00    -0.500 OA
ATOM     22  H   UNL     1     129.204 132.552 140.887  1.00  0.00     0.294 HD
ENDBRANCH  10  21
BRANCH   5  23
ATOM     23  O   UNL     1     135.608 135.467 145.159  1.00  0.00    -0.507 OA
ATOM     24  H   UNL     1     135.740 136.431 145.443  1.00  0.00     0.293 HD
ENDBRANCH   5  23
BRANCH   7  25
ATOM     25  O   UNL     1     131.930 136.695 142.303  1.00  0.00    -0.507 OA
ATOM     26  H   UNL     1     130.966 136.604 142.014  1.00  0.00     0.293 HD
ENDBRANCH   7  25
TORSDOF 6
ENDMDL
MODEL 4
REMARK VINA RESULT:    -6.028      4.167      5.210
REMARK INTER + INTRA:          -7.565
REMARK INTER:                  -7.218
REMARK INTRA:                  -0.346
REMARK UNBOUND:                -0.303
REMARK SMILES Oc1cc(O)c2cc(O)c(-c3ccc(O)c(O)c3)[o+]c2c1.[Cl-]
REMARK SMILES IDX 10 1 19 2 20 3 21 4 2 5 3 6 4 7 6 8 7 9 8 10 11 11 12 12
REMARK SMILES IDX 13 13 14 14 18 15 16 16 15 17 17 19 9 21 1 23 5 25
REMARK H PARENT 15 18 17 20 9 22 1 24 5 26
REMARK Flexibility Score: inf
ROOT
ATOM      1  C   UNL     1     135.514 132.821 141.448  1.00  0.00     0.402 A 
ATOM      2  O   UNL     1     136.256 133.198 140.409  1.00  0.00    -0.202 OA
ATOM      3  C   UNL     1     136.799 132.342 139.550  1.00  0.00     0.368 A 
ATOM      4  C   UNL     1     137.566 132.836 138.491  1.00  0.00     0.162 A 
ATOM      5  C   UNL     1     138.150 131.960 137.575  1.00  0.00     0.128 A 
ATOM      6  C   UNL     1     137.969 130.580 137.718  1.00  0.00     0.093 A 
ATOM      7  C   UNL     1     137.206 130.060 138.770  1.00  0.00     0.136 A 
ATOM      8  C   UNL     1     136.608 130.948 139.703  1.00  0.00     0.125 A 
ATOM      9  C   UNL     1     135.816 130.518 140.780  1.00  0.00     0.078 A 
ATOM     10  C   UNL     1     135.255 131.453 141.655  1.00  0.00     0.223 A 
ENDROOT
BRANCH   1  11
ATOM     11  C   UNL     1     134.973 133.871 142.340  1.00  0.00     0.087 A 
ATOM     12  C   UNL     1     133.693 134.418 142.135  1.00  0.00     0.022 A 
ATOM     13  C   UNL     1     133.194 135.391 143.003  1.00  0.00     0.051 A 
ATOM     14  C   UNL     1     133.958 135.823 144.096  1.00  0.00     0.157 A 
ATOM     15  C   UNL     1     135.725 134.292 143.449  1.00  0.00     0.068 A 
ATOM     16  C   UNL     1     135.225 135.269 144.320  1.00  0.00     0.158 A 
BRANCH  14  17
ATOM     17  O   UNL     1     133.464 136.795 144.963  1.00  0.00    -0.504 OA
ATOM     18  H   UNL     1     132.704 136.596 145.604  1.00  0.00     0.293 HD
ENDBRANCH  14  17
BRANCH  16  19
ATOM     19  O   UNL     1     135.980 135.696 145.411  1.00  0.00    -0.504 OA
ATOM     20  H   UNL     1     135.656 136.436 146.024  1.00  0.00     0.293 HD
ENDBRANCH  16  19
ENDBRANCH   1  11
BRANCH  10  21
ATOM     21  O   UNL     1     134.428 131.030 142.696  1.00  0.00    -0.500 OA
ATOM     22  H   UNL     1     134.447 130.075 143.036  1.00  0.00     0.294 HD
ENDBRANCH  10  21
BRANCH   5  23
ATOM     23  O   UNL     1     138.910 132.471 136.526  1.00  0.00    -0.507 OA
ATOM     24  H   UNL     1     138.481 132.961 135.749  1.00  0.00     0.293 HD
ENDBRANCH   5  23
BRANCH   7  25
ATOM     25  O   UNL     1     137.076 128.671 138.846  1.00  0.00    -0.507 OA
ATOM     26  H   UNL     1     137.379 128.111 139.630  1.00  0.00     0.293 HD
ENDBRANCH   7  25
TORSDOF 6
ENDMDL
MODEL 5
REMARK VINA RESULT:    -6.013      1.179      2.650
REMARK INTER + INTRA:          -7.546
REMARK INTER:                  -7.194
REMARK INTRA:                  -0.352
REMARK UNBOUND:                -0.303
REMARK SMILES Oc1cc(O)c2cc(O)c(-c3ccc(O)c(O)c3)[o+]c2c1.[Cl-]
REMARK SMILES IDX 10 1 19 2 20 3 21 4 2 5 3 6 4 7 6 8 7 9 8 10 11 11 12 12
REMARK SMILES IDX 13 13 14 14 18 15 16 16 15 17 17 19 9 21 1 23 5 25
REMARK H PARENT 15 18 17 20 9 22 1 24 5 26
REMARK Flexibility Score: inf
ROOT
ATOM      1  C   UNL     1     132.872 132.264 142.270  1.00  0.00     0.402 A 
ATOM      2  O   UNL     1     132.178 131.433 143.044  1.00  0.00    -0.202 OA
ATOM      3  C   UNL     1     131.979 130.153 142.746  1.00  0.00     0.368 A 
ATOM      4  C   UNL     1     131.234 129.359 143.621  1.00  0.00     0.162 A 
ATOM      5  C   UNL     1     131.007 128.013 143.333  1.00  0.00     0.128 A 
ATOM      6  C   UNL     1     131.526 127.455 142.159  1.00  0.00     0.093 A 
ATOM      7  C   UNL     1     132.276 128.229 141.266  1.00  0.00     0.136 A 
ATOM      8  C   UNL     1     132.512 129.598 141.557  1.00  0.00     0.125 A 
ATOM      9  C   UNL     1     133.263 130.446 140.727  1.00  0.00     0.078 A 
ATOM     10  C   UNL     1     133.456 131.784 141.083  1.00  0.00     0.223 A 
ENDROOT
BRANCH   1  11
ATOM     11  C   UNL     1     133.015 133.672 142.707  1.00  0.00     0.087 A 
ATOM     12  C   UNL     1     132.154 134.677 142.233  1.00  0.00     0.022 A 
ATOM     13  C   UNL     1     132.294 135.994 142.677  1.00  0.00     0.051 A 
ATOM     14  C   UNL     1     133.286 136.324 143.610  1.00  0.00     0.157 A 
ATOM     15  C   UNL     1     133.993 134.004 143.659  1.00  0.00     0.068 A 
ATOM     16  C   UNL     1     134.134 135.326 144.104  1.00  0.00     0.158 A 
BRANCH  14  17
ATOM     17  O   UNL     1     133.429 137.637 144.055  1.00  0.00    -0.504 OA
ATOM     18  H   UNL     1     134.217 138.209 143.773  1.00  0.00     0.293 HD
ENDBRANCH  14  17
BRANCH  16  19
ATOM     19  O   UNL     1     135.116 135.655 145.038  1.00  0.00    -0.504 OA
ATOM     20  H   UNL     1     135.427 136.612 145.165  1.00  0.00     0.293 HD
ENDBRANCH  16  19
ENDBRANCH   1  11
BRANCH  10  21
ATOM     21  O   UNL     1     134.243 132.614 140.285  1.00  0.00    -0.500 OA
ATOM     22  H   UNL     1     134.392 132.422 139.301  1.00  0.00     0.294 HD
ENDBRANCH  10  21
BRANCH   5  23
ATOM     23  O   UNL     1     130.261 127.238 144.218  1.00  0.00    -0.507 OA
ATOM     24  H   UNL     1     129.374 127.559 144.588  1.00  0.00     0.293 HD
ENDBRANCH   5  23
BRANCH   7  25
ATOM     25  O   UNL     1     132.757 127.598 140.115  1.00  0.00    -0.507 OA
ATOM     26  H   UNL     1     133.707 127.671 139.780  1.00  0.00     0.293 HD
ENDBRANCH   7  25
TORSDOF 6
ENDMDL
MODEL 6
REMARK VINA RESULT:    -5.987      4.672      6.261
REMARK INTER + INTRA:          -7.515
REMARK INTER:                  -7.164
REMARK INTRA:                  -0.351
REMARK UNBOUND:                -0.303
REMARK SMILES Oc1cc(O)c2cc(O)c(-c3ccc(O)c(O)c3)[o+]c2c1.[Cl-]
REMARK SMILES IDX 10 1 19 2 20 3 21 4 2 5 3 6 4 7 6 8 7 9 8 10 11 11 12 12
REMARK SMILES IDX 13 13 14 14 18 15 16 16 15 17 17 19 9 21 1 23 5 25
REMARK H PARENT 15 18 17 20 9 22 1 24 5 26
REMARK Flexibility Score: inf
ROOT
ATOM      1  C   UNL     1     134.805 132.326 140.316  1.00  0.00     0.402 A 
ATOM      2  O   UNL     1     135.857 131.514 140.244  1.00  0.00    -0.202 OA
ATOM      3  C   UNL     1     136.678 131.472 139.199  1.00  0.00     0.368 A 
ATOM      4  C   UNL     1     137.755 130.582 139.216  1.00  0.00     0.162 A 
ATOM      5  C   UNL     1     138.631 130.515 138.133  1.00  0.00     0.128 A 
ATOM      6  C   UNL     1     138.430 131.342 137.021  1.00  0.00     0.093 A 
ATOM      7  C   UNL     1     137.358 132.241 136.980  1.00  0.00     0.136 A 
ATOM      8  C   UNL     1     136.465 132.315 138.082  1.00  0.00     0.125 A 
ATOM      9  C   UNL     1     135.373 133.196 138.134  1.00  0.00     0.078 A 
ATOM     10  C   UNL     1     134.540 133.214 139.257  1.00  0.00     0.223 A 
ENDROOT
BRANCH   1  11
ATOM     11  C   UNL     1     133.960 132.271 141.530  1.00  0.00     0.087 A 
ATOM     12  C   UNL     1     132.809 131.465 141.586  1.00  0.00     0.022 A 
ATOM     13  C   UNL     1     132.040 131.412 142.750  1.00  0.00     0.051 A 
ATOM     14  C   UNL     1     132.415 132.152 143.880  1.00  0.00     0.157 A 
ATOM     15  C   UNL     1     134.343 132.993 142.672  1.00  0.00     0.068 A 
ATOM     16  C   UNL     1     133.571 132.941 143.841  1.00  0.00     0.158 A 
BRANCH  14  17
ATOM     17  O   UNL     1     131.649 132.102 145.043  1.00  0.00    -0.504 OA
ATOM     18  H   UNL     1     131.987 132.489 145.917  1.00  0.00     0.293 HD
ENDBRANCH  14  17
BRANCH  16  19
ATOM     19  O   UNL     1     133.946 133.670 144.968  1.00  0.00    -0.504 OA
ATOM     20  H   UNL     1     134.479 134.529 144.891  1.00  0.00     0.293 HD
ENDBRANCH  16  19
ENDBRANCH   1  11
BRANCH  10  21
ATOM     21  O   UNL     1     133.485 134.123 139.330  1.00  0.00    -0.500 OA
ATOM     22  H   UNL     1     132.910 134.337 138.524  1.00  0.00     0.294 HD
ENDBRANCH  10  21
BRANCH   5  23
ATOM     23  O   UNL     1     139.699 129.621 138.168  1.00  0.00    -0.507 OA
ATOM     24  H   UNL     1     140.146 129.362 139.040  1.00  0.00     0.293 HD
ENDBRANCH   5  23
BRANCH   7  25
ATOM     25  O   UNL     1     137.223 133.030 135.834  1.00  0.00    -0.507 OA
ATOM     26  H   UNL     1     137.284 132.678 134.889  1.00  0.00     0.293 HD
ENDBRANCH   7  25
TORSDOF 6
ENDMDL
MODEL 7
REMARK VINA RESULT:    -5.967      2.428      3.826
REMARK INTER + INTRA:          -7.490
REMARK INTER:                  -7.280
REMARK INTRA:                  -0.211
REMARK UNBOUND:                -0.303
REMARK SMILES Oc1cc(O)c2cc(O)c(-c3ccc(O)c(O)c3)[o+]c2c1.[Cl-]
REMARK SMILES IDX 10 1 19 2 20 3 21 4 2 5 3 6 4 7 6 8 7 9 8 10 11 11 12 12
REMARK SMILES IDX 13 13 14 14 18 15 16 16 15 17 17 19 9 21 1 23 5 25
REMARK H PARENT 15 18 17 20 9 22 1 24 5 26
REMARK Flexibility Score: inf
ROOT
ATOM      1  C   UNL     1     133.102 129.042 142.837  1.00  0.00     0.402 A 
ATOM      2  O   UNL     1     133.290 128.274 143.908  1.00  0.00    -0.202 OA
ATOM      3  C   UNL     1     132.716 127.086 144.065  1.00  0.00     0.368 A 
ATOM      4  C   UNL     1     132.974 126.355 145.227  1.00  0.00     0.162 A 
ATOM      5  C   UNL     1     132.382 125.106 145.420  1.00  0.00     0.128 A 
ATOM      6  C   UNL     1     131.524 124.583 144.445  1.00  0.00     0.093 A 
ATOM      7  C   UNL     1     131.250 125.296 143.273  1.00  0.00     0.136 A 
ATOM      8  C   UNL     1     131.852 126.566 143.071  1.00  0.00     0.125 A 
ATOM      9  C   UNL     1     131.645 127.345 141.921  1.00  0.00     0.078 A 
ATOM     10  C   UNL     1     132.277 128.586 141.792  1.00  0.00     0.223 A 
ENDROOT
BRANCH   1  11
ATOM     11  C   UNL     1     133.792 130.351 142.784  1.00  0.00     0.087 A 
ATOM     12  C   UNL     1     134.800 130.610 141.838  1.00  0.00     0.022 A 
ATOM     13  C   UNL     1     135.421 131.860 141.793  1.00  0.00     0.051 A 
ATOM     14  C   UNL     1     135.036 132.874 142.680  1.00  0.00     0.157 A 
ATOM     15  C   UNL     1     133.395 131.377 143.657  1.00  0.00     0.068 A 
ATOM     16  C   UNL     1     134.019 132.632 143.612  1.00  0.00     0.158 A 
BRANCH  14  17
ATOM     17  O   UNL     1     135.653 134.122 142.638  1.00  0.00    -0.504 OA
ATOM     18  H   UNL     1     136.543 134.289 143.094  1.00  0.00     0.293 HD
ENDBRANCH  14  17
BRANCH  16  19
ATOM     19  O   UNL     1     133.633 133.644 144.489  1.00  0.00    -0.504 OA
ATOM     20  H   UNL     1     133.985 133.685 145.439  1.00  0.00     0.293 HD
ENDBRANCH  16  19
ENDBRANCH   1  11
BRANCH  10  21
ATOM     21  O   UNL     1     132.112 129.338 140.629  1.00  0.00    -0.500 OA
ATOM     22  H   UNL     1     132.546 130.247 140.517  1.00  0.00     0.294 HD
ENDBRANCH  10  21
BRANCH   5  23
ATOM     23  O   UNL     1     132.652 124.391 146.585  1.00  0.00    -0.507 OA
ATOM     24  H   UNL     1     133.590 124.326 146.963  1.00  0.00     0.293 HD
ENDBRANCH   5  23
BRANCH   7  25
ATOM     25  O   UNL     1     130.380 124.708 142.350  1.00  0.00    -0.507 OA
ATOM     26  H   UNL     1     129.562 125.160 141.968  1.00  0.00     0.293 HD
ENDBRANCH   7  25
TORSDOF 6
ENDMDL
MODEL 8
REMARK VINA RESULT:    -5.904      1.794      7.085
REMARK INTER + INTRA:          -7.414
REMARK INTER:                  -7.187
REMARK INTRA:                  -0.227
REMARK UNBOUND:                -0.303
REMARK SMILES Oc1cc(O)c2cc(O)c(-c3ccc(O)c(O)c3)[o+]c2c1.[Cl-]
REMARK SMILES IDX 10 1 19 2 20 3 21 4 2 5 3 6 4 7 6 8 7 9 8 10 11 11 12 12
REMARK SMILES IDX 13 13 14 14 18 15 16 16 15 17 17 19 9 21 1 23 5 25
REMARK H PARENT 15 18 17 20 9 22 1 24 5 26
REMARK Flexibility Score: inf
ROOT
ATOM      1  C   UNL     1     133.047 130.686 142.692  1.00  0.00     0.402 A 
ATOM      2  O   UNL     1     133.421 131.580 143.605  1.00  0.00    -0.202 OA
ATOM      3  C   UNL     1     133.908 132.777 143.297  1.00  0.00     0.368 A 
ATOM      4  C   UNL     1     134.277 133.646 144.327  1.00  0.00     0.162 A 
ATOM      5  C   UNL     1     134.794 134.908 144.034  1.00  0.00     0.128 A 
ATOM      6  C   UNL     1     134.946 135.306 142.700  1.00  0.00     0.093 A 
ATOM      7  C   UNL     1     134.584 134.454 141.651  1.00  0.00     0.136 A 
ATOM      8  C   UNL     1     134.056 133.170 141.945  1.00  0.00     0.125 A 
ATOM      9  C   UNL     1     133.654 132.255 140.958  1.00  0.00     0.078 A 
ATOM     10  C   UNL     1     133.137 131.009 141.326  1.00  0.00     0.223 A 
ENDROOT
BRANCH   1  11
ATOM     11  C   UNL     1     132.528 129.381 143.162  1.00  0.00     0.087 A 
ATOM     12  C   UNL     1     131.179 129.022 142.985  1.00  0.00     0.022 A 
ATOM     13  C   UNL     1     130.718 127.777 143.417  1.00  0.00     0.051 A 
ATOM     14  C   UNL     1     131.597 126.866 144.018  1.00  0.00     0.157 A 
ATOM     15  C   UNL     1     133.409 128.456 143.746  1.00  0.00     0.068 A 
ATOM     16  C   UNL     1     132.946 127.206 144.179  1.00  0.00     0.158 A 
BRANCH  14  17
ATOM     17  O   UNL     1     131.140 125.623 144.450  1.00  0.00    -0.504 OA
ATOM     18  H   UNL     1     131.669 124.775 144.278  1.00  0.00     0.293 HD
ENDBRANCH  14  17
BRANCH  16  19
ATOM     19  O   UNL     1     133.821 126.296 144.771  1.00  0.00    -0.504 OA
ATOM     20  H   UNL     1     133.772 126.081 145.761  1.00  0.00     0.293 HD
ENDBRANCH  16  19
ENDBRANCH   1  11
BRANCH  10  21
ATOM     21  O   UNL     1     132.691 130.120 140.348  1.00  0.00    -0.500 OA
ATOM     22  H   UNL     1     131.736 130.137 140.009  1.00  0.00     0.294 HD
ENDBRANCH  10  21
BRANCH   5  23
ATOM     23  O   UNL     1     135.156 135.761 145.074  1.00  0.00    -0.507 OA
ATOM     24  H   UNL     1     134.881 136.737 145.080  1.00  0.00     0.293 HD
ENDBRANCH   5  23
BRANCH   7  25
ATOM     25  O   UNL     1     134.770 134.924 140.347  1.00  0.00    -0.507 OA
ATOM     26  H   UNL     1     135.532 134.647 139.744  1.00  0.00     0.293 HD
ENDBRANCH   7  25
TORSDOF 6
ENDMDL
MODEL 9
REMARK VINA RESULT:    -5.872      3.661      4.831
REMARK INTER + INTRA:          -7.376
REMARK INTER:                  -7.032
REMARK INTRA:                  -0.343
REMARK UNBOUND:                -0.303
REMARK SMILES Oc1cc(O)c2cc(O)c(-c3ccc(O)c(O)c3)[o+]c2c1.[Cl-]
REMARK SMILES IDX 10 1 19 2 20 3 21 4 2 5 3 6 4 7 6 8 7 9 8 10 11 11 12 12
REMARK SMILES IDX 13 13 14 14 18 15 16 16 15 17 17 19 9 21 1 23 5 25
REMARK H PARENT 15 18 17 20 9 22 1 24 5 26
REMARK Flexibility Score: inf
ROOT
ATOM      1  C   UNL     1     134.839 132.135 140.453  1.00  0.00     0.402 A 
ATOM      2  O   UNL     1     136.069 131.767 140.104  1.00  0.00    -0.202 OA
ATOM      3  C   UNL     1     136.321 130.809 139.218  1.00  0.00     0.368 A 
ATOM      4  C   UNL     1     137.649 130.492 138.920  1.00  0.00     0.162 A 
ATOM      5  C   UNL     1     137.944 129.489 137.995  1.00  0.00     0.128 A 
ATOM      6  C   UNL     1     136.904 128.795 137.365  1.00  0.00     0.093 A 
ATOM      7  C   UNL     1     135.566 129.094 137.648  1.00  0.00     0.136 A 
ATOM      8  C   UNL     1     135.262 130.116 138.586  1.00  0.00     0.125 A 
ATOM      9  C   UNL     1     133.951 130.492 138.920  1.00  0.00     0.078 A 
ATOM     10  C   UNL     1     133.730 131.512 139.850  1.00  0.00     0.223 A 
ENDROOT
BRANCH   1  11
ATOM     11  C   UNL     1     134.688 133.210 141.460  1.00  0.00     0.087 A 
ATOM     12  C   UNL     1     134.686 134.567 141.089  1.00  0.00     0.022 A 
ATOM     13  C   UNL     1     134.520 135.563 142.054  1.00  0.00     0.051 A 
ATOM     14  C   UNL     1     134.341 135.220 143.400  1.00  0.00     0.157 A 
ATOM     15  C   UNL     1     134.486 132.871 142.808  1.00  0.00     0.068 A 
ATOM     16  C   UNL     1     134.320 133.871 143.777  1.00  0.00     0.158 A 
BRANCH  14  17
ATOM     17  O   UNL     1     134.176 136.210 144.366  1.00  0.00    -0.504 OA
ATOM     18  H   UNL     1     133.850 137.139 144.122  1.00  0.00     0.293 HD
ENDBRANCH  14  17
BRANCH  16  19
ATOM     19  O   UNL     1     134.134 133.532 145.116  1.00  0.00    -0.504 OA
ATOM     20  H   UNL     1     133.799 134.209 145.793  1.00  0.00     0.293 HD
ENDBRANCH  16  19
ENDBRANCH   1  11
BRANCH  10  21
ATOM     21  O   UNL     1     132.430 131.920 140.146  1.00  0.00    -0.500 OA
ATOM     22  H   UNL     1     132.119 132.871 139.979  1.00  0.00     0.294 HD
ENDBRANCH  10  21
BRANCH   5  23
ATOM     23  O   UNL     1     139.273 129.187 137.710  1.00  0.00    -0.507 OA
ATOM     24  H   UNL     1     140.028 129.808 137.979  1.00  0.00     0.293 HD
ENDBRANCH   5  23
BRANCH   7  25
ATOM     25  O   UNL     1     134.586 128.354 136.979  1.00  0.00    -0.507 OA
ATOM     26  H   UNL     1     133.834 128.759 136.441  1.00  0.00     0.293 HD
ENDBRANCH   7  25
TORSDOF 6
ENDMDL
