MODEL 1
REMARK VINA RESULT:    -4.516      0.000      0.000
REMARK INTER + INTRA:          -7.036
REMARK INTER:                  -6.364
REMARK INTRA:                  -0.672
REMARK UNBOUND:                -0.672
REMARK SMILES CCCCCCCCC(=O)[O-]
REMARK SMILES IDX 6 1 7 2 8 3 9 4 10 5 11 6 5 7 4 8 3 9 2 10 1 11
REMARK H PARENT
REMARK Flexibility Score: inf
ROOT
ATOM      1  C   UNL     1      11.413   0.874  33.886  1.00  0.00     0.000 C 
ENDROOT
BRANCH   1   2
ATOM      2  C   UNL     1      12.758   0.591  34.577  1.00  0.00     0.006 C 
BRANCH   2   3
ATOM      3  C   UNL     1      13.022   1.550  35.746  1.00  0.00     0.053 C 
BRANCH   3   4
ATOM      4  C   UNL     1      12.942   2.984  35.320  1.00  0.00     0.041 C 
ATOM      5  O   UNL     1      13.726   3.428  34.440  1.00  0.00    -0.550 OA
ATOM      6  O   UNL     1      11.984   3.823  35.874  1.00  0.00    -0.550 OA
ENDBRANCH   3   4
ENDBRANCH   2   3
ENDBRANCH   1   2
BRANCH   1   7
ATOM      7  C   UNL     1      10.552  -0.389  33.729  1.00  0.00     0.000 C 
BRANCH   7   8
ATOM      8  C   UNL     1       9.047  -0.103  33.872  1.00  0.00    -0.000 C 
BRANCH   8   9
ATOM      9  C   UNL     1       8.774   1.255  34.553  1.00  0.00    -0.000 C 
BRANCH   9  10
ATOM     10  C   UNL     1       8.383   1.132  36.036  1.00  0.00    -0.003 C 
ATOM     11  C   UNL     1       9.472   1.627  36.986  1.00  0.00     0.004 C 
ENDBRANCH   9  10
ENDBRANCH   8   9
ENDBRANCH   7   8
ENDBRANCH   1   7
TORSDOF 7
ENDMDL
MODEL 2
REMARK VINA RESULT:    -4.461      1.092      1.235
REMARK INTER + INTRA:          -6.959
REMARK INTER:                  -6.173
REMARK INTRA:                  -0.786
REMARK UNBOUND:                -0.672
REMARK SMILES CCCCCCCCC(=O)[O-]
REMARK SMILES IDX 6 1 7 2 8 3 9 4 10 5 11 6 5 7 4 8 3 9 2 10 1 11
REMARK H PARENT
REMARK Flexibility Score: inf
ROOT
ATOM      1  C   UNL     1      12.593   0.307  34.489  1.00  0.00     0.000 C 
ENDROOT
BRANCH   1   2
ATOM      2  C   UNL     1      13.016   1.759  34.210  1.00  0.00     0.006 C 
BRANCH   2   3
ATOM      3  C   UNL     1      13.089   2.598  35.493  1.00  0.00     0.053 C 
BRANCH   3   4
ATOM      4  C   UNL     1      12.463   3.947  35.315  1.00  0.00     0.041 C 
ATOM      5  O   UNL     1      12.084   4.324  34.174  1.00  0.00    -0.550 OA
ATOM      6  O   UNL     1      12.272   4.778  36.412  1.00  0.00    -0.550 OA
ENDBRANCH   3   4
ENDBRANCH   2   3
ENDBRANCH   1   2
BRANCH   1   7
ATOM      7  C   UNL     1      11.132   0.031  34.100  1.00  0.00     0.000 C 
BRANCH   7   8
ATOM      8  C   UNL     1      10.442   1.256  33.474  1.00  0.00    -0.000 C 
BRANCH   8   9
ATOM      9  C   UNL     1       9.332   1.826  34.381  1.00  0.00    -0.000 C 
BRANCH   9  10
ATOM     10  C   UNL     1       9.098   1.003  35.660  1.00  0.00    -0.003 C 
ATOM     11  C   UNL     1       9.529   1.734  36.929  1.00  0.00     0.004 C 
ENDBRANCH   9  10
ENDBRANCH   8   9
ENDBRANCH   7   8
ENDBRANCH   1   7
TORSDOF 7
ENDMDL
MODEL 3
REMARK VINA RESULT:    -4.383      2.002      4.281
REMARK INTER + INTRA:          -6.849
REMARK INTER:                  -6.374
REMARK INTRA:                  -0.474
REMARK UNBOUND:                -0.672
REMARK SMILES CCCCCCCCC(=O)[O-]
REMARK SMILES IDX 6 1 7 2 8 3 9 4 10 5 11 6 5 7 4 8 3 9 2 10 1 11
REMARK H PARENT
REMARK Flexibility Score: inf
ROOT
ATOM      1  C   UNL     1      10.810  -0.212  33.755  1.00  0.00     0.000 C 
ENDROOT
BRANCH   1   2
ATOM      2  C   UNL     1       9.313  -0.011  34.047  1.00  0.00     0.006 C 
BRANCH   2   3
ATOM      3  C   UNL     1       9.009   1.400  34.571  1.00  0.00     0.053 C 
BRANCH   3   4
ATOM      4  C   UNL     1       8.600   1.384  36.012  1.00  0.00     0.041 C 
ATOM      5  O   UNL     1       7.437   1.027  36.335  1.00  0.00    -0.550 OA
ATOM      6  O   UNL     1       9.511   1.737  36.999  1.00  0.00    -0.550 OA
ENDBRANCH   3   4
ENDBRANCH   2   3
ENDBRANCH   1   2
BRANCH   1   7
ATOM      7  C   UNL     1      11.651   1.027  34.100  1.00  0.00     0.000 C 
BRANCH   7   8
ATOM      8  C   UNL     1      12.821   0.706  35.047  1.00  0.00    -0.000 C 
BRANCH   8   9
ATOM      9  C   UNL     1      13.228   1.924  35.903  1.00  0.00    -0.000 C 
BRANCH   9  10
ATOM     10  C   UNL     1      13.153   3.261  35.145  1.00  0.00    -0.003 C 
ATOM     11  C   UNL     1      12.479   4.369  35.951  1.00  0.00     0.004 C 
ENDBRANCH   9  10
ENDBRANCH   8   9
ENDBRANCH   7   8
ENDBRANCH   1   7
TORSDOF 7
ENDMDL
MODEL 4
REMARK VINA RESULT:    -4.262      3.101      4.680
REMARK INTER + INTRA:          -6.679
REMARK INTER:                  -5.987
REMARK INTRA:                  -0.693
REMARK UNBOUND:                -0.672
REMARK SMILES CCCCCCCCC(=O)[O-]
REMARK SMILES IDX 6 1 7 2 8 3 9 4 10 5 11 6 5 7 4 8 3 9 2 10 1 11
REMARK H PARENT
REMARK Flexibility Score: inf
ROOT
ATOM      1  C   UNL     1      10.394   1.495  33.764  1.00  0.00     0.000 C 
ENDROOT
BRANCH   1   2
ATOM      2  C   UNL     1       9.326   1.852  34.814  1.00  0.00     0.006 C 
BRANCH   2   3
ATOM      3  C   UNL     1       9.043   0.685  35.771  1.00  0.00     0.053 C 
BRANCH   3   4
ATOM      4  C   UNL     1       7.805  -0.064  35.385  1.00  0.00     0.041 C 
ATOM      5  O   UNL     1       7.852  -0.947  34.489  1.00  0.00    -0.550 OA
ATOM      6  O   UNL     1       6.604   0.192  36.036  1.00  0.00    -0.550 OA
ENDBRANCH   3   4
ENDBRANCH   2   3
ENDBRANCH   1   2
BRANCH   1   7
ATOM      7  C   UNL     1      11.248   0.287  34.177  1.00  0.00     0.000 C 
BRANCH   7   8
ATOM      8  C   UNL     1      12.694   0.674  34.531  1.00  0.00    -0.000 C 
BRANCH   8   9
ATOM      9  C   UNL     1      12.805   1.274  35.949  1.00  0.00    -0.000 C 
BRANCH   9  10
ATOM     10  C   UNL     1      13.487   2.653  35.982  1.00  0.00    -0.003 C 
ATOM     11  C   UNL     1      12.537   3.799  35.644  1.00  0.00     0.004 C 
ENDBRANCH   9  10
ENDBRANCH   8   9
ENDBRANCH   7   8
ENDBRANCH   1   7
TORSDOF 7
ENDMDL
MODEL 5
REMARK VINA RESULT:    -4.192     17.596     18.573
REMARK INTER + INTRA:          -6.580
REMARK INTER:                  -5.835
REMARK INTRA:                  -0.745
REMARK UNBOUND:                -0.672
REMARK SMILES CCCCCCCCC(=O)[O-]
REMARK SMILES IDX 6 1 7 2 8 3 9 4 10 5 11 6 5 7 4 8 3 9 2 10 1 11
REMARK H PARENT
REMARK Flexibility Score: inf
ROOT
ATOM      1  C   UNL     1      12.182 -10.655  46.561  1.00  0.00     0.000 C 
ENDROOT
BRANCH   1   2
ATOM      2  C   UNL     1      10.904 -10.004  47.118  1.00  0.00     0.006 C 
BRANCH   2   3
ATOM      3  C   UNL     1       9.968 -11.031  47.771  1.00  0.00     0.053 C 
BRANCH   3   4
ATOM      4  C   UNL     1       8.532 -10.767  47.440  1.00  0.00     0.041 C 
ATOM      5  O   UNL     1       7.641 -11.586  47.788  1.00  0.00    -0.550 OA
ATOM      6  O   UNL     1       8.173  -9.603  46.772  1.00  0.00    -0.550 OA
ENDBRANCH   3   4
ENDBRANCH   2   3
ENDBRANCH   1   2
BRANCH   1   7
ATOM      7  C   UNL     1      12.363 -12.104  47.036  1.00  0.00     0.000 C 
BRANCH   7   8
ATOM      8  C   UNL     1      13.551 -12.270  48.000  1.00  0.00    -0.000 C 
BRANCH   8   9
ATOM      9  C   UNL     1      13.120 -12.173  49.478  1.00  0.00    -0.000 C 
BRANCH   9  10
ATOM     10  C   UNL     1      13.334 -10.778  50.091  1.00  0.00    -0.003 C 
ATOM     11  C   UNL     1      12.063 -10.190  50.701  1.00  0.00     0.004 C 
ENDBRANCH   9  10
ENDBRANCH   8   9
ENDBRANCH   7   8
ENDBRANCH   1   7
TORSDOF 7
ENDMDL
MODEL 6
REMARK VINA RESULT:    -4.132      1.356      2.057
REMARK INTER + INTRA:          -6.496
REMARK INTER:                  -5.833
REMARK INTRA:                  -0.662
REMARK UNBOUND:                -0.672
REMARK SMILES CCCCCCCCC(=O)[O-]
REMARK SMILES IDX 6 1 7 2 8 3 9 4 10 5 11 6 5 7 4 8 3 9 2 10 1 11
REMARK H PARENT
REMARK Flexibility Score: inf
ROOT
ATOM      1  C   UNL     1      12.224   1.292  35.777  1.00  0.00     0.000 C 
ENDROOT
BRANCH   1   2
ATOM      2  C   UNL     1      13.172   2.500  35.686  1.00  0.00     0.006 C 
BRANCH   2   3
ATOM      3  C   UNL     1      12.425   3.798  35.347  1.00  0.00     0.053 C 
BRANCH   3   4
ATOM      4  C   UNL     1      12.522   4.132  33.890  1.00  0.00     0.041 C 
ATOM      5  O   UNL     1      13.195   3.402  33.116  1.00  0.00    -0.550 OA
ATOM      6  O   UNL     1      11.847   5.235  33.382  1.00  0.00    -0.550 OA
ENDBRANCH   3   4
ENDBRANCH   2   3
ENDBRANCH   1   2
BRANCH   1   7
ATOM      7  C   UNL     1      12.367   0.336  34.583  1.00  0.00     0.000 C 
BRANCH   7   8
ATOM      8  C   UNL     1      11.021   0.020  33.909  1.00  0.00    -0.000 C 
BRANCH   8   9
ATOM      9  C   UNL     1      10.059   1.227  33.934  1.00  0.00    -0.000 C 
BRANCH   9  10
ATOM     10  C   UNL     1       8.645   0.876  34.428  1.00  0.00    -0.003 C 
ATOM     11  C   UNL     1       8.644   0.109  35.749  1.00  0.00     0.004 C 
ENDBRANCH   9  10
ENDBRANCH   8   9
ENDBRANCH   7   8
ENDBRANCH   1   7
TORSDOF 7
ENDMDL
MODEL 7
REMARK VINA RESULT:    -4.107     17.822     18.654
REMARK INTER + INTRA:          -6.460
REMARK INTER:                  -5.738
REMARK INTRA:                  -0.723
REMARK UNBOUND:                -0.672
REMARK SMILES CCCCCCCCC(=O)[O-]
REMARK SMILES IDX 6 1 7 2 8 3 9 4 10 5 11 6 5 7 4 8 3 9 2 10 1 11
REMARK H PARENT
REMARK Flexibility Score: inf
ROOT
ATOM      1  C   UNL     1      13.793 -12.404  47.750  1.00  0.00     0.000 C 
ENDROOT
BRANCH   1   2
ATOM      2  C   UNL     1      12.582 -12.282  46.810  1.00  0.00     0.006 C 
BRANCH   2   3
ATOM      3  C   UNL     1      12.455 -10.876  46.207  1.00  0.00     0.053 C 
BRANCH   3   4
ATOM      4  C   UNL     1      11.362 -10.086  46.857  1.00  0.00     0.041 C 
ATOM      5  O   UNL     1      10.236 -10.612  47.061  1.00  0.00    -0.550 OA
ATOM      6  O   UNL     1      11.593  -8.778  47.264  1.00  0.00    -0.550 OA
ENDBRANCH   3   4
ENDBRANCH   2   3
ENDBRANCH   1   2
BRANCH   1   7
ATOM      7  C   UNL     1      13.422 -12.182  49.224  1.00  0.00     0.000 C 
BRANCH   7   8
ATOM      8  C   UNL     1      11.963 -12.559  49.534  1.00  0.00    -0.000 C 
BRANCH   8   9
ATOM      9  C   UNL     1      11.219 -11.438  50.289  1.00  0.00    -0.000 C 
BRANCH   9  10
ATOM     10  C   UNL     1      12.061 -10.166  50.487  1.00  0.00    -0.003 C 
ATOM     11  C   UNL     1      11.807  -9.482  51.829  1.00  0.00     0.004 C 
ENDBRANCH   9  10
ENDBRANCH   8   9
ENDBRANCH   7   8
ENDBRANCH   1   7
TORSDOF 7
ENDMDL
MODEL 8
REMARK VINA RESULT:    -4.065      2.619      4.842
REMARK INTER + INTRA:          -6.400
REMARK INTER:                  -5.859
REMARK INTRA:                  -0.541
REMARK UNBOUND:                -0.672
REMARK SMILES CCCCCCCCC(=O)[O-]
REMARK SMILES IDX 6 1 7 2 8 3 9 4 10 5 11 6 5 7 4 8 3 9 2 10 1 11
REMARK H PARENT
REMARK Flexibility Score: inf
ROOT
ATOM      1  C   UNL     1      11.763   1.154  35.882  1.00  0.00     0.000 C 
ENDROOT
BRANCH   1   2
ATOM      2  C   UNL     1      10.616   2.168  36.038  1.00  0.00     0.006 C 
BRANCH   2   3
ATOM      3  C   UNL     1       9.386   1.552  36.720  1.00  0.00     0.053 C 
BRANCH   3   4
ATOM      4  C   UNL     1       8.341   1.149  35.726  1.00  0.00     0.041 C 
ATOM      5  O   UNL     1       7.204   0.776  36.119  1.00  0.00    -0.550 OA
ATOM      6  O   UNL     1       8.611   1.213  34.365  1.00  0.00    -0.550 OA
ENDBRANCH   3   4
ENDBRANCH   2   3
ENDBRANCH   1   2
BRANCH   1   7
ATOM      7  C   UNL     1      13.145   1.823  35.862  1.00  0.00     0.000 C 
BRANCH   7   8
ATOM      8  C   UNL     1      13.072   3.330  35.560  1.00  0.00    -0.000 C 
BRANCH   8   9
ATOM      9  C   UNL     1      13.345   3.640  34.073  1.00  0.00    -0.000 C 
BRANCH   9  10
ATOM     10  C   UNL     1      12.263   4.517  33.419  1.00  0.00    -0.003 C 
ATOM     11  C   UNL     1      11.186   3.705  32.703  1.00  0.00     0.004 C 
ENDBRANCH   9  10
ENDBRANCH   8   9
ENDBRANCH   7   8
ENDBRANCH   1   7
TORSDOF 7
ENDMDL
MODEL 9
REMARK VINA RESULT:    -4.033      2.604      4.609
REMARK INTER + INTRA:          -6.356
REMARK INTER:                  -5.710
REMARK INTRA:                  -0.647
REMARK UNBOUND:                -0.672
REMARK SMILES CCCCCCCCC(=O)[O-]
REMARK SMILES IDX 6 1 7 2 8 3 9 4 10 5 11 6 5 7 4 8 3 9 2 10 1 11
REMARK H PARENT
REMARK Flexibility Score: inf
ROOT
ATOM      1  C   UNL     1      12.604   0.512  34.509  1.00  0.00     0.000 C 
ENDROOT
BRANCH   1   2
ATOM      2  C   UNL     1      11.298   0.844  33.767  1.00  0.00     0.006 C 
BRANCH   2   3
ATOM      3  C   UNL     1      10.340  -0.355  33.716  1.00  0.00     0.053 C 
BRANCH   3   4
ATOM      4  C   UNL     1       9.020  -0.041  34.350  1.00  0.00     0.041 C 
ATOM      5  O   UNL     1       7.981   0.036  33.644  1.00  0.00    -0.550 OA
ATOM      6  O   UNL     1       8.932   0.137  35.725  1.00  0.00    -0.550 OA
ENDBRANCH   3   4
ENDBRANCH   2   3
ENDBRANCH   1   2
BRANCH   1   7
ATOM      7  C   UNL     1      12.846   1.427  35.719  1.00  0.00     0.000 C 
BRANCH   7   8
ATOM      8  C   UNL     1      11.891   2.633  35.753  1.00  0.00    -0.000 C 
BRANCH   8   9
ATOM      9  C   UNL     1      12.598   3.947  35.359  1.00  0.00    -0.000 C 
BRANCH   9  10
ATOM     10  C   UNL     1      12.192   4.472  33.971  1.00  0.00    -0.003 C 
ATOM     11  C   UNL     1      13.153   4.042  32.864  1.00  0.00     0.004 C 
ENDBRANCH   9  10
ENDBRANCH   8   9
ENDBRANCH   7   8
ENDBRANCH   1   7
TORSDOF 7
ENDMDL
