MODEL 1
REMARK VINA RESULT:    -2.891      0.000      0.000
REMARK INTER + INTRA:          -2.018
REMARK INTER:                  -4.075
REMARK INTRA:                   2.057
REMARK UNBOUND:                 2.057
REMARK SMILES CC1=CCC(=C(C)C)C(=O)CC(C)=CCC1
REMARK SMILES IDX 12 1 14 2 13 3 15 4 16 5 2 6 1 7 3 8 11 10 9 11 10 12 5 13
REMARK SMILES IDX 6 14 7 15 8 16 4 17
REMARK H PARENT
REMARK Flexibility Score: 60.00
ROOT
ATOM      1  C   UNL     1      88.752  28.980  64.089  1.00  0.00    -0.070 C 
ATOM      2  C   UNL     1      89.112  29.910  63.173  1.00  0.00    -0.027 C 
ATOM      3  C   UNL     1      89.064  27.536  63.775  1.00  0.00     0.039 C 
ENDROOT
BRANCH   2   4
ATOM      4  C   UNL     1      88.994  31.407  63.325  1.00  0.00     0.032 C 
BRANCH   4   5
ATOM      5  C   UNL     1      89.117  31.865  64.791  1.00  0.00     0.034 C 
BRANCH   5   6
ATOM      6  C   UNL     1      88.189  33.021  65.109  1.00  0.00    -0.077 C 
ATOM      7  C   UNL     1      88.500  34.372  64.516  1.00  0.00     0.039 C 
ATOM      8  C   UNL     1      87.111  32.918  65.918  1.00  0.00    -0.023 CG0
ATOM      9  G   UNL     1      86.659  31.665  66.629  1.00  0.00     0.000 G0
ENDBRANCH   5   6
ENDBRANCH   4   5
ENDBRANCH   2   4
BRANCH   1  10
ATOM     10  C   UNL     1      88.120  29.314  65.430  1.00  0.00     0.111 C 
BRANCH  10  11
ATOM     11  C   UNL     1      86.623  29.470  65.315  1.00  0.00     0.163 C 
ATOM     12  O   UNL     1      85.959  28.498  64.861  1.00  0.00    -0.294 OA
BRANCH  11  13
ATOM     13  C   UNL     1      85.930  30.747  65.672  1.00  0.00    -0.002 C 
ATOM     14  C   UNL     1      84.679  31.041  65.204  1.00  0.00    -0.069 C 
ATOM     15  C   UNL     1      84.000  32.351  65.538  1.00  0.00     0.039 C 
ATOM     16  C   UNL     1      83.898  30.057  64.360  1.00  0.00     0.039 C 
BRANCH  13  17
ATOM     17  C   UNL     1      86.644  31.673  66.639  1.00  0.00     0.066 CG0
ATOM     18  G   UNL     1      87.112  32.911  65.911  1.00  0.00     0.000 G0
ENDBRANCH  13  17
ENDBRANCH  11  13
ENDBRANCH  10  11
ENDBRANCH   1  10
TORSDOF 0
ENDMDL
MODEL 2
REMARK VINA RESULT:    -2.888      1.621      4.198
REMARK INTER + INTRA:          -2.013
REMARK INTER:                  -2.482
REMARK INTRA:                   0.469
REMARK UNBOUND:                 2.057
REMARK SMILES CC1=CCC(=C(C)C)C(=O)CC(C)=CCC1
REMARK SMILES IDX 12 1 14 2 13 3 15 4 16 5 2 6 1 7 3 8 11 10 9 11 10 12 5 13
REMARK SMILES IDX 6 14 7 15 8 16 4 17
REMARK H PARENT
REMARK Flexibility Score: 60.00
ROOT
ATOM      1  C   UNL     1      84.248  30.150  64.607  1.00  0.00    -0.070 C 
ATOM      2  C   UNL     1      84.606  28.844  64.616  1.00  0.00    -0.027 C 
ATOM      3  C   UNL     1      82.833  30.487  65.009  1.00  0.00     0.039 C 
ENDROOT
BRANCH   2   4
ATOM      4  C   UNL     1      85.986  28.293  64.354  1.00  0.00     0.032 C 
BRANCH   4   5
ATOM      5  C   UNL     1      86.990  28.657  65.464  1.00  0.00     0.034 C 
BRANCH   5   6
ATOM      6  C   UNL     1      88.290  29.202  64.905  1.00  0.00    -0.077 C 
ATOM      7  C   UNL     1      89.044  28.367  63.901  1.00  0.00     0.039 C 
ATOM      8  C   UNL     1      88.828  30.385  65.275  1.00  0.00    -0.023 CG0
ATOM      9  G   UNL     1      88.245  31.342  66.287  1.00  0.00     0.000 G0
ENDBRANCH   5   6
ENDBRANCH   4   5
ENDBRANCH   2   4
BRANCH   1  10
ATOM     10  C   UNL     1      85.204  31.286  64.282  1.00  0.00     0.111 C 
BRANCH  10  11
ATOM     11  C   UNL     1      85.823  31.865  65.529  1.00  0.00     0.163 C 
ATOM     12  O   UNL     1      85.085  32.021  66.540  1.00  0.00    -0.294 OA
BRANCH  11  13
ATOM     13  C   UNL     1      87.254  32.300  65.576  1.00  0.00    -0.002 C 
ATOM     14  C   UNL     1      87.657  33.504  65.070  1.00  0.00    -0.069 C 
ATOM     15  C   UNL     1      89.112  33.920  65.086  1.00  0.00     0.039 C 
ATOM     16  C   UNL     1      86.666  34.496  64.502  1.00  0.00     0.039 C 
BRANCH  13  17
ATOM     17  C   UNL     1      88.233  31.376  66.278  1.00  0.00     0.066 CG0
ATOM     18  G   UNL     1      88.808  30.391  65.288  1.00  0.00     0.000 G0
ENDBRANCH  13  17
ENDBRANCH  11  13
ENDBRANCH  10  11
ENDBRANCH   1  10
TORSDOF 0
ENDMDL
MODEL 3
REMARK VINA RESULT:    -2.721      2.218      4.079
REMARK INTER + INTRA:          -1.778
REMARK INTER:                  -2.612
REMARK INTRA:                   0.834
REMARK UNBOUND:                 2.057
REMARK SMILES CC1=CCC(=C(C)C)C(=O)CC(C)=CCC1
REMARK SMILES IDX 12 1 14 2 13 3 15 4 16 5 2 6 1 7 3 8 11 10 9 11 10 12 5 13
REMARK SMILES IDX 6 14 7 15 8 16 4 17
REMARK H PARENT
REMARK Flexibility Score: 60.00
ROOT
ATOM      1  C   UNL     1      88.363  32.667  67.299  1.00  0.00    -0.070 C 
ATOM      2  C   UNL     1      89.124  31.646  66.838  1.00  0.00    -0.027 C 
ATOM      3  C   UNL     1      89.046  33.992  67.537  1.00  0.00     0.039 C 
ENDROOT
BRANCH   2   4
ATOM      4  C   UNL     1      88.633  30.277  66.434  1.00  0.00     0.032 C 
BRANCH   4   5
ATOM      5  C   UNL     1      87.998  30.265  65.030  1.00  0.00     0.034 C 
BRANCH   5   6
ATOM      6  C   UNL     1      86.878  29.250  64.917  1.00  0.00    -0.077 C 
ATOM      7  C   UNL     1      87.231  27.785  64.967  1.00  0.00     0.039 C 
ATOM      8  C   UNL     1      85.579  29.581  64.745  1.00  0.00    -0.023 CG0
ATOM      9  G   UNL     1      85.034  30.985  64.634  1.00  0.00     0.000 G0
ENDBRANCH   5   6
ENDBRANCH   4   5
ENDBRANCH   2   4
BRANCH   1  10
ATOM     10  C   UNL     1      86.862  32.570  67.521  1.00  0.00     0.111 C 
BRANCH  10  11
ATOM     11  C   UNL     1      86.103  32.623  66.218  1.00  0.00     0.163 C 
ATOM     12  O   UNL     1      86.426  33.509  65.380  1.00  0.00    -0.294 OA
BRANCH  11  13
ATOM     13  C   UNL     1      84.962  31.700  65.928  1.00  0.00    -0.002 C 
ATOM     14  C   UNL     1      83.910  31.563  66.790  1.00  0.00    -0.069 C 
ATOM     15  C   UNL     1      82.779  30.599  66.507  1.00  0.00     0.039 C 
ATOM     16  C   UNL     1      83.807  32.392  68.051  1.00  0.00     0.039 C 
BRANCH  13  17
ATOM     17  C   UNL     1      84.984  30.975  64.594  1.00  0.00     0.066 CG0
ATOM     18  G   UNL     1      85.587  29.602  64.768  1.00  0.00     0.000 G0
ENDBRANCH  13  17
ENDBRANCH  11  13
ENDBRANCH  10  11
ENDBRANCH   1  10
TORSDOF 0
ENDMDL
MODEL 4
REMARK VINA RESULT:    -2.495      1.960      2.335
REMARK INTER + INTRA:          -1.460
REMARK INTER:                  -2.340
REMARK INTRA:                   0.880
REMARK UNBOUND:                 2.057
REMARK SMILES CC1=CCC(=C(C)C)C(=O)CC(C)=CCC1
REMARK SMILES IDX 12 1 14 2 13 3 15 4 16 5 2 6 1 7 3 8 11 10 9 11 10 12 5 13
REMARK SMILES IDX 6 14 7 15 8 16 4 17
REMARK H PARENT
REMARK Flexibility Score: 60.00
ROOT
ATOM      1  C   UNL     1      87.216  30.034  65.505  1.00  0.00    -0.070 C 
ATOM      2  C   UNL     1      88.178  30.530  64.692  1.00  0.00    -0.027 C 
ATOM      3  C   UNL     1      86.461  28.817  65.026  1.00  0.00     0.039 C 
ENDROOT
BRANCH   2   4
ATOM      4  C   UNL     1      89.120  31.666  65.011  1.00  0.00     0.032 C 
BRANCH   4   5
ATOM      5  C   UNL     1      88.924  32.878  64.081  1.00  0.00     0.034 C 
BRANCH   5   6
ATOM      6  C   UNL     1      88.090  33.967  64.727  1.00  0.00    -0.077 C 
ATOM      7  C   UNL     1      88.797  35.180  65.275  1.00  0.00     0.039 C 
ATOM      8  C   UNL     1      86.748  33.901  64.865  1.00  0.00    -0.023 CG0
ATOM      9  G   UNL     1      85.869  32.758  64.415  1.00  0.00     0.000 G0
ENDBRANCH   5   6
ENDBRANCH   4   5
ENDBRANCH   2   4
BRANCH   1  10
ATOM     10  C   UNL     1      86.907  30.588  66.885  1.00  0.00     0.111 C 
BRANCH  10  11
ATOM     11  C   UNL     1      86.072  31.843  66.806  1.00  0.00     0.163 C 
ATOM     12  O   UNL     1      86.102  32.638  67.784  1.00  0.00    -0.294 OA
BRANCH  11  13
ATOM     13  C   UNL     1      85.184  32.131  65.636  1.00  0.00    -0.002 C 
ATOM     14  C   UNL     1      83.839  31.890  65.677  1.00  0.00    -0.069 C 
ATOM     15  C   UNL     1      82.955  32.149  64.477  1.00  0.00     0.039 C 
ATOM     16  C   UNL     1      83.163  31.387  66.933  1.00  0.00     0.039 C 
BRANCH  13  17
ATOM     17  C   UNL     1      85.830  32.776  64.423  1.00  0.00     0.066 CG0
ATOM     18  G   UNL     1      86.749  33.891  64.863  1.00  0.00     0.000 G0
ENDBRANCH  13  17
ENDBRANCH  11  13
ENDBRANCH  10  11
ENDBRANCH   1  10
TORSDOF 0
ENDMDL
MODEL 5
REMARK VINA RESULT:    -2.144      1.612      3.917
REMARK INTER + INTRA:          -0.965
REMARK INTER:                  -2.947
REMARK INTRA:                   1.982
REMARK UNBOUND:                 2.057
REMARK SMILES CC1=CCC(=C(C)C)C(=O)CC(C)=CCC1
REMARK SMILES IDX 12 1 14 2 13 3 15 4 16 5 2 6 1 7 3 8 11 10 9 11 10 12 5 13
REMARK SMILES IDX 6 14 7 15 8 16 4 17
REMARK H PARENT
REMARK Flexibility Score: 60.00
ROOT
ATOM      1  C   UNL     1      85.084  31.851  66.662  1.00  0.00    -0.070 C 
ATOM      2  C   UNL     1      86.036  32.467  67.403  1.00  0.00    -0.027 C 
ATOM      3  C   UNL     1      83.728  32.509  66.584  1.00  0.00     0.039 C 
ENDROOT
BRANCH   2   4
ATOM      4  C   UNL     1      87.479  32.046  67.534  1.00  0.00     0.032 C 
BRANCH   4   5
ATOM      5  C   UNL     1      88.459  33.119  67.023  1.00  0.00     0.034 C 
BRANCH   5   6
ATOM      6  C   UNL     1      88.307  33.370  65.535  1.00  0.00    -0.077 C 
ATOM      7  C   UNL     1      87.871  34.740  65.081  1.00  0.00     0.039 C 
ATOM      8  C   UNL     1      88.514  32.427  64.590  1.00  0.00    -0.023 CG0
ATOM      9  G   UNL     1      88.919  30.994  64.846  1.00  0.00     0.000 G0
ENDBRANCH   5   6
ENDBRANCH   4   5
ENDBRANCH   2   4
BRANCH   1  10
ATOM     10  C   UNL     1      85.327  30.583  65.860  1.00  0.00     0.111 C 
BRANCH  10  11
ATOM     11  C   UNL     1      86.341  30.804  64.765  1.00  0.00     0.163 C 
ATOM     12  O   UNL     1      86.027  31.567  63.811  1.00  0.00    -0.294 OA
BRANCH  11  13
ATOM     13  C   UNL     1      87.667  30.109  64.760  1.00  0.00    -0.002 C 
ATOM     14  C   UNL     1      87.766  28.750  64.644  1.00  0.00    -0.069 C 
ATOM     15  C   UNL     1      89.107  28.051  64.678  1.00  0.00     0.039 C 
ATOM     16  C   UNL     1      86.544  27.881  64.441  1.00  0.00     0.039 C 
BRANCH  13  17
ATOM     17  C   UNL     1      88.905  30.985  64.814  1.00  0.00     0.066 CG0
ATOM     18  G   UNL     1      88.522  32.428  64.588  1.00  0.00     0.000 G0
ENDBRANCH  13  17
ENDBRANCH  11  13
ENDBRANCH  10  11
ENDBRANCH   1  10
TORSDOF 0
ENDMDL
MODEL 6
REMARK VINA RESULT:    -2.107      2.113      4.438
REMARK INTER + INTRA:          -0.912
REMARK INTER:                  -3.660
REMARK INTRA:                   2.748
REMARK UNBOUND:                 2.057
REMARK SMILES CC1=CCC(=C(C)C)C(=O)CC(C)=CCC1
REMARK SMILES IDX 12 1 14 2 13 3 15 4 16 5 2 6 1 7 3 8 11 10 9 11 10 12 5 13
REMARK SMILES IDX 6 14 7 15 8 16 4 17
REMARK H PARENT
REMARK Flexibility Score: 60.00
ROOT
ATOM      1  C   UNL     1      85.788  33.092  63.788  1.00  0.00    -0.070 C 
ATOM      2  C   UNL     1      84.688  32.573  64.383  1.00  0.00    -0.027 C 
ATOM      3  C   UNL     1      85.696  34.506  63.267  1.00  0.00     0.039 C 
ENDROOT
BRANCH   2   4
ATOM      4  C   UNL     1      84.589  31.230  65.063  1.00  0.00     0.032 C 
BRANCH   4   5
ATOM      5  C   UNL     1      85.775  30.956  66.009  1.00  0.00     0.034 C 
BRANCH   5   6
ATOM      6  C   UNL     1      85.777  31.883  67.208  1.00  0.00    -0.077 C 
ATOM      7  C   UNL     1      84.451  32.311  67.784  1.00  0.00     0.039 C 
ATOM      8  C   UNL     1      86.901  32.371  67.777  1.00  0.00    -0.023 CG0
ATOM      9  G   UNL     1      88.314  32.088  67.325  1.00  0.00     0.000 G0
ENDBRANCH   5   6
ENDBRANCH   4   5
ENDBRANCH   2   4
BRANCH   1  10
ATOM     10  C   UNL     1      87.115  32.360  63.679  1.00  0.00     0.111 C 
BRANCH  10  11
ATOM     11  C   UNL     1      88.025  32.684  64.839  1.00  0.00     0.163 C 
ATOM     12  O   UNL     1      88.526  33.840  64.894  1.00  0.00    -0.294 OA
BRANCH  11  13
ATOM     13  C   UNL     1      88.380  31.665  65.876  1.00  0.00    -0.002 C 
ATOM     14  C   UNL     1      88.788  30.405  65.537  1.00  0.00    -0.069 C 
ATOM     15  C   UNL     1      89.108  29.369  66.592  1.00  0.00     0.039 C 
ATOM     16  C   UNL     1      88.974  29.995  64.092  1.00  0.00     0.039 C 
BRANCH  13  17
ATOM     17  C   UNL     1      88.340  32.115  67.326  1.00  0.00     0.066 CG0
ATOM     18  G   UNL     1      86.909  32.348  67.750  1.00  0.00     0.000 G0
ENDBRANCH  13  17
ENDBRANCH  11  13
ENDBRANCH  10  11
ENDBRANCH   1  10
TORSDOF 0
ENDMDL
MODEL 7
REMARK VINA RESULT:    -1.898      1.721      3.803
REMARK INTER + INTRA:          -0.617
REMARK INTER:                  -3.414
REMARK INTRA:                   2.797
REMARK UNBOUND:                 2.057
REMARK SMILES CC1=CCC(=C(C)C)C(=O)CC(C)=CCC1
REMARK SMILES IDX 12 1 14 2 13 3 15 4 16 5 2 6 1 7 3 8 11 10 9 11 10 12 5 13
REMARK SMILES IDX 6 14 7 15 8 16 4 17
REMARK H PARENT
REMARK Flexibility Score: 60.00
ROOT
ATOM      1  C   UNL     1      88.260  29.382  64.622  1.00  0.00    -0.070 C 
ATOM      2  C   UNL     1      87.078  29.246  65.268  1.00  0.00    -0.027 C 
ATOM      3  C   UNL     1      88.964  28.120  64.185  1.00  0.00     0.039 C 
ENDROOT
BRANCH   2   4
ATOM      4  C   UNL     1      86.160  30.365  65.697  1.00  0.00     0.032 C 
BRANCH   4   5
ATOM      5  C   UNL     1      84.962  30.548  64.746  1.00  0.00     0.034 C 
BRANCH   5   6
ATOM      6  C   UNL     1      84.524  31.996  64.649  1.00  0.00    -0.077 C 
ATOM      7  C   UNL     1      83.128  32.353  65.093  1.00  0.00     0.039 C 
ATOM      8  C   UNL     1      85.305  32.985  64.161  1.00  0.00    -0.023 CG0
ATOM      9  G   UNL     1      86.712  32.822  63.637  1.00  0.00     0.000 G0
ENDBRANCH   5   6
ENDBRANCH   4   5
ENDBRANCH   2   4
BRANCH   1  10
ATOM     10  C   UNL     1      88.876  30.723  64.259  1.00  0.00     0.111 C 
BRANCH  10  11
ATOM     11  C   UNL     1      88.427  31.814  65.200  1.00  0.00     0.163 C 
ATOM     12  O   UNL     1      88.629  31.652  66.435  1.00  0.00    -0.294 OA
BRANCH  11  13
ATOM     13  C   UNL     1      87.713  33.036  64.715  1.00  0.00    -0.002 C 
ATOM     14  C   UNL     1      88.008  34.281  65.197  1.00  0.00    -0.069 C 
ATOM     15  C   UNL     1      87.255  35.507  64.729  1.00  0.00     0.039 C 
ATOM     16  C   UNL     1      89.124  34.499  66.195  1.00  0.00     0.039 C 
BRANCH  13  17
ATOM     17  C   UNL     1      86.695  32.844  63.605  1.00  0.00     0.066 CG0
ATOM     18  G   UNL     1      85.299  33.007  64.157  1.00  0.00     0.000 G0
ENDBRANCH  13  17
ENDBRANCH  11  13
ENDBRANCH  10  11
ENDBRANCH   1  10
TORSDOF 0
ENDMDL
MODEL 8
REMARK VINA RESULT:    -1.833      2.051      3.299
REMARK INTER + INTRA:          -0.527
REMARK INTER:                  -1.699
REMARK INTRA:                   1.172
REMARK UNBOUND:                 2.057
REMARK SMILES CC1=CCC(=C(C)C)C(=O)CC(C)=CCC1
REMARK SMILES IDX 12 1 14 2 13 3 15 4 16 5 2 6 1 7 3 8 11 10 9 11 10 12 5 13
REMARK SMILES IDX 6 14 7 15 8 16 4 17
REMARK H PARENT
REMARK Flexibility Score: 60.00
ROOT
ATOM      1  C   UNL     1      88.465  32.082  66.837  1.00  0.00    -0.070 C 
ATOM      2  C   UNL     1      88.494  33.296  67.437  1.00  0.00    -0.027 C 
ATOM      3  C   UNL     1      87.679  30.988  67.518  1.00  0.00     0.039 C 
ENDROOT
BRANCH   2   4
ATOM      4  C   UNL     1      89.125  34.551  66.885  1.00  0.00     0.032 C 
BRANCH   4   5
ATOM      5  C   UNL     1      88.103  35.475  66.197  1.00  0.00     0.034 C 
BRANCH   5   6
ATOM      6  C   UNL     1      88.079  35.284  64.693  1.00  0.00    -0.077 C 
ATOM      7  C   UNL     1      89.011  36.118  63.851  1.00  0.00     0.039 C 
ATOM      8  C   UNL     1      87.250  34.426  64.059  1.00  0.00    -0.023 CG0
ATOM      9  G   UNL     1      86.226  33.536  64.721  1.00  0.00     0.000 G0
ENDBRANCH   5   6
ENDBRANCH   4   5
ENDBRANCH   2   4
BRANCH   1  10
ATOM     10  C   UNL     1      89.118  31.786  65.497  1.00  0.00     0.111 C 
BRANCH  10  11
ATOM     11  C   UNL     1      88.112  31.807  64.373  1.00  0.00     0.163 C 
ATOM     12  O   UNL     1      88.536  31.646  63.196  1.00  0.00    -0.294 OA
BRANCH  11  13
ATOM     13  C   UNL     1      86.658  32.062  64.614  1.00  0.00    -0.002 C 
ATOM     14  C   UNL     1      85.770  31.040  64.810  1.00  0.00    -0.069 C 
ATOM     15  C   UNL     1      84.295  31.305  65.015  1.00  0.00     0.039 C 
ATOM     16  C   UNL     1      86.224  29.598  64.866  1.00  0.00     0.039 C 
BRANCH  13  17
ATOM     17  C   UNL     1      86.219  33.512  64.708  1.00  0.00     0.066 CG0
ATOM     18  G   UNL     1      87.259  34.404  64.073  1.00  0.00     0.000 G0
ENDBRANCH  13  17
ENDBRANCH  11  13
ENDBRANCH  10  11
ENDBRANCH   1  10
TORSDOF 0
ENDMDL
MODEL 9
REMARK VINA RESULT:    -1.243      1.644      3.122
REMARK INTER + INTRA:           0.305
REMARK INTER:                  -1.425
REMARK INTRA:                   1.730
REMARK UNBOUND:                 2.057
REMARK SMILES CC1=CCC(=C(C)C)C(=O)CC(C)=CCC1
REMARK SMILES IDX 12 1 14 2 13 3 15 4 16 5 2 6 1 7 3 8 11 10 9 11 10 12 5 13
REMARK SMILES IDX 6 14 7 15 8 16 4 17
REMARK H PARENT
REMARK Flexibility Score: 60.00
ROOT
ATOM      1  C   UNL     1      86.194  29.615  64.661  1.00  0.00    -0.070 C 
ATOM      2  C   UNL     1      87.522  29.385  64.531  1.00  0.00    -0.027 C 
ATOM      3  C   UNL     1      85.346  28.498  65.221  1.00  0.00     0.039 C 
ENDROOT
BRANCH   2   4
ATOM      4  C   UNL     1      88.564  30.387  64.097  1.00  0.00     0.032 C 
BRANCH   4   5
ATOM      5  C   UNL     1      88.972  31.348  65.230  1.00  0.00     0.034 C 
BRANCH   5   6
ATOM      6  C   UNL     1      88.603  30.809  66.598  1.00  0.00    -0.077 C 
ATOM      7  C   UNL     1      89.124  29.452  66.998  1.00  0.00     0.039 C 
ATOM      8  C   UNL     1      87.809  31.464  67.474  1.00  0.00    -0.023 CG0
ATOM      9  G   UNL     1      87.165  32.811  67.244  1.00  0.00     0.000 G0
ENDBRANCH   5   6
ENDBRANCH   4   5
ENDBRANCH   2   4
BRANCH   1  10
ATOM     10  C   UNL     1      85.530  30.944  64.340  1.00  0.00     0.111 C 
BRANCH  10  11
ATOM     11  C   UNL     1      85.460  31.837  65.554  1.00  0.00     0.163 C 
ATOM     12  O   UNL     1      84.449  31.743  66.301  1.00  0.00    -0.294 OA
BRANCH  11  13
ATOM     13  C   UNL     1      86.520  32.850  65.854  1.00  0.00    -0.002 C 
ATOM     14  C   UNL     1      86.868  33.817  64.952  1.00  0.00    -0.069 C 
ATOM     15  C   UNL     1      87.967  34.814  65.248  1.00  0.00     0.039 C 
ATOM     16  C   UNL     1      86.149  33.960  63.628  1.00  0.00     0.039 C 
BRANCH  13  17
ATOM     17  C   UNL     1      87.143  32.807  67.238  1.00  0.00     0.066 CG0
ATOM     18  G   UNL     1      87.824  31.476  67.452  1.00  0.00     0.000 G0
ENDBRANCH  13  17
ENDBRANCH  11  13
ENDBRANCH  10  11
ENDBRANCH   1  10
TORSDOF 0
ENDMDL
