MODEL 1
REMARK VINA RESULT:    -4.424      0.000      0.000
REMARK INTER + INTRA:          -8.547
REMARK INTER:                  -7.528
REMARK INTRA:                  -1.019
REMARK UNBOUND:                -1.019
REMARK SMILES CCCCCCCCCCCCCC(=O)[O-]
REMARK SMILES IDX 8 1 9 2 10 3 11 4 12 5 13 6 14 7 15 8 16 9 7 10 6 11 5 12
REMARK SMILES IDX 4 13 3 14 2 15 1 16
REMARK H PARENT
REMARK Flexibility Score: inf
ROOT
ATOM      1  C   UNL     1     -15.787  -2.378  -3.485  1.00  0.00     0.000 C 
ENDROOT
BRANCH   1   2
ATOM      2  C   UNL     1     -17.081  -1.676  -3.055  1.00  0.00     0.000 C 
BRANCH   2   3
ATOM      3  C   UNL     1     -17.025  -1.279  -1.573  1.00  0.00     0.000 C 
BRANCH   3   4
ATOM      4  C   UNL     1     -16.586   0.181  -1.357  1.00  0.00     0.000 C 
BRANCH   4   5
ATOM      5  C   UNL     1     -16.278   0.558   0.103  1.00  0.00     0.006 C 
BRANCH   5   6
ATOM      6  C   UNL     1     -16.624  -0.558   1.095  1.00  0.00     0.053 C 
BRANCH   6   7
ATOM      7  C   UNL     1     -15.793  -0.434   2.333  1.00  0.00     0.041 C 
ATOM      8  O   UNL     1     -16.342  -0.413   3.466  1.00  0.00    -0.550 OA
ATOM      9  O   UNL     1     -14.408  -0.390   2.239  1.00  0.00    -0.550 OA
ENDBRANCH   6   7
ENDBRANCH   5   6
ENDBRANCH   4   5
ENDBRANCH   3   4
ENDBRANCH   2   3
ENDBRANCH   1   2
BRANCH   1  10
ATOM     10  C   UNL     1     -15.750  -3.825  -2.971  1.00  0.00     0.000 C 
BRANCH  10  11
ATOM     11  C   UNL     1     -14.377  -4.224  -2.401  1.00  0.00    -0.000 C 
BRANCH  11  12
ATOM     12  C   UNL     1     -13.528  -5.125  -3.319  1.00  0.00    -0.000 C 
BRANCH  12  13
ATOM     13  C   UNL     1     -12.777  -4.387  -4.446  1.00  0.00    -0.000 C 
BRANCH  13  14
ATOM     14  C   UNL     1     -13.066  -4.905  -5.869  1.00  0.00    -0.000 C 
BRANCH  14  15
ATOM     15  C   UNL     1     -14.557  -5.108  -6.192  1.00  0.00    -0.003 C 
ATOM     16  C   UNL     1     -15.207  -3.870  -6.809  1.00  0.00     0.004 C 
ENDBRANCH  14  15
ENDBRANCH  13  14
ENDBRANCH  12  13
ENDBRANCH  11  12
ENDBRANCH  10  11
ENDBRANCH   1  10
TORSDOF 12
ENDMDL
MODEL 2
REMARK VINA RESULT:    -4.346      0.945      2.214
REMARK INTER + INTRA:          -8.415
REMARK INTER:                  -7.288
REMARK INTRA:                  -1.127
REMARK UNBOUND:                -1.019
REMARK SMILES CCCCCCCCCCCCCC(=O)[O-]
REMARK SMILES IDX 8 1 9 2 10 3 11 4 12 5 13 6 14 7 15 8 16 9 7 10 6 11 5 12
REMARK SMILES IDX 4 13 3 14 2 15 1 16
REMARK H PARENT
REMARK Flexibility Score: inf
ROOT
ATOM      1  C   UNL     1     -17.018  -3.255  -2.938  1.00  0.00     0.000 C 
ENDROOT
BRANCH   1   2
ATOM      2  C   UNL     1     -16.453  -1.908  -3.403  1.00  0.00     0.000 C 
BRANCH   2   3
ATOM      3  C   UNL     1     -16.865  -0.779  -2.446  1.00  0.00     0.000 C 
BRANCH   3   4
ATOM      4  C   UNL     1     -16.891  -1.221  -0.971  1.00  0.00     0.000 C 
BRANCH   4   5
ATOM      5  C   UNL     1     -16.288  -0.210   0.020  1.00  0.00     0.006 C 
BRANCH   5   6
ATOM      6  C   UNL     1     -16.975  -0.232   1.391  1.00  0.00     0.053 C 
BRANCH   6   7
ATOM      7  C   UNL     1     -15.975  -0.498   2.473  1.00  0.00     0.041 C 
ATOM      8  O   UNL     1     -16.358  -0.887   3.608  1.00  0.00    -0.550 OA
ATOM      9  O   UNL     1     -14.618  -0.363   2.213  1.00  0.00    -0.550 OA
ENDBRANCH   6   7
ENDBRANCH   5   6
ENDBRANCH   4   5
ENDBRANCH   3   4
ENDBRANCH   2   3
ENDBRANCH   1   2
BRANCH   1  10
ATOM     10  C   UNL     1     -16.926  -4.306  -4.055  1.00  0.00     0.000 C 
BRANCH  10  11
ATOM     11  C   UNL     1     -16.101  -3.825  -5.262  1.00  0.00    -0.000 C 
BRANCH  11  12
ATOM     12  C   UNL     1     -15.209  -4.903  -5.911  1.00  0.00    -0.000 C 
BRANCH  12  13
ATOM     13  C   UNL     1     -13.742  -4.911  -5.434  1.00  0.00    -0.000 C 
BRANCH  13  14
ATOM     14  C   UNL     1     -13.461  -4.065  -4.176  1.00  0.00    -0.000 C 
BRANCH  14  15
ATOM     15  C   UNL     1     -13.038  -4.871  -2.936  1.00  0.00    -0.003 C 
ATOM     16  C   UNL     1     -13.900  -4.577  -1.710  1.00  0.00     0.004 C 
ENDBRANCH  14  15
ENDBRANCH  13  14
ENDBRANCH  12  13
ENDBRANCH  11  12
ENDBRANCH  10  11
ENDBRANCH   1  10
TORSDOF 12
ENDMDL
MODEL 3
REMARK VINA RESULT:    -3.687      1.216      1.870
REMARK INTER + INTRA:          -7.294
REMARK INTER:                  -6.541
REMARK INTRA:                  -0.753
REMARK UNBOUND:                -1.019
REMARK SMILES CCCCCCCCCCCCCC(=O)[O-]
REMARK SMILES IDX 8 1 9 2 10 3 11 4 12 5 13 6 14 7 15 8 16 9 7 10 6 11 5 12
REMARK SMILES IDX 4 13 3 14 2 15 1 16
REMARK H PARENT
REMARK Flexibility Score: inf
ROOT
ATOM      1  C   UNL     1     -16.915  -1.921  -2.009  1.00  0.00     0.000 C 
ENDROOT
BRANCH   1   2
ATOM      2  C   UNL     1     -16.940  -0.450  -2.439  1.00  0.00     0.000 C 
BRANCH   2   3
ATOM      3  C   UNL     1     -17.125   0.474  -1.226  1.00  0.00     0.000 C 
BRANCH   3   4
ATOM      4  C   UNL     1     -16.878  -0.240   0.117  1.00  0.00     0.000 C 
BRANCH   4   5
ATOM      5  C   UNL     1     -15.506   0.038   0.757  1.00  0.00     0.006 C 
BRANCH   5   6
ATOM      6  C   UNL     1     -15.315  -0.679   2.099  1.00  0.00     0.053 C 
BRANCH   6   7
ATOM      7  C   UNL     1     -16.418  -0.320   3.045  1.00  0.00     0.041 C 
ATOM      8  O   UNL     1     -16.767   0.882   3.185  1.00  0.00    -0.550 OA
ATOM      9  O   UNL     1     -17.093  -1.317   3.736  1.00  0.00    -0.550 OA
ENDBRANCH   6   7
ENDBRANCH   5   6
ENDBRANCH   4   5
ENDBRANCH   3   4
ENDBRANCH   2   3
ENDBRANCH   1   2
BRANCH   1  10
ATOM     10  C   UNL     1     -16.968  -2.852  -3.230  1.00  0.00     0.000 C 
BRANCH  10  11
ATOM     11  C   UNL     1     -17.107  -4.336  -2.847  1.00  0.00    -0.000 C 
BRANCH  11  12
ATOM     12  C   UNL     1     -15.776  -5.105  -2.729  1.00  0.00    -0.000 C 
BRANCH  12  13
ATOM     13  C   UNL     1     -14.511  -4.224  -2.720  1.00  0.00    -0.000 C 
BRANCH  13  14
ATOM     14  C   UNL     1     -13.638  -4.324  -3.988  1.00  0.00    -0.000 C 
BRANCH  14  15
ATOM     15  C   UNL     1     -14.395  -4.735  -5.262  1.00  0.00    -0.003 C 
ATOM     16  C   UNL     1     -14.801  -3.542  -6.126  1.00  0.00     0.004 C 
ENDBRANCH  14  15
ENDBRANCH  13  14
ENDBRANCH  12  13
ENDBRANCH  11  12
ENDBRANCH  10  11
ENDBRANCH   1  10
TORSDOF 12
ENDMDL
MODEL 4
REMARK VINA RESULT:    -3.149      3.576      7.807
REMARK INTER + INTRA:          -6.377
REMARK INTER:                  -5.769
REMARK INTRA:                  -0.608
REMARK UNBOUND:                -1.019
REMARK SMILES CCCCCCCCCCCCCC(=O)[O-]
REMARK SMILES IDX 8 1 9 2 10 3 11 4 12 5 13 6 14 7 15 8 16 9 7 10 6 11 5 12
REMARK SMILES IDX 4 13 3 14 2 15 1 16
REMARK H PARENT
REMARK Flexibility Score: inf
ROOT
ATOM      1  C   UNL     1     -15.938  -2.381  -3.029  1.00  0.00     0.000 C 
ENDROOT
BRANCH   1   2
ATOM      2  C   UNL     1     -15.847  -3.752  -2.350  1.00  0.00     0.000 C 
BRANCH   2   3
ATOM      3  C   UNL     1     -14.390  -4.230  -2.268  1.00  0.00     0.000 C 
BRANCH   3   4
ATOM      4  C   UNL     1     -13.982  -5.121  -3.457  1.00  0.00     0.000 C 
BRANCH   4   5
ATOM      5  C   UNL     1     -13.277  -4.383  -4.609  1.00  0.00     0.006 C 
BRANCH   5   6
ATOM      6  C   UNL     1     -13.650  -4.935  -5.990  1.00  0.00     0.053 C 
BRANCH   6   7
ATOM      7  C   UNL     1     -14.841  -4.213  -6.537  1.00  0.00     0.041 C 
ATOM      8  O   UNL     1     -15.074  -3.023  -6.196  1.00  0.00    -0.550 OA
ATOM      9  O   UNL     1     -15.669  -4.837  -7.461  1.00  0.00    -0.550 OA
ENDBRANCH   6   7
ENDBRANCH   5   6
ENDBRANCH   4   5
ENDBRANCH   3   4
ENDBRANCH   2   3
ENDBRANCH   1   2
BRANCH   1  10
ATOM     10  C   UNL     1     -17.124  -1.573  -2.480  1.00  0.00     0.000 C 
BRANCH  10  11
ATOM     11  C   UNL     1     -16.868  -0.055  -2.487  1.00  0.00    -0.000 C 
BRANCH  11  12
ATOM     12  C   UNL     1     -17.125   0.654  -1.142  1.00  0.00    -0.000 C 
BRANCH  12  13
ATOM     13  C   UNL     1     -16.432   0.013   0.077  1.00  0.00    -0.000 C 
BRANCH  13  14
ATOM     14  C   UNL     1     -17.101   0.306   1.436  1.00  0.00    -0.000 C 
BRANCH  14  15
ATOM     15  C   UNL     1     -16.602  -0.564   2.603  1.00  0.00    -0.003 C 
ATOM     16  C   UNL     1     -16.984  -0.002   3.971  1.00  0.00     0.004 C 
ENDBRANCH  14  15
ENDBRANCH  13  14
ENDBRANCH  12  13
ENDBRANCH  11  12
ENDBRANCH  10  11
ENDBRANCH   1  10
TORSDOF 12
ENDMDL
MODEL 5
REMARK VINA RESULT:    -2.819      3.138      7.330
REMARK INTER + INTRA:          -5.816
REMARK INTER:                  -5.039
REMARK INTRA:                  -0.777
REMARK UNBOUND:                -1.019
REMARK SMILES CCCCCCCCCCCCCC(=O)[O-]
REMARK SMILES IDX 8 1 9 2 10 3 11 4 12 5 13 6 14 7 15 8 16 9 7 10 6 11 5 12
REMARK SMILES IDX 4 13 3 14 2 15 1 16
REMARK H PARENT
REMARK Flexibility Score: inf
ROOT
ATOM      1  C   UNL     1     -16.226  -2.492  -2.735  1.00  0.00     0.000 C 
ENDROOT
BRANCH   1   2
ATOM      2  C   UNL     1     -17.064  -3.739  -2.432  1.00  0.00     0.000 C 
BRANCH   2   3
ATOM      3  C   UNL     1     -16.616  -4.926  -3.297  1.00  0.00     0.000 C 
BRANCH   3   4
ATOM      4  C   UNL     1     -16.761  -4.658  -4.807  1.00  0.00     0.000 C 
BRANCH   4   5
ATOM      5  C   UNL     1     -15.573  -5.125  -5.667  1.00  0.00     0.006 C 
BRANCH   5   6
ATOM      6  C   UNL     1     -14.440  -4.093  -5.734  1.00  0.00     0.053 C 
BRANCH   6   7
ATOM      7  C   UNL     1     -13.263  -4.556  -4.935  1.00  0.00     0.041 C 
ATOM      8  O   UNL     1     -12.151  -4.743  -5.496  1.00  0.00    -0.550 OA
ATOM      9  O   UNL     1     -13.381  -4.735  -3.563  1.00  0.00    -0.550 OA
ENDBRANCH   6   7
ENDBRANCH   5   6
ENDBRANCH   4   5
ENDBRANCH   3   4
ENDBRANCH   2   3
ENDBRANCH   1   2
BRANCH   1  10
ATOM     10  C   UNL     1     -17.091  -1.385  -3.356  1.00  0.00     0.000 C 
BRANCH  10  11
ATOM     11  C   UNL     1     -17.124  -0.102  -2.506  1.00  0.00    -0.000 C 
BRANCH  11  12
ATOM     12  C   UNL     1     -17.096  -0.331  -0.981  1.00  0.00    -0.000 C 
BRANCH  12  13
ATOM     13  C   UNL     1     -16.067   0.522  -0.212  1.00  0.00    -0.000 C 
BRANCH  13  14
ATOM     14  C   UNL     1     -16.338   0.663   1.300  1.00  0.00    -0.000 C 
BRANCH  14  15
ATOM     15  C   UNL     1     -16.132  -0.625   2.116  1.00  0.00    -0.003 C 
ATOM     16  C   UNL     1     -17.124  -0.765   3.269  1.00  0.00     0.004 C 
ENDBRANCH  14  15
ENDBRANCH  13  14
ENDBRANCH  12  13
ENDBRANCH  11  12
ENDBRANCH  10  11
ENDBRANCH   1  10
TORSDOF 12
ENDMDL
MODEL 6
REMARK VINA RESULT:    -2.471      1.162      2.016
REMARK INTER + INTRA:          -5.225
REMARK INTER:                  -4.934
REMARK INTRA:                  -0.291
REMARK UNBOUND:                -1.019
REMARK SMILES CCCCCCCCCCCCCC(=O)[O-]
REMARK SMILES IDX 8 1 9 2 10 3 11 4 12 5 13 6 14 7 15 8 16 9 7 10 6 11 5 12
REMARK SMILES IDX 4 13 3 14 2 15 1 16
REMARK H PARENT
REMARK Flexibility Score: inf
ROOT
ATOM      1  C   UNL     1     -15.974  -1.677  -3.357  1.00  0.00     0.000 C 
ENDROOT
BRANCH   1   2
ATOM      2  C   UNL     1     -17.110  -0.856  -2.734  1.00  0.00     0.000 C 
BRANCH   2   3
ATOM      3  C   UNL     1     -16.595   0.501  -2.232  1.00  0.00     0.000 C 
BRANCH   3   4
ATOM      4  C   UNL     1     -16.725   0.666  -0.706  1.00  0.00     0.000 C 
BRANCH   4   5
ATOM      5  C   UNL     1     -17.026  -0.633   0.064  1.00  0.00     0.006 C 
BRANCH   5   6
ATOM      6  C   UNL     1     -17.125  -0.421   1.579  1.00  0.00     0.053 C 
BRANCH   6   7
ATOM      7  C   UNL     1     -15.822  -0.748   2.239  1.00  0.00     0.041 C 
ATOM      8  O   UNL     1     -15.799  -1.450   3.285  1.00  0.00    -0.550 OA
ATOM      9  O   UNL     1     -14.629  -0.318   1.673  1.00  0.00    -0.550 OA
ENDBRANCH   6   7
ENDBRANCH   5   6
ENDBRANCH   4   5
ENDBRANCH   3   4
ENDBRANCH   2   3
ENDBRANCH   1   2
BRANCH   1  10
ATOM     10  C   UNL     1     -16.419  -2.312  -4.684  1.00  0.00     0.000 C 
BRANCH  10  11
ATOM     11  C   UNL     1     -17.125  -3.666  -4.492  1.00  0.00    -0.000 C 
BRANCH  11  12
ATOM     12  C   UNL     1     -16.586  -4.522  -3.328  1.00  0.00    -0.000 C 
BRANCH  12  13
ATOM     13  C   UNL     1     -15.185  -5.125  -3.555  1.00  0.00    -0.000 C 
BRANCH  13  14
ATOM     14  C   UNL     1     -14.506  -4.717  -4.878  1.00  0.00    -0.000 C 
BRANCH  14  15
ATOM     15  C   UNL     1     -13.026  -4.319  -4.749  1.00  0.00    -0.003 C 
ATOM     16  C   UNL     1     -12.125  -5.037  -5.753  1.00  0.00     0.004 C 
ENDBRANCH  14  15
ENDBRANCH  13  14
ENDBRANCH  12  13
ENDBRANCH  11  12
ENDBRANCH  10  11
ENDBRANCH   1  10
TORSDOF 12
ENDMDL
