MODEL 1
REMARK VINA RESULT:    -3.749      0.000      0.000
REMARK INTER + INTRA:          -4.508
REMARK INTER:                  -4.406
REMARK INTRA:                  -0.102
REMARK UNBOUND:                -0.102
REMARK SMILES O=C([O-])CCC(=O)[O-]
REMARK SMILES IDX 4 1 2 2 1 3 3 4 5 5 6 6 7 7 8 8
REMARK H PARENT
REMARK Flexibility Score: inf
ROOT
ATOM      1  C   UNL     1     -30.976 -22.164 -22.659  1.00  0.00     0.059 C 
ENDROOT
BRANCH   1   2
ATOM      2  C   UNL     1     -29.698 -21.746 -21.999  1.00  0.00     0.042 C 
ATOM      3  O   UNL     1     -28.597 -21.918 -22.586  1.00  0.00    -0.550 OA
ATOM      4  O   UNL     1     -29.719 -21.203 -20.721  1.00  0.00    -0.550 OA
ENDBRANCH   1   2
BRANCH   1   5
ATOM      5  C   UNL     1     -31.676 -20.982 -23.337  1.00  0.00     0.059 C 
BRANCH   5   6
ATOM      6  C   UNL     1     -31.312 -20.883 -24.786  1.00  0.00     0.042 C 
ATOM      7  O   UNL     1     -31.575 -21.830 -25.573  1.00  0.00    -0.550 OA
ATOM      8  O   UNL     1     -30.644 -19.760 -25.261  1.00  0.00    -0.550 OA
ENDBRANCH   5   6
ENDBRANCH   1   5
TORSDOF 3
ENDMDL
MODEL 2
REMARK VINA RESULT:    -3.709      1.814      2.202
REMARK INTER + INTRA:          -4.461
REMARK INTER:                  -4.352
REMARK INTRA:                  -0.110
REMARK UNBOUND:                -0.102
REMARK SMILES O=C([O-])CCC(=O)[O-]
REMARK SMILES IDX 4 1 2 2 1 3 3 4 5 5 6 6 7 7 8 8
REMARK H PARENT
REMARK Flexibility Score: inf
ROOT
ATOM      1  C   UNL     1     -30.575 -22.799 -21.877  1.00  0.00     0.059 C 
ENDROOT
BRANCH   1   2
ATOM      2  C   UNL     1     -29.106 -22.639 -21.636  1.00  0.00     0.042 C 
ATOM      3  O   UNL     1     -28.579 -23.117 -20.597  1.00  0.00    -0.550 OA
ATOM      4  O   UNL     1     -28.325 -21.926 -22.538  1.00  0.00    -0.550 OA
ENDBRANCH   1   2
BRANCH   1   5
ATOM      5  C   UNL     1     -31.354 -21.543 -21.474  1.00  0.00     0.059 C 
BRANCH   5   6
ATOM      6  C   UNL     1     -31.995 -20.886 -22.658  1.00  0.00     0.042 C 
ATOM      7  O   UNL     1     -31.684 -21.241 -23.826  1.00  0.00    -0.550 OA
ATOM      8  O   UNL     1     -32.905 -19.852 -22.473  1.00  0.00    -0.550 OA
ENDBRANCH   5   6
ENDBRANCH   1   5
TORSDOF 3
ENDMDL
MODEL 3
REMARK VINA RESULT:    -3.697      1.790      3.821
REMARK INTER + INTRA:          -4.447
REMARK INTER:                  -4.331
REMARK INTRA:                  -0.116
REMARK UNBOUND:                -0.102
REMARK SMILES O=C([O-])CCC(=O)[O-]
REMARK SMILES IDX 4 1 2 2 1 3 3 4 5 5 6 6 7 7 8 8
REMARK H PARENT
REMARK Flexibility Score: inf
ROOT
ATOM      1  C   UNL     1     -31.369 -21.508 -21.499  1.00  0.00     0.059 C 
ENDROOT
BRANCH   1   2
ATOM      2  C   UNL     1     -31.989 -20.865 -22.702  1.00  0.00     0.042 C 
ATOM      3  O   UNL     1     -31.678 -21.256 -23.859  1.00  0.00    -0.550 OA
ATOM      4  O   UNL     1     -32.877 -19.809 -22.548  1.00  0.00    -0.550 OA
ENDBRANCH   1   2
BRANCH   1   5
ATOM      5  C   UNL     1     -30.592 -22.774 -21.872  1.00  0.00     0.059 C 
BRANCH   5   6
ATOM      6  C   UNL     1     -29.119 -22.600 -21.663  1.00  0.00     0.042 C 
ATOM      7  O   UNL     1     -28.420 -22.011 -22.529  1.00  0.00    -0.550 OA
ATOM      8  O   UNL     1     -28.510 -23.125 -20.529  1.00  0.00    -0.550 OA
ENDBRANCH   5   6
ENDBRANCH   1   5
TORSDOF 3
ENDMDL
MODEL 4
REMARK VINA RESULT:    -3.673      1.371      1.990
REMARK INTER + INTRA:          -4.419
REMARK INTER:                  -4.379
REMARK INTRA:                  -0.040
REMARK UNBOUND:                -0.102
REMARK SMILES O=C([O-])CCC(=O)[O-]
REMARK SMILES IDX 4 1 2 2 1 3 3 4 5 5 6 6 7 7 8 8
REMARK H PARENT
REMARK Flexibility Score: inf
ROOT
ATOM      1  C   UNL     1     -31.410 -21.222 -23.900  1.00  0.00     0.059 C 
ENDROOT
BRANCH   1   2
ATOM      2  C   UNL     1     -30.790 -21.634 -22.600  1.00  0.00     0.042 C 
ATOM      3  O   UNL     1     -29.577 -21.972 -22.556  1.00  0.00    -0.550 OA
ATOM      4  O   UNL     1     -31.560 -21.683 -21.445  1.00  0.00    -0.550 OA
ENDBRANCH   1   2
BRANCH   1   5
ATOM      5  C   UNL     1     -30.350 -20.974 -24.978  1.00  0.00     0.059 C 
BRANCH   5   6
ATOM      6  C   UNL     1     -30.916 -21.132 -26.356  1.00  0.00     0.042 C 
ATOM      7  O   UNL     1     -31.000 -20.139 -27.125  1.00  0.00    -0.550 OA
ATOM      8  O   UNL     1     -31.390 -22.369 -26.776  1.00  0.00    -0.550 OA
ENDBRANCH   5   6
ENDBRANCH   1   5
TORSDOF 3
ENDMDL
MODEL 5
REMARK VINA RESULT:    -3.670      1.776      3.970
REMARK INTER + INTRA:          -4.415
REMARK INTER:                  -4.297
REMARK INTRA:                  -0.119
REMARK UNBOUND:                -0.102
REMARK SMILES O=C([O-])CCC(=O)[O-]
REMARK SMILES IDX 4 1 2 2 1 3 3 4 5 5 6 6 7 7 8 8
REMARK H PARENT
REMARK Flexibility Score: inf
ROOT
ATOM      1  C   UNL     1     -31.367 -21.496 -21.491  1.00  0.00     0.059 C 
ENDROOT
BRANCH   1   2
ATOM      2  C   UNL     1     -31.975 -20.852 -22.699  1.00  0.00     0.042 C 
ATOM      3  O   UNL     1     -32.875 -19.980 -22.567  1.00  0.00    -0.550 OA
ATOM      4  O   UNL     1     -31.578 -21.244 -23.972  1.00  0.00    -0.550 OA
ENDBRANCH   1   2
BRANCH   1   5
ATOM      5  C   UNL     1     -30.593 -22.766 -21.857  1.00  0.00     0.059 C 
BRANCH   5   6
ATOM      6  C   UNL     1     -29.119 -22.591 -21.657  1.00  0.00     0.042 C 
ATOM      7  O   UNL     1     -28.427 -21.996 -22.525  1.00  0.00    -0.550 OA
ATOM      8  O   UNL     1     -28.501 -23.124 -20.532  1.00  0.00    -0.550 OA
ENDBRANCH   5   6
ENDBRANCH   1   5
TORSDOF 3
ENDMDL
MODEL 6
REMARK VINA RESULT:    -3.669      1.312      4.108
REMARK INTER + INTRA:          -4.414
REMARK INTER:                  -4.378
REMARK INTRA:                  -0.035
REMARK UNBOUND:                -0.102
REMARK SMILES O=C([O-])CCC(=O)[O-]
REMARK SMILES IDX 4 1 2 2 1 3 3 4 5 5 6 6 7 7 8 8
REMARK H PARENT
REMARK Flexibility Score: inf
ROOT
ATOM      1  C   UNL     1     -30.391 -20.926 -24.947  1.00  0.00     0.059 C 
ENDROOT
BRANCH   1   2
ATOM      2  C   UNL     1     -30.924 -21.121 -26.333  1.00  0.00     0.042 C 
ATOM      3  O   UNL     1     -31.000 -20.145 -27.125  1.00  0.00    -0.550 OA
ATOM      4  O   UNL     1     -31.375 -22.372 -26.736  1.00  0.00    -0.550 OA
ENDBRANCH   1   2
BRANCH   1   5
ATOM      5  C   UNL     1     -31.376 -21.427 -23.886  1.00  0.00     0.059 C 
BRANCH   5   6
ATOM      6  C   UNL     1     -30.703 -21.643 -22.565  1.00  0.00     0.042 C 
ATOM      7  O   UNL     1     -31.346 -21.489 -21.493  1.00  0.00    -0.550 OA
ATOM      8  O   UNL     1     -29.354 -21.973 -22.517  1.00  0.00    -0.550 OA
ENDBRANCH   5   6
ENDBRANCH   1   5
TORSDOF 3
ENDMDL
MODEL 7
REMARK VINA RESULT:    -3.618      1.604      2.067
REMARK INTER + INTRA:          -4.355
REMARK INTER:                  -4.270
REMARK INTRA:                  -0.085
REMARK UNBOUND:                -0.102
REMARK SMILES O=C([O-])CCC(=O)[O-]
REMARK SMILES IDX 4 1 2 2 1 3 3 4 5 5 6 6 7 7 8 8
REMARK H PARENT
REMARK Flexibility Score: inf
ROOT
ATOM      1  C   UNL     1     -29.522 -21.975 -22.212  1.00  0.00     0.059 C 
ENDROOT
BRANCH   1   2
ATOM      2  C   UNL     1     -29.236 -21.904 -20.743  1.00  0.00     0.042 C 
ATOM      3  O   UNL     1     -28.890 -22.939 -20.115  1.00  0.00    -0.550 OA
ATOM      4  O   UNL     1     -29.390 -20.703 -20.061  1.00  0.00    -0.550 OA
ENDBRANCH   1   2
BRANCH   1   5
ATOM      5  C   UNL     1     -30.997 -22.284 -22.486  1.00  0.00     0.059 C 
BRANCH   5   6
ATOM      6  C   UNL     1     -31.723 -21.086 -23.019  1.00  0.00     0.042 C 
ATOM      7  O   UNL     1     -32.587 -20.503 -22.313  1.00  0.00    -0.550 OA
ATOM      8  O   UNL     1     -31.474 -20.639 -24.311  1.00  0.00    -0.550 OA
ENDBRANCH   5   6
ENDBRANCH   1   5
TORSDOF 3
ENDMDL
MODEL 8
REMARK VINA RESULT:    -3.358      3.043      5.848
REMARK INTER + INTRA:          -4.049
REMARK INTER:                  -4.022
REMARK INTRA:                  -0.027
REMARK UNBOUND:                -0.102
REMARK SMILES O=C([O-])CCC(=O)[O-]
REMARK SMILES IDX 4 1 2 2 1 3 3 4 5 5 6 6 7 7 8 8
REMARK H PARENT
REMARK Flexibility Score: inf
ROOT
ATOM      1  C   UNL     1     -29.350 -21.971 -20.087  1.00  0.00     0.059 C 
ENDROOT
BRANCH   1   2
ATOM      2  C   UNL     1     -29.501 -22.382 -21.520  1.00  0.00     0.042 C 
ATOM      3  O   UNL     1     -30.470 -23.106 -21.872  1.00  0.00    -0.550 OA
ATOM      4  O   UNL     1     -28.551 -22.000 -22.459  1.00  0.00    -0.550 OA
ENDBRANCH   1   2
BRANCH   1   5
ATOM      5  C   UNL     1     -28.753 -23.097 -19.237  1.00  0.00     0.059 C 
BRANCH   5   6
ATOM      6  C   UNL     1     -28.333 -22.605 -17.886  1.00  0.00     0.042 C 
ATOM      7  O   UNL     1     -27.227 -22.020 -17.739  1.00  0.00    -0.550 OA
ATOM      8  O   UNL     1     -29.144 -22.829 -16.780  1.00  0.00    -0.550 OA
ENDBRANCH   5   6
ENDBRANCH   1   5
TORSDOF 3
ENDMDL
MODEL 9
REMARK VINA RESULT:    -3.110      1.797      2.827
REMARK INTER + INTRA:          -3.757
REMARK INTER:                  -3.671
REMARK INTRA:                  -0.085
REMARK UNBOUND:                -0.102
REMARK SMILES O=C([O-])CCC(=O)[O-]
REMARK SMILES IDX 4 1 2 2 1 3 3 4 5 5 6 6 7 7 8 8
REMARK H PARENT
REMARK Flexibility Score: inf
ROOT
ATOM      1  C   UNL     1     -28.838 -23.006 -20.990  1.00  0.00     0.059 C 
ENDROOT
BRANCH   1   2
ATOM      2  C   UNL     1     -28.878 -22.185 -19.738  1.00  0.00     0.042 C 
ATOM      3  O   UNL     1     -28.639 -22.720 -18.623  1.00  0.00    -0.550 OA
ATOM      4  O   UNL     1     -29.220 -20.840 -19.797  1.00  0.00    -0.550 OA
ENDBRANCH   1   2
BRANCH   1   5
ATOM      5  C   UNL     1     -30.000 -22.664 -21.927  1.00  0.00     0.059 C 
BRANCH   5   6
ATOM      6  C   UNL     1     -29.552 -21.813 -23.076  1.00  0.00     0.042 C 
ATOM      7  O   UNL     1     -30.398 -21.316 -23.865  1.00  0.00    -0.550 OA
ATOM      8  O   UNL     1     -28.196 -21.603 -23.299  1.00  0.00    -0.550 OA
ENDBRANCH   5   6
ENDBRANCH   1   5
TORSDOF 3
ENDMDL
