MODEL 1
REMARK VINA RESULT:    -4.780      0.000      0.000
REMARK INTER + INTRA:          -7.585
REMARK INTER:                  -7.015
REMARK INTRA:                  -0.569
REMARK UNBOUND:                -0.569
REMARK SMILES O=C([O-])CCCCCCCC(=O)[O-]
REMARK SMILES IDX 7 1 6 2 5 3 4 4 2 5 1 6 3 7 8 8 9 9 10 10 11 11 12 12 13 13
REMARK H PARENT
REMARK Flexibility Score: inf
ROOT
ATOM      1  C   UNL     1      22.300   0.989 -15.403  1.00  0.00     0.000 C 
ENDROOT
BRANCH   1   2
ATOM      2  C   UNL     1      21.375  -0.208 -15.147  1.00  0.00     0.000 C 
BRANCH   2   3
ATOM      3  C   UNL     1      21.299  -1.117 -16.379  1.00  0.00     0.006 C 
BRANCH   3   4
ATOM      4  C   UNL     1      19.857  -1.556 -16.649  1.00  0.00     0.053 C 
BRANCH   4   5
ATOM      5  C   UNL     1      19.755  -2.228 -17.981  1.00  0.00     0.041 C 
ATOM      6  O   UNL     1      19.506  -3.461 -18.052  1.00  0.00    -0.550 OA
ATOM      7  O   UNL     1      19.982  -1.505 -19.145  1.00  0.00    -0.550 OA
ENDBRANCH   4   5
ENDBRANCH   3   4
ENDBRANCH   2   3
ENDBRANCH   1   2
BRANCH   1   8
ATOM      8  C   UNL     1      21.503   2.298 -15.463  1.00  0.00     0.000 C 
BRANCH   8   9
ATOM      9  C   UNL     1      20.181   2.174 -14.691  1.00  0.00     0.006 C 
BRANCH   9  10
ATOM     10  C   UNL     1      18.994   2.751 -15.474  1.00  0.00     0.053 C 
BRANCH  10  11
ATOM     11  C   UNL     1      17.866   1.770 -15.577  1.00  0.00     0.041 C 
ATOM     12  O   UNL     1      17.878   0.716 -14.887  1.00  0.00    -0.550 OA
ATOM     13  O   UNL     1      16.786   2.035 -16.409  1.00  0.00    -0.550 OA
ENDBRANCH  10  11
ENDBRANCH   9  10
ENDBRANCH   8   9
ENDBRANCH   1   8
TORSDOF 8
ENDMDL
MODEL 2
REMARK VINA RESULT:    -4.737      1.340      4.442
REMARK INTER + INTRA:          -7.522
REMARK INTER:                  -6.975
REMARK INTRA:                  -0.547
REMARK UNBOUND:                -0.569
REMARK SMILES O=C([O-])CCCCCCCC(=O)[O-]
REMARK SMILES IDX 7 1 6 2 5 3 4 4 2 5 1 6 3 7 8 8 9 9 10 10 11 11 12 12 13 13
REMARK H PARENT
REMARK Flexibility Score: inf
ROOT
ATOM      1  C   UNL     1      21.028   1.821 -16.942  1.00  0.00     0.000 C 
ENDROOT
BRANCH   1   2
ATOM      2  C   UNL     1      21.153   1.213 -15.540  1.00  0.00     0.000 C 
BRANCH   2   3
ATOM      3  C   UNL     1      20.029   1.706 -14.623  1.00  0.00     0.006 C 
BRANCH   3   4
ATOM      4  C   UNL     1      18.999   2.524 -15.408  1.00  0.00     0.053 C 
BRANCH   4   5
ATOM      5  C   UNL     1      17.787   1.697 -15.701  1.00  0.00     0.041 C 
ATOM      6  O   UNL     1      17.471   0.745 -14.939  1.00  0.00    -0.550 OA
ATOM      7  O   UNL     1      17.034   1.945 -16.841  1.00  0.00    -0.550 OA
ENDBRANCH   4   5
ENDBRANCH   3   4
ENDBRANCH   2   3
ENDBRANCH   1   2
BRANCH   1   8
ATOM      8  C   UNL     1      21.269   0.763 -18.026  1.00  0.00     0.000 C 
BRANCH   8   9
ATOM      9  C   UNL     1      19.963   0.042 -18.392  1.00  0.00     0.006 C 
BRANCH   9  10
ATOM     10  C   UNL     1      20.194  -1.429 -18.758  1.00  0.00     0.053 C 
BRANCH  10  11
ATOM     11  C   UNL     1      19.774  -2.350 -17.653  1.00  0.00     0.041 C 
ATOM     12  O   UNL     1      19.418  -3.530 -17.912  1.00  0.00    -0.550 OA
ATOM     13  O   UNL     1      19.807  -1.915 -16.334  1.00  0.00    -0.550 OA
ENDBRANCH  10  11
ENDBRANCH   9  10
ENDBRANCH   8   9
ENDBRANCH   1   8
TORSDOF 8
ENDMDL
MODEL 3
REMARK VINA RESULT:    -4.707      0.777      4.443
REMARK INTER + INTRA:          -7.478
REMARK INTER:                  -6.971
REMARK INTRA:                  -0.507
REMARK UNBOUND:                -0.569
REMARK SMILES O=C([O-])CCCCCCCC(=O)[O-]
REMARK SMILES IDX 7 1 6 2 5 3 4 4 2 5 1 6 3 7 8 8 9 9 10 10 11 11 12 12 13 13
REMARK H PARENT
REMARK Flexibility Score: inf
ROOT
ATOM      1  C   UNL     1      21.359   1.059 -15.311  1.00  0.00     0.000 C 
ENDROOT
BRANCH   1   2
ATOM      2  C   UNL     1      21.307   1.733 -16.688  1.00  0.00     0.000 C 
BRANCH   2   3
ATOM      3  C   UNL     1      19.925   2.344 -16.950  1.00  0.00     0.006 C 
BRANCH   3   4
ATOM      4  C   UNL     1      19.108   2.428 -15.657  1.00  0.00     0.053 C 
BRANCH   4   5
ATOM      5  C   UNL     1      17.833   1.657 -15.793  1.00  0.00     0.041 C 
ATOM      6  O   UNL     1      17.501   0.822 -14.910  1.00  0.00    -0.550 OA
ATOM      7  O   UNL     1      17.035   1.822 -16.917  1.00  0.00    -0.550 OA
ENDBRANCH   4   5
ENDBRANCH   3   4
ENDBRANCH   2   3
ENDBRANCH   1   2
BRANCH   1   8
ATOM      8  C   UNL     1      22.027  -0.319 -15.397  1.00  0.00     0.000 C 
BRANCH   8   9
ATOM      9  C   UNL     1      21.589  -1.065 -16.666  1.00  0.00     0.006 C 
BRANCH   9  10
ATOM     10  C   UNL     1      20.175  -1.647 -16.540  1.00  0.00     0.053 C 
BRANCH  10  11
ATOM     11  C   UNL     1      19.745  -2.342 -17.796  1.00  0.00     0.041 C 
ATOM     12  O   UNL     1      19.744  -1.724 -18.893  1.00  0.00    -0.550 OA
ATOM     13  O   UNL     1      19.377  -3.681 -17.760  1.00  0.00    -0.550 OA
ENDBRANCH  10  11
ENDBRANCH   9  10
ENDBRANCH   8   9
ENDBRANCH   1   8
TORSDOF 8
ENDMDL
MODEL 4
REMARK VINA RESULT:    -4.696      2.246      3.127
REMARK INTER + INTRA:          -7.462
REMARK INTER:                  -6.738
REMARK INTRA:                  -0.724
REMARK UNBOUND:                -0.569
REMARK SMILES O=C([O-])CCCCCCCC(=O)[O-]
REMARK SMILES IDX 7 1 6 2 5 3 4 4 2 5 1 6 3 7 8 8 9 9 10 10 11 11 12 12 13 13
REMARK H PARENT
REMARK Flexibility Score: inf
ROOT
ATOM      1  C   UNL     1      20.631  -1.716 -16.353  1.00  0.00     0.000 C 
ENDROOT
BRANCH   1   2
ATOM      2  C   UNL     1      19.657  -2.159 -17.452  1.00  0.00     0.000 C 
BRANCH   2   3
ATOM      3  C   UNL     1      20.127  -1.679 -18.830  1.00  0.00     0.006 C 
BRANCH   3   4
ATOM      4  C   UNL     1      21.263  -0.661 -18.699  1.00  0.00     0.053 C 
BRANCH   4   5
ATOM      5  C   UNL     1      20.995   0.535 -19.557  1.00  0.00     0.041 C 
ATOM      6  O   UNL     1      21.910   1.372 -19.781  1.00  0.00    -0.550 OA
ATOM      7  O   UNL     1      19.723   0.754 -20.070  1.00  0.00    -0.550 OA
ENDBRANCH   4   5
ENDBRANCH   3   4
ENDBRANCH   2   3
ENDBRANCH   1   2
BRANCH   1   8
ATOM      8  C   UNL     1      19.889  -1.015 -15.209  1.00  0.00     0.000 C 
BRANCH   8   9
ATOM      9  C   UNL     1      19.721   0.484 -15.497  1.00  0.00     0.006 C 
BRANCH   9  10
ATOM     10  C   UNL     1      18.257   0.866 -15.754  1.00  0.00     0.053 C 
BRANCH  10  11
ATOM     11  C   UNL     1      18.113   1.731 -16.969  1.00  0.00     0.041 C 
ATOM     12  O   UNL     1      17.039   1.727 -17.626  1.00  0.00    -0.550 OA
ATOM     13  O   UNL     1      19.153   2.567 -17.356  1.00  0.00    -0.550 OA
ENDBRANCH  10  11
ENDBRANCH   9  10
ENDBRANCH   8   9
ENDBRANCH   1   8
TORSDOF 8
ENDMDL
MODEL 5
REMARK VINA RESULT:    -4.679      8.350      9.528
REMARK INTER + INTRA:          -7.437
REMARK INTER:                  -6.773
REMARK INTRA:                  -0.665
REMARK UNBOUND:                -0.569
REMARK SMILES O=C([O-])CCCCCCCC(=O)[O-]
REMARK SMILES IDX 7 1 6 2 5 3 4 4 2 5 1 6 3 7 8 8 9 9 10 10 11 11 12 12 13 13
REMARK H PARENT
REMARK Flexibility Score: inf
ROOT
ATOM      1  C   UNL     1      16.720   0.311 -23.106  1.00  0.00     0.000 C 
ENDROOT
BRANCH   1   2
ATOM      2  C   UNL     1      18.046  -0.457 -23.172  1.00  0.00     0.000 C 
BRANCH   2   3
ATOM      3  C   UNL     1      17.888  -1.760 -23.964  1.00  0.00     0.006 C 
BRANCH   3   4
ATOM      4  C   UNL     1      19.167  -2.088 -24.740  1.00  0.00     0.053 C 
BRANCH   4   5
ATOM      5  C   UNL     1      19.304  -3.567 -24.920  1.00  0.00     0.041 C 
ATOM      6  O   UNL     1      18.308  -4.320 -24.759  1.00  0.00    -0.550 OA
ATOM      7  O   UNL     1      20.543  -4.120 -25.218  1.00  0.00    -0.550 OA
ENDBRANCH   4   5
ENDBRANCH   3   4
ENDBRANCH   2   3
ENDBRANCH   1   2
BRANCH   1   8
ATOM      8  C   UNL     1      16.797   1.612 -23.914  1.00  0.00     0.000 C 
BRANCH   8   9
ATOM      9  C   UNL     1      15.975   1.507 -25.208  1.00  0.00     0.006 C 
BRANCH   9  10
ATOM     10  C   UNL     1      16.818   1.795 -26.457  1.00  0.00     0.053 C 
BRANCH  10  11
ATOM     11  C   UNL     1      17.768   0.676 -26.757  1.00  0.00     0.041 C 
ATOM     12  O   UNL     1      18.999   0.811 -26.528  1.00  0.00    -0.550 OA
ATOM     13  O   UNL     1      17.290  -0.528 -27.257  1.00  0.00    -0.550 OA
ENDBRANCH  10  11
ENDBRANCH   9  10
ENDBRANCH   8   9
ENDBRANCH   1   8
TORSDOF 8
ENDMDL
MODEL 6
REMARK VINA RESULT:    -4.675      8.373     10.170
REMARK INTER + INTRA:          -7.430
REMARK INTER:                  -6.766
REMARK INTRA:                  -0.664
REMARK UNBOUND:                -0.569
REMARK SMILES O=C([O-])CCCCCCCC(=O)[O-]
REMARK SMILES IDX 7 1 6 2 5 3 4 4 2 5 1 6 3 7 8 8 9 9 10 10 11 11 12 12 13 13
REMARK H PARENT
REMARK Flexibility Score: inf
ROOT
ATOM      1  C   UNL     1      16.714   0.226 -23.117  1.00  0.00     0.000 C 
ENDROOT
BRANCH   1   2
ATOM      2  C   UNL     1      16.929   1.659 -23.619  1.00  0.00     0.000 C 
BRANCH   2   3
ATOM      3  C   UNL     1      16.216   1.885 -24.957  1.00  0.00     0.006 C 
BRANCH   3   4
ATOM      4  C   UNL     1      17.213   1.877 -26.119  1.00  0.00     0.053 C 
BRANCH   4   5
ATOM      5  C   UNL     1      17.212   0.546 -26.801  1.00  0.00     0.041 C 
ATOM      6  O   UNL     1      18.141   0.239 -27.594  1.00  0.00    -0.550 OA
ATOM      7  O   UNL     1      16.160  -0.339 -26.599  1.00  0.00    -0.550 OA
ENDBRANCH   4   5
ENDBRANCH   3   4
ENDBRANCH   2   3
ENDBRANCH   1   2
BRANCH   1   8
ATOM      8  C   UNL     1      18.028  -0.566 -23.130  1.00  0.00     0.000 C 
BRANCH   8   9
ATOM      9  C   UNL     1      17.910  -1.814 -24.017  1.00  0.00     0.006 C 
BRANCH   9  10
ATOM     10  C   UNL     1      19.183  -2.068 -24.835  1.00  0.00     0.053 C 
BRANCH  10  11
ATOM     11  C   UNL     1      19.442  -3.532 -25.020  1.00  0.00     0.041 C 
ATOM     12  O   UNL     1      20.599  -3.939 -25.308  1.00  0.00    -0.550 OA
ATOM     13  O   UNL     1      18.415  -4.450 -24.840  1.00  0.00    -0.550 OA
ENDBRANCH  10  11
ENDBRANCH   9  10
ENDBRANCH   8   9
ENDBRANCH   1   8
TORSDOF 8
ENDMDL
MODEL 7
REMARK VINA RESULT:    -4.649      8.726      9.855
REMARK INTER + INTRA:          -7.392
REMARK INTER:                  -6.469
REMARK INTRA:                  -0.923
REMARK UNBOUND:                -0.569
REMARK SMILES O=C([O-])CCCCCCCC(=O)[O-]
REMARK SMILES IDX 7 1 6 2 5 3 4 4 2 5 1 6 3 7 8 8 9 9 10 10 11 11 12 12 13 13
REMARK H PARENT
REMARK Flexibility Score: inf
ROOT
ATOM      1  C   UNL     1      18.217   2.755 -25.193  1.00  0.00     0.000 C 
ENDROOT
BRANCH   1   2
ATOM      2  C   UNL     1      19.319   1.712 -24.971  1.00  0.00     0.000 C 
BRANCH   2   3
ATOM      3  C   UNL     1      19.580   0.908 -26.249  1.00  0.00     0.006 C 
BRANCH   3   4
ATOM      4  C   UNL     1      19.881  -0.558 -25.923  1.00  0.00     0.053 C 
BRANCH   4   5
ATOM      5  C   UNL     1      19.103  -1.465 -26.823  1.00  0.00     0.041 C 
ATOM      6  O   UNL     1      18.232  -0.991 -27.600  1.00  0.00    -0.550 OA
ATOM      7  O   UNL     1      19.302  -2.838 -26.770  1.00  0.00    -0.550 OA
ENDBRANCH   4   5
ENDBRANCH   3   4
ENDBRANCH   2   3
ENDBRANCH   1   2
BRANCH   1   8
ATOM      8  C   UNL     1      17.129   2.217 -26.130  1.00  0.00     0.000 C 
BRANCH   8   9
ATOM      9  C   UNL     1      15.925   1.694 -25.333  1.00  0.00     0.006 C 
BRANCH   9  10
ATOM     10  C   UNL     1      15.782   0.170 -25.430  1.00  0.00     0.053 C 
BRANCH  10  11
ATOM     11  C   UNL     1      16.412  -0.523 -24.260  1.00  0.00     0.041 C 
ATOM     12  O   UNL     1      16.483   0.056 -23.144  1.00  0.00    -0.550 OA
ATOM     13  O   UNL     1      16.890  -1.820 -24.394  1.00  0.00    -0.550 OA
ENDBRANCH  10  11
ENDBRANCH   9  10
ENDBRANCH   8   9
ENDBRANCH   1   8
TORSDOF 8
ENDMDL
MODEL 8
REMARK VINA RESULT:    -4.638      1.828      4.533
REMARK INTER + INTRA:          -7.376
REMARK INTER:                  -6.623
REMARK INTRA:                  -0.754
REMARK UNBOUND:                -0.569
REMARK SMILES O=C([O-])CCCCCCCC(=O)[O-]
REMARK SMILES IDX 7 1 6 2 5 3 4 4 2 5 1 6 3 7 8 8 9 9 10 10 11 11 12 12 13 13
REMARK H PARENT
REMARK Flexibility Score: inf
ROOT
ATOM      1  C   UNL     1      21.210  -0.434 -15.224  1.00  0.00     0.000 C 
ENDROOT
BRANCH   1   2
ATOM      2  C   UNL     1      21.330   1.014 -15.714  1.00  0.00     0.000 C 
BRANCH   2   3
ATOM      3  C   UNL     1      20.173   1.870 -15.189  1.00  0.00     0.006 C 
BRANCH   3   4
ATOM      4  C   UNL     1      19.164   2.173 -16.301  1.00  0.00     0.053 C 
BRANCH   4   5
ATOM      5  C   UNL     1      17.802   1.688 -15.919  1.00  0.00     0.041 C 
ATOM      6  O   UNL     1      16.779   2.173 -16.470  1.00  0.00    -0.550 OA
ATOM      7  O   UNL     1      17.657   0.735 -14.919  1.00  0.00    -0.550 OA
ENDBRANCH   4   5
ENDBRANCH   3   4
ENDBRANCH   2   3
ENDBRANCH   1   2
BRANCH   1   8
ATOM      8  C   UNL     1      20.570  -1.327 -16.295  1.00  0.00     0.000 C 
BRANCH   8   9
ATOM      9  C   UNL     1      21.302  -1.188 -17.638  1.00  0.00     0.006 C 
BRANCH   9  10
ATOM     10  C   UNL     1      20.347  -0.836 -18.786  1.00  0.00     0.053 C 
BRANCH  10  11
ATOM     11  C   UNL     1      20.654   0.510 -19.371  1.00  0.00     0.041 C 
ATOM     12  O   UNL     1      21.848   0.869 -19.542  1.00  0.00    -0.550 OA
ATOM     13  O   UNL     1      19.619   1.353 -19.758  1.00  0.00    -0.550 OA
ENDBRANCH  10  11
ENDBRANCH   9  10
ENDBRANCH   8   9
ENDBRANCH   1   8
TORSDOF 8
ENDMDL
MODEL 9
REMARK VINA RESULT:    -4.515      7.744      8.917
REMARK INTER + INTRA:          -7.196
REMARK INTER:                  -6.539
REMARK INTRA:                  -0.657
REMARK UNBOUND:                -0.569
REMARK SMILES O=C([O-])CCCCCCCC(=O)[O-]
REMARK SMILES IDX 7 1 6 2 5 3 4 4 2 5 1 6 3 7 8 8 9 9 10 10 11 11 12 12 13 13
REMARK H PARENT
REMARK Flexibility Score: inf
ROOT
ATOM      1  C   UNL     1      19.218   0.480 -22.626  1.00  0.00     0.000 C 
ENDROOT
BRANCH   1   2
ATOM      2  C   UNL     1      20.463   0.093 -23.434  1.00  0.00     0.000 C 
BRANCH   2   3
ATOM      3  C   UNL     1      20.101  -0.205 -24.893  1.00  0.00     0.006 C 
BRANCH   3   4
ATOM      4  C   UNL     1      20.659  -1.563 -25.331  1.00  0.00     0.053 C 
BRANCH   4   5
ATOM      5  C   UNL     1      19.566  -2.425 -25.880  1.00  0.00     0.041 C 
ATOM      6  O   UNL     1      18.869  -3.133 -25.106  1.00  0.00    -0.550 OA
ATOM      7  O   UNL     1      19.348  -2.485 -27.250  1.00  0.00    -0.550 OA
ENDBRANCH   4   5
ENDBRANCH   3   4
ENDBRANCH   2   3
ENDBRANCH   1   2
BRANCH   1   8
ATOM      8  C   UNL     1      18.072  -0.507 -22.875  1.00  0.00     0.000 C 
BRANCH   8   9
ATOM      9  C   UNL     1      16.733   0.230 -23.027  1.00  0.00     0.006 C 
BRANCH   9  10
ATOM     10  C   UNL     1      16.758   1.250 -24.173  1.00  0.00     0.053 C 
BRANCH  10  11
ATOM     11  C   UNL     1      16.091   0.718 -25.405  1.00  0.00     0.041 C 
ATOM     12  O   UNL     1      15.244   1.418 -26.020  1.00  0.00    -0.550 OA
ATOM     13  O   UNL     1      16.431  -0.538 -25.894  1.00  0.00    -0.550 OA
ENDBRANCH  10  11
ENDBRANCH   9  10
ENDBRANCH   8   9
ENDBRANCH   1   8
TORSDOF 8
ENDMDL
