MODEL 1
REMARK VINA RESULT:    -1.711      0.000      0.000
REMARK INTER + INTRA:          -1.711
REMARK INTER:                  -1.711
REMARK INTRA:                   0.000
REMARK UNBOUND:                 0.000
REMARK SMILES CC(=O)[O-]
REMARK SMILES IDX 1 1 2 2 3 3 4 4
REMARK H PARENT
REMARK Flexibility Score: inf
ROOT
ATOM      1  C   UNL     1      72.193  74.306  92.799  1.00  0.00     0.063 C 
ATOM      2  C   UNL     1      72.667  72.915  92.549  1.00  0.00     0.038 C 
ATOM      3  O   UNL     1      71.889  71.940  92.721  1.00  0.00    -0.550 OA
ATOM      4  O   UNL     1      73.954  72.694  92.072  1.00  0.00    -0.550 OA
ENDROOT
TORSDOF 0
ENDMDL
MODEL 2
REMARK VINA RESULT:    -1.658      1.654      2.023
REMARK INTER + INTRA:          -1.658
REMARK INTER:                  -1.658
REMARK INTRA:                   0.000
REMARK UNBOUND:                 0.000
REMARK SMILES CC(=O)[O-]
REMARK SMILES IDX 1 1 2 2 3 3 4 4
REMARK H PARENT
REMARK Flexibility Score: inf
ROOT
ATOM      1  C   UNL     1      74.957  72.642  92.017  1.00  0.00     0.063 C 
ATOM      2  C   UNL     1      73.526  72.933  92.315  1.00  0.00     0.038 C 
ATOM      3  O   UNL     1      72.629  72.119  91.973  1.00  0.00    -0.550 OA
ATOM      4  O   UNL     1      73.182  74.079  93.022  1.00  0.00    -0.550 OA
ENDROOT
TORSDOF 0
ENDMDL
MODEL 3
REMARK VINA RESULT:    -1.582     26.234     26.487
REMARK INTER + INTRA:          -1.582
REMARK INTER:                  -1.582
REMARK INTRA:                   0.000
REMARK UNBOUND:                 0.000
REMARK SMILES CC(=O)[O-]
REMARK SMILES IDX 1 1 2 2 3 3 4 4
REMARK H PARENT
REMARK Flexibility Score: inf
ROOT
ATOM      1  C   UNL     1      73.981  90.382  72.949  1.00  0.00     0.063 C 
ATOM      2  C   UNL     1      73.585  91.570  73.757  1.00  0.00     0.038 C 
ATOM      3  O   UNL     1      72.472  92.125  73.563  1.00  0.00    -0.550 OA
ATOM      4  O   UNL     1      74.419  92.034  74.767  1.00  0.00    -0.550 OA
ENDROOT
TORSDOF 0
ENDMDL
MODEL 4
REMARK VINA RESULT:    -1.572     20.078     20.523
REMARK INTER + INTRA:          -1.572
REMARK INTER:                  -1.572
REMARK INTRA:                   0.000
REMARK UNBOUND:                 0.000
REMARK SMILES CC(=O)[O-]
REMARK SMILES IDX 1 1 2 2 3 3 4 4
REMARK H PARENT
REMARK Flexibility Score: inf
ROOT
ATOM      1  C   UNL     1      72.655  91.344  80.649  1.00  0.00     0.063 C 
ATOM      2  C   UNL     1      72.433  90.026  81.308  1.00  0.00     0.038 C 
ATOM      3  O   UNL     1      72.703  89.875  82.528  1.00  0.00    -0.550 OA
ATOM      4  O   UNL     1      71.876  88.974  80.591  1.00  0.00    -0.550 OA
ENDROOT
TORSDOF 0
ENDMDL
MODEL 5
REMARK VINA RESULT:    -1.570     26.303     26.772
REMARK INTER + INTRA:          -1.570
REMARK INTER:                  -1.570
REMARK INTRA:                   0.000
REMARK UNBOUND:                 0.000
REMARK SMILES CC(=O)[O-]
REMARK SMILES IDX 1 1 2 2 3 3 4 4
REMARK H PARENT
REMARK Flexibility Score: inf
ROOT
ATOM      1  C   UNL     1      72.264  91.902  72.948  1.00  0.00     0.063 C 
ATOM      2  C   UNL     1      73.587  91.218  73.021  1.00  0.00     0.038 C 
ATOM      3  O   UNL     1      74.643  91.894  73.132  1.00  0.00    -0.550 OA
ATOM      4  O   UNL     1      73.653  89.830  73.021  1.00  0.00    -0.550 OA
ENDROOT
TORSDOF 0
ENDMDL
MODEL 6
REMARK VINA RESULT:    -1.562     17.291     17.858
REMARK INTER + INTRA:          -1.562
REMARK INTER:                  -1.562
REMARK INTRA:                   0.000
REMARK UNBOUND:                 0.000
REMARK SMILES CC(=O)[O-]
REMARK SMILES IDX 1 1 2 2 3 3 4 4
REMARK H PARENT
REMARK Flexibility Score: inf
ROOT
ATOM      1  C   UNL     1      74.175  90.704  93.060  1.00  0.00     0.063 C 
ATOM      2  C   UNL     1      75.610  90.527  92.698  1.00  0.00     0.038 C 
ATOM      3  O   UNL     1      76.256  91.480  92.191  1.00  0.00    -0.550 OA
ATOM      4  O   UNL     1      76.253  89.326  92.972  1.00  0.00    -0.550 OA
ENDROOT
TORSDOF 0
ENDMDL
MODEL 7
REMARK VINA RESULT:    -1.554     28.228     28.514
REMARK INTER + INTRA:          -1.554
REMARK INTER:                  -1.554
REMARK INTRA:                   0.000
REMARK UNBOUND:                 0.000
REMARK SMILES CC(=O)[O-]
REMARK SMILES IDX 1 1 2 2 3 3 4 4
REMARK H PARENT
REMARK Flexibility Score: inf
ROOT
ATOM      1  C   UNL     1      84.505  91.329  74.471  1.00  0.00     0.063 C 
ATOM      2  C   UNL     1      83.591  90.952  73.355  1.00  0.00     0.038 C 
ATOM      3  O   UNL     1      83.622  89.787  72.879  1.00  0.00    -0.550 OA
ATOM      4  O   UNL     1      82.664  91.869  72.875  1.00  0.00    -0.550 OA
ENDROOT
TORSDOF 0
ENDMDL
MODEL 8
REMARK VINA RESULT:    -1.518     17.487     18.065
REMARK INTER + INTRA:          -1.518
REMARK INTER:                  -1.518
REMARK INTRA:                   0.000
REMARK UNBOUND:                 0.000
REMARK SMILES CC(=O)[O-]
REMARK SMILES IDX 1 1 2 2 3 3 4 4
REMARK H PARENT
REMARK Flexibility Score: inf
ROOT
ATOM      1  C   UNL     1      74.487  90.627  92.784  1.00  0.00     0.063 C 
ATOM      2  C   UNL     1      75.970  90.662  92.636  1.00  0.00     0.038 C 
ATOM      3  O   UNL     1      76.666  89.680  93.006  1.00  0.00    -0.550 OA
ATOM      4  O   UNL     1      76.584  91.755  92.038  1.00  0.00    -0.550 OA
ENDROOT
TORSDOF 0
ENDMDL
MODEL 9
REMARK VINA RESULT:    -0.364     23.336     23.673
REMARK INTER + INTRA:          -0.364
REMARK INTER:                  -0.364
REMARK INTRA:                   0.000
REMARK UNBOUND:                 0.000
REMARK SMILES CC(=O)[O-]
REMARK SMILES IDX 1 1 2 2 3 3 4 4
REMARK H PARENT
REMARK Flexibility Score: inf
ROOT
ATOM      1  C   UNL     1      88.736  79.205  74.647  1.00  0.00     0.063 C 
ATOM      2  C   UNL     1      87.481  78.503  75.040  1.00  0.00     0.038 C 
ATOM      3  O   UNL     1      86.380  79.112  75.014  1.00  0.00    -0.550 OA
ATOM      4  O   UNL     1      87.516  77.157  75.384  1.00  0.00    -0.550 OA
ENDROOT
TORSDOF 0
ENDMDL
