MODEL 1
REMARK VINA RESULT:    -7.070      0.000      0.000
REMARK INTER + INTRA:          -7.045
REMARK INTER:                  -7.690
REMARK INTRA:                   0.645
REMARK UNBOUND:                 0.645
REMARK SMILES C[C@H]1[C@H]2C3=CC[C@@H]4[C@@]5(C)CC[C@@H](O)C(C)(C)[C@@H]5CC[C@]4(C)[C@]3(C)CC[C@]2(C(=O)[O-])CC[C@@H]1C
REMARK SMILES IDX 26 1 30 2 25 3 3 4 31 5 24 6 4 7 2 8 32 9 22 10 5 11 1 12
REMARK SMILES IDX 33 13 23 14 20 15 6 16 7 17 19 18 21 19 8 20 18 21 17 22
REMARK SMILES IDX 10 23 9 24 14 25 11 26 12 27 15 28 16 29 27 30 28 31 29 32
REMARK SMILES IDX 13 33
REMARK H PARENT 13 34
REMARK Flexibility Score: inf
ROOT
ATOM      1  C   UNL     1      10.184 -27.797  -1.863  1.00  0.00     0.017 C 
ATOM      2  C   UNL     1      10.414 -26.336  -2.382  1.00  0.00     0.014 C 
ATOM      3  C   UNL     1      11.144 -28.071  -0.695  1.00  0.00     0.014 C 
ATOM      4  C   UNL     1       8.734 -27.879  -1.306  1.00  0.00     0.030 C 
ATOM      5  C   UNL     1       9.181 -25.700  -3.071  1.00  0.00     0.004 C 
ATOM      6  C   UNL     1      11.003 -29.501  -0.150  1.00  0.00     0.013 C 
ATOM      7  C   UNL     1       8.470 -28.984  -0.260  1.00  0.00    -0.063 C 
ATOM      8  C   UNL     1       7.628 -27.632  -2.405  1.00  0.00    -0.003 C 
ATOM      9  C   UNL     1       8.156 -26.740  -3.576  1.00  0.00    -0.011 C 
ATOM     10  C   UNL     1       9.531 -29.998   0.206  1.00  0.00    -0.006 C 
ATOM     11  C   UNL     1       7.266 -28.985   0.329  1.00  0.00    -0.027 C 
ATOM     12  C   UNL     1       6.940 -28.905  -2.953  1.00  0.00     0.008 C 
ATOM     13  C   UNL     1       7.007 -26.031  -4.309  1.00  0.00     0.008 C 
ATOM     14  C   UNL     1       9.219 -31.334  -0.579  1.00  0.00     0.017 C 
ATOM     15  C   UNL     1       9.423 -30.276   1.794  1.00  0.00    -0.020 C 
ATOM     16  C   UNL     1       6.911 -29.734   1.572  1.00  0.00     0.032 C 
ATOM     17  C   UNL     1       7.948 -30.737   2.187  1.00  0.00     0.006 C 
ATOM     18  C   UNL     1       9.746 -28.969   2.617  1.00  0.00     0.008 C 
ATOM     19  C   UNL     1      10.491 -31.397   2.130  1.00  0.00     0.012 C 
ATOM     20  C   UNL     1       7.683 -30.990   3.779  1.00  0.00    -0.025 C 
ATOM     21  C   UNL     1       9.136 -28.901   4.048  1.00  0.00     0.005 C 
ATOM     22  C   UNL     1       8.817 -30.304   4.615  1.00  0.00     0.003 C 
ATOM     23  C   UNL     1       7.711 -32.513   4.136  1.00  0.00     0.010 C 
ATOM     24  C   UNL     1       6.254 -30.489   4.192  1.00  0.00     0.012 C 
ATOM     25  C   UNL     1       8.754 -30.472   6.184  1.00  0.00    -0.006 C 
ATOM     26  C   UNL     1       7.628 -32.808   5.655  1.00  0.00     0.033 C 
ATOM     27  C   UNL     1       8.628 -32.009   6.529  1.00  0.00     0.120 C 
ATOM     28  C   UNL     1      10.072 -29.945   6.825  1.00  0.00     0.014 C 
ATOM     29  C   UNL     1       7.603 -29.665   6.847  1.00  0.00     0.014 C 
ENDROOT
BRANCH   1  30
ATOM     30  C   UNL     1      10.478 -28.788  -2.988  1.00  0.00     0.048 C 
ATOM     31  O   UNL     1      11.493 -28.633  -3.722  1.00  0.00    -0.550 OA
ATOM     32  O   UNL     1       9.716 -29.930  -3.162  1.00  0.00    -0.550 OA
ENDBRANCH   1  30
BRANCH  27  33
ATOM     33  O   UNL     1       9.881 -32.651   6.525  1.00  0.00    -0.393 OA
ATOM     34  H   UNL     1      10.580 -31.981   6.729  1.00  0.00     0.210 HD
ENDBRANCH  27  33
TORSDOF 2
ENDMDL
MODEL 2
REMARK VINA RESULT:    -6.944      1.671      3.347
REMARK INTER + INTRA:          -6.908
REMARK INTER:                  -7.555
REMARK INTRA:                   0.647
REMARK UNBOUND:                 0.645
REMARK SMILES C[C@H]1[C@H]2C3=CC[C@@H]4[C@@]5(C)CC[C@@H](O)C(C)(C)[C@@H]5CC[C@]4(C)[C@]3(C)CC[C@]2(C(=O)[O-])CC[C@@H]1C
REMARK SMILES IDX 26 1 30 2 25 3 3 4 31 5 24 6 4 7 2 8 32 9 22 10 5 11 1 12
REMARK SMILES IDX 33 13 23 14 20 15 6 16 7 17 19 18 21 19 8 20 18 21 17 22
REMARK SMILES IDX 10 23 9 24 14 25 11 26 12 27 15 28 16 29 27 30 28 31 29 32
REMARK SMILES IDX 13 33
REMARK H PARENT 13 34
REMARK Flexibility Score: inf
ROOT
ATOM      1  C   UNL     1       8.919 -28.685  -2.034  1.00  0.00     0.017 C 
ATOM      2  C   UNL     1       8.168 -28.967  -3.381  1.00  0.00     0.014 C 
ATOM      3  C   UNL     1       7.896 -28.263  -0.968  1.00  0.00     0.014 C 
ATOM      4  C   UNL     1       9.564 -30.019  -1.562  1.00  0.00     0.030 C 
ATOM      5  C   UNL     1       8.893 -29.963  -4.321  1.00  0.00     0.004 C 
ATOM      6  C   UNL     1       8.561 -27.934   0.378  1.00  0.00     0.013 C 
ATOM      7  C   UNL     1       9.850 -30.137  -0.050  1.00  0.00    -0.063 C 
ATOM      8  C   UNL     1      10.657 -30.571  -2.559  1.00  0.00    -0.003 C 
ATOM      9  C   UNL     1      10.403 -30.096  -4.027  1.00  0.00    -0.011 C 
ATOM     10  C   UNL     1       9.573 -29.014   0.968  1.00  0.00    -0.006 C 
ATOM     11  C   UNL     1      10.280 -31.326   0.395  1.00  0.00    -0.027 C 
ATOM     12  C   UNL     1      12.125 -30.312  -2.145  1.00  0.00     0.008 C 
ATOM     13  C   UNL     1      11.055 -31.041  -5.048  1.00  0.00     0.008 C 
ATOM     14  C   UNL     1      10.972 -28.334   1.244  1.00  0.00     0.017 C 
ATOM     15  C   UNL     1       8.986 -29.606   2.352  1.00  0.00    -0.020 C 
ATOM     16  C   UNL     1      10.305 -31.760   1.824  1.00  0.00     0.032 C 
ATOM     17  C   UNL     1       9.959 -30.720   2.948  1.00  0.00     0.006 C 
ATOM     18  C   UNL     1       7.577 -30.280   2.124  1.00  0.00     0.008 C 
ATOM     19  C   UNL     1       8.837 -28.377   3.342  1.00  0.00     0.012 C 
ATOM     20  C   UNL     1       9.451 -31.450   4.319  1.00  0.00    -0.025 C 
ATOM     21  C   UNL     1       7.169 -31.366   3.163  1.00  0.00     0.005 C 
ATOM     22  C   UNL     1       7.915 -31.200   4.506  1.00  0.00     0.003 C 
ATOM     23  C   UNL     1      10.166 -30.869   5.582  1.00  0.00     0.010 C 
ATOM     24  C   UNL     1       9.807 -32.979   4.301  1.00  0.00     0.012 C 
ATOM     25  C   UNL     1       7.245 -31.799   5.804  1.00  0.00    -0.006 C 
ATOM     26  C   UNL     1       9.610 -31.405   6.926  1.00  0.00     0.033 C 
ATOM     27  C   UNL     1       8.068 -31.329   7.069  1.00  0.00     0.120 C 
ATOM     28  C   UNL     1       5.794 -31.252   5.950  1.00  0.00     0.014 C 
ATOM     29  C   UNL     1       7.117 -33.347   5.778  1.00  0.00     0.014 C 
ENDROOT
BRANCH   1  30
ATOM     30  C   UNL     1       9.918 -27.546  -2.239  1.00  0.00     0.048 C 
ATOM     31  O   UNL     1       9.595 -26.534  -2.920  1.00  0.00    -0.550 OA
ATOM     32  O   UNL     1      11.146 -27.539  -1.601  1.00  0.00    -0.550 OA
ENDBRANCH   1  30
BRANCH  27  33
ATOM     33  O   UNL     1       7.694 -30.038   7.488  1.00  0.00    -0.393 OA
ATOM     34  H   UNL     1       6.706 -29.996   7.538  1.00  0.00     0.210 HD
ENDBRANCH  27  33
TORSDOF 2
ENDMDL
MODEL 3
REMARK VINA RESULT:    -6.674      1.610      8.009
REMARK INTER + INTRA:          -6.615
REMARK INTER:                  -7.260
REMARK INTRA:                   0.645
REMARK UNBOUND:                 0.645
REMARK SMILES C[C@H]1[C@H]2C3=CC[C@@H]4[C@@]5(C)CC[C@@H](O)C(C)(C)[C@@H]5CC[C@]4(C)[C@]3(C)CC[C@]2(C(=O)[O-])CC[C@@H]1C
REMARK SMILES IDX 26 1 30 2 25 3 3 4 31 5 24 6 4 7 2 8 32 9 22 10 5 11 1 12
REMARK SMILES IDX 33 13 23 14 20 15 6 16 7 17 19 18 21 19 8 20 18 21 17 22
REMARK SMILES IDX 10 23 9 24 14 25 11 26 12 27 15 28 16 29 27 30 28 31 29 32
REMARK SMILES IDX 13 33
REMARK H PARENT 13 34
REMARK Flexibility Score: inf
ROOT
ATOM      1  C   UNL     1       7.685 -32.184   5.016  1.00  0.00     0.017 C 
ATOM      2  C   UNL     1       7.220 -33.602   5.495  1.00  0.00     0.014 C 
ATOM      3  C   UNL     1       9.043 -32.314   4.308  1.00  0.00     0.014 C 
ATOM      4  C   UNL     1       6.656 -31.677   3.966  1.00  0.00     0.030 C 
ATOM      5  C   UNL     1       5.685 -33.758   5.636  1.00  0.00     0.004 C 
ATOM      6  C   UNL     1       9.585 -30.955   3.837  1.00  0.00     0.013 C 
ATOM      7  C   UNL     1       7.172 -30.619   2.966  1.00  0.00    -0.063 C 
ATOM      8  C   UNL     1       5.206 -31.479   4.558  1.00  0.00    -0.003 C 
ATOM      9  C   UNL     1       4.942 -32.412   5.785  1.00  0.00    -0.011 C 
ATOM     10  C   UNL     1       8.597 -30.036   2.991  1.00  0.00    -0.006 C 
ATOM     11  C   UNL     1       6.343 -30.270   1.972  1.00  0.00    -0.027 C 
ATOM     12  C   UNL     1       4.816 -30.018   4.887  1.00  0.00     0.008 C 
ATOM     13  C   UNL     1       3.441 -32.662   5.994  1.00  0.00     0.008 C 
ATOM     14  C   UNL     1       8.466 -28.621   3.682  1.00  0.00     0.017 C 
ATOM     15  C   UNL     1       9.181 -29.846   1.496  1.00  0.00    -0.020 C 
ATOM     16  C   UNL     1       6.736 -29.533   0.734  1.00  0.00     0.032 C 
ATOM     17  C   UNL     1       8.192 -28.962   0.611  1.00  0.00     0.006 C 
ATOM     18  C   UNL     1       9.344 -31.241   0.774  1.00  0.00     0.008 C 
ATOM     19  C   UNL     1      10.599 -29.155   1.650  1.00  0.00     0.012 C 
ATOM     20  C   UNL     1       8.633 -28.745  -0.947  1.00  0.00    -0.025 C 
ATOM     21  C   UNL     1       9.322 -31.205  -0.782  1.00  0.00     0.005 C 
ATOM     22  C   UNL     1       9.708 -29.816  -1.341  1.00  0.00     0.003 C 
ATOM     23  C   UNL     1       9.283 -27.341  -1.175  1.00  0.00     0.010 C 
ATOM     24  C   UNL     1       7.380 -28.786  -1.892  1.00  0.00     0.012 C 
ATOM     25  C   UNL     1      10.289 -29.743  -2.807  1.00  0.00    -0.006 C 
ATOM     26  C   UNL     1       9.870 -27.138  -2.595  1.00  0.00     0.033 C 
ATOM     27  C   UNL     1      10.805 -28.275  -3.081  1.00  0.00     0.120 C 
ATOM     28  C   UNL     1      11.503 -30.709  -2.943  1.00  0.00     0.014 C 
ATOM     29  C   UNL     1       9.272 -30.180  -3.899  1.00  0.00     0.014 C 
ENDROOT
BRANCH   1  30
ATOM     30  C   UNL     1       7.845 -31.266   6.228  1.00  0.00     0.048 C 
ATOM     31  O   UNL     1       8.408 -31.690   7.275  1.00  0.00    -0.550 OA
ATOM     32  O   UNL     1       7.485 -29.932   6.175  1.00  0.00    -0.550 OA
ENDBRANCH   1  30
BRANCH  27  33
ATOM     33  O   UNL     1      12.102 -28.072  -2.573  1.00  0.00    -0.393 OA
ATOM     34  H   UNL     1      12.284 -28.764  -1.889  1.00  0.00     0.210 HD
ENDBRANCH  27  33
TORSDOF 2
ENDMDL
MODEL 4
REMARK VINA RESULT:    -6.549      1.709      8.309
REMARK INTER + INTRA:          -6.479
REMARK INTER:                  -7.125
REMARK INTRA:                   0.647
REMARK UNBOUND:                 0.645
REMARK SMILES C[C@H]1[C@H]2C3=CC[C@@H]4[C@@]5(C)CC[C@@H](O)C(C)(C)[C@@H]5CC[C@]4(C)[C@]3(C)CC[C@]2(C(=O)[O-])CC[C@@H]1C
REMARK SMILES IDX 26 1 30 2 25 3 3 4 31 5 24 6 4 7 2 8 32 9 22 10 5 11 1 12
REMARK SMILES IDX 33 13 23 14 20 15 6 16 7 17 19 18 21 19 8 20 18 21 17 22
REMARK SMILES IDX 10 23 9 24 14 25 11 26 12 27 15 28 16 29 27 30 28 31 29 32
REMARK SMILES IDX 13 33
REMARK H PARENT 13 34
REMARK Flexibility Score: inf
ROOT
ATOM      1  C   UNL     1       9.308 -30.435   5.992  1.00  0.00     0.017 C 
ATOM      2  C   UNL     1       9.986 -29.866   7.286  1.00  0.00     0.014 C 
ATOM      3  C   UNL     1       8.756 -29.266   5.160  1.00  0.00     0.014 C 
ATOM      4  C   UNL     1      10.412 -31.132   5.146  1.00  0.00     0.030 C 
ATOM      5  C   UNL     1      11.094 -30.773   7.879  1.00  0.00     0.004 C 
ATOM      6  C   UNL     1       8.043 -29.746   3.886  1.00  0.00     0.013 C 
ATOM      7  C   UNL     1      10.131 -31.254   3.632  1.00  0.00    -0.063 C 
ATOM      8  C   UNL     1      11.066 -32.372   5.871  1.00  0.00    -0.003 C 
ATOM      9  C   UNL     1      10.988 -32.246   7.428  1.00  0.00    -0.011 C 
ATOM     10  C   UNL     1       8.834 -30.771   2.957  1.00  0.00    -0.006 C 
ATOM     11  C   UNL     1      11.125 -31.727   2.868  1.00  0.00    -0.027 C 
ATOM     12  C   UNL     1      10.557 -33.757   5.407  1.00  0.00     0.008 C 
ATOM     13  C   UNL     1      12.074 -33.085   8.118  1.00  0.00     0.008 C 
ATOM     14  C   UNL     1       7.959 -32.069   2.737  1.00  0.00     0.017 C 
ATOM     15  C   UNL     1       9.135 -30.083   1.527  1.00  0.00    -0.020 C 
ATOM     16  C   UNL     1      11.197 -31.627   1.379  1.00  0.00     0.032 C 
ATOM     17  C   UNL     1       9.961 -31.072   0.587  1.00  0.00     0.006 C 
ATOM     18  C   UNL     1       9.993 -28.770   1.703  1.00  0.00     0.008 C 
ATOM     19  C   UNL     1       7.728 -29.721   0.894  1.00  0.00     0.012 C 
ATOM     20  C   UNL     1      10.391 -30.475  -0.872  1.00  0.00    -0.025 C 
ATOM     21  C   UNL     1      10.835 -28.339   0.466  1.00  0.00     0.005 C 
ATOM     22  C   UNL     1      10.271 -28.912  -0.854  1.00  0.00     0.003 C 
ATOM     23  C   UNL     1       9.449 -30.991  -2.008  1.00  0.00     0.010 C 
ATOM     24  C   UNL     1      11.831 -30.956  -1.269  1.00  0.00     0.012 C 
ATOM     25  C   UNL     1      10.609 -28.152  -2.196  1.00  0.00    -0.006 C 
ATOM     26  C   UNL     1       9.703 -30.334  -3.389  1.00  0.00     0.033 C 
ATOM     27  C   UNL     1       9.762 -28.785  -3.370  1.00  0.00     0.120 C 
ATOM     28  C   UNL     1      10.204 -26.653  -2.070  1.00  0.00     0.014 C 
ATOM     29  C   UNL     1      12.123 -28.157  -2.546  1.00  0.00     0.014 C 
ENDROOT
BRANCH   1  30
ATOM     30  C   UNL     1       8.151 -31.352   6.386  1.00  0.00     0.048 C 
ATOM     31  O   UNL     1       7.361 -31.015   7.310  1.00  0.00    -0.550 OA
ATOM     32  O   UNL     1       7.873 -32.508   5.678  1.00  0.00    -0.550 OA
ENDBRANCH   1  30
BRANCH  27  33
ATOM     33  O   UNL     1       8.457 -28.260  -3.418  1.00  0.00    -0.393 OA
ATOM     34  H   UNL     1       8.515 -27.272  -3.447  1.00  0.00     0.210 HD
ENDBRANCH  27  33
TORSDOF 2
ENDMDL
MODEL 5
REMARK VINA RESULT:    -5.497      1.740      2.825
REMARK INTER + INTRA:          -5.335
REMARK INTER:                  -6.032
REMARK INTRA:                   0.697
REMARK UNBOUND:                 0.645
REMARK SMILES C[C@H]1[C@H]2C3=CC[C@@H]4[C@@]5(C)CC[C@@H](O)C(C)(C)[C@@H]5CC[C@]4(C)[C@]3(C)CC[C@]2(C(=O)[O-])CC[C@@H]1C
REMARK SMILES IDX 26 1 30 2 25 3 3 4 31 5 24 6 4 7 2 8 32 9 22 10 5 11 1 12
REMARK SMILES IDX 33 13 23 14 20 15 6 16 7 17 19 18 21 19 8 20 18 21 17 22
REMARK SMILES IDX 10 23 9 24 14 25 11 26 12 27 15 28 16 29 27 30 28 31 29 32
REMARK SMILES IDX 13 33
REMARK H PARENT 13 34
REMARK Flexibility Score: inf
ROOT
ATOM      1  C   UNL     1      10.714 -30.339  -1.186  1.00  0.00     0.017 C 
ATOM      2  C   UNL     1      11.984 -30.011  -2.045  1.00  0.00     0.014 C 
ATOM      3  C   UNL     1      10.989 -31.596  -0.345  1.00  0.00     0.014 C 
ATOM      4  C   UNL     1      10.489 -29.157  -0.201  1.00  0.00     0.030 C 
ATOM      5  C   UNL     1      12.125 -28.517  -2.432  1.00  0.00     0.004 C 
ATOM      6  C   UNL     1       9.774 -32.005   0.503  1.00  0.00     0.013 C 
ATOM      7  C   UNL     1       9.694 -29.484   1.081  1.00  0.00    -0.063 C 
ATOM      8  C   UNL     1      10.177 -27.790  -0.927  1.00  0.00    -0.003 C 
ATOM      9  C   UNL     1      10.794 -27.736  -2.363  1.00  0.00    -0.011 C 
ATOM     10  C   UNL     1       9.099 -30.870   1.395  1.00  0.00    -0.006 C 
ATOM     11  C   UNL     1       9.605 -28.515   2.003  1.00  0.00    -0.027 C 
ATOM     12  C   UNL     1       8.687 -27.377  -0.955  1.00  0.00     0.008 C 
ATOM     13  C   UNL     1      11.009 -26.290  -2.833  1.00  0.00     0.008 C 
ATOM     14  C   UNL     1       7.562 -30.764   1.044  1.00  0.00     0.017 C 
ATOM     15  C   UNL     1       9.264 -31.241   2.958  1.00  0.00    -0.020 C 
ATOM     16  C   UNL     1       9.180 -28.705   3.423  1.00  0.00     0.032 C 
ATOM     17  C   UNL     1       8.632 -30.103   3.879  1.00  0.00     0.006 C 
ATOM     18  C   UNL     1      10.788 -31.375   3.348  1.00  0.00     0.008 C 
ATOM     19  C   UNL     1       8.534 -32.632   3.172  1.00  0.00     0.012 C 
ATOM     20  C   UNL     1       8.788 -30.322   5.491  1.00  0.00    -0.025 C 
ATOM     21  C   UNL     1      11.126 -31.145   4.851  1.00  0.00     0.005 C 
ATOM     22  C   UNL     1       9.905 -31.386   5.768  1.00  0.00     0.003 C 
ATOM     23  C   UNL     1       7.470 -30.868   6.130  1.00  0.00     0.010 C 
ATOM     24  C   UNL     1       9.073 -28.959   6.214  1.00  0.00     0.012 C 
ATOM     25  C   UNL     1      10.177 -31.763   7.277  1.00  0.00    -0.006 C 
ATOM     26  C   UNL     1       7.604 -31.251   7.626  1.00  0.00     0.033 C 
ATOM     27  C   UNL     1       8.809 -32.167   7.958  1.00  0.00     0.120 C 
ATOM     28  C   UNL     1      11.128 -32.994   7.351  1.00  0.00     0.014 C 
ATOM     29  C   UNL     1      10.877 -30.634   8.082  1.00  0.00     0.014 C 
ENDROOT
BRANCH   1  30
ATOM     30  C   UNL     1       9.531 -30.614  -2.113  1.00  0.00     0.048 C 
ATOM     31  O   UNL     1       9.619 -31.499  -3.009  1.00  0.00    -0.550 OA
ATOM     32  O   UNL     1       8.310 -29.989  -1.931  1.00  0.00    -0.550 OA
ENDBRANCH   1  30
BRANCH  27  33
ATOM     33  O   UNL     1       8.471 -33.509   7.698  1.00  0.00    -0.393 OA
ATOM     34  H   UNL     1       7.852 -33.821   8.405  1.00  0.00     0.210 HD
ENDBRANCH  27  33
TORSDOF 2
ENDMDL
MODEL 6
REMARK VINA RESULT:    -5.384      1.330      1.577
REMARK INTER + INTRA:          -5.211
REMARK INTER:                  -5.891
REMARK INTRA:                   0.680
REMARK UNBOUND:                 0.645
REMARK SMILES C[C@H]1[C@H]2C3=CC[C@@H]4[C@@]5(C)CC[C@@H](O)C(C)(C)[C@@H]5CC[C@]4(C)[C@]3(C)CC[C@]2(C(=O)[O-])CC[C@@H]1C
REMARK SMILES IDX 26 1 30 2 25 3 3 4 31 5 24 6 4 7 2 8 32 9 22 10 5 11 1 12
REMARK SMILES IDX 33 13 23 14 20 15 6 16 7 17 19 18 21 19 8 20 18 21 17 22
REMARK SMILES IDX 10 23 9 24 14 25 11 26 12 27 15 28 16 29 27 30 28 31 29 32
REMARK SMILES IDX 13 33
REMARK H PARENT 13 34
REMARK Flexibility Score: inf
ROOT
ATOM      1  C   UNL     1      10.416 -28.130  -1.423  1.00  0.00     0.017 C 
ATOM      2  C   UNL     1       9.942 -26.759  -2.017  1.00  0.00     0.014 C 
ATOM      3  C   UNL     1      11.206 -27.870  -0.130  1.00  0.00     0.014 C 
ATOM      4  C   UNL     1       9.147 -28.944  -1.040  1.00  0.00     0.030 C 
ATOM      5  C   UNL     1       8.668 -26.848  -2.895  1.00  0.00     0.004 C 
ATOM      6  C   UNL     1      11.737 -29.169   0.497  1.00  0.00     0.013 C 
ATOM      7  C   UNL     1       9.337 -30.026   0.045  1.00  0.00    -0.063 C 
ATOM      8  C   UNL     1       8.237 -29.302  -2.280  1.00  0.00    -0.003 C 
ATOM      9  C   UNL     1       8.397 -28.267  -3.441  1.00  0.00    -0.011 C 
ATOM     10  C   UNL     1      10.689 -30.351   0.709  1.00  0.00    -0.006 C 
ATOM     11  C   UNL     1       8.232 -30.645   0.484  1.00  0.00    -0.027 C 
ATOM     12  C   UNL     1       8.378 -30.748  -2.811  1.00  0.00     0.008 C 
ATOM     13  C   UNL     1       7.164 -28.250  -4.357  1.00  0.00     0.008 C 
ATOM     14  C   UNL     1      11.213 -31.658  -0.008  1.00  0.00     0.017 C 
ATOM     15  C   UNL     1      10.514 -30.643   2.288  1.00  0.00    -0.020 C 
ATOM     16  C   UNL     1       8.135 -31.468   1.726  1.00  0.00     0.032 C 
ATOM     17  C   UNL     1       9.440 -31.795   2.534  1.00  0.00     0.006 C 
ATOM     18  C   UNL     1      10.008 -29.354   3.046  1.00  0.00     0.008 C 
ATOM     19  C   UNL     1      11.944 -31.055   2.832  1.00  0.00     0.012 C 
ATOM     20  C   UNL     1       9.118 -32.147   4.097  1.00  0.00    -0.025 C 
ATOM     21  C   UNL     1       9.253 -29.607   4.384  1.00  0.00     0.005 C 
ATOM     22  C   UNL     1       9.615 -30.974   5.010  1.00  0.00     0.003 C 
ATOM     23  C   UNL     1       9.866 -33.438   4.566  1.00  0.00     0.010 C 
ATOM     24  C   UNL     1       7.591 -32.450   4.297  1.00  0.00     0.012 C 
ATOM     25  C   UNL     1       9.425 -31.148   6.568  1.00  0.00    -0.006 C 
ATOM     26  C   UNL     1       9.731 -33.732   6.081  1.00  0.00     0.033 C 
ATOM     27  C   UNL     1      10.051 -32.531   7.008  1.00  0.00     0.120 C 
ATOM     28  C   UNL     1      10.186 -30.018   7.323  1.00  0.00     0.014 C 
ATOM     29  C   UNL     1       7.944 -31.045   7.027  1.00  0.00     0.014 C 
ENDROOT
BRANCH   1  30
ATOM     30  C   UNL     1      11.329 -28.831  -2.428  1.00  0.00     0.048 C 
ATOM     31  O   UNL     1      12.124 -28.158  -3.140  1.00  0.00    -0.550 OA
ATOM     32  O   UNL     1      11.390 -30.211  -2.508  1.00  0.00    -0.550 OA
ENDBRANCH   1  30
BRANCH  27  33
ATOM     33  O   UNL     1      11.442 -32.438   7.202  1.00  0.00    -0.393 OA
ATOM     34  H   UNL     1      11.774 -31.634   6.731  1.00  0.00     0.210 HD
ENDBRANCH  27  33
TORSDOF 2
ENDMDL
MODEL 7
REMARK VINA RESULT:    -4.460      3.543      8.738
REMARK INTER + INTRA:          -4.207
REMARK INTER:                  -5.111
REMARK INTRA:                   0.904
REMARK UNBOUND:                 0.645
REMARK SMILES C[C@H]1[C@H]2C3=CC[C@@H]4[C@@]5(C)CC[C@@H](O)C(C)(C)[C@@H]5CC[C@]4(C)[C@]3(C)CC[C@]2(C(=O)[O-])CC[C@@H]1C
REMARK SMILES IDX 26 1 30 2 25 3 3 4 31 5 24 6 4 7 2 8 32 9 22 10 5 11 1 12
REMARK SMILES IDX 33 13 23 14 20 15 6 16 7 17 19 18 21 19 8 20 18 21 17 22
REMARK SMILES IDX 10 23 9 24 14 25 11 26 12 27 15 28 16 29 27 30 28 31 29 32
REMARK SMILES IDX 13 33
REMARK H PARENT 13 34
REMARK Flexibility Score: inf
ROOT
ATOM      1  C   UNL     1      10.387 -28.654   0.180  1.00  0.00     0.017 C 
ATOM      2  C   UNL     1      11.753 -28.472   0.926  1.00  0.00     0.014 C 
ATOM      3  C   UNL     1      10.422 -27.857  -1.134  1.00  0.00     0.014 C 
ATOM      4  C   UNL     1      10.245 -30.159  -0.189  1.00  0.00     0.030 C 
ATOM      5  C   UNL     1      12.125 -29.639   1.875  1.00  0.00     0.004 C 
ATOM      6  C   UNL     1       9.100 -27.958  -1.910  1.00  0.00     0.013 C 
ATOM      7  C   UNL     1       9.314 -30.481  -1.377  1.00  0.00    -0.063 C 
ATOM      8  C   UNL     1      10.180 -31.107   1.071  1.00  0.00    -0.003 C 
ATOM      9  C   UNL     1      10.910 -30.488   2.308  1.00  0.00    -0.011 C 
ATOM     10  C   UNL     1       8.515 -29.420  -2.157  1.00  0.00    -0.006 C 
ATOM     11  C   UNL     1       9.284 -31.754  -1.795  1.00  0.00    -0.027 C 
ATOM     12  C   UNL     1       8.765 -31.599   1.460  1.00  0.00     0.008 C 
ATOM     13  C   UNL     1      11.355 -31.571   3.302  1.00  0.00     0.008 C 
ATOM     14  C   UNL     1       7.039 -29.501  -1.598  1.00  0.00     0.017 C 
ATOM     15  C   UNL     1       8.503 -29.738  -3.741  1.00  0.00    -0.020 C 
ATOM     16  C   UNL     1       8.725 -32.226  -3.098  1.00  0.00     0.032 C 
ATOM     17  C   UNL     1       7.960 -31.211  -4.017  1.00  0.00     0.006 C 
ATOM     18  C   UNL     1       9.959 -29.649  -4.344  1.00  0.00     0.008 C 
ATOM     19  C   UNL     1       7.578 -28.641  -4.415  1.00  0.00     0.012 C 
ATOM     20  C   UNL     1       7.956 -31.687  -5.581  1.00  0.00    -0.025 C 
ATOM     21  C   UNL     1      10.205 -30.467  -5.646  1.00  0.00     0.005 C 
ATOM     22  C   UNL     1       8.894 -30.749  -6.415  1.00  0.00     0.003 C 
ATOM     23  C   UNL     1       6.529 -31.585  -6.213  1.00  0.00     0.010 C 
ATOM     24  C   UNL     1       8.363 -33.197  -5.704  1.00  0.00     0.012 C 
ATOM     25  C   UNL     1       8.991 -31.028  -7.966  1.00  0.00    -0.006 C 
ATOM     26  C   UNL     1       6.491 -31.866  -7.736  1.00  0.00     0.033 C 
ATOM     27  C   UNL     1       7.531 -31.076  -8.570  1.00  0.00     0.120 C 
ATOM     28  C   UNL     1       9.759 -29.868  -8.666  1.00  0.00     0.014 C 
ATOM     29  C   UNL     1       9.771 -32.327  -8.314  1.00  0.00     0.014 C 
ENDROOT
BRANCH   1  30
ATOM     30  C   UNL     1       9.255 -28.116   1.054  1.00  0.00     0.048 C 
ATOM     31  O   UNL     1       8.062 -28.463   0.833  1.00  0.00    -0.550 OA
ATOM     32  O   UNL     1       9.512 -27.335   2.167  1.00  0.00    -0.550 OA
ENDBRANCH   1  30
BRANCH  27  33
ATOM     33  O   UNL     1       7.037 -29.787  -8.848  1.00  0.00    -0.393 OA
ATOM     34  H   UNL     1       6.340 -29.566  -8.181  1.00  0.00     0.210 HD
ENDBRANCH  27  33
TORSDOF 2
ENDMDL
MODEL 8
REMARK VINA RESULT:    -4.132      3.938      8.892
REMARK INTER + INTRA:          -3.849
REMARK INTER:                  -4.584
REMARK INTRA:                   0.735
REMARK UNBOUND:                 0.645
REMARK SMILES C[C@H]1[C@H]2C3=CC[C@@H]4[C@@]5(C)CC[C@@H](O)C(C)(C)[C@@H]5CC[C@]4(C)[C@]3(C)CC[C@]2(C(=O)[O-])CC[C@@H]1C
REMARK SMILES IDX 26 1 30 2 25 3 3 4 31 5 24 6 4 7 2 8 32 9 22 10 5 11 1 12
REMARK SMILES IDX 33 13 23 14 20 15 6 16 7 17 19 18 21 19 8 20 18 21 17 22
REMARK SMILES IDX 10 23 9 24 14 25 11 26 12 27 15 28 16 29 27 30 28 31 29 32
REMARK SMILES IDX 13 33
REMARK H PARENT 13 34
REMARK Flexibility Score: inf
ROOT
ATOM      1  C   UNL     1       9.814 -31.498   0.312  1.00  0.00     0.017 C 
ATOM      2  C   UNL     1       9.005 -31.589   1.652  1.00  0.00     0.014 C 
ATOM      3  C   UNL     1       9.571 -32.775  -0.509  1.00  0.00     0.014 C 
ATOM      4  C   UNL     1       9.245 -30.302  -0.504  1.00  0.00     0.030 C 
ATOM      5  C   UNL     1       8.628 -30.218   2.266  1.00  0.00     0.004 C 
ATOM      6  C   UNL     1      10.361 -32.777  -1.827  1.00  0.00     0.013 C 
ATOM      7  C   UNL     1       9.464 -30.358  -2.032  1.00  0.00    -0.063 C 
ATOM      8  C   UNL     1       9.438 -28.909   0.213  1.00  0.00    -0.003 C 
ATOM      9  C   UNL     1       9.516 -29.057   1.768  1.00  0.00    -0.011 C 
ATOM     10  C   UNL     1      10.231 -31.484  -2.750  1.00  0.00    -0.006 C 
ATOM     11  C   UNL     1       8.867 -29.408  -2.765  1.00  0.00    -0.027 C 
ATOM     12  C   UNL     1      10.609 -28.047  -0.315  1.00  0.00     0.008 C 
ATOM     13  C   UNL     1       9.125 -27.754   2.480  1.00  0.00     0.008 C 
ATOM     14  C   UNL     1      11.668 -30.899  -3.048  1.00  0.00     0.017 C 
ATOM     15  C   UNL     1       9.519 -31.884  -4.144  1.00  0.00    -0.020 C 
ATOM     16  C   UNL     1       8.671 -29.450  -4.245  1.00  0.00     0.032 C 
ATOM     17  C   UNL     1       9.339 -30.602  -5.075  1.00  0.00     0.006 C 
ATOM     18  C   UNL     1       8.084 -32.491  -3.890  1.00  0.00     0.008 C 
ATOM     19  C   UNL     1      10.446 -32.972  -4.829  1.00  0.00     0.012 C 
ATOM     20  C   UNL     1       8.571 -30.855  -6.495  1.00  0.00    -0.025 C 
ATOM     21  C   UNL     1       7.080 -32.375  -5.075  1.00  0.00     0.005 C 
ATOM     22  C   UNL     1       7.796 -32.216  -6.435  1.00  0.00     0.003 C 
ATOM     23  C   UNL     1       9.577 -30.954  -7.687  1.00  0.00     0.010 C 
ATOM     24  C   UNL     1       7.628 -29.649  -6.841  1.00  0.00     0.012 C 
ATOM     25  C   UNL     1       7.018 -32.655  -7.737  1.00  0.00    -0.006 C 
ATOM     26  C   UNL     1       8.925 -31.356  -9.034  1.00  0.00     0.033 C 
ATOM     27  C   UNL     1       8.009 -32.605  -8.967  1.00  0.00     0.120 C 
ATOM     28  C   UNL     1       6.521 -34.124  -7.585  1.00  0.00     0.014 C 
ATOM     29  C   UNL     1       5.750 -31.802  -8.019  1.00  0.00     0.014 C 
ENDROOT
BRANCH   1  30
ATOM     30  C   UNL     1      11.305 -31.387   0.625  1.00  0.00     0.048 C 
ATOM     31  O   UNL     1      12.028 -30.569  -0.007  1.00  0.00    -0.550 OA
ATOM     32  O   UNL     1      11.877 -32.089   1.672  1.00  0.00    -0.550 OA
ENDBRANCH   1  30
BRANCH  27  33
ATOM     33  O   UNL     1       8.792 -33.772  -9.058  1.00  0.00    -0.393 OA
ATOM     34  H   UNL     1       8.736 -34.118  -9.983  1.00  0.00     0.210 HD
ENDBRANCH  27  33
TORSDOF 2
ENDMDL
MODEL 9
REMARK VINA RESULT:    -4.099      3.963      8.975
REMARK INTER + INTRA:          -3.813
REMARK INTER:                  -4.540
REMARK INTRA:                   0.727
REMARK UNBOUND:                 0.645
REMARK SMILES C[C@H]1[C@H]2C3=CC[C@@H]4[C@@]5(C)CC[C@@H](O)C(C)(C)[C@@H]5CC[C@]4(C)[C@]3(C)CC[C@]2(C(=O)[O-])CC[C@@H]1C
REMARK SMILES IDX 26 1 30 2 25 3 3 4 31 5 24 6 4 7 2 8 32 9 22 10 5 11 1 12
REMARK SMILES IDX 33 13 23 14 20 15 6 16 7 17 19 18 21 19 8 20 18 21 17 22
REMARK SMILES IDX 10 23 9 24 14 25 11 26 12 27 15 28 16 29 27 30 28 31 29 32
REMARK SMILES IDX 13 33
REMARK H PARENT 13 34
REMARK Flexibility Score: inf
ROOT
ATOM      1  C   UNL     1      10.894 -30.133   0.061  1.00  0.00     0.017 C 
ATOM      2  C   UNL     1      10.826 -30.923   1.413  1.00  0.00     0.014 C 
ATOM      3  C   UNL     1      11.968 -30.767  -0.837  1.00  0.00     0.014 C 
ATOM      4  C   UNL     1       9.524 -30.301  -0.656  1.00  0.00     0.030 C 
ATOM      5  C   UNL     1       9.454 -30.848   2.130  1.00  0.00     0.004 C 
ATOM      6  C   UNL     1      12.120 -30.024  -2.174  1.00  0.00     0.013 C 
ATOM      7  C   UNL     1       9.534 -30.118  -2.189  1.00  0.00    -0.063 C 
ATOM      8  C   UNL     1       8.317 -29.678   0.148  1.00  0.00    -0.003 C 
ATOM      9  C   UNL     1       8.595 -29.643   1.687  1.00  0.00    -0.011 C 
ATOM     10  C   UNL     1      10.787 -29.746  -3.003  1.00  0.00    -0.006 C 
ATOM     11  C   UNL     1       8.394 -30.391  -2.839  1.00  0.00    -0.027 C 
ATOM     12  C   UNL     1       7.828 -28.298  -0.351  1.00  0.00     0.008 C 
ATOM     13  C   UNL     1       7.291 -29.603   2.497  1.00  0.00     0.008 C 
ATOM     14  C   UNL     1      10.661 -28.200  -3.299  1.00  0.00     0.017 C 
ATOM     15  C   UNL     1      10.842 -30.554  -4.401  1.00  0.00    -0.020 C 
ATOM     16  C   UNL     1       8.264 -30.596  -4.313  1.00  0.00     0.032 C 
ATOM     17  C   UNL     1       9.503 -30.328  -5.237  1.00  0.00     0.006 C 
ATOM     18  C   UNL     1      10.987 -32.106  -4.150  1.00  0.00     0.008 C 
ATOM     19  C   UNL     1      12.113 -30.018  -5.183  1.00  0.00     0.012 C 
ATOM     20  C   UNL     1       9.399 -31.143  -6.649  1.00  0.00    -0.025 C 
ATOM     21  C   UNL     1      10.477 -33.028  -5.296  1.00  0.00     0.005 C 
ATOM     22  C   UNL     1      10.451 -32.305  -6.661  1.00  0.00     0.003 C 
ATOM     23  C   UNL     1       9.721 -30.223  -7.873  1.00  0.00     0.010 C 
ATOM     24  C   UNL     1       7.937 -31.662  -6.887  1.00  0.00     0.012 C 
ATOM     25  C   UNL     1      10.529 -33.187  -7.969  1.00  0.00    -0.006 C 
ATOM     26  C   UNL     1       9.799 -30.975  -9.226  1.00  0.00     0.033 C 
ATOM     27  C   UNL     1      10.701 -32.236  -9.219  1.00  0.00     0.120 C 
ATOM     28  C   UNL     1      11.775 -34.119  -7.903  1.00  0.00     0.014 C 
ATOM     29  C   UNL     1       9.304 -34.125  -8.158  1.00  0.00     0.014 C 
ENDROOT
BRANCH   1  30
ATOM     30  C   UNL     1      11.278 -28.680   0.341  1.00  0.00     0.048 C 
ATOM     31  O   UNL     1      10.745 -27.745  -0.317  1.00  0.00    -0.550 OA
ATOM     32  O   UNL     1      12.125 -28.346   1.383  1.00  0.00    -0.550 OA
ENDBRANCH   1  30
BRANCH  27  33
ATOM     33  O   UNL     1      12.044 -31.859  -9.410  1.00  0.00    -0.393 OA
ATOM     34  H   UNL     1      12.458 -32.482 -10.058  1.00  0.00     0.210 HD
ENDBRANCH  27  33
TORSDOF 2
ENDMDL
