MODEL 1
REMARK VINA RESULT:    -4.781      0.000      0.000
REMARK INTER + INTRA:          -8.310
REMARK INTER:                  -7.297
REMARK INTRA:                  -1.013
REMARK UNBOUND:                -1.013
REMARK SMILES OC[C@@H]1O[C@H](O[C@@]2(CO)O[C@H](CO)[C@@H](O)[C@H]2O)[C@H](O)[C@H](O)[C@@H]1O
REMARK SMILES IDX 6 1 5 2 3 3 22 4 4 5 20 6 18 7 2 8 1 9 23 11 21 13 19 15
REMARK SMILES IDX 7 17 16 18 10 19 14 20 11 21 8 22 9 23 17 25 15 27 12 29
REMARK SMILES IDX 13 30
REMARK H PARENT 1 10 23 12 21 14 19 16 9 24 17 26 15 28 13 31
REMARK Flexibility Score: inf
ROOT
ATOM      1  O   UNL     1      73.689   3.880  52.496  1.00  0.00    -0.313 OA
ENDROOT
BRANCH   1   2
ATOM      2  C   UNL     1      72.927   3.688  51.312  1.00  0.00     0.285 C 
ATOM      3  C   UNL     1      72.956   5.118  49.391  1.00  0.00     0.178 C 
ATOM      4  C   UNL     1      74.479   4.870  49.162  1.00  0.00     0.177 C 
ATOM      5  O   UNL     1      72.623   4.966  50.762  1.00  0.00    -0.341 OA
ATOM      6  C   UNL     1      74.970   3.543  49.826  1.00  0.00     0.179 C 
ATOM      7  C   UNL     1      73.759   2.751  50.391  1.00  0.00     0.202 C 
BRANCH   3   8
ATOM      8  C   UNL     1      72.540   6.528  48.938  1.00  0.00     0.191 C 
BRANCH   8   9
ATOM      9  O   UNL     1      72.526   7.470  49.985  1.00  0.00    -0.394 OA
ATOM     10  H   UNL     1      72.087   7.080  50.774  1.00  0.00     0.210 HD
ENDBRANCH   8   9
ENDBRANCH   3   8
BRANCH   4  11
ATOM     11  O   UNL     1      75.251   5.973  49.576  1.00  0.00    -0.387 OA
ATOM     12  H   UNL     1      74.775   6.799  49.294  1.00  0.00     0.211 HD
ENDBRANCH   4  11
BRANCH   6  13
ATOM     13  O   UNL     1      75.899   3.752  50.871  1.00  0.00    -0.387 OA
ATOM     14  H   UNL     1      76.787   3.414  50.565  1.00  0.00     0.211 HD
ENDBRANCH   6  13
BRANCH   7  15
ATOM     15  O   UNL     1      74.153   1.610  51.122  1.00  0.00    -0.385 OA
ATOM     16  H   UNL     1      74.706   1.885  51.906  1.00  0.00     0.211 HD
ENDBRANCH   7  15
ENDBRANCH   1   2
BRANCH   1  17
ATOM     17  C   UNL     1      73.002   3.622  53.724  1.00  0.00     0.224 C 
ATOM     18  C   UNL     1      72.901   4.961  54.490  1.00  0.00     0.208 C 
ATOM     19  O   UNL     1      73.730   2.721  54.553  1.00  0.00    -0.337 OA
ATOM     20  C   UNL     1      72.913   4.502  55.916  1.00  0.00     0.180 C 
ATOM     21  C   UNL     1      73.878   3.321  55.826  1.00  0.00     0.179 C 
BRANCH  17  22
ATOM     22  C   UNL     1      71.584   3.038  53.451  1.00  0.00     0.225 C 
BRANCH  22  23
ATOM     23  O   UNL     1      70.632   4.076  53.435  1.00  0.00    -0.391 OA
ATOM     24  H   UNL     1      70.531   4.356  52.486  1.00  0.00     0.210 HD
ENDBRANCH  22  23
ENDBRANCH  17  22
BRANCH  18  25
ATOM     25  O   UNL     1      74.035   5.749  54.236  1.00  0.00    -0.385 OA
ATOM     26  H   UNL     1      74.738   5.505  54.893  1.00  0.00     0.211 HD
ENDBRANCH  18  25
BRANCH  20  27
ATOM     27  O   UNL     1      73.365   5.484  56.805  1.00  0.00    -0.387 OA
ATOM     28  H   UNL     1      73.237   6.355  56.353  1.00  0.00     0.211 HD
ENDBRANCH  20  27
BRANCH  21  29
ATOM     29  C   UNL     1      73.645   2.305  56.949  1.00  0.00     0.191 C 
BRANCH  29  30
ATOM     30  O   UNL     1      72.723   2.768  57.900  1.00  0.00    -0.394 OA
ATOM     31  H   UNL     1      73.016   2.407  58.772  1.00  0.00     0.210 HD
ENDBRANCH  29  30
ENDBRANCH  21  29
ENDBRANCH   1  17
TORSDOF 13
ENDMDL
MODEL 2
REMARK VINA RESULT:    -4.547      1.996      3.087
REMARK INTER + INTRA:          -7.952
REMARK INTER:                  -6.724
REMARK INTRA:                  -1.228
REMARK UNBOUND:                -1.013
REMARK SMILES OC[C@@H]1O[C@H](O[C@@]2(CO)O[C@H](CO)[C@@H](O)[C@H]2O)[C@H](O)[C@H](O)[C@@H]1O
REMARK SMILES IDX 6 1 5 2 3 3 22 4 4 5 20 6 18 7 2 8 1 9 23 11 21 13 19 15
REMARK SMILES IDX 7 17 16 18 10 19 14 20 11 21 8 22 9 23 17 25 15 27 12 29
REMARK SMILES IDX 13 30
REMARK H PARENT 1 10 23 12 21 14 19 16 9 24 17 26 15 28 13 31
REMARK Flexibility Score: inf
ROOT
ATOM      1  O   UNL     1      72.355   3.031  52.544  1.00  0.00    -0.313 OA
ENDROOT
BRANCH   1   2
ATOM      2  C   UNL     1      71.304   3.956  52.304  1.00  0.00     0.285 C 
ATOM      3  C   UNL     1      71.121   5.388  50.393  1.00  0.00     0.178 C 
ATOM      4  C   UNL     1      71.076   4.173  49.417  1.00  0.00     0.177 C 
ATOM      5  O   UNL     1      71.834   5.058  51.574  1.00  0.00    -0.341 OA
ATOM      6  C   UNL     1      70.617   2.859  50.130  1.00  0.00     0.179 C 
ATOM      7  C   UNL     1      70.171   3.170  51.584  1.00  0.00     0.202 C 
BRANCH   3   8
ATOM      8  C   UNL     1      71.791   6.610  49.740  1.00  0.00     0.191 C 
BRANCH   8   9
ATOM      9  O   UNL     1      72.817   7.171  50.526  1.00  0.00    -0.394 OA
ATOM     10  H   UNL     1      73.662   7.156  50.023  1.00  0.00     0.210 HD
ENDBRANCH   8   9
ENDBRANCH   3   8
BRANCH   4  11
ATOM     11  O   UNL     1      72.302   3.999  48.749  1.00  0.00    -0.387 OA
ATOM     12  H   UNL     1      72.668   4.900  48.546  1.00  0.00     0.211 HD
ENDBRANCH   4  11
BRANCH   6  13
ATOM     13  O   UNL     1      71.622   1.865  50.169  1.00  0.00    -0.387 OA
ATOM     14  H   UNL     1      71.453   1.286  50.964  1.00  0.00     0.211 HD
ENDBRANCH   6  13
BRANCH   7  15
ATOM     15  O   UNL     1      69.876   2.003  52.321  1.00  0.00    -0.385 OA
ATOM     16  H   UNL     1      68.932   2.038  52.645  1.00  0.00     0.211 HD
ENDBRANCH   7  15
ENDBRANCH   1   2
BRANCH   1  17
ATOM     17  C   UNL     1      73.101   3.241  53.747  1.00  0.00     0.224 C 
ATOM     18  C   UNL     1      73.016   1.941  54.579  1.00  0.00     0.208 C 
ATOM     19  O   UNL     1      72.537   4.281  54.540  1.00  0.00    -0.337 OA
ATOM     20  C   UNL     1      73.106   2.463  55.980  1.00  0.00     0.180 C 
ATOM     21  C   UNL     1      72.329   3.772  55.844  1.00  0.00     0.179 C 
BRANCH  17  22
ATOM     22  C   UNL     1      74.585   3.589  53.423  1.00  0.00     0.225 C 
BRANCH  22  23
ATOM     23  O   UNL     1      74.639   4.681  52.537  1.00  0.00    -0.391 OA
ATOM     24  H   UNL     1      73.702   4.880  52.270  1.00  0.00     0.210 HD
ENDBRANCH  22  23
ENDBRANCH  17  22
BRANCH  18  25
ATOM     25  O   UNL     1      71.770   1.323  54.382  1.00  0.00    -0.385 OA
ATOM     26  H   UNL     1      71.814   0.406  54.760  1.00  0.00     0.211 HD
ENDBRANCH  18  25
BRANCH  20  27
ATOM     27  O   UNL     1      72.531   1.606  56.924  1.00  0.00    -0.387 OA
ATOM     28  H   UNL     1      72.972   1.800  57.788  1.00  0.00     0.211 HD
ENDBRANCH  20  27
BRANCH  21  29
ATOM     29  C   UNL     1      72.739   4.793  56.911  1.00  0.00     0.191 C 
BRANCH  29  30
ATOM     30  O   UNL     1      73.981   5.382  56.632  1.00  0.00    -0.394 OA
ATOM     31  H   UNL     1      74.427   4.796  55.973  1.00  0.00     0.210 HD
ENDBRANCH  29  30
ENDBRANCH  21  29
ENDBRANCH   1  17
TORSDOF 13
ENDMDL
MODEL 3
REMARK VINA RESULT:    -4.463      1.784      6.364
REMARK INTER + INTRA:          -7.825
REMARK INTER:                  -6.296
REMARK INTRA:                  -1.529
REMARK UNBOUND:                -1.013
REMARK SMILES OC[C@@H]1O[C@H](O[C@@]2(CO)O[C@H](CO)[C@@H](O)[C@H]2O)[C@H](O)[C@H](O)[C@@H]1O
REMARK SMILES IDX 6 1 5 2 3 3 22 4 4 5 20 6 18 7 2 8 1 9 23 11 21 13 19 15
REMARK SMILES IDX 7 17 16 18 10 19 14 20 11 21 8 22 9 23 17 25 15 27 12 29
REMARK SMILES IDX 13 30
REMARK H PARENT 1 10 23 12 21 14 19 16 9 24 17 26 15 28 13 31
REMARK Flexibility Score: inf
ROOT
ATOM      1  O   UNL     1      74.034   3.727  54.086  1.00  0.00    -0.313 OA
ENDROOT
BRANCH   1   2
ATOM      2  C   UNL     1      73.207   2.825  54.808  1.00  0.00     0.285 C 
ATOM      3  C   UNL     1      73.717   1.882  56.949  1.00  0.00     0.178 C 
ATOM      4  C   UNL     1      73.781   3.290  57.616  1.00  0.00     0.177 C 
ATOM      5  O   UNL     1      74.045   1.963  55.571  1.00  0.00    -0.341 OA
ATOM      6  C   UNL     1      72.990   4.366  56.803  1.00  0.00     0.179 C 
ATOM      7  C   UNL     1      72.217   3.691  55.638  1.00  0.00     0.202 C 
BRANCH   3   8
ATOM      8  C   UNL     1      74.682   0.893  57.626  1.00  0.00     0.191 C 
BRANCH   8   9
ATOM      9  O   UNL     1      74.718   1.019  59.029  1.00  0.00    -0.394 OA
ATOM     10  H   UNL     1      73.993   1.614  59.325  1.00  0.00     0.210 HD
ENDBRANCH   8   9
ENDBRANCH   3   8
BRANCH   4  11
ATOM     11  O   UNL     1      75.110   3.692  57.852  1.00  0.00    -0.387 OA
ATOM     12  H   UNL     1      75.226   3.792  58.834  1.00  0.00     0.211 HD
ENDBRANCH   4  11
BRANCH   6  13
ATOM     13  O   UNL     1      73.818   5.380  56.268  1.00  0.00    -0.387 OA
ATOM     14  H   UNL     1      73.699   5.384  55.277  1.00  0.00     0.211 HD
ENDBRANCH   6  13
BRANCH   7  15
ATOM     15  O   UNL     1      71.594   4.629  54.787  1.00  0.00    -0.385 OA
ATOM     16  H   UNL     1      70.630   4.396  54.676  1.00  0.00     0.211 HD
ENDBRANCH   7  15
ENDBRANCH   1   2
BRANCH   1  17
ATOM     17  C   UNL     1      73.786   3.803  52.679  1.00  0.00     0.224 C 
ATOM     18  C   UNL     1      74.012   5.270  52.246  1.00  0.00     0.208 C 
ATOM     19  O   UNL     1      72.435   3.480  52.365  1.00  0.00    -0.337 OA
ATOM     20  C   UNL     1      73.059   5.404  51.097  1.00  0.00     0.180 C 
ATOM     21  C   UNL     1      71.902   4.535  51.588  1.00  0.00     0.179 C 
BRANCH  17  22
ATOM     22  C   UNL     1      74.737   2.848  51.897  1.00  0.00     0.225 C 
BRANCH  22  23
ATOM     23  O   UNL     1      75.976   3.480  51.677  1.00  0.00    -0.391 OA
ATOM     24  H   UNL     1      75.799   4.258  51.083  1.00  0.00     0.210 HD
ENDBRANCH  22  23
ENDBRANCH  17  22
BRANCH  18  25
ATOM     25  O   UNL     1      73.634   6.142  53.280  1.00  0.00    -0.385 OA
ATOM     26  H   UNL     1      72.654   6.289  53.222  1.00  0.00     0.211 HD
ENDBRANCH  18  25
BRANCH  20  27
ATOM     27  O   UNL     1      72.662   6.725  50.865  1.00  0.00    -0.387 OA
ATOM     28  H   UNL     1      73.354   7.130  50.285  1.00  0.00     0.211 HD
ENDBRANCH  20  27
BRANCH  21  29
ATOM     29  C   UNL     1      71.058   3.998  50.427  1.00  0.00     0.191 C 
BRANCH  29  30
ATOM     30  O   UNL     1      70.556   5.026  49.615  1.00  0.00    -0.394 OA
ATOM     31  H   UNL     1      71.312   5.637  49.438  1.00  0.00     0.210 HD
ENDBRANCH  29  30
ENDBRANCH  21  29
ENDBRANCH   1  17
TORSDOF 13
ENDMDL
MODEL 4
REMARK VINA RESULT:    -4.399      1.591      5.711
REMARK INTER + INTRA:          -7.726
REMARK INTER:                  -6.386
REMARK INTRA:                  -1.340
REMARK UNBOUND:                -1.013
REMARK SMILES OC[C@@H]1O[C@H](O[C@@]2(CO)O[C@H](CO)[C@@H](O)[C@H]2O)[C@H](O)[C@H](O)[C@@H]1O
REMARK SMILES IDX 6 1 5 2 3 3 22 4 4 5 20 6 18 7 2 8 1 9 23 11 21 13 19 15
REMARK SMILES IDX 7 17 16 18 10 19 14 20 11 21 8 22 9 23 17 25 15 27 12 29
REMARK SMILES IDX 13 30
REMARK H PARENT 1 10 23 12 21 14 19 16 9 24 17 26 15 28 13 31
REMARK Flexibility Score: inf
ROOT
ATOM      1  O   UNL     1      72.877   3.124  52.405  1.00  0.00    -0.313 OA
ENDROOT
BRANCH   1   2
ATOM      2  C   UNL     1      73.821   3.957  53.062  1.00  0.00     0.285 C 
ATOM      3  C   UNL     1      73.892   4.392  55.416  1.00  0.00     0.178 C 
ATOM      4  C   UNL     1      74.105   2.882  55.744  1.00  0.00     0.177 C 
ATOM      5  O   UNL     1      73.189   4.546  54.194  1.00  0.00    -0.341 OA
ATOM      6  C   UNL     1      74.691   2.089  54.530  1.00  0.00     0.179 C 
ATOM      7  C   UNL     1      75.056   3.068  53.382  1.00  0.00     0.202 C 
BRANCH   3   8
ATOM      8  C   UNL     1      73.106   5.105  56.529  1.00  0.00     0.191 C 
BRANCH   8   9
ATOM      9  O   UNL     1      71.717   5.147  56.293  1.00  0.00    -0.394 OA
ATOM     10  H   UNL     1      71.236   4.901  57.115  1.00  0.00     0.210 HD
ENDBRANCH   8   9
ENDBRANCH   3   8
BRANCH   4  11
ATOM     11  O   UNL     1      72.926   2.287  56.231  1.00  0.00    -0.387 OA
ATOM     12  H   UNL     1      72.225   2.991  56.272  1.00  0.00     0.211 HD
ENDBRANCH   4  11
BRANCH   6  13
ATOM     13  O   UNL     1      73.805   1.110  54.024  1.00  0.00    -0.387 OA
ATOM     14  H   UNL     1      73.487   0.557  54.791  1.00  0.00     0.211 HD
ENDBRANCH   6  13
BRANCH   7  15
ATOM     15  O   UNL     1      75.463   2.398  52.209  1.00  0.00    -0.385 OA
ATOM     16  H   UNL     1      74.939   1.555  52.102  1.00  0.00     0.211 HD
ENDBRANCH   7  15
ENDBRANCH   1   2
BRANCH   1  17
ATOM     17  C   UNL     1      72.004   3.784  51.483  1.00  0.00     0.224 C 
ATOM     18  C   UNL     1      72.025   2.978  50.164  1.00  0.00     0.208 C 
ATOM     19  O   UNL     1      72.460   5.098  51.177  1.00  0.00    -0.337 OA
ATOM     20  C   UNL     1      71.777   4.047  49.145  1.00  0.00     0.180 C 
ATOM     21  C   UNL     1      72.539   5.215  49.769  1.00  0.00     0.179 C 
BRANCH  17  22
ATOM     22  C   UNL     1      70.556   3.864  52.054  1.00  0.00     0.225 C 
BRANCH  22  23
ATOM     23  O   UNL     1      70.598   4.170  53.428  1.00  0.00    -0.391 OA
ATOM     24  H   UNL     1      70.870   3.338  53.898  1.00  0.00     0.210 HD
ENDBRANCH  22  23
ENDBRANCH  17  22
BRANCH  18  25
ATOM     25  O   UNL     1      73.296   2.416  49.963  1.00  0.00    -0.385 OA
ATOM     26  H   UNL     1      73.975   3.132  50.075  1.00  0.00     0.211 HD
ENDBRANCH  18  25
BRANCH  20  27
ATOM     27  O   UNL     1      72.266   3.720  47.875  1.00  0.00    -0.387 OA
ATOM     28  H   UNL     1      71.855   4.358  47.241  1.00  0.00     0.211 HD
ENDBRANCH  20  27
BRANCH  21  29
ATOM     29  C   UNL     1      71.999   6.569  49.294  1.00  0.00     0.191 C 
BRANCH  29  30
ATOM     30  O   UNL     1      72.402   7.623  50.127  1.00  0.00    -0.394 OA
ATOM     31  H   UNL     1      71.631   8.236  50.194  1.00  0.00     0.210 HD
ENDBRANCH  29  30
ENDBRANCH  21  29
ENDBRANCH   1  17
TORSDOF 13
ENDMDL
MODEL 5
REMARK VINA RESULT:    -4.314      2.642      6.611
REMARK INTER + INTRA:          -7.597
REMARK INTER:                  -5.775
REMARK INTRA:                  -1.822
REMARK UNBOUND:                -1.013
REMARK SMILES OC[C@@H]1O[C@H](O[C@@]2(CO)O[C@H](CO)[C@@H](O)[C@H]2O)[C@H](O)[C@H](O)[C@@H]1O
REMARK SMILES IDX 6 1 5 2 3 3 22 4 4 5 20 6 18 7 2 8 1 9 23 11 21 13 19 15
REMARK SMILES IDX 7 17 16 18 10 19 14 20 11 21 8 22 9 23 17 25 15 27 12 29
REMARK SMILES IDX 13 30
REMARK H PARENT 1 10 23 12 21 14 19 16 9 24 17 26 15 28 13 31
REMARK Flexibility Score: inf
ROOT
ATOM      1  O   UNL     1      73.903   3.052  55.167  1.00  0.00    -0.313 OA
ENDROOT
BRANCH   1   2
ATOM      2  C   UNL     1      74.276   1.713  55.465  1.00  0.00     0.285 C 
ATOM      3  C   UNL     1      75.892   1.052  57.104  1.00  0.00     0.178 C 
ATOM      4  C   UNL     1      75.072   1.708  58.257  1.00  0.00     0.177 C 
ATOM      5  O   UNL     1      75.641   1.708  55.872  1.00  0.00    -0.341 OA
ATOM      6  C   UNL     1      73.563   1.881  57.886  1.00  0.00     0.179 C 
ATOM      7  C   UNL     1      73.267   1.193  56.526  1.00  0.00     0.202 C 
BRANCH   3   8
ATOM      8  C   UNL     1      77.403   1.100  57.388  1.00  0.00     0.191 C 
BRANCH   8   9
ATOM      9  O   UNL     1      77.718   0.997  58.757  1.00  0.00    -0.394 OA
ATOM     10  H   UNL     1      77.319   1.753  59.245  1.00  0.00     0.210 HD
ENDBRANCH   8   9
ENDBRANCH   3   8
BRANCH   4  11
ATOM     11  O   UNL     1      75.646   2.925  58.673  1.00  0.00    -0.387 OA
ATOM     12  H   UNL     1      76.564   2.730  59.001  1.00  0.00     0.211 HD
ENDBRANCH   4  11
BRANCH   6  13
ATOM     13  O   UNL     1      73.160   3.235  57.804  1.00  0.00    -0.387 OA
ATOM     14  H   UNL     1      72.207   3.290  58.095  1.00  0.00     0.211 HD
ENDBRANCH   6  13
BRANCH   7  15
ATOM     15  O   UNL     1      71.951   1.433  56.074  1.00  0.00    -0.385 OA
ATOM     16  H   UNL     1      71.511   0.567  55.843  1.00  0.00     0.211 HD
ENDBRANCH   7  15
ENDBRANCH   1   2
BRANCH   1  17
ATOM     17  C   UNL     1      73.438   3.283  53.835  1.00  0.00     0.224 C 
ATOM     18  C   UNL     1      72.264   4.285  53.920  1.00  0.00     0.208 C 
ATOM     19  O   UNL     1      72.927   2.093  53.242  1.00  0.00    -0.337 OA
ATOM     20  C   UNL     1      71.426   3.881  52.745  1.00  0.00     0.180 C 
ATOM     21  C   UNL     1      71.623   2.367  52.765  1.00  0.00     0.179 C 
BRANCH  17  22
ATOM     22  C   UNL     1      74.580   3.852  52.940  1.00  0.00     0.225 C 
BRANCH  22  23
ATOM     23  O   UNL     1      74.983   2.882  52.003  1.00  0.00    -0.391 OA
ATOM     24  H   UNL     1      74.889   3.296  51.104  1.00  0.00     0.210 HD
ENDBRANCH  22  23
ENDBRANCH  17  22
BRANCH  18  25
ATOM     25  O   UNL     1      71.543   4.084  55.108  1.00  0.00    -0.385 OA
ATOM     26  H   UNL     1      70.922   3.323  54.971  1.00  0.00     0.211 HD
ENDBRANCH  18  25
BRANCH  20  27
ATOM     27  O   UNL     1      70.080   4.238  52.883  1.00  0.00    -0.387 OA
ATOM     28  H   UNL     1      69.558   3.399  52.824  1.00  0.00     0.211 HD
ENDBRANCH  20  27
BRANCH  21  29
ATOM     29  C   UNL     1      71.395   1.742  51.385  1.00  0.00     0.191 C 
BRANCH  29  30
ATOM     30  O   UNL     1      72.517   1.868  50.553  1.00  0.00    -0.394 OA
ATOM     31  H   UNL     1      72.314   2.598  49.919  1.00  0.00     0.210 HD
ENDBRANCH  29  30
ENDBRANCH  21  29
ENDBRANCH   1  17
TORSDOF 13
ENDMDL
MODEL 6
REMARK VINA RESULT:    -4.255      1.796      3.573
REMARK INTER + INTRA:          -7.506
REMARK INTER:                  -6.434
REMARK INTRA:                  -1.072
REMARK UNBOUND:                -1.013
REMARK SMILES OC[C@@H]1O[C@H](O[C@@]2(CO)O[C@H](CO)[C@@H](O)[C@H]2O)[C@H](O)[C@H](O)[C@@H]1O
REMARK SMILES IDX 6 1 5 2 3 3 22 4 4 5 20 6 18 7 2 8 1 9 23 11 21 13 19 15
REMARK SMILES IDX 7 17 16 18 10 19 14 20 11 21 8 22 9 23 17 25 15 27 12 29
REMARK SMILES IDX 13 30
REMARK H PARENT 1 10 23 12 21 14 19 16 9 24 17 26 15 28 13 31
REMARK Flexibility Score: inf
ROOT
ATOM      1  O   UNL     1      72.479   4.867  51.940  1.00  0.00    -0.313 OA
ENDROOT
BRANCH   1   2
ATOM      2  C   UNL     1      73.161   4.786  50.696  1.00  0.00     0.285 C 
ATOM      3  C   UNL     1      72.304   3.772  48.703  1.00  0.00     0.178 C 
ATOM      4  C   UNL     1      71.098   4.760  48.653  1.00  0.00     0.177 C 
ATOM      5  O   UNL     1      72.752   3.592  50.037  1.00  0.00    -0.341 OA
ATOM      6  C   UNL     1      71.378   6.077  49.449  1.00  0.00     0.179 C 
ATOM      7  C   UNL     1      72.854   6.104  49.930  1.00  0.00     0.202 C 
BRANCH   3   8
ATOM      8  C   UNL     1      71.932   2.398  48.120  1.00  0.00     0.191 C 
BRANCH   8   9
ATOM      9  O   UNL     1      71.298   1.550  49.048  1.00  0.00    -0.394 OA
ATOM     10  H   UNL     1      70.963   0.749  48.587  1.00  0.00     0.210 HD
ENDBRANCH   8   9
ENDBRANCH   3   8
BRANCH   4  11
ATOM     11  O   UNL     1      69.906   4.142  49.076  1.00  0.00    -0.387 OA
ATOM     12  H   UNL     1      69.966   3.177  48.847  1.00  0.00     0.211 HD
ENDBRANCH   4  11
BRANCH   6  13
ATOM     13  O   UNL     1      70.534   6.240  50.571  1.00  0.00    -0.387 OA
ATOM     14  H   UNL     1      69.614   6.439  50.238  1.00  0.00     0.211 HD
ENDBRANCH   6  13
BRANCH   7  15
ATOM     15  O   UNL     1      73.129   7.204  50.769  1.00  0.00    -0.385 OA
ATOM     16  H   UNL     1      72.417   7.285  51.465  1.00  0.00     0.211 HD
ENDBRANCH   7  15
ENDBRANCH   1   2
BRANCH   1  17
ATOM     17  C   UNL     1      73.201   4.382  53.075  1.00  0.00     0.224 C 
ATOM     18  C   UNL     1      72.361   3.251  53.711  1.00  0.00     0.208 C 
ATOM     19  O   UNL     1      73.360   5.392  54.068  1.00  0.00    -0.337 OA
ATOM     20  C   UNL     1      72.740   3.360  55.157  1.00  0.00     0.180 C 
ATOM     21  C   UNL     1      72.887   4.874  55.297  1.00  0.00     0.179 C 
BRANCH  17  22
ATOM     22  C   UNL     1      74.604   3.852  52.653  1.00  0.00     0.225 C 
BRANCH  22  23
ATOM     23  O   UNL     1      74.537   2.470  52.395  1.00  0.00    -0.391 OA
ATOM     24  H   UNL     1      75.449   2.105  52.549  1.00  0.00     0.210 HD
ENDBRANCH  22  23
ENDBRANCH  17  22
BRANCH  18  25
ATOM     25  O   UNL     1      70.992   3.521  53.557  1.00  0.00    -0.385 OA
ATOM     26  H   UNL     1      70.481   2.853  54.084  1.00  0.00     0.211 HD
ENDBRANCH  18  25
BRANCH  20  27
ATOM     27  O   UNL     1      71.766   2.845  56.019  1.00  0.00    -0.387 OA
ATOM     28  H   UNL     1      72.133   2.918  56.936  1.00  0.00     0.211 HD
ENDBRANCH  20  27
BRANCH  21  29
ATOM     29  C   UNL     1      73.819   5.253  56.453  1.00  0.00     0.191 C 
BRANCH  29  30
ATOM     30  O   UNL     1      74.156   4.147  57.248  1.00  0.00    -0.394 OA
ATOM     31  H   UNL     1      73.304   3.762  57.567  1.00  0.00     0.210 HD
ENDBRANCH  29  30
ENDBRANCH  21  29
ENDBRANCH   1  17
TORSDOF 13
ENDMDL
MODEL 7
REMARK VINA RESULT:    -4.211     11.633     14.954
REMARK INTER + INTRA:          -7.439
REMARK INTER:                  -5.860
REMARK INTRA:                  -1.579
REMARK UNBOUND:                -1.013
REMARK SMILES OC[C@@H]1O[C@H](O[C@@]2(CO)O[C@H](CO)[C@@H](O)[C@H]2O)[C@H](O)[C@H](O)[C@@H]1O
REMARK SMILES IDX 6 1 5 2 3 3 22 4 4 5 20 6 18 7 2 8 1 9 23 11 21 13 19 15
REMARK SMILES IDX 7 17 16 18 10 19 14 20 11 21 8 22 9 23 17 25 15 27 12 29
REMARK SMILES IDX 13 30
REMARK H PARENT 1 10 23 12 21 14 19 16 9 24 17 26 15 28 13 31
REMARK Flexibility Score: inf
ROOT
ATOM      1  O   UNL     1      83.485   2.301  62.054  1.00  0.00    -0.313 OA
ENDROOT
BRANCH   1   2
ATOM      2  C   UNL     1      83.515   3.579  62.674  1.00  0.00     0.285 C 
ATOM      3  C   UNL     1      83.187   4.000  65.009  1.00  0.00     0.178 C 
ATOM      4  C   UNL     1      84.418   3.124  65.396  1.00  0.00     0.177 C 
ATOM      5  O   UNL     1      82.623   3.560  63.784  1.00  0.00    -0.341 OA
ATOM      6  C   UNL     1      85.428   2.966  64.213  1.00  0.00     0.179 C 
ATOM      7  C   UNL     1      85.002   3.871  63.025  1.00  0.00     0.202 C 
BRANCH   3   8
ATOM      8  C   UNL     1      82.099   3.955  66.095  1.00  0.00     0.191 C 
BRANCH   8   9
ATOM      9  O   UNL     1      81.052   3.058  65.801  1.00  0.00    -0.394 OA
ATOM     10  H   UNL     1      81.253   2.580  64.965  1.00  0.00     0.210 HD
ENDBRANCH   8   9
ENDBRANCH   3   8
BRANCH   4  11
ATOM     11  O   UNL     1      84.023   1.874  65.911  1.00  0.00    -0.387 OA
ATOM     12  H   UNL     1      84.669   1.621  66.622  1.00  0.00     0.211 HD
ENDBRANCH   4  11
BRANCH   6  13
ATOM     13  O   UNL     1      85.540   1.635  63.749  1.00  0.00    -0.387 OA
ATOM     14  H   UNL     1      84.842   1.089  64.209  1.00  0.00     0.211 HD
ENDBRANCH   6  13
BRANCH   7  15
ATOM     15  O   UNL     1      85.799   3.668  61.879  1.00  0.00    -0.385 OA
ATOM     16  H   UNL     1      86.010   2.698  61.781  1.00  0.00     0.211 HD
ENDBRANCH   7  15
ENDBRANCH   1   2
BRANCH   1  17
ATOM     17  C   UNL     1      82.927   2.264  60.738  1.00  0.00     0.224 C 
ATOM     18  C   UNL     1      83.721   1.217  59.925  1.00  0.00     0.208 C 
ATOM     19  O   UNL     1      83.077   3.513  60.068  1.00  0.00    -0.337 OA
ATOM     20  C   UNL     1      83.627   1.768  58.535  1.00  0.00     0.180 C 
ATOM     21  C   UNL     1      83.697   3.267  58.820  1.00  0.00     0.179 C 
BRANCH  17  22
ATOM     22  C   UNL     1      81.415   1.888  60.788  1.00  0.00     0.225 C 
BRANCH  22  23
ATOM     23  O   UNL     1      80.666   2.976  61.277  1.00  0.00    -0.391 OA
ATOM     24  H   UNL     1      79.752   2.634  61.463  1.00  0.00     0.210 HD
ENDBRANCH  22  23
ENDBRANCH  17  22
BRANCH  18  25
ATOM     25  O   UNL     1      85.062   1.200  60.340  1.00  0.00    -0.385 OA
ATOM     26  H   UNL     1      85.099   0.827  61.259  1.00  0.00     0.211 HD
ENDBRANCH  18  25
BRANCH  20  27
ATOM     27  O   UNL     1      84.670   1.342  57.704  1.00  0.00    -0.387 OA
ATOM     28  H   UNL     1      85.140   0.618  58.189  1.00  0.00     0.211 HD
ENDBRANCH  20  27
BRANCH  21  29
ATOM     29  C   UNL     1      83.045   4.092  57.705  1.00  0.00     0.191 C 
BRANCH  29  30
ATOM     30  O   UNL     1      83.163   3.476  56.451  1.00  0.00    -0.394 OA
ATOM     31  H   UNL     1      82.823   2.555  56.559  1.00  0.00     0.210 HD
ENDBRANCH  29  30
ENDBRANCH  21  29
ENDBRANCH   1  17
TORSDOF 13
ENDMDL
MODEL 8
REMARK VINA RESULT:    -4.135     12.095     15.664
REMARK INTER + INTRA:          -7.324
REMARK INTER:                  -5.627
REMARK INTRA:                  -1.697
REMARK UNBOUND:                -1.013
REMARK SMILES OC[C@@H]1O[C@H](O[C@@]2(CO)O[C@H](CO)[C@@H](O)[C@H]2O)[C@H](O)[C@H](O)[C@@H]1O
REMARK SMILES IDX 6 1 5 2 3 3 22 4 4 5 20 6 18 7 2 8 1 9 23 11 21 13 19 15
REMARK SMILES IDX 7 17 16 18 10 19 14 20 11 21 8 22 9 23 17 25 15 27 12 29
REMARK SMILES IDX 13 30
REMARK H PARENT 1 10 23 12 21 14 19 16 9 24 17 26 15 28 13 31
REMARK Flexibility Score: inf
ROOT
ATOM      1  O   UNL     1      83.937   3.114  62.868  1.00  0.00    -0.313 OA
ENDROOT
BRANCH   1   2
ATOM      2  C   UNL     1      83.684   1.912  63.584  1.00  0.00     0.285 C 
ATOM      3  C   UNL     1      83.755   1.672  65.966  1.00  0.00     0.178 C 
ATOM      4  C   UNL     1      82.623   2.727  66.161  1.00  0.00     0.177 C 
ATOM      5  O   UNL     1      84.474   1.922  64.769  1.00  0.00    -0.341 OA
ATOM      6  C   UNL     1      81.747   2.900  64.878  1.00  0.00     0.179 C 
ATOM      7  C   UNL     1      82.148   1.843  63.813  1.00  0.00     0.202 C 
BRANCH   3   8
ATOM      8  C   UNL     1      84.744   1.681  67.144  1.00  0.00     0.191 C 
BRANCH   8   9
ATOM      9  O   UNL     1      85.865   2.506  66.926  1.00  0.00    -0.394 OA
ATOM     10  H   UNL     1      86.688   1.980  67.039  1.00  0.00     0.210 HD
ENDBRANCH   8   9
ENDBRANCH   3   8
BRANCH   4  11
ATOM     11  O   UNL     1      83.136   3.960  66.608  1.00  0.00    -0.387 OA
ATOM     12  H   UNL     1      83.654   3.789  67.439  1.00  0.00     0.211 HD
ENDBRANCH   4  11
BRANCH   6  13
ATOM     13  O   UNL     1      81.853   4.186  64.299  1.00  0.00    -0.387 OA
ATOM     14  H   UNL     1      81.129   4.277  63.617  1.00  0.00     0.211 HD
ENDBRANCH   6  13
BRANCH   7  15
ATOM     15  O   UNL     1      81.484   2.036  62.583  1.00  0.00    -0.385 OA
ATOM     16  H   UNL     1      80.984   1.209  62.335  1.00  0.00     0.211 HD
ENDBRANCH   7  15
ENDBRANCH   1   2
BRANCH   1  17
ATOM     17  C   UNL     1      84.412   2.948  61.529  1.00  0.00     0.224 C 
ATOM     18  C   UNL     1      83.714   4.013  60.653  1.00  0.00     0.208 C 
ATOM     19  O   UNL     1      84.056   1.675  60.999  1.00  0.00    -0.337 OA
ATOM     20  C   UNL     1      83.647   3.326  59.324  1.00  0.00     0.180 C 
ATOM     21  C   UNL     1      83.397   1.884  59.764  1.00  0.00     0.179 C 
BRANCH  17  22
ATOM     22  C   UNL     1      85.960   3.115  61.467  1.00  0.00     0.225 C 
BRANCH  22  23
ATOM     23  O   UNL     1      86.350   4.247  62.207  1.00  0.00    -0.391 OA
ATOM     24  H   UNL     1      85.732   4.983  61.953  1.00  0.00     0.210 HD
ENDBRANCH  22  23
ENDBRANCH  17  22
BRANCH  18  25
ATOM     25  O   UNL     1      82.415   4.254  61.130  1.00  0.00    -0.385 OA
ATOM     26  H   UNL     1      81.807   4.338  60.349  1.00  0.00     0.211 HD
ENDBRANCH  18  25
BRANCH  20  27
ATOM     27  O   UNL     1      82.620   3.810  58.507  1.00  0.00    -0.387 OA
ATOM     28  H   UNL     1      81.983   3.063  58.380  1.00  0.00     0.211 HD
ENDBRANCH  20  27
BRANCH  21  29
ATOM     29  C   UNL     1      83.863   0.875  58.708  1.00  0.00     0.191 C 
BRANCH  29  30
ATOM     30  O   UNL     1      83.917   1.438  57.424  1.00  0.00    -0.394 OA
ATOM     31  H   UNL     1      82.993   1.702  57.196  1.00  0.00     0.210 HD
ENDBRANCH  29  30
ENDBRANCH  21  29
ENDBRANCH   1  17
TORSDOF 13
ENDMDL
MODEL 9
REMARK VINA RESULT:    -4.135      7.746      8.957
REMARK INTER + INTRA:          -7.323
REMARK INTER:                  -6.080
REMARK INTRA:                  -1.243
REMARK UNBOUND:                -1.013
REMARK SMILES OC[C@@H]1O[C@H](O[C@@]2(CO)O[C@H](CO)[C@@H](O)[C@H]2O)[C@H](O)[C@H](O)[C@@H]1O
REMARK SMILES IDX 6 1 5 2 3 3 22 4 4 5 20 6 18 7 2 8 1 9 23 11 21 13 19 15
REMARK SMILES IDX 7 17 16 18 10 19 14 20 11 21 8 22 9 23 17 25 15 27 12 29
REMARK SMILES IDX 13 30
REMARK H PARENT 1 10 23 12 21 14 19 16 9 24 17 26 15 28 13 31
REMARK Flexibility Score: inf
ROOT
ATOM      1  O   UNL     1      81.591   2.649  54.236  1.00  0.00    -0.313 OA
ENDROOT
BRANCH   1   2
ATOM      2  C   UNL     1      81.285   1.561  53.374  1.00  0.00     0.285 C 
ATOM      3  C   UNL     1      79.867   1.670  51.447  1.00  0.00     0.178 C 
ATOM      4  C   UNL     1      80.786   2.729  50.763  1.00  0.00     0.177 C 
ATOM      5  O   UNL     1      79.971   1.753  52.859  1.00  0.00    -0.341 OA
ATOM      6  C   UNL     1      82.243   2.702  51.329  1.00  0.00     0.179 C 
ATOM      7  C   UNL     1      82.413   1.507  52.305  1.00  0.00     0.202 C 
BRANCH   3   8
ATOM      8  C   UNL     1      78.393   1.863  51.050  1.00  0.00     0.191 C 
BRANCH   8   9
ATOM      9  O   UNL     1      77.729   2.834  51.825  1.00  0.00    -0.394 OA
ATOM     10  H   UNL     1      77.845   3.720  51.412  1.00  0.00     0.210 HD
ENDBRANCH   8   9
ENDBRANCH   3   8
BRANCH   4  11
ATOM     11  O   UNL     1      80.228   4.019  50.829  1.00  0.00    -0.387 OA
ATOM     12  H   UNL     1      80.556   4.450  51.662  1.00  0.00     0.211 HD
ENDBRANCH   4  11
BRANCH   6  13
ATOM     13  O   UNL     1      82.600   3.891  52.005  1.00  0.00    -0.387 OA
ATOM     14  H   UNL     1      82.900   3.645  52.924  1.00  0.00     0.211 HD
ENDBRANCH   6  13
BRANCH   7  15
ATOM     15  O   UNL     1      83.667   1.511  52.952  1.00  0.00    -0.385 OA
ATOM     16  H   UNL     1      84.299   0.910  52.467  1.00  0.00     0.211 HD
ENDBRANCH   7  15
ENDBRANCH   1   2
BRANCH   1  17
ATOM     17  C   UNL     1      82.030   2.293  55.550  1.00  0.00     0.224 C 
ATOM     18  C   UNL     1      81.483   3.359  56.527  1.00  0.00     0.208 C 
ATOM     19  O   UNL     1      83.450   2.321  55.654  1.00  0.00    -0.337 OA
ATOM     20  C   UNL     1      82.534   3.367  57.595  1.00  0.00     0.180 C 
ATOM     21  C   UNL     1      83.791   3.140  56.756  1.00  0.00     0.179 C 
BRANCH  17  22
ATOM     22  C   UNL     1      81.514   0.875  55.940  1.00  0.00     0.225 C 
BRANCH  22  23
ATOM     23  O   UNL     1      80.264   0.979  56.580  1.00  0.00    -0.391 OA
ATOM     24  H   UNL     1      79.822   0.093  56.489  1.00  0.00     0.210 HD
ENDBRANCH  22  23
ENDBRANCH  17  22
BRANCH  18  25
ATOM     25  O   UNL     1      81.437   4.613  55.897  1.00  0.00    -0.385 OA
ATOM     26  H   UNL     1      81.766   4.507  54.966  1.00  0.00     0.211 HD
ENDBRANCH  18  25
BRANCH  20  27
ATOM     27  O   UNL     1      82.586   4.572  58.304  1.00  0.00    -0.387 OA
ATOM     28  H   UNL     1      82.652   5.294  57.631  1.00  0.00     0.211 HD
ENDBRANCH  20  27
BRANCH  21  29
ATOM     29  C   UNL     1      84.924   2.519  57.581  1.00  0.00     0.191 C 
BRANCH  29  30
ATOM     30  O   UNL     1      84.782   2.773  58.953  1.00  0.00    -0.394 OA
ATOM     31  H   UNL     1      83.829   2.630  59.167  1.00  0.00     0.210 HD
ENDBRANCH  29  30
ENDBRANCH  21  29
ENDBRANCH   1  17
TORSDOF 13
ENDMDL
