MODEL 1
REMARK VINA RESULT:    -4.214      0.000      0.000
REMARK INTER + INTRA:          -6.838
REMARK INTER:                  -5.939
REMARK INTRA:                  -0.899
REMARK UNBOUND:                -0.899
REMARK SMILES CCCCCCCCC(=O)[O-]
REMARK SMILES IDX 6 1 7 2 8 3 9 4 10 5 11 6 5 7 4 8 3 9 2 10 1 11
REMARK H PARENT
REMARK Flexibility Score: inf
ROOT
ATOM      1  C   UNL     1      11.797  12.955 162.482  1.00  0.00     0.000 C 
ENDROOT
BRANCH   1   2
ATOM      2  C   UNL     1      11.215  13.517 161.171  1.00  0.00     0.006 C 
BRANCH   2   3
ATOM      3  C   UNL     1      10.821  15.001 161.237  1.00  0.00     0.053 C 
BRANCH   3   4
ATOM      4  C   UNL     1      11.646  15.844 160.312  1.00  0.00     0.041 C 
ATOM      5  O   UNL     1      12.760  15.427 159.899  1.00  0.00    -0.550 OA
ATOM      6  O   UNL     1      11.168  17.075 159.881  1.00  0.00    -0.550 OA
ENDBRANCH   3   4
ENDBRANCH   2   3
ENDBRANCH   1   2
BRANCH   1   7
ATOM      7  C   UNL     1      13.332  13.034 162.533  1.00  0.00     0.000 C 
BRANCH   7   8
ATOM      8  C   UNL     1      13.845  14.068 163.553  1.00  0.00    -0.000 C 
BRANCH   8   9
ATOM      9  C   UNL     1      14.394  15.372 162.946  1.00  0.00    -0.000 C 
BRANCH   9  10
ATOM     10  C   UNL     1      13.659  16.623 163.450  1.00  0.00    -0.003 C 
ATOM     11  C   UNL     1      12.477  16.245 164.339  1.00  0.00     0.004 C 
ENDBRANCH   9  10
ENDBRANCH   8   9
ENDBRANCH   7   8
ENDBRANCH   1   7
TORSDOF 7
ENDMDL
MODEL 2
REMARK VINA RESULT:    -4.202      2.211      2.980
REMARK INTER + INTRA:          -6.821
REMARK INTER:                  -6.012
REMARK INTRA:                  -0.809
REMARK UNBOUND:                -0.899
REMARK SMILES CCCCCCCCC(=O)[O-]
REMARK SMILES IDX 6 1 7 2 8 3 9 4 10 5 11 6 5 7 4 8 3 9 2 10 1 11
REMARK H PARENT
REMARK Flexibility Score: inf
ROOT
ATOM      1  C   UNL     1      12.734  14.008 161.376  1.00  0.00     0.000 C 
ENDROOT
BRANCH   1   2
ATOM      2  C   UNL     1      12.663  12.958 162.501  1.00  0.00     0.006 C 
BRANCH   2   3
ATOM      3  C   UNL     1      11.274  12.807 163.142  1.00  0.00     0.053 C 
BRANCH   3   4
ATOM      4  C   UNL     1      10.184  12.753 162.115  1.00  0.00     0.041 C 
ATOM      5  O   UNL     1       9.382  13.717 161.991  1.00  0.00    -0.550 OA
ATOM      6  O   UNL     1      10.074  11.654 161.273  1.00  0.00    -0.550 OA
ENDBRANCH   3   4
ENDBRANCH   2   3
ENDBRANCH   1   2
BRANCH   1   7
ATOM      7  C   UNL     1      13.903  14.993 161.557  1.00  0.00     0.000 C 
BRANCH   7   8
ATOM      8  C   UNL     1      14.204  15.300 163.035  1.00  0.00    -0.000 C 
BRANCH   8   9
ATOM      9  C   UNL     1      13.506  16.551 163.601  1.00  0.00    -0.000 C 
BRANCH   9  10
ATOM     10  C   UNL     1      12.278  16.214 164.459  1.00  0.00    -0.003 C 
ATOM     11  C   UNL     1      10.983  16.556 163.725  1.00  0.00     0.004 C 
ENDBRANCH   9  10
ENDBRANCH   8   9
ENDBRANCH   7   8
ENDBRANCH   1   7
TORSDOF 7
ENDMDL
MODEL 3
REMARK VINA RESULT:    -4.148      1.714      3.296
REMARK INTER + INTRA:          -6.745
REMARK INTER:                  -5.906
REMARK INTRA:                  -0.839
REMARK UNBOUND:                -0.899
REMARK SMILES CCCCCCCCC(=O)[O-]
REMARK SMILES IDX 6 1 7 2 8 3 9 4 10 5 11 6 5 7 4 8 3 9 2 10 1 11
REMARK H PARENT
REMARK Flexibility Score: inf
ROOT
ATOM      1  C   UNL     1      11.576  12.458 161.871  1.00  0.00     0.000 C 
ENDROOT
BRANCH   1   2
ATOM      2  C   UNL     1      12.296  13.124 163.060  1.00  0.00     0.006 C 
BRANCH   2   3
ATOM      3  C   UNL     1      13.789  13.403 162.823  1.00  0.00     0.053 C 
BRANCH   3   4
ATOM      4  C   UNL     1      14.019  14.746 162.201  1.00  0.00     0.041 C 
ATOM      5  O   UNL     1      14.378  15.721 162.913  1.00  0.00    -0.550 OA
ATOM      6  O   UNL     1      13.868  14.913 160.830  1.00  0.00    -0.550 OA
ENDBRANCH   3   4
ENDBRANCH   2   3
ENDBRANCH   1   2
BRANCH   1   7
ATOM      7  C   UNL     1      10.111  12.908 161.736  1.00  0.00     0.000 C 
BRANCH   7   8
ATOM      8  C   UNL     1       9.912  14.402 162.047  1.00  0.00    -0.000 C 
BRANCH   8   9
ATOM      9  C   UNL     1      10.357  15.369 160.935  1.00  0.00    -0.000 C 
BRANCH   9  10
ATOM     10  C   UNL     1      10.909  16.695 161.479  1.00  0.00    -0.003 C 
ATOM     11  C   UNL     1      10.943  16.692 163.005  1.00  0.00     0.004 C 
ENDBRANCH   9  10
ENDBRANCH   8   9
ENDBRANCH   7   8
ENDBRANCH   1   7
TORSDOF 7
ENDMDL
MODEL 4
REMARK VINA RESULT:    -4.110      2.242      3.732
REMARK INTER + INTRA:          -6.691
REMARK INTER:                  -5.824
REMARK INTRA:                  -0.866
REMARK UNBOUND:                -0.899
REMARK SMILES CCCCCCCCC(=O)[O-]
REMARK SMILES IDX 6 1 7 2 8 3 9 4 10 5 11 6 5 7 4 8 3 9 2 10 1 11
REMARK H PARENT
REMARK Flexibility Score: inf
ROOT
ATOM      1  C   UNL     1      14.227  14.921 162.361  1.00  0.00     0.000 C 
ENDROOT
BRANCH   1   2
ATOM      2  C   UNL     1      13.691  13.619 162.986  1.00  0.00     0.006 C 
BRANCH   2   3
ATOM      3  C   UNL     1      12.632  12.897 162.138  1.00  0.00     0.053 C 
BRANCH   3   4
ATOM      4  C   UNL     1      11.319  12.788 162.851  1.00  0.00     0.041 C 
ATOM      5  O   UNL     1      11.265  12.915 164.102  1.00  0.00    -0.550 OA
ATOM      6  O   UNL     1      10.151  12.578 162.129  1.00  0.00    -0.550 OA
ENDBRANCH   3   4
ENDBRANCH   2   3
ENDBRANCH   1   2
BRANCH   1   7
ATOM      7  C   UNL     1      13.956  16.156 163.238  1.00  0.00     0.000 C 
BRANCH   7   8
ATOM      8  C   UNL     1      12.479  16.282 163.655  1.00  0.00    -0.000 C 
BRANCH   8   9
ATOM      9  C   UNL     1      11.588  17.077 162.683  1.00  0.00    -0.000 C 
BRANCH   9  10
ATOM     10  C   UNL     1      10.699  16.178 161.812  1.00  0.00    -0.003 C 
ATOM     11  C   UNL     1      11.243  16.079 160.389  1.00  0.00     0.004 C 
ENDBRANCH   9  10
ENDBRANCH   8   9
ENDBRANCH   7   8
ENDBRANCH   1   7
TORSDOF 7
ENDMDL
MODEL 5
REMARK VINA RESULT:    -4.088      2.083      3.007
REMARK INTER + INTRA:          -6.660
REMARK INTER:                  -5.801
REMARK INTRA:                  -0.859
REMARK UNBOUND:                -0.899
REMARK SMILES CCCCCCCCC(=O)[O-]
REMARK SMILES IDX 6 1 7 2 8 3 9 4 10 5 11 6 5 7 4 8 3 9 2 10 1 11
REMARK H PARENT
REMARK Flexibility Score: inf
ROOT
ATOM      1  C   UNL     1      13.333  14.535 161.849  1.00  0.00     0.000 C 
ENDROOT
BRANCH   1   2
ATOM      2  C   UNL     1      13.021  13.135 162.412  1.00  0.00     0.006 C 
BRANCH   2   3
ATOM      3  C   UNL     1      11.610  12.990 163.004  1.00  0.00     0.053 C 
BRANCH   3   4
ATOM      4  C   UNL     1      10.545  13.097 161.955  1.00  0.00     0.041 C 
ATOM      5  O   UNL     1       9.741  14.066 161.965  1.00  0.00    -0.550 OA
ATOM      6  O   UNL     1      10.463  12.144 160.947  1.00  0.00    -0.550 OA
ENDBRANCH   3   4
ENDBRANCH   2   3
ENDBRANCH   1   2
BRANCH   1   7
ATOM      7  C   UNL     1      14.256  15.353 162.770  1.00  0.00     0.000 C 
BRANCH   7   8
ATOM      8  C   UNL     1      13.501  16.426 163.575  1.00  0.00    -0.000 C 
BRANCH   8   9
ATOM      9  C   UNL     1      12.088  16.758 163.061  1.00  0.00    -0.000 C 
BRANCH   9  10
ATOM     10  C   UNL     1      11.011  16.634 164.149  1.00  0.00    -0.003 C 
ATOM     11  C   UNL     1      11.514  15.805 165.329  1.00  0.00     0.004 C 
ENDBRANCH   9  10
ENDBRANCH   8   9
ENDBRANCH   7   8
ENDBRANCH   1   7
TORSDOF 7
ENDMDL
MODEL 6
REMARK VINA RESULT:    -4.039      0.913      2.380
REMARK INTER + INTRA:          -6.591
REMARK INTER:                  -5.762
REMARK INTRA:                  -0.829
REMARK UNBOUND:                -0.899
REMARK SMILES CCCCCCCCC(=O)[O-]
REMARK SMILES IDX 6 1 7 2 8 3 9 4 10 5 11 6 5 7 4 8 3 9 2 10 1 11
REMARK H PARENT
REMARK Flexibility Score: inf
ROOT
ATOM      1  C   UNL     1      10.921  16.491 163.348  1.00  0.00     0.000 C 
ENDROOT
BRANCH   1   2
ATOM      2  C   UNL     1      10.483  15.243 162.558  1.00  0.00     0.006 C 
BRANCH   2   3
ATOM      3  C   UNL     1      10.197  15.502 161.070  1.00  0.00     0.053 C 
BRANCH   3   4
ATOM      4  C   UNL     1      11.352  16.165 160.383  1.00  0.00     0.041 C 
ATOM      5  O   UNL     1      12.398  15.512 160.128  1.00  0.00    -0.550 OA
ATOM      6  O   UNL     1      11.259  17.495 159.993  1.00  0.00    -0.550 OA
ENDBRANCH   3   4
ENDBRANCH   2   3
ENDBRANCH   1   2
BRANCH   1   7
ATOM      7  C   UNL     1      12.141  16.227 164.248  1.00  0.00     0.000 C 
BRANCH   7   8
ATOM      8  C   UNL     1      13.473  16.614 163.581  1.00  0.00    -0.000 C 
BRANCH   8   9
ATOM      9  C   UNL     1      14.264  15.444 162.968  1.00  0.00    -0.000 C 
BRANCH   9  10
ATOM     10  C   UNL     1      13.946  14.095 163.630  1.00  0.00    -0.003 C 
ATOM     11  C   UNL     1      13.431  13.088 162.604  1.00  0.00     0.004 C 
ENDBRANCH   9  10
ENDBRANCH   8   9
ENDBRANCH   7   8
ENDBRANCH   1   7
TORSDOF 7
ENDMDL
MODEL 7
REMARK VINA RESULT:    -4.029      2.403      4.023
REMARK INTER + INTRA:          -6.576
REMARK INTER:                  -5.820
REMARK INTRA:                  -0.757
REMARK UNBOUND:                -0.899
REMARK SMILES CCCCCCCCC(=O)[O-]
REMARK SMILES IDX 6 1 7 2 8 3 9 4 10 5 11 6 5 7 4 8 3 9 2 10 1 11
REMARK H PARENT
REMARK Flexibility Score: inf
ROOT
ATOM      1  C   UNL     1      13.922  15.029 162.289  1.00  0.00     0.000 C 
ENDROOT
BRANCH   1   2
ATOM      2  C   UNL     1      13.743  16.118 163.364  1.00  0.00     0.006 C 
BRANCH   2   3
ATOM      3  C   UNL     1      12.438  16.921 163.243  1.00  0.00     0.053 C 
BRANCH   3   4
ATOM      4  C   UNL     1      11.481  16.610 164.354  1.00  0.00     0.041 C 
ATOM      5  O   UNL     1      10.293  17.025 164.302  1.00  0.00    -0.550 OA
ATOM      6  O   UNL     1      11.893  15.834 165.430  1.00  0.00    -0.550 OA
ENDBRANCH   3   4
ENDBRANCH   2   3
ENDBRANCH   1   2
BRANCH   1   7
ATOM      7  C   UNL     1      13.860  13.606 162.870  1.00  0.00     0.000 C 
BRANCH   7   8
ATOM      8  C   UNL     1      12.645  12.806 162.366  1.00  0.00    -0.000 C 
BRANCH   8   9
ATOM      9  C   UNL     1      11.322  13.088 163.102  1.00  0.00    -0.000 C 
BRANCH   9  10
ATOM     10  C   UNL     1      10.109  13.129 162.161  1.00  0.00    -0.003 C 
ATOM     11  C   UNL     1       9.775  14.563 161.757  1.00  0.00     0.004 C 
ENDBRANCH   9  10
ENDBRANCH   8   9
ENDBRANCH   7   8
ENDBRANCH   1   7
TORSDOF 7
ENDMDL
MODEL 8
REMARK VINA RESULT:    -4.021      2.341      3.593
REMARK INTER + INTRA:          -6.565
REMARK INTER:                  -5.759
REMARK INTRA:                  -0.807
REMARK UNBOUND:                -0.899
REMARK SMILES CCCCCCCCC(=O)[O-]
REMARK SMILES IDX 6 1 7 2 8 3 9 4 10 5 11 6 5 7 4 8 3 9 2 10 1 11
REMARK H PARENT
REMARK Flexibility Score: inf
ROOT
ATOM      1  C   UNL     1       9.641  14.578 161.789  1.00  0.00     0.000 C 
ENDROOT
BRANCH   1   2
ATOM      2  C   UNL     1      10.161  13.128 161.802  1.00  0.00     0.006 C 
BRANCH   2   3
ATOM      3  C   UNL     1      11.691  13.001 161.723  1.00  0.00     0.053 C 
BRANCH   3   4
ATOM      4  C   UNL     1      12.330  13.054 163.077  1.00  0.00     0.041 C 
ATOM      5  O   UNL     1      11.645  12.835 164.111  1.00  0.00    -0.550 OA
ATOM      6  O   UNL     1      13.690  13.311 163.195  1.00  0.00    -0.550 OA
ENDBRANCH   3   4
ENDBRANCH   2   3
ENDBRANCH   1   2
BRANCH   1   7
ATOM      7  C   UNL     1      10.555  15.529 160.997  1.00  0.00     0.000 C 
BRANCH   7   8
ATOM      8  C   UNL     1      11.050  16.721 161.837  1.00  0.00    -0.000 C 
BRANCH   8   9
ATOM      9  C   UNL     1      10.729  16.642 163.341  1.00  0.00    -0.000 C 
BRANCH   9  10
ATOM     10  C   UNL     1      11.980  16.446 164.210  1.00  0.00    -0.003 C 
ATOM     11  C   UNL     1      13.247  16.820 163.444  1.00  0.00     0.004 C 
ENDBRANCH   9  10
ENDBRANCH   8   9
ENDBRANCH   7   8
ENDBRANCH   1   7
TORSDOF 7
ENDMDL
MODEL 9
REMARK VINA RESULT:    -4.002      1.224      3.177
REMARK INTER + INTRA:          -6.539
REMARK INTER:                  -5.759
REMARK INTRA:                  -0.780
REMARK UNBOUND:                -0.899
REMARK SMILES CCCCCCCCC(=O)[O-]
REMARK SMILES IDX 6 1 7 2 8 3 9 4 10 5 11 6 5 7 4 8 3 9 2 10 1 11
REMARK H PARENT
REMARK Flexibility Score: inf
ROOT
ATOM      1  C   UNL     1      13.041  15.153 163.892  1.00  0.00     0.000 C 
ENDROOT
BRANCH   1   2
ATOM      2  C   UNL     1      13.064  16.248 162.809  1.00  0.00     0.006 C 
BRANCH   2   3
ATOM      3  C   UNL     1      11.686  16.588 162.221  1.00  0.00     0.053 C 
BRANCH   3   4
ATOM      4  C   UNL     1      11.516  16.045 160.834  1.00  0.00     0.041 C 
ATOM      5  O   UNL     1      12.485  15.499 160.244  1.00  0.00    -0.550 OA
ATOM      6  O   UNL     1      10.278  16.113 160.207  1.00  0.00    -0.550 OA
ENDBRANCH   3   4
ENDBRANCH   2   3
ENDBRANCH   1   2
BRANCH   1   7
ATOM      7  C   UNL     1      13.642  13.823 163.405  1.00  0.00     0.000 C 
BRANCH   7   8
ATOM      8  C   UNL     1      12.618  12.937 162.670  1.00  0.00    -0.000 C 
BRANCH   8   9
ATOM      9  C   UNL     1      11.194  12.958 163.255  1.00  0.00    -0.000 C 
BRANCH   9  10
ATOM     10  C   UNL     1      10.103  12.926 162.174  1.00  0.00    -0.003 C 
ATOM     11  C   UNL     1      10.454  11.934 161.068  1.00  0.00     0.004 C 
ENDBRANCH   9  10
ENDBRANCH   8   9
ENDBRANCH   7   8
ENDBRANCH   1   7
TORSDOF 7
ENDMDL
