MODEL 1
REMARK VINA RESULT:    -5.609      0.000      0.000
REMARK INTER + INTRA:          -6.373
REMARK INTER:                  -6.265
REMARK INTRA:                  -0.108
REMARK UNBOUND:                -0.108
REMARK SMILES COc1cc2ccc(=O)oc2cc1OC
REMARK SMILES IDX 3 1 13 2 12 3 11 4 5 5 4 6 6 7 7 8 8 9 9 10 10 11 2 12 1 13
REMARK SMILES IDX 14 14 15 15
REMARK H PARENT
REMARK Flexibility Score: inf
ROOT
ATOM      1  C   UNL     1       2.904   6.106 -24.626  1.00  0.00     0.161 A 
ATOM      2  C   UNL     1       2.510   4.791 -24.325  1.00  0.00     0.164 A 
ATOM      3  C   UNL     1       2.454   4.367 -22.982  1.00  0.00     0.098 A 
ATOM      4  C   UNL     1       2.788   5.245 -21.948  1.00  0.00     0.142 A 
ATOM      5  C   UNL     1       3.184   6.564 -22.250  1.00  0.00     0.022 A 
ATOM      6  C   UNL     1       3.241   6.991 -23.582  1.00  0.00     0.062 A 
ATOM      7  C   UNL     1       3.511   7.420 -21.193  1.00  0.00     0.019 A 
ATOM      8  C   UNL     1       3.439   6.948 -19.882  1.00  0.00     0.094 A 
ATOM      9  C   UNL     1       3.038   5.626 -19.659  1.00  0.00     0.336 A 
ATOM     10  O   UNL     1       2.966   5.181 -18.485  1.00  0.00    -0.246 OA
ATOM     11  O   UNL     1       2.732   4.834 -20.684  1.00  0.00    -0.423 OA
ENDROOT
BRANCH   1  12
ATOM     12  O   UNL     1       2.949   6.494 -25.975  1.00  0.00    -0.493 OA
ATOM     13  C   UNL     1       4.125   6.487 -26.778  1.00  0.00     0.278 C 
ENDBRANCH   1  12
BRANCH   2  14
ATOM     14  O   UNL     1       2.182   3.935 -25.389  1.00  0.00    -0.493 OA
ATOM     15  C   UNL     1       1.538   2.674 -25.241  1.00  0.00     0.278 C 
ENDBRANCH   2  14
TORSDOF 2
ENDMDL
MODEL 2
REMARK VINA RESULT:    -5.593      4.149      5.842
REMARK INTER + INTRA:          -6.354
REMARK INTER:                  -6.223
REMARK INTRA:                  -0.132
REMARK UNBOUND:                -0.108
REMARK SMILES COc1cc2ccc(=O)oc2cc1OC
REMARK SMILES IDX 3 1 13 2 12 3 11 4 5 5 4 6 6 7 7 8 8 9 9 10 10 11 2 12 1 13
REMARK SMILES IDX 14 14 15 15
REMARK H PARENT
REMARK Flexibility Score: inf
ROOT
ATOM      1  C   UNL     1      -0.731   1.239 -20.068  1.00  0.00     0.161 A 
ATOM      2  C   UNL     1      -0.128   1.607 -21.284  1.00  0.00     0.164 A 
ATOM      3  C   UNL     1       0.874   2.598 -21.297  1.00  0.00     0.098 A 
ATOM      4  C   UNL     1       1.271   3.218 -20.110  1.00  0.00     0.142 A 
ATOM      5  C   UNL     1       0.667   2.850 -18.891  1.00  0.00     0.022 A 
ATOM      6  C   UNL     1      -0.329   1.866 -18.871  1.00  0.00     0.062 A 
ATOM      7  C   UNL     1       1.087   3.488 -17.719  1.00  0.00     0.019 A 
ATOM      8  C   UNL     1       2.083   4.462 -17.789  1.00  0.00     0.094 A 
ATOM      9  C   UNL     1       2.637   4.776 -19.035  1.00  0.00     0.336 A 
ATOM     10  O   UNL     1       3.536   5.652 -19.121  1.00  0.00    -0.246 OA
ATOM     11  O   UNL     1       2.218   4.153 -20.134  1.00  0.00    -0.423 OA
ENDROOT
BRANCH   1  12
ATOM     12  O   UNL     1      -1.725   0.248 -20.093  1.00  0.00    -0.493 OA
ATOM     13  C   UNL     1      -3.125   0.510 -20.086  1.00  0.00     0.278 C 
ENDBRANCH   1  12
BRANCH   2  14
ATOM     14  O   UNL     1      -0.553   0.963 -22.458  1.00  0.00    -0.493 OA
ATOM     15  C   UNL     1       0.128  -0.126 -23.071  1.00  0.00     0.278 C 
ENDBRANCH   2  14
TORSDOF 2
ENDMDL
MODEL 3
REMARK VINA RESULT:    -5.573      1.691      5.840
REMARK INTER + INTRA:          -6.332
REMARK INTER:                  -6.256
REMARK INTRA:                  -0.076
REMARK UNBOUND:                -0.108
REMARK SMILES COc1cc2ccc(=O)oc2cc1OC
REMARK SMILES IDX 3 1 13 2 12 3 11 4 5 5 4 6 6 7 7 8 8 9 9 10 10 11 2 12 1 13
REMARK SMILES IDX 14 14 15 15
REMARK H PARENT
REMARK Flexibility Score: inf
ROOT
ATOM      1  C   UNL     1       2.775   4.986 -22.914  1.00  0.00     0.161 A 
ATOM      2  C   UNL     1       3.006   6.364 -23.065  1.00  0.00     0.164 A 
ATOM      3  C   UNL     1       3.330   6.884 -24.334  1.00  0.00     0.098 A 
ATOM      4  C   UNL     1       3.423   6.039 -25.442  1.00  0.00     0.142 A 
ATOM      5  C   UNL     1       3.191   4.656 -25.291  1.00  0.00     0.022 A 
ATOM      6  C   UNL     1       2.869   4.134 -24.033  1.00  0.00     0.062 A 
ATOM      7  C   UNL     1       3.291   3.836 -26.420  1.00  0.00     0.019 A 
ATOM      8  C   UNL     1       3.615   4.404 -27.652  1.00  0.00     0.094 A 
ATOM      9  C   UNL     1       3.832   5.784 -27.726  1.00  0.00     0.336 A 
ATOM     10  O   UNL     1       4.125   6.316 -28.828  1.00  0.00    -0.246 OA
ATOM     11  O   UNL     1       3.730   6.541 -26.636  1.00  0.00    -0.423 OA
ENDROOT
BRANCH   1  12
ATOM     12  O   UNL     1       2.454   4.503 -21.635  1.00  0.00    -0.493 OA
ATOM     13  C   UNL     1       1.459   3.519 -21.370  1.00  0.00     0.278 C 
ENDBRANCH   1  12
BRANCH   2  14
ATOM     14  O   UNL     1       2.905   7.184 -21.929  1.00  0.00    -0.493 OA
ATOM     15  C   UNL     1       3.976   7.453 -21.031  1.00  0.00     0.278 C 
ENDBRANCH   2  14
TORSDOF 2
ENDMDL
MODEL 4
REMARK VINA RESULT:    -5.335      2.969      4.750
REMARK INTER + INTRA:          -6.067
REMARK INTER:                  -5.977
REMARK INTRA:                  -0.090
REMARK UNBOUND:                -0.108
REMARK SMILES COc1cc2ccc(=O)oc2cc1OC
REMARK SMILES IDX 3 1 13 2 12 3 11 4 5 5 4 6 6 7 7 8 8 9 9 10 10 11 2 12 1 13
REMARK SMILES IDX 14 14 15 15
REMARK H PARENT
REMARK Flexibility Score: inf
ROOT
ATOM      1  C   UNL     1       2.979   5.602 -20.102  1.00  0.00     0.161 A 
ATOM      2  C   UNL     1       2.588   5.109 -21.358  1.00  0.00     0.164 A 
ATOM      3  C   UNL     1       1.779   3.958 -21.438  1.00  0.00     0.098 A 
ATOM      4  C   UNL     1       1.363   3.304 -20.275  1.00  0.00     0.142 A 
ATOM      5  C   UNL     1       1.756   3.798 -19.015  1.00  0.00     0.022 A 
ATOM      6  C   UNL     1       2.559   4.941 -18.930  1.00  0.00     0.062 A 
ATOM      7  C   UNL     1       1.322   3.122 -17.869  1.00  0.00     0.019 A 
ATOM      8  C   UNL     1       0.522   1.987 -18.005  1.00  0.00     0.094 A 
ATOM      9  C   UNL     1       0.173   1.555 -19.290  1.00  0.00     0.336 A 
ATOM     10  O   UNL     1      -0.548   0.534 -19.435  1.00  0.00    -0.246 OA
ATOM     11  O   UNL     1       0.599   2.218 -20.362  1.00  0.00    -0.423 OA
ENDROOT
BRANCH   1  12
ATOM     12  O   UNL     1       3.786   6.751 -20.061  1.00  0.00    -0.493 OA
ATOM     13  C   UNL     1       3.289   8.083 -19.971  1.00  0.00     0.278 C 
ENDBRANCH   1  12
BRANCH   2  14
ATOM     14  O   UNL     1       3.025   5.792 -22.506  1.00  0.00    -0.493 OA
ATOM     15  C   UNL     1       2.924   5.285 -23.832  1.00  0.00     0.278 C 
ENDBRANCH   2  14
TORSDOF 2
ENDMDL
MODEL 5
REMARK VINA RESULT:    -5.252      1.559      5.091
REMARK INTER + INTRA:          -5.974
REMARK INTER:                  -5.942
REMARK INTRA:                  -0.032
REMARK UNBOUND:                -0.108
REMARK SMILES COc1cc2ccc(=O)oc2cc1OC
REMARK SMILES IDX 3 1 13 2 12 3 11 4 5 5 4 6 6 7 7 8 8 9 9 10 10 11 2 12 1 13
REMARK SMILES IDX 14 14 15 15
REMARK H PARENT
REMARK Flexibility Score: inf
ROOT
ATOM      1  C   UNL     1       2.998   6.348 -22.742  1.00  0.00     0.161 A 
ATOM      2  C   UNL     1       2.643   5.012 -22.486  1.00  0.00     0.164 A 
ATOM      3  C   UNL     1       2.667   4.069 -23.532  1.00  0.00     0.098 A 
ATOM      4  C   UNL     1       3.040   4.452 -24.822  1.00  0.00     0.142 A 
ATOM      5  C   UNL     1       3.395   5.792 -25.080  1.00  0.00     0.022 A 
ATOM      6  C   UNL     1       3.374   6.734 -24.044  1.00  0.00     0.062 A 
ATOM      7  C   UNL     1       3.765   6.145 -26.382  1.00  0.00     0.019 A 
ATOM      8  C   UNL     1       3.771   5.171 -27.380  1.00  0.00     0.094 A 
ATOM      9  C   UNL     1       3.406   3.861 -27.050  1.00  0.00     0.336 A 
ATOM     10  O   UNL     1       3.404   2.966 -27.936  1.00  0.00    -0.246 OA
ATOM     11  O   UNL     1       3.058   3.553 -25.803  1.00  0.00    -0.423 OA
ENDROOT
BRANCH   1  12
ATOM     12  O   UNL     1       2.963   7.261 -21.676  1.00  0.00    -0.493 OA
ATOM     13  C   UNL     1       4.008   7.429 -20.723  1.00  0.00     0.278 C 
ENDBRANCH   1  12
BRANCH   2  14
ATOM     14  O   UNL     1       2.273   4.662 -21.177  1.00  0.00    -0.493 OA
ATOM     15  C   UNL     1       1.544   3.489 -20.831  1.00  0.00     0.278 C 
ENDBRANCH   2  14
TORSDOF 2
ENDMDL
MODEL 6
REMARK VINA RESULT:    -5.192      3.729      5.423
REMARK INTER + INTRA:          -5.907
REMARK INTER:                  -5.786
REMARK INTRA:                  -0.120
REMARK UNBOUND:                -0.108
REMARK SMILES COc1cc2ccc(=O)oc2cc1OC
REMARK SMILES IDX 3 1 13 2 12 3 11 4 5 5 4 6 6 7 7 8 8 9 9 10 10 11 2 12 1 13
REMARK SMILES IDX 14 14 15 15
REMARK H PARENT
REMARK Flexibility Score: inf
ROOT
ATOM      1  C   UNL     1       0.353   0.606 -22.159  1.00  0.00     0.161 A 
ATOM      2  C   UNL     1       0.760   1.855 -22.660  1.00  0.00     0.164 A 
ATOM      3  C   UNL     1       1.127   2.881 -21.768  1.00  0.00     0.098 A 
ATOM      4  C   UNL     1       1.088   2.667 -20.388  1.00  0.00     0.142 A 
ATOM      5  C   UNL     1       0.679   1.414 -19.885  1.00  0.00     0.022 A 
ATOM      6  C   UNL     1       0.314   0.391 -20.767  1.00  0.00     0.062 A 
ATOM      7  C   UNL     1       0.652   1.230 -18.498  1.00  0.00     0.019 A 
ATOM      8  C   UNL     1       1.025   2.280 -17.660  1.00  0.00     0.094 A 
ATOM      9  C   UNL     1       1.419   3.496 -18.231  1.00  0.00     0.336 A 
ATOM     10  O   UNL     1       1.759   4.456 -17.493  1.00  0.00    -0.246 OA
ATOM     11  O   UNL     1       1.436   3.643 -19.554  1.00  0.00    -0.423 OA
ENDROOT
BRANCH   1  12
ATOM     12  O   UNL     1      -0.005  -0.394 -23.078  1.00  0.00    -0.493 OA
ATOM     13  C   UNL     1      -1.345  -0.718 -23.436  1.00  0.00     0.278 C 
ENDBRANCH   1  12
BRANCH   2  14
ATOM     14  O   UNL     1       0.786   2.036 -24.053  1.00  0.00    -0.493 OA
ATOM     15  C   UNL     1       1.799   2.750 -24.754  1.00  0.00     0.278 C 
ENDBRANCH   2  14
TORSDOF 2
ENDMDL
MODEL 7
REMARK VINA RESULT:    -5.064      1.558      4.852
REMARK INTER + INTRA:          -5.763
REMARK INTER:                  -5.647
REMARK INTRA:                  -0.116
REMARK UNBOUND:                -0.108
REMARK SMILES COc1cc2ccc(=O)oc2cc1OC
REMARK SMILES IDX 3 1 13 2 12 3 11 4 5 5 4 6 6 7 7 8 8 9 9 10 10 11 2 12 1 13
REMARK SMILES IDX 14 14 15 15
REMARK H PARENT
REMARK Flexibility Score: inf
ROOT
ATOM      1  C   UNL     1       2.284   4.377 -22.245  1.00  0.00     0.161 A 
ATOM      2  C   UNL     1       2.245   3.322 -23.173  1.00  0.00     0.164 A 
ATOM      3  C   UNL     1       2.625   3.550 -24.509  1.00  0.00     0.098 A 
ATOM      4  C   UNL     1       3.040   4.820 -24.920  1.00  0.00     0.142 A 
ATOM      5  C   UNL     1       3.078   5.879 -23.991  1.00  0.00     0.022 A 
ATOM      6  C   UNL     1       2.702   5.658 -22.661  1.00  0.00     0.062 A 
ATOM      7  C   UNL     1       3.499   7.138 -24.432  1.00  0.00     0.019 A 
ATOM      8  C   UNL     1       3.864   7.309 -25.767  1.00  0.00     0.094 A 
ATOM      9  C   UNL     1       3.800   6.211 -26.633  1.00  0.00     0.336 A 
ATOM     10  O   UNL     1       4.124   6.344 -27.841  1.00  0.00    -0.246 OA
ATOM     11  O   UNL     1       3.396   5.025 -26.186  1.00  0.00    -0.423 OA
ENDROOT
BRANCH   1  12
ATOM     12  O   UNL     1       1.898   4.113 -20.921  1.00  0.00    -0.493 OA
ATOM     13  C   UNL     1       2.564   4.623 -19.770  1.00  0.00     0.278 C 
ENDBRANCH   1  12
BRANCH   2  14
ATOM     14  O   UNL     1       1.822   2.059 -22.725  1.00  0.00    -0.493 OA
ATOM     15  C   UNL     1       0.501   1.551 -22.876  1.00  0.00     0.278 C 
ENDBRANCH   2  14
TORSDOF 2
ENDMDL
MODEL 8
REMARK VINA RESULT:    -5.049      6.486      8.066
REMARK INTER + INTRA:          -5.747
REMARK INTER:                  -5.591
REMARK INTRA:                  -0.156
REMARK UNBOUND:                -0.108
REMARK SMILES COc1cc2ccc(=O)oc2cc1OC
REMARK SMILES IDX 3 1 13 2 12 3 11 4 5 5 4 6 6 7 7 8 8 9 9 10 10 11 2 12 1 13
REMARK SMILES IDX 14 14 15 15
REMARK H PARENT
REMARK Flexibility Score: inf
ROOT
ATOM      1  C   UNL     1       0.262   1.613 -19.688  1.00  0.00     0.161 A 
ATOM      2  C   UNL     1       0.335   0.468 -20.500  1.00  0.00     0.164 A 
ATOM      3  C   UNL     1      -0.847  -0.196 -20.881  1.00  0.00     0.098 A 
ATOM      4  C   UNL     1      -2.092   0.274 -20.454  1.00  0.00     0.142 A 
ATOM      5  C   UNL     1      -2.165   1.422 -19.639  1.00  0.00     0.022 A 
ATOM      6  C   UNL     1      -0.994   2.087 -19.258  1.00  0.00     0.062 A 
ATOM      7  C   UNL     1      -3.426   1.869 -19.230  1.00  0.00     0.019 A 
ATOM      8  C   UNL     1      -4.565   1.173 -19.635  1.00  0.00     0.094 A 
ATOM      9  C   UNL     1      -4.414   0.041 -20.445  1.00  0.00     0.336 A 
ATOM     10  O   UNL     1      -5.428  -0.601 -20.821  1.00  0.00    -0.246 OA
ATOM     11  O   UNL     1      -3.202  -0.361 -20.819  1.00  0.00    -0.423 OA
ENDROOT
BRANCH   1  12
ATOM     12  O   UNL     1       1.461   2.250 -19.328  1.00  0.00    -0.493 OA
ATOM     13  C   UNL     1       2.166   2.016 -18.113  1.00  0.00     0.278 C 
ENDBRANCH   1  12
BRANCH   2  14
ATOM     14  O   UNL     1       1.603   0.023 -20.909  1.00  0.00    -0.493 OA
ATOM     15  C   UNL     1       2.264  -1.122 -20.383  1.00  0.00     0.278 C 
ENDBRANCH   2  14
TORSDOF 2
ENDMDL
MODEL 9
REMARK VINA RESULT:    -4.959      2.211      3.809
REMARK INTER + INTRA:          -5.646
REMARK INTER:                  -5.536
REMARK INTRA:                  -0.110
REMARK UNBOUND:                -0.108
REMARK SMILES COc1cc2ccc(=O)oc2cc1OC
REMARK SMILES IDX 3 1 13 2 12 3 11 4 5 5 4 6 6 7 7 8 8 9 9 10 10 11 2 12 1 13
REMARK SMILES IDX 14 14 15 15
REMARK H PARENT
REMARK Flexibility Score: inf
ROOT
ATOM      1  C   UNL     1       2.630   4.148 -25.383  1.00  0.00     0.161 A 
ATOM      2  C   UNL     1       2.998   5.106 -24.422  1.00  0.00     0.164 A 
ATOM      3  C   UNL     1       2.614   4.932 -23.078  1.00  0.00     0.098 A 
ATOM      4  C   UNL     1       1.869   3.815 -22.693  1.00  0.00     0.142 A 
ATOM      5  C   UNL     1       1.499   2.854 -23.657  1.00  0.00     0.022 A 
ATOM      6  C   UNL     1       1.878   3.021 -24.994  1.00  0.00     0.062 A 
ATOM      7  C   UNL     1       0.754   1.745 -23.240  1.00  0.00     0.019 A 
ATOM      8  C   UNL     1       0.400   1.623 -21.897  1.00  0.00     0.094 A 
ATOM      9  C   UNL     1       0.803   2.617 -20.997  1.00  0.00     0.336 A 
ATOM     10  O   UNL     1       0.494   2.526 -19.781  1.00  0.00    -0.246 OA
ATOM     11  O   UNL     1       1.511   3.661 -21.421  1.00  0.00    -0.423 OA
ENDROOT
BRANCH   1  12
ATOM     12  O   UNL     1       3.029   4.354 -26.713  1.00  0.00    -0.493 OA
ATOM     13  C   UNL     1       2.998   3.355 -27.728  1.00  0.00     0.278 C 
ENDBRANCH   1  12
BRANCH   2  14
ATOM     14  O   UNL     1       3.746   6.217 -24.844  1.00  0.00    -0.493 OA
ATOM     15  C   UNL     1       3.193   7.493 -25.150  1.00  0.00     0.278 C 
ENDBRANCH   2  14
TORSDOF 2
ENDMDL
