MODEL 1
REMARK VINA RESULT:    -3.521      0.000      0.000
REMARK INTER + INTRA:          -5.474
REMARK INTER:                  -4.756
REMARK INTRA:                  -0.718
REMARK UNBOUND:                -0.718
REMARK SMILES C[C@@H](O)[C@@H](O)[C@@H](O)[C@H](O)C=O
REMARK SMILES IDX 4 1 2 2 1 3 3 4 6 6 8 7 10 8 11 9 9 10 7 12 5 14
REMARK H PARENT 3 5 9 11 7 13 5 15
REMARK Flexibility Score: inf
ROOT
ATOM      1  C   UNL     1       5.237   0.748  -7.189  1.00  0.00     0.174 C 
ENDROOT
BRANCH   1   2
ATOM      2  C   UNL     1       4.155   0.084  -6.286  1.00  0.00     0.142 C 
ATOM      3  C   UNL     1       4.704  -0.775  -5.137  1.00  0.00     0.041 C 
BRANCH   2   4
ATOM      4  O   UNL     1       3.285   1.067  -5.778  1.00  0.00    -0.391 OA
ATOM      5  H   UNL     1       2.355   0.784  -5.982  1.00  0.00     0.211 HD
ENDBRANCH   2   4
ENDBRANCH   1   2
BRANCH   1   6
ATOM      6  C   UNL     1       5.557   2.249  -6.917  1.00  0.00     0.181 C 
BRANCH   6   7
ATOM      7  C   UNL     1       6.722   2.793  -7.777  1.00  0.00     0.209 C 
BRANCH   7   8
ATOM      8  C   UNL     1       7.407   3.936  -7.075  1.00  0.00     0.258 C 
ATOM      9  O   UNL     1       8.214   3.720  -6.184  1.00  0.00    -0.300 OA
ENDBRANCH   7   8
BRANCH   7  10
ATOM     10  O   UNL     1       7.659   1.776  -8.022  1.00  0.00    -0.383 OA
ATOM     11  H   UNL     1       7.779   1.726  -9.006  1.00  0.00     0.211 HD
ENDBRANCH   7  10
ENDBRANCH   6   7
BRANCH   6  12
ATOM     12  O   UNL     1       5.823   2.481  -5.555  1.00  0.00    -0.387 OA
ATOM     13  H   UNL     1       6.088   1.614  -5.151  1.00  0.00     0.211 HD
ENDBRANCH   6  12
ENDBRANCH   1   6
BRANCH   1  14
ATOM     14  O   UNL     1       4.968   0.536  -8.554  1.00  0.00    -0.388 OA
ATOM     15  H   UNL     1       4.391  -0.265  -8.633  1.00  0.00     0.211 HD
ENDBRANCH   1  14
TORSDOF 8
ENDMDL
MODEL 2
REMARK VINA RESULT:    -3.452     16.352     17.695
REMARK INTER + INTRA:          -5.381
REMARK INTER:                  -4.865
REMARK INTRA:                  -0.516
REMARK UNBOUND:                -0.718
REMARK SMILES C[C@@H](O)[C@@H](O)[C@@H](O)[C@H](O)C=O
REMARK SMILES IDX 4 1 2 2 1 3 3 4 6 6 8 7 10 8 11 9 9 10 7 12 5 14
REMARK H PARENT 3 5 9 11 7 13 5 15
REMARK Flexibility Score: inf
ROOT
ATOM      1  C   UNL     1       4.650  11.398   6.831  1.00  0.00     0.174 C 
ENDROOT
BRANCH   1   2
ATOM      2  C   UNL     1       5.437  12.688   7.214  1.00  0.00     0.142 C 
ATOM      3  C   UNL     1       4.874  13.992   6.628  1.00  0.00     0.041 C 
BRANCH   2   4
ATOM      4  O   UNL     1       5.534  12.792   8.614  1.00  0.00    -0.391 OA
ATOM      5  H   UNL     1       6.470  13.038   8.836  1.00  0.00     0.211 HD
ENDBRANCH   2   4
ENDBRANCH   1   2
BRANCH   1   6
ATOM      6  C   UNL     1       5.080  10.076   7.534  1.00  0.00     0.181 C 
BRANCH   6   7
ATOM      7  C   UNL     1       4.198   9.716   8.753  1.00  0.00     0.209 C 
BRANCH   7   8
ATOM      8  C   UNL     1       4.340   8.256   9.094  1.00  0.00     0.258 C 
ATOM      9  O   UNL     1       3.961   7.397   8.312  1.00  0.00    -0.300 OA
ENDBRANCH   7   8
BRANCH   7  10
ATOM     10  O   UNL     1       4.574  10.485   9.866  1.00  0.00    -0.383 OA
ATOM     11  H   UNL     1       5.384  10.996   9.603  1.00  0.00     0.211 HD
ENDBRANCH   7  10
ENDBRANCH   6   7
BRANCH   6  12
ATOM     12  O   UNL     1       6.433  10.113   7.920  1.00  0.00    -0.387 OA
ATOM     13  H   UNL     1       6.962   9.693   7.193  1.00  0.00     0.211 HD
ENDBRANCH   6  12
ENDBRANCH   1   6
BRANCH   1  14
ATOM     14  O   UNL     1       4.597  11.226   5.436  1.00  0.00    -0.388 OA
ATOM     15  H   UNL     1       5.507  10.996   5.119  1.00  0.00     0.211 HD
ENDBRANCH   1  14
TORSDOF 8
ENDMDL
MODEL 3
REMARK VINA RESULT:    -3.436      1.324      3.925
REMARK INTER + INTRA:          -5.359
REMARK INTER:                  -4.357
REMARK INTRA:                  -1.003
REMARK UNBOUND:                -0.718
REMARK SMILES C[C@@H](O)[C@@H](O)[C@@H](O)[C@H](O)C=O
REMARK SMILES IDX 4 1 2 2 1 3 3 4 6 6 8 7 10 8 11 9 9 10 7 12 5 14
REMARK H PARENT 3 5 9 11 7 13 5 15
REMARK Flexibility Score: inf
ROOT
ATOM      1  C   UNL     1       5.102   2.383  -7.929  1.00  0.00     0.174 C 
ENDROOT
BRANCH   1   2
ATOM      2  C   UNL     1       6.293   3.161  -7.293  1.00  0.00     0.142 C 
ATOM      3  C   UNL     1       6.375   4.649  -7.673  1.00  0.00     0.041 C 
BRANCH   2   4
ATOM      4  O   UNL     1       6.263   3.024  -5.893  1.00  0.00    -0.391 OA
ATOM      5  H   UNL     1       7.157   2.707  -5.600  1.00  0.00     0.211 HD
ENDBRANCH   2   4
ENDBRANCH   1   2
BRANCH   1   6
ATOM      6  C   UNL     1       5.074   0.840  -7.712  1.00  0.00     0.181 C 
BRANCH   6   7
ATOM      7  C   UNL     1       4.125   0.398  -6.574  1.00  0.00     0.209 C 
BRANCH   7   8
ATOM      8  C   UNL     1       4.898  -0.292  -5.480  1.00  0.00     0.258 C 
ATOM      9  O   UNL     1       5.520   0.360  -4.656  1.00  0.00    -0.300 OA
ENDBRANCH   7   8
BRANCH   7  10
ATOM     10  O   UNL     1       3.465   1.514  -6.034  1.00  0.00    -0.383 OA
ATOM     11  H   UNL     1       3.085   2.022  -6.799  1.00  0.00     0.211 HD
ENDBRANCH   7  10
ENDBRANCH   6   7
BRANCH   6  12
ATOM     12  O   UNL     1       6.364   0.328  -7.482  1.00  0.00    -0.387 OA
ATOM     13  H   UNL     1       6.424  -0.548  -7.945  1.00  0.00     0.211 HD
ENDBRANCH   6  12
ENDBRANCH   1   6
BRANCH   1  14
ATOM     14  O   UNL     1       4.954   2.697  -9.293  1.00  0.00    -0.388 OA
ATOM     15  H   UNL     1       5.640   3.370  -9.530  1.00  0.00     0.211 HD
ENDBRANCH   1  14
TORSDOF 8
ENDMDL
MODEL 4
REMARK VINA RESULT:    -3.409     16.531     17.831
REMARK INTER + INTRA:          -5.322
REMARK INTER:                  -4.499
REMARK INTRA:                  -0.823
REMARK UNBOUND:                -0.718
REMARK SMILES C[C@@H](O)[C@@H](O)[C@@H](O)[C@H](O)C=O
REMARK SMILES IDX 4 1 2 2 1 3 3 4 6 6 8 7 10 8 11 9 9 10 7 12 5 14
REMARK H PARENT 3 5 9 11 7 13 5 15
REMARK Flexibility Score: inf
ROOT
ATOM      1  C   UNL     1       5.062  11.634   6.942  1.00  0.00     0.174 C 
ENDROOT
BRANCH   1   2
ATOM      2  C   UNL     1       5.385  13.158   6.978  1.00  0.00     0.142 C 
ATOM      3  C   UNL     1       4.543  14.024   6.027  1.00  0.00     0.041 C 
BRANCH   2   4
ATOM      4  O   UNL     1       5.273  13.641   8.295  1.00  0.00    -0.391 OA
ATOM      5  H   UNL     1       4.311  13.799   8.480  1.00  0.00     0.211 HD
ENDBRANCH   2   4
ENDBRANCH   1   2
BRANCH   1   6
ATOM      6  C   UNL     1       6.178  10.666   7.437  1.00  0.00     0.181 C 
BRANCH   6   7
ATOM      7  C   UNL     1       5.662   9.580   8.409  1.00  0.00     0.209 C 
BRANCH   7   8
ATOM      8  C   UNL     1       4.968  10.212   9.587  1.00  0.00     0.258 C 
ATOM      9  O   UNL     1       5.418  11.225  10.100  1.00  0.00    -0.300 OA
ENDBRANCH   7   8
BRANCH   7  10
ATOM     10  O   UNL     1       4.760   8.729   7.749  1.00  0.00    -0.383 OA
ATOM     11  H   UNL     1       4.878   7.824   8.142  1.00  0.00     0.211 HD
ENDBRANCH   7  10
ENDBRANCH   6   7
BRANCH   6  12
ATOM     12  O   UNL     1       7.244  11.368   8.030  1.00  0.00    -0.387 OA
ATOM     13  H   UNL     1       8.065  10.825   7.904  1.00  0.00     0.211 HD
ENDBRANCH   6  12
ENDBRANCH   1   6
BRANCH   1  14
ATOM     14  O   UNL     1       4.585  11.240   5.678  1.00  0.00    -0.388 OA
ATOM     15  H   UNL     1       5.256  10.637   5.270  1.00  0.00     0.211 HD
ENDBRANCH   1  14
TORSDOF 8
ENDMDL
MODEL 5
REMARK VINA RESULT:    -3.326     16.638     17.872
REMARK INTER + INTRA:          -5.211
REMARK INTER:                  -4.853
REMARK INTRA:                  -0.357
REMARK UNBOUND:                -0.718
REMARK SMILES C[C@@H](O)[C@@H](O)[C@@H](O)[C@H](O)C=O
REMARK SMILES IDX 4 1 2 2 1 3 3 4 6 6 8 7 10 8 11 9 9 10 7 12 5 14
REMARK H PARENT 3 5 9 11 7 13 5 15
REMARK Flexibility Score: inf
ROOT
ATOM      1  C   UNL     1       5.619  11.670   7.566  1.00  0.00     0.174 C 
ENDROOT
BRANCH   1   2
ATOM      2  C   UNL     1       4.495  12.389   6.760  1.00  0.00     0.142 C 
ATOM      3  C   UNL     1       4.523  13.924   6.831  1.00  0.00     0.041 C 
BRANCH   2   4
ATOM      4  O   UNL     1       4.524  11.969   5.417  1.00  0.00    -0.391 OA
ATOM      5  H   UNL     1       3.684  11.472   5.237  1.00  0.00     0.211 HD
ENDBRANCH   2   4
ENDBRANCH   1   2
BRANCH   1   6
ATOM      6  C   UNL     1       5.411  10.155   7.866  1.00  0.00     0.181 C 
BRANCH   6   7
ATOM      7  C   UNL     1       4.321   9.884   8.928  1.00  0.00     0.209 C 
BRANCH   7   8
ATOM      8  C   UNL     1       4.205   8.408   9.201  1.00  0.00     0.258 C 
ATOM      9  O   UNL     1       4.064   7.617   8.281  1.00  0.00    -0.300 OA
ENDBRANCH   7   8
BRANCH   7  10
ATOM     10  O   UNL     1       4.636  10.548  10.125  1.00  0.00    -0.383 OA
ATOM     11  H   UNL     1       3.892  10.370  10.758  1.00  0.00     0.211 HD
ENDBRANCH   7  10
ENDBRANCH   6   7
BRANCH   6  12
ATOM     12  O   UNL     1       6.615   9.536   8.250  1.00  0.00    -0.387 OA
ATOM     13  H   UNL     1       6.790   9.786   9.195  1.00  0.00     0.211 HD
ENDBRANCH   6  12
ENDBRANCH   1   6
BRANCH   1  14
ATOM     14  O   UNL     1       5.934  12.372   8.744  1.00  0.00    -0.388 OA
ATOM     15  H   UNL     1       5.927  11.729   9.497  1.00  0.00     0.211 HD
ENDBRANCH   1  14
TORSDOF 8
ENDMDL
MODEL 6
REMARK VINA RESULT:    -3.300     16.461     17.588
REMARK INTER + INTRA:          -5.176
REMARK INTER:                  -4.290
REMARK INTRA:                  -0.886
REMARK UNBOUND:                -0.718
REMARK SMILES C[C@@H](O)[C@@H](O)[C@@H](O)[C@H](O)C=O
REMARK SMILES IDX 4 1 2 2 1 3 3 4 6 6 8 7 10 8 11 9 9 10 7 12 5 14
REMARK H PARENT 3 5 9 11 7 13 5 15
REMARK Flexibility Score: inf
ROOT
ATOM      1  C   UNL     1       6.279  10.767   7.425  1.00  0.00     0.174 C 
ENDROOT
BRANCH   1   2
ATOM      2  C   UNL     1       7.703  11.375   7.603  1.00  0.00     0.142 C 
ATOM      3  C   UNL     1       8.836  10.589   6.924  1.00  0.00     0.041 C 
BRANCH   2   4
ATOM      4  O   UNL     1       7.713  12.711   7.160  1.00  0.00    -0.391 OA
ATOM      5  H   UNL     1       8.348  13.215   7.732  1.00  0.00     0.211 HD
ENDBRANCH   2   4
ENDBRANCH   1   2
BRANCH   1   6
ATOM      6  C   UNL     1       5.077  11.640   7.894  1.00  0.00     0.181 C 
BRANCH   6   7
ATOM      7  C   UNL     1       4.256  12.232   6.724  1.00  0.00     0.209 C 
BRANCH   7   8
ATOM      8  C   UNL     1       4.368  13.734   6.706  1.00  0.00     0.258 C 
ATOM      9  O   UNL     1       5.427  14.272   6.421  1.00  0.00    -0.300 OA
ENDBRANCH   7   8
BRANCH   7  10
ATOM     10  O   UNL     1       4.722  11.723   5.501  1.00  0.00    -0.383 OA
ATOM     11  H   UNL     1       5.697  11.908   5.464  1.00  0.00     0.211 HD
ENDBRANCH   7  10
ENDBRANCH   6   7
BRANCH   6  12
ATOM     12  O   UNL     1       5.495  12.674   8.753  1.00  0.00    -0.387 OA
ATOM     13  H   UNL     1       5.804  12.254   9.597  1.00  0.00     0.211 HD
ENDBRANCH   6  12
ENDBRANCH   1   6
BRANCH   1  14
ATOM     14  O   UNL     1       6.201   9.475   7.978  1.00  0.00    -0.388 OA
ATOM     15  H   UNL     1       6.652   8.848   7.359  1.00  0.00     0.211 HD
ENDBRANCH   1  14
TORSDOF 8
ENDMDL
MODEL 7
REMARK VINA RESULT:    -3.250      1.641      4.323
REMARK INTER + INTRA:          -5.108
REMARK INTER:                  -4.684
REMARK INTRA:                  -0.424
REMARK UNBOUND:                -0.718
REMARK SMILES C[C@@H](O)[C@@H](O)[C@@H](O)[C@H](O)C=O
REMARK SMILES IDX 4 1 2 2 1 3 3 4 6 6 8 7 10 8 11 9 9 10 7 12 5 14
REMARK H PARENT 3 5 9 11 7 13 5 15
REMARK Flexibility Score: inf
ROOT
ATOM      1  C   UNL     1       6.645   3.021  -7.471  1.00  0.00     0.174 C 
ENDROOT
BRANCH   1   2
ATOM      2  C   UNL     1       6.116   4.232  -8.298  1.00  0.00     0.142 C 
ATOM      3  C   UNL     1       4.721   4.040  -8.914  1.00  0.00     0.041 C 
BRANCH   2   4
ATOM      4  O   UNL     1       6.137   5.397  -7.508  1.00  0.00    -0.391 OA
ATOM      5  H   UNL     1       6.719   6.060  -7.962  1.00  0.00     0.211 HD
ENDBRANCH   2   4
ENDBRANCH   1   2
BRANCH   1   6
ATOM      6  C   UNL     1       5.693   1.795  -7.330  1.00  0.00     0.181 C 
BRANCH   6   7
ATOM      7  C   UNL     1       4.866   1.809  -6.024  1.00  0.00     0.209 C 
BRANCH   7   8
ATOM      8  C   UNL     1       3.815   0.730  -6.052  1.00  0.00     0.258 C 
ATOM      9  O   UNL     1       4.082  -0.404  -5.685  1.00  0.00    -0.300 OA
ENDBRANCH   7   8
BRANCH   7  10
ATOM     10  O   UNL     1       5.705   1.603  -4.918  1.00  0.00    -0.383 OA
ATOM     11  H   UNL     1       6.189   0.750  -5.078  1.00  0.00     0.211 HD
ENDBRANCH   7  10
ENDBRANCH   6   7
BRANCH   6  12
ATOM     12  O   UNL     1       6.396   0.581  -7.436  1.00  0.00    -0.387 OA
ATOM     13  H   UNL     1       5.942   0.032  -8.127  1.00  0.00     0.211 HD
ENDBRANCH   6  12
ENDBRANCH   1   6
BRANCH   1  14
ATOM     14  O   UNL     1       7.122   3.428  -6.212  1.00  0.00    -0.388 OA
ATOM     15  H   UNL     1       7.446   4.360  -6.292  1.00  0.00     0.211 HD
ENDBRANCH   1  14
TORSDOF 8
ENDMDL
MODEL 8
REMARK VINA RESULT:    -3.213     16.786     17.773
REMARK INTER + INTRA:          -5.058
REMARK INTER:                  -4.299
REMARK INTRA:                  -0.759
REMARK UNBOUND:                -0.718
REMARK SMILES C[C@@H](O)[C@@H](O)[C@@H](O)[C@H](O)C=O
REMARK SMILES IDX 4 1 2 2 1 3 3 4 6 6 8 7 10 8 11 9 9 10 7 12 5 14
REMARK H PARENT 3 5 9 11 7 13 5 15
REMARK Flexibility Score: inf
ROOT
ATOM      1  C   UNL     1       5.448  11.028   8.789  1.00  0.00     0.174 C 
ENDROOT
BRANCH   1   2
ATOM      2  C   UNL     1       5.520   9.476   8.672  1.00  0.00     0.142 C 
ATOM      3  C   UNL     1       4.935   8.706   9.867  1.00  0.00     0.041 C 
BRANCH   2   4
ATOM      4  O   UNL     1       4.900   9.056   7.481  1.00  0.00    -0.391 OA
ATOM      5  H   UNL     1       5.571   9.119   6.752  1.00  0.00     0.211 HD
ENDBRANCH   2   4
ENDBRANCH   1   2
BRANCH   1   6
ATOM      6  C   UNL     1       6.369  11.849   7.837  1.00  0.00     0.181 C 
BRANCH   6   7
ATOM      7  C   UNL     1       5.670  13.083   7.221  1.00  0.00     0.209 C 
BRANCH   7   8
ATOM      8  C   UNL     1       4.463  12.663   6.424  1.00  0.00     0.258 C 
ATOM      9  O   UNL     1       4.571  12.374   5.242  1.00  0.00    -0.300 OA
ENDBRANCH   7   8
BRANCH   7  10
ATOM     10  O   UNL     1       5.265  13.966   8.235  1.00  0.00    -0.383 OA
ATOM     11  H   UNL     1       4.437  13.588   8.633  1.00  0.00     0.211 HD
ENDBRANCH   7  10
ENDBRANCH   6   7
BRANCH   6  12
ATOM     12  O   UNL     1       6.901  11.043   6.813  1.00  0.00    -0.387 OA
ATOM     13  H   UNL     1       6.577  10.117   6.964  1.00  0.00     0.211 HD
ENDBRANCH   6  12
ENDBRANCH   1   6
BRANCH   1  14
ATOM     14  O   UNL     1       5.608  11.450  10.122  1.00  0.00    -0.388 OA
ATOM     15  H   UNL     1       6.550  11.296  10.383  1.00  0.00     0.211 HD
ENDBRANCH   1  14
TORSDOF 8
ENDMDL
MODEL 9
REMARK VINA RESULT:    -3.177     11.806     13.519
REMARK INTER + INTRA:          -5.010
REMARK INTER:                  -4.328
REMARK INTRA:                  -0.682
REMARK UNBOUND:                -0.718
REMARK SMILES C[C@@H](O)[C@@H](O)[C@@H](O)[C@H](O)C=O
REMARK SMILES IDX 4 1 2 2 1 3 3 4 6 6 8 7 10 8 11 9 9 10 7 12 5 14
REMARK H PARENT 3 5 9 11 7 13 5 15
REMARK Flexibility Score: inf
ROOT
ATOM      1  C   UNL     1       8.199   0.931   5.957  1.00  0.00     0.174 C 
ENDROOT
BRANCH   1   2
ATOM      2  C   UNL     1       8.200   2.021   4.843  1.00  0.00     0.142 C 
ATOM      3  C   UNL     1       8.548   3.440   5.322  1.00  0.00     0.041 C 
BRANCH   2   4
ATOM      4  O   UNL     1       9.065   1.641   3.800  1.00  0.00    -0.391 OA
ATOM      5  H   UNL     1       9.703   0.973   4.163  1.00  0.00     0.211 HD
ENDBRANCH   2   4
ENDBRANCH   1   2
BRANCH   1   6
ATOM      6  C   UNL     1       7.453  -0.400   5.638  1.00  0.00     0.181 C 
BRANCH   6   7
ATOM      7  C   UNL     1       7.717  -1.514   6.678  1.00  0.00     0.209 C 
BRANCH   7   8
ATOM      8  C   UNL     1       7.485  -2.871   6.067  1.00  0.00     0.258 C 
ATOM      9  O   UNL     1       6.392  -3.166   5.609  1.00  0.00    -0.300 OA
ENDBRANCH   7   8
BRANCH   7  10
ATOM     10  O   UNL     1       9.040  -1.440   7.141  1.00  0.00    -0.383 OA
ATOM     11  H   UNL     1       9.153  -2.168   7.808  1.00  0.00     0.211 HD
ENDBRANCH   7  10
ENDBRANCH   6   7
BRANCH   6  12
ATOM     12  O   UNL     1       7.764  -0.869   4.348  1.00  0.00    -0.387 OA
ATOM     13  H   UNL     1       7.299  -0.281   3.697  1.00  0.00     0.211 HD
ENDBRANCH   6  12
ENDBRANCH   1   6
BRANCH   1  14
ATOM     14  O   UNL     1       7.773   1.458   7.190  1.00  0.00    -0.388 OA
ATOM     15  H   UNL     1       6.826   1.201   7.324  1.00  0.00     0.211 HD
ENDBRANCH   1  14
TORSDOF 8
ENDMDL
