MODEL 1
REMARK VINA RESULT:    -3.341      0.000      0.000
REMARK INTER + INTRA:          -5.029
REMARK INTER:                  -4.415
REMARK INTRA:                  -0.614
REMARK UNBOUND:                -0.614
REMARK SMILES C=CCC[C@H](O)CCC
REMARK SMILES IDX 4 1 5 2 7 3 8 4 9 5 6 6 3 8 2 9 1 10
REMARK H PARENT 6 7
REMARK Flexibility Score: inf
ROOT
ATOM      1  C   UNL     1     130.330 138.314 137.721  1.00  0.00     0.036 C 
ENDROOT
BRANCH   1   2
ATOM      2  C   UNL     1     130.407 138.950 136.316  1.00  0.00     0.114 C 
BRANCH   2   3
ATOM      3  C   UNL     1     131.861 139.055 135.817  1.00  0.00     0.031 C 
BRANCH   3   4
ATOM      4  C   UNL     1     132.861 138.574 136.878  1.00  0.00    -0.001 C 
ATOM      5  C   UNL     1     133.815 139.694 137.284  1.00  0.00     0.004 C 
ENDBRANCH   3   4
ENDBRANCH   2   3
BRANCH   2   6
ATOM      6  O   UNL     1     129.671 138.161 135.417  1.00  0.00    -0.393 OA
ATOM      7  H   UNL     1     130.268 137.963 134.650  1.00  0.00     0.210 HD
ENDBRANCH   2   6
ENDBRANCH   1   2
BRANCH   1   8
ATOM      8  C   UNL     1     129.625 139.215 138.748  1.00  0.00     0.029 C 
BRANCH   8   9
ATOM      9  C   UNL     1     130.068 140.647 138.606  1.00  0.00    -0.035 C 
ATOM     10  C   UNL     1     131.066 141.150 139.340  1.00  0.00     0.004 C 
ENDBRANCH   8   9
ENDBRANCH   1   8
TORSDOF 6
ENDMDL
MODEL 2
REMARK VINA RESULT:    -3.312      2.213      3.168
REMARK INTER + INTRA:          -4.990
REMARK INTER:                  -4.332
REMARK INTRA:                  -0.658
REMARK UNBOUND:                -0.614
REMARK SMILES C=CCC[C@H](O)CCC
REMARK SMILES IDX 4 1 5 2 7 3 8 4 9 5 6 6 3 8 2 9 1 10
REMARK H PARENT 6 7
REMARK Flexibility Score: inf
ROOT
ATOM      1  C   UNL     1     129.714 140.954 138.371  1.00  0.00     0.036 C 
ENDROOT
BRANCH   1   2
ATOM      2  C   UNL     1     131.146 140.622 138.844  1.00  0.00     0.114 C 
BRANCH   2   3
ATOM      3  C   UNL     1     132.168 140.750 137.698  1.00  0.00     0.031 C 
BRANCH   3   4
ATOM      4  C   UNL     1     132.597 139.376 137.165  1.00  0.00    -0.001 C 
ATOM      5  C   UNL     1     131.926 139.068 135.830  1.00  0.00     0.004 C 
ENDBRANCH   3   4
ENDBRANCH   2   3
BRANCH   2   6
ATOM      6  O   UNL     1     131.501 141.506 139.876  1.00  0.00    -0.393 OA
ATOM      7  H   UNL     1     130.814 141.414 140.585  1.00  0.00     0.210 HD
ENDBRANCH   2   6
ENDBRANCH   1   2
BRANCH   1   8
ATOM      8  C   UNL     1     128.928 139.711 137.924  1.00  0.00     0.029 C 
BRANCH   8   9
ATOM      9  C   UNL     1     129.253 138.524 138.790  1.00  0.00    -0.035 C 
ATOM     10  C   UNL     1     129.476 137.313 138.269  1.00  0.00     0.004 C 
ENDBRANCH   8   9
ENDBRANCH   1   8
TORSDOF 6
ENDMDL
MODEL 3
REMARK VINA RESULT:    -3.247      1.229      2.856
REMARK INTER + INTRA:          -4.905
REMARK INTER:                  -4.288
REMARK INTRA:                  -0.617
REMARK UNBOUND:                -0.614
REMARK SMILES C=CCC[C@H](O)CCC
REMARK SMILES IDX 4 1 5 2 7 3 8 4 9 5 6 6 3 8 2 9 1 10
REMARK H PARENT 6 7
REMARK Flexibility Score: inf
ROOT
ATOM      1  C   UNL     1     131.807 139.242 136.082  1.00  0.00     0.036 C 
ENDROOT
BRANCH   1   2
ATOM      2  C   UNL     1     130.552 138.377 135.837  1.00  0.00     0.114 C 
BRANCH   2   3
ATOM      3  C   UNL     1     130.321 137.370 136.981  1.00  0.00     0.031 C 
BRANCH   3   4
ATOM      4  C   UNL     1     128.887 137.447 137.522  1.00  0.00    -0.001 C 
ATOM      5  C   UNL     1     128.879 137.621 139.038  1.00  0.00     0.004 C 
ENDBRANCH   3   4
ENDBRANCH   2   3
BRANCH   2   6
ATOM      6  O   UNL     1     129.432 139.218 135.734  1.00  0.00    -0.393 OA
ATOM      7  H   UNL     1     129.371 139.505 134.786  1.00  0.00     0.210 HD
ENDBRANCH   2   6
ENDBRANCH   1   2
BRANCH   1   8
ATOM      8  C   UNL     1     132.080 139.490 137.575  1.00  0.00     0.029 C 
BRANCH   8   9
ATOM      9  C   UNL     1     131.486 140.797 138.025  1.00  0.00    -0.035 C 
ATOM     10  C   UNL     1     130.778 140.896 139.155  1.00  0.00     0.004 C 
ENDBRANCH   8   9
ENDBRANCH   1   8
TORSDOF 6
ENDMDL
MODEL 4
REMARK VINA RESULT:    -3.235      1.529      3.241
REMARK INTER + INTRA:          -4.889
REMARK INTER:                  -4.262
REMARK INTRA:                  -0.627
REMARK UNBOUND:                -0.614
REMARK SMILES C=CCC[C@H](O)CCC
REMARK SMILES IDX 4 1 5 2 7 3 8 4 9 5 6 6 3 8 2 9 1 10
REMARK H PARENT 6 7
REMARK Flexibility Score: inf
ROOT
ATOM      1  C   UNL     1     129.281 137.893 136.730  1.00  0.00     0.036 C 
ENDROOT
BRANCH   1   2
ATOM      2  C   UNL     1     128.876 139.148 137.532  1.00  0.00     0.114 C 
BRANCH   2   3
ATOM      3  C   UNL     1     129.844 139.413 138.702  1.00  0.00     0.031 C 
BRANCH   3   4
ATOM      4  C   UNL     1     130.510 140.792 138.586  1.00  0.00    -0.001 C 
ATOM      5  C   UNL     1     131.996 140.660 138.266  1.00  0.00     0.004 C 
ENDBRANCH   3   4
ENDBRANCH   2   3
BRANCH   2   6
ATOM      6  O   UNL     1     128.882 140.260 136.673  1.00  0.00    -0.393 OA
ATOM      7  H   UNL     1     128.426 140.999 137.153  1.00  0.00     0.210 HD
ENDBRANCH   2   6
ENDBRANCH   1   2
BRANCH   1   8
ATOM      8  C   UNL     1     130.552 137.219 137.274  1.00  0.00     0.029 C 
BRANCH   8   9
ATOM      9  C   UNL     1     131.726 137.463 136.365  1.00  0.00    -0.035 C 
ATOM     10  C   UNL     1     131.613 138.194 135.251  1.00  0.00     0.004 C 
ENDBRANCH   8   9
ENDBRANCH   1   8
TORSDOF 6
ENDMDL
MODEL 5
REMARK VINA RESULT:    -3.214     14.219     14.972
REMARK INTER + INTRA:          -4.861
REMARK INTER:                  -4.628
REMARK INTRA:                  -0.232
REMARK UNBOUND:                -0.614
REMARK SMILES C=CCC[C@H](O)CCC
REMARK SMILES IDX 4 1 5 2 7 3 8 4 9 5 6 6 3 8 2 9 1 10
REMARK H PARENT 6 7
REMARK Flexibility Score: inf
ROOT
ATOM      1  C   UNL     1     137.867 135.139 148.755  1.00  0.00     0.036 C 
ENDROOT
BRANCH   1   2
ATOM      2  C   UNL     1     138.659 134.581 149.958  1.00  0.00     0.114 C 
BRANCH   2   3
ATOM      3  C   UNL     1     140.013 135.296 150.130  1.00  0.00     0.031 C 
BRANCH   3   4
ATOM      4  C   UNL     1     140.772 135.400 148.799  1.00  0.00    -0.001 C 
ATOM      5  C   UNL     1     141.851 136.477 148.863  1.00  0.00     0.004 C 
ENDBRANCH   3   4
ENDBRANCH   2   3
BRANCH   2   6
ATOM      6  O   UNL     1     137.898 134.755 151.125  1.00  0.00    -0.393 OA
ATOM      7  H   UNL     1     137.792 133.859 151.539  1.00  0.00     0.210 HD
ENDBRANCH   2   6
ENDBRANCH   1   2
BRANCH   1   8
ATOM      8  C   UNL     1     137.395 134.040 147.788  1.00  0.00     0.029 C 
BRANCH   8   9
ATOM      9  C   UNL     1     136.348 133.169 148.428  1.00  0.00    -0.035 C 
ATOM     10  C   UNL     1     135.291 132.721 147.742  1.00  0.00     0.004 C 
ENDBRANCH   8   9
ENDBRANCH   1   8
TORSDOF 6
ENDMDL
MODEL 6
REMARK VINA RESULT:    -3.153      1.776      3.812
REMARK INTER + INTRA:          -4.780
REMARK INTER:                  -4.157
REMARK INTRA:                  -0.623
REMARK UNBOUND:                -0.614
REMARK SMILES C=CCC[C@H](O)CCC
REMARK SMILES IDX 4 1 5 2 7 3 8 4 9 5 6 6 3 8 2 9 1 10
REMARK H PARENT 6 7
REMARK Flexibility Score: inf
ROOT
ATOM      1  C   UNL     1     131.260 140.281 138.117  1.00  0.00     0.036 C 
ENDROOT
BRANCH   1   2
ATOM      2  C   UNL     1     129.788 139.972 137.769  1.00  0.00     0.114 C 
BRANCH   2   3
ATOM      3  C   UNL     1     129.166 138.969 138.759  1.00  0.00     0.031 C 
BRANCH   3   4
ATOM      4  C   UNL     1     128.882 137.616 138.092  1.00  0.00    -0.001 C 
ATOM      5  C   UNL     1     129.995 136.613 138.383  1.00  0.00     0.004 C 
ENDBRANCH   3   4
ENDBRANCH   2   3
BRANCH   2   6
ATOM      6  O   UNL     1     129.050 141.167 137.804  1.00  0.00    -0.393 OA
ATOM      7  H   UNL     1     128.897 141.441 136.863  1.00  0.00     0.210 HD
ENDBRANCH   2   6
ENDBRANCH   1   2
BRANCH   1   8
ATOM      8  C   UNL     1     132.226 139.970 136.962  1.00  0.00     0.029 C 
BRANCH   8   9
ATOM      9  C   UNL     1     131.528 139.220 135.859  1.00  0.00    -0.035 C 
ATOM     10  C   UNL     1     131.924 138.002 135.478  1.00  0.00     0.004 C 
ENDBRANCH   8   9
ENDBRANCH   1   8
TORSDOF 6
ENDMDL
MODEL 7
REMARK VINA RESULT:    -3.082      1.837      2.967
REMARK INTER + INTRA:          -4.687
REMARK INTER:                  -4.283
REMARK INTRA:                  -0.404
REMARK UNBOUND:                -0.614
REMARK SMILES C=CCC[C@H](O)CCC
REMARK SMILES IDX 4 1 5 2 7 3 8 4 9 5 6 6 3 8 2 9 1 10
REMARK H PARENT 6 7
REMARK Flexibility Score: inf
ROOT
ATOM      1  C   UNL     1     129.831 139.109 136.684  1.00  0.00     0.036 C 
ENDROOT
BRANCH   1   2
ATOM      2  C   UNL     1     129.713 140.002 137.938  1.00  0.00     0.114 C 
BRANCH   2   3
ATOM      3  C   UNL     1     131.094 140.461 138.444  1.00  0.00     0.031 C 
BRANCH   3   4
ATOM      4  C   UNL     1     132.234 139.809 137.647  1.00  0.00    -0.001 C 
ATOM      5  C   UNL     1     133.584 140.410 138.026  1.00  0.00     0.004 C 
ENDBRANCH   3   4
ENDBRANCH   2   3
BRANCH   2   6
ATOM      6  O   UNL     1     128.942 141.133 137.621  1.00  0.00    -0.393 OA
ATOM      7  H   UNL     1     129.108 141.805 138.333  1.00  0.00     0.210 HD
ENDBRANCH   2   6
ENDBRANCH   1   2
BRANCH   1   8
ATOM      8  C   UNL     1     129.194 137.723 136.875  1.00  0.00     0.029 C 
BRANCH   8   9
ATOM      9  C   UNL     1     130.101 136.813 137.660  1.00  0.00    -0.035 C 
ATOM     10  C   UNL     1     129.797 136.416 138.899  1.00  0.00     0.004 C 
ENDBRANCH   8   9
ENDBRANCH   1   8
TORSDOF 6
ENDMDL
MODEL 8
REMARK VINA RESULT:    -3.061     13.979     14.971
REMARK INTER + INTRA:          -4.658
REMARK INTER:                  -4.241
REMARK INTRA:                  -0.417
REMARK UNBOUND:                -0.614
REMARK SMILES C=CCC[C@H](O)CCC
REMARK SMILES IDX 4 1 5 2 7 3 8 4 9 5 6 6 3 8 2 9 1 10
REMARK H PARENT 6 7
REMARK Flexibility Score: inf
ROOT
ATOM      1  C   UNL     1     139.768 134.551 149.452  1.00  0.00     0.036 C 
ENDROOT
BRANCH   1   2
ATOM      2  C   UNL     1     138.343 135.144 149.484  1.00  0.00     0.114 C 
BRANCH   2   3
ATOM      3  C   UNL     1     137.477 134.611 148.326  1.00  0.00     0.031 C 
BRANCH   3   4
ATOM      4  C   UNL     1     137.996 135.092 146.964  1.00  0.00    -0.001 C 
ATOM      5  C   UNL     1     138.077 133.940 145.967  1.00  0.00     0.004 C 
ENDBRANCH   3   4
ENDBRANCH   2   3
BRANCH   2   6
ATOM      6  O   UNL     1     137.735 134.804 150.704  1.00  0.00    -0.393 OA
ATOM      7  H   UNL     1     138.390 135.010 151.421  1.00  0.00     0.210 HD
ENDBRANCH   2   6
ENDBRANCH   1   2
BRANCH   1   8
ATOM      8  C   UNL     1     140.814 135.471 150.103  1.00  0.00     0.029 C 
BRANCH   8   9
ATOM      9  C   UNL     1     141.576 136.247 149.063  1.00  0.00    -0.035 C 
ATOM     10  C   UNL     1     141.642 135.841 147.791  1.00  0.00     0.004 C 
ENDBRANCH   8   9
ENDBRANCH   1   8
TORSDOF 6
ENDMDL
MODEL 9
REMARK VINA RESULT:    -3.026      2.283      4.318
REMARK INTER + INTRA:          -4.612
REMARK INTER:                  -4.105
REMARK INTRA:                  -0.507
REMARK UNBOUND:                -0.614
REMARK SMILES C=CCC[C@H](O)CCC
REMARK SMILES IDX 4 1 5 2 7 3 8 4 9 5 6 6 3 8 2 9 1 10
REMARK H PARENT 6 7
REMARK Flexibility Score: inf
ROOT
ATOM      1  C   UNL     1     132.555 140.377 138.001  1.00  0.00     0.036 C 
ENDROOT
BRANCH   1   2
ATOM      2  C   UNL     1     131.237 140.931 138.584  1.00  0.00     0.114 C 
BRANCH   2   3
ATOM      3  C   UNL     1     130.175 139.826 138.744  1.00  0.00     0.031 C 
BRANCH   3   4
ATOM      4  C   UNL     1     128.917 140.125 137.915  1.00  0.00    -0.001 C 
ATOM      5  C   UNL     1     128.875 139.273 136.650  1.00  0.00     0.004 C 
ENDBRANCH   3   4
ENDBRANCH   2   3
BRANCH   2   6
ATOM      6  O   UNL     1     131.498 141.500 139.841  1.00  0.00    -0.393 OA
ATOM      7  H   UNL     1     130.621 141.637 140.285  1.00  0.00     0.210 HD
ENDBRANCH   2   6
ENDBRANCH   1   2
BRANCH   1   8
ATOM      8  C   UNL     1     132.534 140.275 136.467  1.00  0.00     0.029 C 
BRANCH   8   9
ATOM      9  C   UNL     1     132.932 138.897 136.010  1.00  0.00    -0.035 C 
ATOM     10  C   UNL     1     132.064 138.077 135.410  1.00  0.00     0.004 C 
ENDBRANCH   8   9
ENDBRANCH   1   8
TORSDOF 6
ENDMDL
