MODEL 1
REMARK VINA RESULT:    -5.765      0.000      0.000
REMARK INTER + INTRA:          -7.262
REMARK INTER:                  -6.944
REMARK INTRA:                  -0.318
REMARK UNBOUND:                -0.318
REMARK SMILES O=c1c(O)c(-c2ccc(O)c(O)c2)oc2cc(O)cc(O)c12
REMARK SMILES IDX 5 1 3 2 2 3 1 4 22 5 20 6 19 7 17 8 16 9 15 10 14 11 6 12
REMARK SMILES IDX 7 13 8 14 9 15 13 16 11 17 10 18 12 20 4 22 21 24 18 26
REMARK H PARENT 10 19 12 21 4 23 21 25 18 27
REMARK Flexibility Score: inf
ROOT
ATOM      1  C   UNL     1      39.488  37.933  29.838  1.00  0.00     0.180 A 
ATOM      2  C   UNL     1      38.661  36.997  30.489  1.00  0.00     0.208 A 
ATOM      3  C   UNL     1      37.301  36.940  30.148  1.00  0.00     0.238 A 
ATOM      4  O   UNL     1      36.549  36.113  30.732  1.00  0.00    -0.285 OA
ATOM      5  C   UNL     1      36.795  37.802  29.154  1.00  0.00     0.111 A 
ATOM      6  C   UNL     1      35.438  37.806  28.750  1.00  0.00     0.134 A 
ATOM      7  C   UNL     1      35.014  38.688  27.745  1.00  0.00     0.093 A 
ATOM      8  C   UNL     1      35.917  39.564  27.138  1.00  0.00     0.123 A 
ATOM      9  C   UNL     1      37.258  39.565  27.533  1.00  0.00     0.094 A 
ATOM     10  C   UNL     1      37.700  38.695  28.534  1.00  0.00     0.146 A 
ATOM     11  O   UNL     1      38.978  38.720  28.894  1.00  0.00    -0.452 OA
ENDROOT
BRANCH   1  12
ATOM     12  C   UNL     1      40.927  38.067  30.156  1.00  0.00     0.025 A 
ATOM     13  C   UNL     1      41.892  37.243  29.547  1.00  0.00     0.016 A 
ATOM     14  C   UNL     1      43.242  37.371  29.880  1.00  0.00     0.051 A 
ATOM     15  C   UNL     1      43.648  38.313  30.834  1.00  0.00     0.157 A 
ATOM     16  C   UNL     1      41.338  38.994  31.128  1.00  0.00     0.062 A 
ATOM     17  C   UNL     1      42.694  39.125  31.462  1.00  0.00     0.158 A 
BRANCH  15  18
ATOM     18  O   UNL     1      44.995  38.446  31.169  1.00  0.00    -0.504 OA
ATOM     19  H   UNL     1      45.702  37.843  30.765  1.00  0.00     0.293 HD
ENDBRANCH  15  18
BRANCH  17  20
ATOM     20  O   UNL     1      43.099  40.056  32.416  1.00  0.00    -0.504 OA
ATOM     21  H   UNL     1      43.832  40.729  32.223  1.00  0.00     0.293 HD
ENDBRANCH  17  20
ENDBRANCH   1  12
BRANCH   2  22
ATOM     22  O   UNL     1      39.197  36.120  31.435  1.00  0.00    -0.502 OA
ATOM     23  H   UNL     1      38.736  35.258  31.700  1.00  0.00     0.293 HD
ENDBRANCH   2  22
BRANCH   6  24
ATOM     24  O   UNL     1      34.512  36.943  29.335  1.00  0.00    -0.507 OA
ATOM     25  H   UNL     1      33.518  37.024  29.155  1.00  0.00     0.293 HD
ENDBRANCH   6  24
BRANCH   8  26
ATOM     26  O   UNL     1      35.470  40.430  26.143  1.00  0.00    -0.508 OA
ATOM     27  H   UNL     1      34.486  40.508  25.910  1.00  0.00     0.293 HD
ENDBRANCH   8  26
TORSDOF 6
ENDMDL
MODEL 2
REMARK VINA RESULT:    -5.682      5.200      7.577
REMARK INTER + INTRA:          -7.163
REMARK INTER:                  -7.168
REMARK INTRA:                   0.005
REMARK UNBOUND:                -0.318
REMARK SMILES O=c1c(O)c(-c2ccc(O)c(O)c2)oc2cc(O)cc(O)c12
REMARK SMILES IDX 5 1 3 2 2 3 1 4 22 5 20 6 19 7 17 8 16 9 15 10 14 11 6 12
REMARK SMILES IDX 7 13 8 14 9 15 13 16 11 17 10 18 12 20 4 22 21 24 18 26
REMARK H PARENT 10 19 12 21 4 23 21 25 18 27
REMARK Flexibility Score: inf
ROOT
ATOM      1  C   UNL     1      36.870  41.530  30.775  1.00  0.00     0.180 A 
ATOM      2  C   UNL     1      37.323  42.852  30.604  1.00  0.00     0.208 A 
ATOM      3  C   UNL     1      37.333  43.715  31.710  1.00  0.00     0.238 A 
ATOM      4  O   UNL     1      37.727  44.905  31.566  1.00  0.00    -0.285 OA
ATOM      5  C   UNL     1      36.910  43.241  32.968  1.00  0.00     0.111 A 
ATOM      6  C   UNL     1      36.892  44.044  34.133  1.00  0.00     0.134 A 
ATOM      7  C   UNL     1      36.466  43.495  35.352  1.00  0.00     0.093 A 
ATOM      8  C   UNL     1      36.060  42.161  35.428  1.00  0.00     0.123 A 
ATOM      9  C   UNL     1      36.074  41.362  34.280  1.00  0.00     0.094 A 
ATOM     10  C   UNL     1      36.493  41.891  33.056  1.00  0.00     0.146 A 
ATOM     11  O   UNL     1      36.493  41.112  31.981  1.00  0.00    -0.452 OA
ENDROOT
BRANCH   1  12
ATOM     12  C   UNL     1      36.813  40.565  29.654  1.00  0.00     0.025 A 
ATOM     13  C   UNL     1      37.431  39.305  29.739  1.00  0.00     0.016 A 
ATOM     14  C   UNL     1      37.383  38.421  28.658  1.00  0.00     0.051 A 
ATOM     15  C   UNL     1      36.731  38.787  27.474  1.00  0.00     0.157 A 
ATOM     16  C   UNL     1      36.178  40.935  28.456  1.00  0.00     0.062 A 
ATOM     17  C   UNL     1      36.129  40.047  27.371  1.00  0.00     0.158 A 
BRANCH  15  18
ATOM     18  O   UNL     1      36.680  37.906  26.394  1.00  0.00    -0.504 OA
ATOM     19  H   UNL     1      37.089  38.144  25.498  1.00  0.00     0.293 HD
ENDBRANCH  15  18
BRANCH  17  20
ATOM     20  O   UNL     1      35.486  40.412  26.190  1.00  0.00    -0.504 OA
ATOM     21  H   UNL     1      34.501  40.226  26.043  1.00  0.00     0.293 HD
ENDBRANCH  17  20
ENDBRANCH   1  12
BRANCH   2  22
ATOM     22  O   UNL     1      37.784  43.284  29.357  1.00  0.00    -0.502 OA
ATOM     23  H   UNL     1      37.520  44.177  28.960  1.00  0.00     0.293 HD
ENDBRANCH   2  22
BRANCH   6  24
ATOM     24  O   UNL     1      37.294  45.380  34.091  1.00  0.00    -0.507 OA
ATOM     25  H   UNL     1      36.709  46.100  33.684  1.00  0.00     0.293 HD
ENDBRANCH   6  24
BRANCH   8  26
ATOM     26  O   UNL     1      35.641  41.640  36.650  1.00  0.00    -0.508 OA
ATOM     27  H   UNL     1      34.859  40.998  36.713  1.00  0.00     0.293 HD
ENDBRANCH   8  26
TORSDOF 6
ENDMDL
MODEL 3
REMARK VINA RESULT:    -5.567      4.930      7.022
REMARK INTER + INTRA:          -7.025
REMARK INTER:                  -6.911
REMARK INTRA:                  -0.114
REMARK UNBOUND:                -0.318
REMARK SMILES O=c1c(O)c(-c2ccc(O)c(O)c2)oc2cc(O)cc(O)c12
REMARK SMILES IDX 5 1 3 2 2 3 1 4 22 5 20 6 19 7 17 8 16 9 15 10 14 11 6 12
REMARK SMILES IDX 7 13 8 14 9 15 13 16 11 17 10 18 12 20 4 22 21 24 18 26
REMARK H PARENT 10 19 12 21 4 23 21 25 18 27
REMARK Flexibility Score: inf
ROOT
ATOM      1  C   UNL     1      36.460  40.816  30.994  1.00  0.00     0.180 A 
ATOM      2  C   UNL     1      35.837  40.347  32.167  1.00  0.00     0.208 A 
ATOM      3  C   UNL     1      35.886  41.138  33.325  1.00  0.00     0.238 A 
ATOM      4  O   UNL     1      35.342  40.723  34.384  1.00  0.00    -0.285 OA
ATOM      5  C   UNL     1      36.536  42.389  33.287  1.00  0.00     0.111 A 
ATOM      6  C   UNL     1      36.627  43.249  34.408  1.00  0.00     0.134 A 
ATOM      7  C   UNL     1      37.283  44.483  34.287  1.00  0.00     0.093 A 
ATOM      8  C   UNL     1      37.847  44.873  33.071  1.00  0.00     0.123 A 
ATOM      9  C   UNL     1      37.761  44.028  31.960  1.00  0.00     0.094 A 
ATOM     10  C   UNL     1      37.114  42.794  32.060  1.00  0.00     0.146 A 
ATOM     11  O   UNL     1      37.050  42.008  30.992  1.00  0.00    -0.452 OA
ENDROOT
BRANCH   1  12
ATOM     12  C   UNL     1      36.467  40.031  29.739  1.00  0.00     0.025 A 
ATOM     13  C   UNL     1      36.998  38.729  29.692  1.00  0.00     0.016 A 
ATOM     14  C   UNL     1      37.016  38.017  28.490  1.00  0.00     0.051 A 
ATOM     15  C   UNL     1      36.518  38.598  27.317  1.00  0.00     0.157 A 
ATOM     16  C   UNL     1      35.989  40.616  28.555  1.00  0.00     0.062 A 
ATOM     17  C   UNL     1      36.006  39.901  27.348  1.00  0.00     0.158 A 
BRANCH  15  18
ATOM     18  O   UNL     1      36.533  37.890  26.116  1.00  0.00    -0.504 OA
ATOM     19  H   UNL     1      35.737  37.339  25.817  1.00  0.00     0.293 HD
ENDBRANCH  15  18
BRANCH  17  20
ATOM     20  O   UNL     1      35.517  40.479  26.178  1.00  0.00    -0.504 OA
ATOM     21  H   UNL     1      34.526  40.630  26.036  1.00  0.00     0.293 HD
ENDBRANCH  17  20
ENDBRANCH   1  12
BRANCH   2  22
ATOM     22  O   UNL     1      35.156  39.126  32.165  1.00  0.00    -0.502 OA
ATOM     23  H   UNL     1      35.539  38.292  31.737  1.00  0.00     0.293 HD
ENDBRANCH   2  22
BRANCH   6  24
ATOM     24  O   UNL     1      36.072  42.888  35.636  1.00  0.00    -0.507 OA
ATOM     25  H   UNL     1      36.645  42.752  36.461  1.00  0.00     0.293 HD
ENDBRANCH   6  24
BRANCH   8  26
ATOM     26  O   UNL     1      38.493  46.104  32.977  1.00  0.00    -0.508 OA
ATOM     27  H   UNL     1      37.996  46.976  33.121  1.00  0.00     0.293 HD
ENDBRANCH   8  26
TORSDOF 6
ENDMDL
MODEL 4
REMARK VINA RESULT:    -5.560      4.410      7.504
REMARK INTER + INTRA:          -7.016
REMARK INTER:                  -6.717
REMARK INTRA:                  -0.300
REMARK UNBOUND:                -0.318
REMARK SMILES O=c1c(O)c(-c2ccc(O)c(O)c2)oc2cc(O)cc(O)c12
REMARK SMILES IDX 5 1 3 2 2 3 1 4 22 5 20 6 19 7 17 8 16 9 15 10 14 11 6 12
REMARK SMILES IDX 7 13 8 14 9 15 13 16 11 17 10 18 12 20 4 22 21 24 18 26
REMARK H PARENT 10 19 12 21 4 23 21 25 18 27
REMARK Flexibility Score: inf
ROOT
ATOM      1  C   UNL     1      43.436  37.728  30.348  1.00  0.00     0.180 A 
ATOM      2  C   UNL     1      43.329  37.236  31.663  1.00  0.00     0.208 A 
ATOM      3  C   UNL     1      43.910  35.996  31.972  1.00  0.00     0.238 A 
ATOM      4  O   UNL     1      43.811  35.540  33.144  1.00  0.00    -0.285 OA
ATOM      5  C   UNL     1      44.602  35.282  30.973  1.00  0.00     0.111 A 
ATOM      6  C   UNL     1      45.218  34.028  31.203  1.00  0.00     0.134 A 
ATOM      7  C   UNL     1      45.897  33.384  30.158  1.00  0.00     0.093 A 
ATOM      8  C   UNL     1      45.972  33.967  28.892  1.00  0.00     0.123 A 
ATOM      9  C   UNL     1      45.365  35.205  28.657  1.00  0.00     0.094 A 
ATOM     10  C   UNL     1      44.682  35.862  29.685  1.00  0.00     0.146 A 
ATOM     11  O   UNL     1      44.109  37.034  29.435  1.00  0.00    -0.452 OA
ENDROOT
BRANCH   1  12
ATOM     12  C   UNL     1      42.834  39.018  29.939  1.00  0.00     0.025 A 
ATOM     13  C   UNL     1      41.457  39.134  29.679  1.00  0.00     0.016 A 
ATOM     14  C   UNL     1      40.915  40.355  29.271  1.00  0.00     0.051 A 
ATOM     15  C   UNL     1      41.742  41.474  29.104  1.00  0.00     0.157 A 
ATOM     16  C   UNL     1      43.661  40.137  29.750  1.00  0.00     0.062 A 
ATOM     17  C   UNL     1      43.117  41.365  29.342  1.00  0.00     0.158 A 
BRANCH  15  18
ATOM     18  O   UNL     1      41.205  42.695  28.699  1.00  0.00    -0.504 OA
ATOM     19  H   UNL     1      41.794  43.441  28.349  1.00  0.00     0.293 HD
ENDBRANCH  15  18
BRANCH  17  20
ATOM     20  O   UNL     1      43.939  42.477  29.169  1.00  0.00    -0.504 OA
ATOM     21  H   UNL     1      43.566  43.419  29.180  1.00  0.00     0.293 HD
ENDBRANCH  17  20
ENDBRANCH   1  12
BRANCH   2  22
ATOM     22  O   UNL     1      42.681  37.986  32.647  1.00  0.00    -0.502 OA
ATOM     23  H   UNL     1      42.166  37.557  33.406  1.00  0.00     0.293 HD
ENDBRANCH   2  22
BRANCH   6  24
ATOM     24  O   UNL     1      45.163  33.421  32.458  1.00  0.00    -0.507 OA
ATOM     25  H   UNL     1      45.564  32.505  32.625  1.00  0.00     0.293 HD
ENDBRANCH   6  24
BRANCH   8  26
ATOM     26  O   UNL     1      46.653  33.307  27.871  1.00  0.00    -0.508 OA
ATOM     27  H   UNL     1      47.627  33.504  27.670  1.00  0.00     0.293 HD
ENDBRANCH   8  26
TORSDOF 6
ENDMDL
MODEL 5
REMARK VINA RESULT:    -5.522      3.605      5.743
REMARK INTER + INTRA:          -6.970
REMARK INTER:                  -6.649
REMARK INTRA:                  -0.321
REMARK UNBOUND:                -0.318
REMARK SMILES O=c1c(O)c(-c2ccc(O)c(O)c2)oc2cc(O)cc(O)c12
REMARK SMILES IDX 5 1 3 2 2 3 1 4 22 5 20 6 19 7 17 8 16 9 15 10 14 11 6 12
REMARK SMILES IDX 7 13 8 14 9 15 13 16 11 17 10 18 12 20 4 22 21 24 18 26
REMARK H PARENT 10 19 12 21 4 23 21 25 18 27
REMARK Flexibility Score: inf
ROOT
ATOM      1  C   UNL     1      35.995  37.549  28.610  1.00  0.00     0.180 A 
ATOM      2  C   UNL     1      35.912  37.049  27.297  1.00  0.00     0.208 A 
ATOM      3  C   UNL     1      35.287  35.811  27.080  1.00  0.00     0.238 A 
ATOM      4  O   UNL     1      35.216  35.348  25.909  1.00  0.00    -0.285 OA
ATOM      5  C   UNL     1      34.740  35.107  28.171  1.00  0.00     0.111 A 
ATOM      6  C   UNL     1      34.090  33.856  28.038  1.00  0.00     0.134 A 
ATOM      7  C   UNL     1      33.562  33.221  29.173  1.00  0.00     0.093 A 
ATOM      8  C   UNL     1      33.670  33.812  30.434  1.00  0.00     0.123 A 
ATOM      9  C   UNL     1      34.311  35.047  30.572  1.00  0.00     0.094 A 
ATOM     10  C   UNL     1      34.846  35.694  29.454  1.00  0.00     0.146 A 
ATOM     11  O   UNL     1      35.454  36.864  29.613  1.00  0.00    -0.452 OA
ENDROOT
BRANCH   1  12
ATOM     12  C   UNL     1      36.656  38.837  28.922  1.00  0.00     0.025 A 
ATOM     13  C   UNL     1      38.051  38.928  29.071  1.00  0.00     0.016 A 
ATOM     14  C   UNL     1      38.650  40.149  29.389  1.00  0.00     0.051 A 
ATOM     15  C   UNL     1      37.864  41.294  29.575  1.00  0.00     0.157 A 
ATOM     16  C   UNL     1      35.871  39.984  29.131  1.00  0.00     0.062 A 
ATOM     17  C   UNL     1      36.472  41.211  29.449  1.00  0.00     0.158 A 
BRANCH  15  18
ATOM     18  O   UNL     1      38.458  42.515  29.891  1.00  0.00    -0.504 OA
ATOM     19  H   UNL     1      38.113  43.090  30.650  1.00  0.00     0.293 HD
ENDBRANCH  15  18
BRANCH  17  20
ATOM     20  O   UNL     1      35.691  42.349  29.642  1.00  0.00    -0.504 OA
ATOM     21  H   UNL     1      35.206  42.517  30.515  1.00  0.00     0.293 HD
ENDBRANCH  17  20
ENDBRANCH   1  12
BRANCH   2  22
ATOM     22  O   UNL     1      36.419  37.790  26.225  1.00  0.00    -0.502 OA
ATOM     23  H   UNL     1      36.222  38.776  26.106  1.00  0.00     0.293 HD
ENDBRANCH   2  22
BRANCH   6  24
ATOM     24  O   UNL     1      33.964  33.241  26.793  1.00  0.00    -0.507 OA
ATOM     25  H   UNL     1      33.479  32.358  26.680  1.00  0.00     0.293 HD
ENDBRANCH   6  24
BRANCH   8  26
ATOM     26  O   UNL     1      33.137  33.161  31.544  1.00  0.00    -0.508 OA
ATOM     27  H   UNL     1      32.159  33.252  31.793  1.00  0.00     0.293 HD
ENDBRANCH   8  26
TORSDOF 6
ENDMDL
MODEL 6
REMARK VINA RESULT:    -5.413      1.879      2.040
REMARK INTER + INTRA:          -6.838
REMARK INTER:                  -6.556
REMARK INTRA:                  -0.282
REMARK UNBOUND:                -0.318
REMARK SMILES O=c1c(O)c(-c2ccc(O)c(O)c2)oc2cc(O)cc(O)c12
REMARK SMILES IDX 5 1 3 2 2 3 1 4 22 5 20 6 19 7 17 8 16 9 15 10 14 11 6 12
REMARK SMILES IDX 7 13 8 14 9 15 13 16 11 17 10 18 12 20 4 22 21 24 18 26
REMARK H PARENT 10 19 12 21 4 23 21 25 18 27
REMARK Flexibility Score: inf
ROOT
ATOM      1  C   UNL     1      38.741  38.795  29.343  1.00  0.00     0.180 A 
ATOM      2  C   UNL     1      38.456  37.500  28.869  1.00  0.00     0.208 A 
ATOM      3  C   UNL     1      37.134  37.179  28.523  1.00  0.00     0.238 A 
ATOM      4  O   UNL     1      36.865  36.019  28.108  1.00  0.00    -0.285 OA
ATOM      5  C   UNL     1      36.126  38.158  28.638  1.00  0.00     0.111 A 
ATOM      6  C   UNL     1      34.771  37.917  28.308  1.00  0.00     0.134 A 
ATOM      7  C   UNL     1      33.828  38.948  28.440  1.00  0.00     0.093 A 
ATOM      8  C   UNL     1      34.213  40.211  28.895  1.00  0.00     0.123 A 
ATOM      9  C   UNL     1      35.551  40.455  29.223  1.00  0.00     0.094 A 
ATOM     10  C   UNL     1      36.505  39.441  29.100  1.00  0.00     0.146 A 
ATOM     11  O   UNL     1      37.767  39.697  29.424  1.00  0.00    -0.452 OA
ENDROOT
BRANCH   1  12
ATOM     12  C   UNL     1      40.106  39.203  29.745  1.00  0.00     0.025 A 
ATOM     13  C   UNL     1      40.927  39.958  28.888  1.00  0.00     0.016 A 
ATOM     14  C   UNL     1      42.221  40.311  29.280  1.00  0.00     0.051 A 
ATOM     15  C   UNL     1      42.717  39.906  30.525  1.00  0.00     0.157 A 
ATOM     16  C   UNL     1      40.617  38.782  30.984  1.00  0.00     0.062 A 
ATOM     17  C   UNL     1      41.915  39.138  31.378  1.00  0.00     0.158 A 
BRANCH  15  18
ATOM     18  O   UNL     1      44.007  40.259  30.921  1.00  0.00    -0.504 OA
ATOM     19  H   UNL     1      44.560  40.922  30.391  1.00  0.00     0.293 HD
ENDBRANCH  15  18
BRANCH  17  20
ATOM     20  O   UNL     1      42.414  38.730  32.614  1.00  0.00    -0.504 OA
ATOM     21  H   UNL     1      43.285  39.094  32.981  1.00  0.00     0.293 HD
ENDBRANCH  17  20
ENDBRANCH   1  12
BRANCH   2  22
ATOM     22  O   UNL     1      39.481  36.562  28.717  1.00  0.00    -0.502 OA
ATOM     23  H   UNL     1      39.345  35.681  28.236  1.00  0.00     0.293 HD
ENDBRANCH   2  22
BRANCH   6  24
ATOM     24  O   UNL     1      34.355  36.667  27.849  1.00  0.00    -0.507 OA
ATOM     25  H   UNL     1      33.703  36.096  28.375  1.00  0.00     0.293 HD
ENDBRANCH   6  24
BRANCH   8  26
ATOM     26  O   UNL     1      33.258  41.217  29.017  1.00  0.00    -0.508 OA
ATOM     27  H   UNL     1      33.301  41.901  29.764  1.00  0.00     0.293 HD
ENDBRANCH   8  26
TORSDOF 6
ENDMDL
MODEL 7
REMARK VINA RESULT:    -5.396      5.415      7.085
REMARK INTER + INTRA:          -6.819
REMARK INTER:                  -6.488
REMARK INTRA:                  -0.331
REMARK UNBOUND:                -0.318
REMARK SMILES O=c1c(O)c(-c2ccc(O)c(O)c2)oc2cc(O)cc(O)c12
REMARK SMILES IDX 5 1 3 2 2 3 1 4 22 5 20 6 19 7 17 8 16 9 15 10 14 11 6 12
REMARK SMILES IDX 7 13 8 14 9 15 13 16 11 17 10 18 12 20 4 22 21 24 18 26
REMARK H PARENT 10 19 12 21 4 23 21 25 18 27
REMARK Flexibility Score: inf
ROOT
ATOM      1  C   UNL     1      42.578  41.589  28.051  1.00  0.00     0.180 A 
ATOM      2  C   UNL     1      42.383  42.983  28.107  1.00  0.00     0.208 A 
ATOM      3  C   UNL     1      42.404  43.720  26.913  1.00  0.00     0.238 A 
ATOM      4  O   UNL     1      42.242  44.970  26.952  1.00  0.00    -0.285 OA
ATOM      5  C   UNL     1      42.598  43.053  25.686  1.00  0.00     0.111 A 
ATOM      6  C   UNL     1      42.628  43.720  24.438  1.00  0.00     0.134 A 
ATOM      7  C   UNL     1      42.816  42.984  23.259  1.00  0.00     0.093 A 
ATOM      8  C   UNL     1      42.973  41.597  23.303  1.00  0.00     0.123 A 
ATOM      9  C   UNL     1      42.944  40.931  24.533  1.00  0.00     0.094 A 
ATOM     10  C   UNL     1      42.760  41.648  25.719  1.00  0.00     0.146 A 
ATOM     11  O   UNL     1      42.742  40.992  26.874  1.00  0.00    -0.452 OA
ENDROOT
BRANCH   1  12
ATOM     12  C   UNL     1      42.588  40.746  29.268  1.00  0.00     0.025 A 
ATOM     13  C   UNL     1      43.769  40.533  30.002  1.00  0.00     0.016 A 
ATOM     14  C   UNL     1      43.760  39.714  31.133  1.00  0.00     0.051 A 
ATOM     15  C   UNL     1      42.576  39.086  31.541  1.00  0.00     0.157 A 
ATOM     16  C   UNL     1      41.409  40.097  29.669  1.00  0.00     0.062 A 
ATOM     17  C   UNL     1      41.399  39.275  30.807  1.00  0.00     0.158 A 
BRANCH  15  18
ATOM     18  O   UNL     1      42.562  38.270  32.671  1.00  0.00    -0.504 OA
ATOM     19  H   UNL     1      43.413  38.047  33.173  1.00  0.00     0.293 HD
ENDBRANCH  15  18
BRANCH  17  20
ATOM     20  O   UNL     1      40.223  38.644  31.209  1.00  0.00    -0.504 OA
ATOM     21  H   UNL     1      39.343  39.143  31.256  1.00  0.00     0.293 HD
ENDBRANCH  17  20
ENDBRANCH   1  12
BRANCH   2  22
ATOM     22  O   UNL     1      42.144  43.613  29.331  1.00  0.00    -0.502 OA
ATOM     23  H   UNL     1      42.681  43.405  30.164  1.00  0.00     0.293 HD
ENDBRANCH   2  22
BRANCH   6  24
ATOM     24  O   UNL     1      42.473  45.104  24.360  1.00  0.00    -0.507 OA
ATOM     25  H   UNL     1      42.377  45.678  25.190  1.00  0.00     0.293 HD
ENDBRANCH   6  24
BRANCH   8  26
ATOM     26  O   UNL     1      43.158  40.889  22.117  1.00  0.00    -0.508 OA
ATOM     27  H   UNL     1      44.078  40.592  21.815  1.00  0.00     0.293 HD
ENDBRANCH   8  26
TORSDOF 6
ENDMDL
MODEL 8
REMARK VINA RESULT:    -5.330     11.839     13.091
REMARK INTER + INTRA:          -6.739
REMARK INTER:                  -6.457
REMARK INTRA:                  -0.282
REMARK UNBOUND:                -0.318
REMARK SMILES O=c1c(O)c(-c2ccc(O)c(O)c2)oc2cc(O)cc(O)c12
REMARK SMILES IDX 5 1 3 2 2 3 1 4 22 5 20 6 19 7 17 8 16 9 15 10 14 11 6 12
REMARK SMILES IDX 7 13 8 14 9 15 13 16 11 17 10 18 12 20 4 22 21 24 18 26
REMARK H PARENT 10 19 12 21 4 23 21 25 18 27
REMARK Flexibility Score: inf
ROOT
ATOM      1  C   UNL     1      33.672  46.987  36.124  1.00  0.00     0.180 A 
ATOM      2  C   UNL     1      33.298  45.732  36.642  1.00  0.00     0.208 A 
ATOM      3  C   UNL     1      34.057  44.603  36.298  1.00  0.00     0.238 A 
ATOM      4  O   UNL     1      33.726  43.472  36.746  1.00  0.00    -0.285 OA
ATOM      5  C   UNL     1      35.184  44.749  35.463  1.00  0.00     0.111 A 
ATOM      6  C   UNL     1      36.004  43.663  35.072  1.00  0.00     0.134 A 
ATOM      7  C   UNL     1      37.115  43.891  34.246  1.00  0.00     0.093 A 
ATOM      8  C   UNL     1      37.421  45.180  33.805  1.00  0.00     0.123 A 
ATOM      9  C   UNL     1      36.614  46.257  34.187  1.00  0.00     0.094 A 
ATOM     10  C   UNL     1      35.502  46.050  35.008  1.00  0.00     0.146 A 
ATOM     11  O   UNL     1      34.750  47.089  35.352  1.00  0.00    -0.452 OA
ENDROOT
BRANCH   1  12
ATOM     12  C   UNL     1      32.910  48.221  36.425  1.00  0.00     0.025 A 
ATOM     13  C   UNL     1      32.046  48.798  35.478  1.00  0.00     0.016 A 
ATOM     14  C   UNL     1      31.356  49.976  35.776  1.00  0.00     0.051 A 
ATOM     15  C   UNL     1      31.530  50.601  37.017  1.00  0.00     0.157 A 
ATOM     16  C   UNL     1      33.097  48.864  37.660  1.00  0.00     0.062 A 
ATOM     17  C   UNL     1      32.403  50.046  37.961  1.00  0.00     0.158 A 
BRANCH  15  18
ATOM     18  O   UNL     1      30.843  51.776  37.320  1.00  0.00    -0.504 OA
ATOM     19  H   UNL     1      30.787  52.127  38.268  1.00  0.00     0.293 HD
ENDBRANCH  15  18
BRANCH  17  20
ATOM     20  O   UNL     1      32.580  50.674  39.193  1.00  0.00    -0.504 OA
ATOM     21  H   UNL     1      31.958  51.408  39.507  1.00  0.00     0.293 HD
ENDBRANCH  17  20
ENDBRANCH   1  12
BRANCH   2  22
ATOM     22  O   UNL     1      32.207  45.622  37.507  1.00  0.00    -0.502 OA
ATOM     23  H   UNL     1      32.237  45.062  38.351  1.00  0.00     0.293 HD
ENDBRANCH   2  22
BRANCH   6  24
ATOM     24  O   UNL     1      35.726  42.364  35.498  1.00  0.00    -0.507 OA
ATOM     25  H   UNL     1      35.605  41.602  34.841  1.00  0.00     0.293 HD
ENDBRANCH   6  24
BRANCH   8  26
ATOM     26  O   UNL     1      38.530  45.380  32.986  1.00  0.00    -0.508 OA
ATOM     27  H   UNL     1      38.433  45.514  31.986  1.00  0.00     0.293 HD
ENDBRANCH   8  26
TORSDOF 6
ENDMDL
MODEL 9
REMARK VINA RESULT:    -5.298      2.261      7.446
REMARK INTER + INTRA:          -6.700
REMARK INTER:                  -6.383
REMARK INTRA:                  -0.317
REMARK UNBOUND:                -0.318
REMARK SMILES O=c1c(O)c(-c2ccc(O)c(O)c2)oc2cc(O)cc(O)c12
REMARK SMILES IDX 5 1 3 2 2 3 1 4 22 5 20 6 19 7 17 8 16 9 15 10 14 11 6 12
REMARK SMILES IDX 7 13 8 14 9 15 13 16 11 17 10 18 12 20 4 22 21 24 18 26
REMARK H PARENT 10 19 12 21 4 23 21 25 18 27
REMARK Flexibility Score: inf
ROOT
ATOM      1  C   UNL     1      40.592  39.186  29.671  1.00  0.00     0.180 A 
ATOM      2  C   UNL     1      41.700  39.991  29.348  1.00  0.00     0.208 A 
ATOM      3  C   UNL     1      42.976  39.593  29.775  1.00  0.00     0.238 A 
ATOM      4  O   UNL     1      43.976  40.312  29.501  1.00  0.00    -0.285 OA
ATOM      5  C   UNL     1      43.126  38.390  30.495  1.00  0.00     0.111 A 
ATOM      6  C   UNL     1      44.377  37.915  30.958  1.00  0.00     0.134 A 
ATOM      7  C   UNL     1      44.444  36.702  31.661  1.00  0.00     0.093 A 
ATOM      8  C   UNL     1      43.289  35.958  31.909  1.00  0.00     0.123 A 
ATOM      9  C   UNL     1      42.050  36.422  31.455  1.00  0.00     0.094 A 
ATOM     10  C   UNL     1      41.962  37.629  30.754  1.00  0.00     0.146 A 
ATOM     11  O   UNL     1      40.773  38.050  30.339  1.00  0.00    -0.452 OA
ENDROOT
BRANCH   1  12
ATOM     12  C   UNL     1      39.212  39.549  29.273  1.00  0.00     0.025 A 
ATOM     13  C   UNL     1      38.456  40.475  30.014  1.00  0.00     0.016 A 
ATOM     14  C   UNL     1      37.148  40.784  29.634  1.00  0.00     0.051 A 
ATOM     15  C   UNL     1      36.572  40.164  28.518  1.00  0.00     0.157 A 
ATOM     16  C   UNL     1      38.622  38.914  28.168  1.00  0.00     0.062 A 
ATOM     17  C   UNL     1      37.308  39.225  27.785  1.00  0.00     0.158 A 
BRANCH  15  18
ATOM     18  O   UNL     1      35.267  40.471  28.134  1.00  0.00    -0.504 OA
ATOM     19  H   UNL     1      34.482  40.315  28.755  1.00  0.00     0.293 HD
ENDBRANCH  15  18
BRANCH  17  20
ATOM     20  O   UNL     1      36.731  38.604  26.679  1.00  0.00    -0.504 OA
ATOM     21  H   UNL     1      36.031  37.879  26.784  1.00  0.00     0.293 HD
ENDBRANCH  17  20
ENDBRANCH   1  12
BRANCH   2  22
ATOM     22  O   UNL     1      41.532  41.153  28.590  1.00  0.00    -0.502 OA
ATOM     23  H   UNL     1      41.375  41.131  27.590  1.00  0.00     0.293 HD
ENDBRANCH   2  22
BRANCH   6  24
ATOM     24  O   UNL     1      45.549  38.634  30.725  1.00  0.00    -0.507 OA
ATOM     25  H   UNL     1      45.835  39.398  31.326  1.00  0.00     0.293 HD
ENDBRANCH   6  24
BRANCH   8  26
ATOM     26  O   UNL     1      43.383  34.757  32.608  1.00  0.00    -0.508 OA
ATOM     27  H   UNL     1      42.575  34.161  32.749  1.00  0.00     0.293 HD
ENDBRANCH   8  26
TORSDOF 6
ENDMDL
