MODEL 1
REMARK VINA RESULT:    -5.460      0.000      0.000
REMARK INTER + INTRA:          -8.746
REMARK INTER:                  -8.332
REMARK INTRA:                  -0.413
REMARK UNBOUND:                -0.413
REMARK SMILES O=C([O-])CCCCCCCCC(=O)[O-]
REMARK SMILES IDX 7 1 6 2 5 3 4 4 2 5 1 6 3 7 8 8 9 9 10 10 11 11 12 12 13 13
REMARK SMILES IDX 14 14
REMARK H PARENT
REMARK Flexibility Score: inf
ROOT
ATOM      1  C   UNL     1     -14.429  -0.177 -10.699  1.00  0.00     0.000 C 
ENDROOT
BRANCH   1   2
ATOM      2  C   UNL     1     -15.013   0.555  -9.477  1.00  0.00     0.000 C 
BRANCH   2   3
ATOM      3  C   UNL     1     -14.713   2.063  -9.481  1.00  0.00     0.006 C 
BRANCH   3   4
ATOM      4  C   UNL     1     -13.210   2.354  -9.371  1.00  0.00     0.053 C 
BRANCH   4   5
ATOM      5  C   UNL     1     -12.943   3.633  -8.639  1.00  0.00     0.041 C 
ATOM      6  O   UNL     1     -11.804   3.861  -8.154  1.00  0.00    -0.550 OA
ATOM      7  O   UNL     1     -13.963   4.560  -8.466  1.00  0.00    -0.550 OA
ENDBRANCH   4   5
ENDBRANCH   3   4
ENDBRANCH   2   3
ENDBRANCH   1   2
BRANCH   1   8
ATOM      8  C   UNL     1     -13.341  -1.219 -10.382  1.00  0.00     0.000 C 
BRANCH   8   9
ATOM      9  C   UNL     1     -11.920  -0.630 -10.413  1.00  0.00     0.000 C 
BRANCH   9  10
ATOM     10  C   UNL     1     -10.968  -1.334  -9.433  1.00  0.00     0.006 C 
BRANCH  10  11
ATOM     11  C   UNL     1     -10.123  -2.424 -10.107  1.00  0.00     0.053 C 
BRANCH  11  12
ATOM     12  C   UNL     1     -10.430  -3.762  -9.514  1.00  0.00     0.041 C 
ATOM     13  O   UNL     1      -9.529  -4.639  -9.427  1.00  0.00    -0.550 OA
ATOM     14  O   UNL     1     -11.721  -4.059  -9.098  1.00  0.00    -0.550 OA
ENDBRANCH  11  12
ENDBRANCH  10  11
ENDBRANCH   9  10
ENDBRANCH   8   9
ENDBRANCH   1   8
TORSDOF 9
ENDMDL
MODEL 2
REMARK VINA RESULT:    -5.437      1.397      1.768
REMARK INTER + INTRA:          -8.710
REMARK INTER:                  -8.410
REMARK INTRA:                  -0.300
REMARK UNBOUND:                -0.413
REMARK SMILES O=C([O-])CCCCCCCCC(=O)[O-]
REMARK SMILES IDX 7 1 6 2 5 3 4 4 2 5 1 6 3 7 8 8 9 9 10 10 11 11 12 12 13 13
REMARK SMILES IDX 14 14
REMARK H PARENT
REMARK Flexibility Score: inf
ROOT
ATOM      1  C   UNL     1     -12.521   0.568  -9.566  1.00  0.00     0.000 C 
ENDROOT
BRANCH   1   2
ATOM      2  C   UNL     1     -13.947   1.123  -9.729  1.00  0.00     0.000 C 
BRANCH   2   3
ATOM      3  C   UNL     1     -14.096   2.560  -9.200  1.00  0.00     0.006 C 
BRANCH   3   4
ATOM      4  C   UNL     1     -12.809   3.376  -9.373  1.00  0.00     0.053 C 
BRANCH   4   5
ATOM      5  C   UNL     1     -12.234   3.796  -8.055  1.00  0.00     0.041 C 
ATOM      6  O   UNL     1     -10.996   3.713  -7.848  1.00  0.00    -0.550 OA
ATOM      7  O   UNL     1     -13.073   4.249  -7.045  1.00  0.00    -0.550 OA
ENDBRANCH   4   5
ENDBRANCH   3   4
ENDBRANCH   2   3
ENDBRANCH   1   2
BRANCH   1   8
ATOM      8  C   UNL     1     -12.198  -0.674 -10.416  1.00  0.00     0.000 C 
BRANCH   8   9
ATOM      9  C   UNL     1     -10.784  -1.224 -10.163  1.00  0.00     0.000 C 
BRANCH   9  10
ATOM     10  C   UNL     1     -10.801  -2.627  -9.535  1.00  0.00     0.006 C 
BRANCH  10  11
ATOM     11  C   UNL     1     -10.256  -2.641  -8.100  1.00  0.00     0.053 C 
BRANCH  11  12
ATOM     12  C   UNL     1     -10.149  -4.045  -7.596  1.00  0.00     0.041 C 
ATOM     13  O   UNL     1     -10.833  -4.418  -6.606  1.00  0.00    -0.550 OA
ATOM     14  O   UNL     1      -9.260  -4.931  -8.191  1.00  0.00    -0.550 OA
ENDBRANCH  11  12
ENDBRANCH  10  11
ENDBRANCH   9  10
ENDBRANCH   8   9
ENDBRANCH   1   8
TORSDOF 9
ENDMDL
MODEL 3
REMARK VINA RESULT:    -5.401      0.809      6.465
REMARK INTER + INTRA:          -8.656
REMARK INTER:                  -8.267
REMARK INTRA:                  -0.390
REMARK UNBOUND:                -0.413
REMARK SMILES O=C([O-])CCCCCCCCC(=O)[O-]
REMARK SMILES IDX 7 1 6 2 5 3 4 4 2 5 1 6 3 7 8 8 9 9 10 10 11 11 12 12 13 13
REMARK SMILES IDX 14 14
REMARK H PARENT
REMARK Flexibility Score: inf
ROOT
ATOM      1  C   UNL     1     -13.289  -1.209 -10.347  1.00  0.00     0.000 C 
ENDROOT
BRANCH   1   2
ATOM      2  C   UNL     1     -11.861  -0.636 -10.402  1.00  0.00     0.000 C 
BRANCH   2   3
ATOM      3  C   UNL     1     -10.871  -1.408  -9.513  1.00  0.00     0.006 C 
BRANCH   3   4
ATOM      4  C   UNL     1     -11.261  -2.884  -9.360  1.00  0.00     0.053 C 
BRANCH   4   5
ATOM      5  C   UNL     1     -10.284  -3.632  -8.505  1.00  0.00     0.041 C 
ATOM      6  O   UNL     1      -9.052  -3.388  -8.587  1.00  0.00    -0.550 OA
ATOM      7  O   UNL     1     -10.733  -4.620  -7.639  1.00  0.00    -0.550 OA
ENDBRANCH   4   5
ENDBRANCH   3   4
ENDBRANCH   2   3
ENDBRANCH   1   2
BRANCH   1   8
ATOM      8  C   UNL     1     -14.409  -0.214 -10.703  1.00  0.00     0.000 C 
BRANCH   8   9
ATOM      9  C   UNL     1     -14.947   0.546  -9.478  1.00  0.00     0.000 C 
BRANCH   9  10
ATOM     10  C   UNL     1     -14.663   2.055  -9.549  1.00  0.00     0.006 C 
BRANCH  10  11
ATOM     11  C   UNL     1     -13.167   2.382  -9.438  1.00  0.00     0.053 C 
BRANCH  11  12
ATOM     12  C   UNL     1     -12.955   3.554  -8.534  1.00  0.00     0.041 C 
ATOM     13  O   UNL     1     -13.931   4.267  -8.179  1.00  0.00    -0.550 OA
ATOM     14  O   UNL     1     -11.673   3.888  -8.120  1.00  0.00    -0.550 OA
ENDBRANCH  11  12
ENDBRANCH  10  11
ENDBRANCH   9  10
ENDBRANCH   8   9
ENDBRANCH   1   8
TORSDOF 9
ENDMDL
MODEL 4
REMARK VINA RESULT:    -5.396      1.371      6.832
REMARK INTER + INTRA:          -8.648
REMARK INTER:                  -8.365
REMARK INTRA:                  -0.283
REMARK UNBOUND:                -0.413
REMARK SMILES O=C([O-])CCCCCCCCC(=O)[O-]
REMARK SMILES IDX 7 1 6 2 5 3 4 4 2 5 1 6 3 7 8 8 9 9 10 10 11 11 12 12 13 13
REMARK SMILES IDX 14 14
REMARK H PARENT
REMARK Flexibility Score: inf
ROOT
ATOM      1  C   UNL     1     -12.054  -0.804 -10.387  1.00  0.00     0.000 C 
ENDROOT
BRANCH   1   2
ATOM      2  C   UNL     1     -10.664  -1.407 -10.115  1.00  0.00     0.000 C 
BRANCH   2   3
ATOM      3  C   UNL     1     -10.731  -2.847  -9.578  1.00  0.00     0.006 C 
BRANCH   3   4
ATOM      4  C   UNL     1     -10.328  -2.932  -8.100  1.00  0.00     0.053 C 
BRANCH   4   5
ATOM      5  C   UNL     1     -10.385  -4.339  -7.588  1.00  0.00     0.041 C 
ATOM      6  O   UNL     1     -10.910  -4.587  -6.471  1.00  0.00    -0.550 OA
ATOM      7  O   UNL     1      -9.830  -5.372  -8.332  1.00  0.00    -0.550 OA
ENDBRANCH   4   5
ENDBRANCH   3   4
ENDBRANCH   2   3
ENDBRANCH   1   2
BRANCH   1   8
ATOM      8  C   UNL     1     -12.358   0.509  -9.642  1.00  0.00     0.000 C 
BRANCH   8   9
ATOM      9  C   UNL     1     -13.844   0.903  -9.702  1.00  0.00     0.000 C 
BRANCH   9  10
ATOM     10  C   UNL     1     -14.084   2.364  -9.290  1.00  0.00     0.006 C 
BRANCH  10  11
ATOM     11  C   UNL     1     -12.841   3.245  -9.480  1.00  0.00     0.053 C 
BRANCH  11  12
ATOM     12  C   UNL     1     -12.342   3.734  -8.158  1.00  0.00     0.041 C 
ATOM     13  O   UNL     1     -11.109   3.718  -7.899  1.00  0.00    -0.550 OA
ATOM     14  O   UNL     1     -13.242   4.165  -7.192  1.00  0.00    -0.550 OA
ENDBRANCH  11  12
ENDBRANCH  10  11
ENDBRANCH   9  10
ENDBRANCH   8   9
ENDBRANCH   1   8
TORSDOF 9
ENDMDL
MODEL 5
REMARK VINA RESULT:    -4.847      3.053      4.164
REMARK INTER + INTRA:          -7.810
REMARK INTER:                  -7.575
REMARK INTRA:                  -0.235
REMARK UNBOUND:                -0.413
REMARK SMILES O=C([O-])CCCCCCCCC(=O)[O-]
REMARK SMILES IDX 7 1 6 2 5 3 4 4 2 5 1 6 3 7 8 8 9 9 10 10 11 11 12 12 13 13
REMARK SMILES IDX 14 14
REMARK H PARENT
REMARK Flexibility Score: inf
ROOT
ATOM      1  C   UNL     1     -10.530  -2.266  -9.937  1.00  0.00     0.000 C 
ENDROOT
BRANCH   1   2
ATOM      2  C   UNL     1     -11.006  -0.901  -9.408  1.00  0.00     0.000 C 
BRANCH   2   3
ATOM      3  C   UNL     1     -12.220  -0.351 -10.176  1.00  0.00     0.006 C 
BRANCH   3   4
ATOM      4  C   UNL     1     -12.726   0.972  -9.587  1.00  0.00     0.053 C 
BRANCH   4   5
ATOM      5  C   UNL     1     -14.216   1.090  -9.685  1.00  0.00     0.041 C 
ATOM      6  O   UNL     1     -14.899   0.143 -10.156  1.00  0.00    -0.550 OA
ATOM      7  O   UNL     1     -14.848   2.261  -9.286  1.00  0.00    -0.550 OA
ENDBRANCH   4   5
ENDBRANCH   3   4
ENDBRANCH   2   3
ENDBRANCH   1   2
BRANCH   1   8
ATOM      8  C   UNL     1     -11.100  -3.491  -9.199  1.00  0.00     0.000 C 
BRANCH   8   9
ATOM      9  C   UNL     1     -10.514  -3.667  -7.787  1.00  0.00     0.000 C 
BRANCH   9  10
ATOM     10  C   UNL     1     -10.483  -5.138  -7.341  1.00  0.00     0.006 C 
BRANCH  10  11
ATOM     11  C   UNL     1     -11.209  -5.369  -6.009  1.00  0.00     0.053 C 
BRANCH  11  12
ATOM     12  C   UNL     1     -11.486  -6.825  -5.811  1.00  0.00     0.041 C 
ATOM     13  O   UNL     1     -10.630  -7.686  -6.148  1.00  0.00    -0.550 OA
ATOM     14  O   UNL     1     -12.709  -7.236  -5.298  1.00  0.00    -0.550 OA
ENDBRANCH  11  12
ENDBRANCH  10  11
ENDBRANCH   9  10
ENDBRANCH   8   9
ENDBRANCH   1   8
TORSDOF 9
ENDMDL
MODEL 6
REMARK VINA RESULT:    -4.731      2.217      7.412
REMARK INTER + INTRA:          -7.634
REMARK INTER:                  -7.353
REMARK INTRA:                  -0.281
REMARK UNBOUND:                -0.413
REMARK SMILES O=C([O-])CCCCCCCCC(=O)[O-]
REMARK SMILES IDX 7 1 6 2 5 3 4 4 2 5 1 6 3 7 8 8 9 9 10 10 11 11 12 12 13 13
REMARK SMILES IDX 14 14
REMARK H PARENT
REMARK Flexibility Score: inf
ROOT
ATOM      1  C   UNL     1     -10.365  -2.392  -9.423  1.00  0.00     0.000 C 
ENDROOT
BRANCH   1   2
ATOM      2  C   UNL     1     -11.350  -3.562  -9.244  1.00  0.00     0.000 C 
BRANCH   2   3
ATOM      3  C   UNL     1     -10.654  -4.877  -8.854  1.00  0.00     0.006 C 
BRANCH   3   4
ATOM      4  C   UNL     1     -11.619  -5.866  -8.186  1.00  0.00     0.053 C 
BRANCH   4   5
ATOM      5  C   UNL     1     -11.191  -6.204  -6.791  1.00  0.00     0.041 C 
ATOM      6  O   UNL     1     -11.390  -5.390  -5.851  1.00  0.00    -0.550 OA
ATOM      7  O   UNL     1     -10.543  -7.405  -6.535  1.00  0.00    -0.550 OA
ENDBRANCH   4   5
ENDBRANCH   3   4
ENDBRANCH   2   3
ENDBRANCH   1   2
BRANCH   1   8
ATOM      8  C   UNL     1     -10.984  -0.988  -9.293  1.00  0.00     0.000 C 
BRANCH   8   9
ATOM      9  C   UNL     1     -11.876  -0.613 -10.489  1.00  0.00     0.000 C 
BRANCH   9  10
ATOM     10  C   UNL     1     -13.134   0.162 -10.066  1.00  0.00     0.006 C 
BRANCH  10  11
ATOM     11  C   UNL     1     -12.806   1.506  -9.403  1.00  0.00     0.053 C 
BRANCH  11  12
ATOM     12  C   UNL     1     -14.039   2.345  -9.285  1.00  0.00     0.041 C 
ATOM     13  O   UNL     1     -15.125   1.952  -9.789  1.00  0.00    -0.550 OA
ATOM     14  O   UNL     1     -13.981   3.583  -8.659  1.00  0.00    -0.550 OA
ENDBRANCH  11  12
ENDBRANCH  10  11
ENDBRANCH   9  10
ENDBRANCH   8   9
ENDBRANCH   1   8
TORSDOF 9
ENDMDL
MODEL 7
REMARK VINA RESULT:    -4.438      3.591      7.724
REMARK INTER + INTRA:          -7.187
REMARK INTER:                  -6.621
REMARK INTRA:                  -0.566
REMARK UNBOUND:                -0.413
REMARK SMILES O=C([O-])CCCCCCCCC(=O)[O-]
REMARK SMILES IDX 7 1 6 2 5 3 4 4 2 5 1 6 3 7 8 8 9 9 10 10 11 11 12 12 13 13
REMARK SMILES IDX 14 14
REMARK H PARENT
REMARK Flexibility Score: inf
ROOT
ATOM      1  C   UNL     1     -11.765  -4.909  -8.214  1.00  0.00     0.000 C 
ENDROOT
BRANCH   1   2
ATOM      2  C   UNL     1     -11.614  -6.430  -8.396  1.00  0.00     0.000 C 
BRANCH   2   3
ATOM      3  C   UNL     1     -10.614  -7.055  -7.407  1.00  0.00     0.006 C 
BRANCH   3   4
ATOM      4  C   UNL     1     -11.290  -8.049  -6.454  1.00  0.00     0.053 C 
BRANCH   4   5
ATOM      5  C   UNL     1     -12.161  -7.356  -5.452  1.00  0.00     0.041 C 
ATOM      6  O   UNL     1     -13.300  -7.816  -5.176  1.00  0.00    -0.550 OA
ATOM      7  O   UNL     1     -11.727  -6.183  -4.847  1.00  0.00    -0.550 OA
ENDBRANCH   4   5
ENDBRANCH   3   4
ENDBRANCH   2   3
ENDBRANCH   1   2
BRANCH   1   8
ATOM      8  C   UNL     1     -10.539  -4.193  -7.617  1.00  0.00     0.000 C 
BRANCH   8   9
ATOM      9  C   UNL     1     -10.314  -2.793  -8.212  1.00  0.00     0.000 C 
BRANCH   9  10
ATOM     10  C   UNL     1     -10.861  -2.665  -9.643  1.00  0.00     0.006 C 
BRANCH  10  11
ATOM     11  C   UNL     1     -10.632  -1.272 -10.243  1.00  0.00     0.053 C 
BRANCH  11  12
ATOM     12  C   UNL     1     -11.843  -0.416 -10.052  1.00  0.00     0.041 C 
ATOM     13  O   UNL     1     -11.791   0.601  -9.310  1.00  0.00    -0.550 OA
ATOM     14  O   UNL     1     -13.043  -0.765 -10.656  1.00  0.00    -0.550 OA
ENDBRANCH  11  12
ENDBRANCH  10  11
ENDBRANCH   9  10
ENDBRANCH   8   9
ENDBRANCH   1   8
TORSDOF 9
ENDMDL
MODEL 8
REMARK VINA RESULT:    -4.406     15.486     17.752
REMARK INTER + INTRA:          -7.137
REMARK INTER:                  -6.097
REMARK INTRA:                  -1.040
REMARK UNBOUND:                -0.413
REMARK SMILES O=C([O-])CCCCCCCCC(=O)[O-]
REMARK SMILES IDX 7 1 6 2 5 3 4 4 2 5 1 6 3 7 8 8 9 9 10 10 11 11 12 12 13 13
REMARK SMILES IDX 14 14
REMARK H PARENT
REMARK Flexibility Score: inf
ROOT
ATOM      1  C   UNL     1     -12.669   5.455   9.003  1.00  0.00     0.000 C 
ENDROOT
BRANCH   1   2
ATOM      2  C   UNL     1     -12.399   4.152   8.230  1.00  0.00     0.000 C 
BRANCH   2   3
ATOM      3  C   UNL     1     -10.935   4.013   7.780  1.00  0.00     0.006 C 
BRANCH   3   4
ATOM      4  C   UNL     1     -10.112   5.269   8.093  1.00  0.00     0.053 C 
BRANCH   4   5
ATOM      5  C   UNL     1      -9.521   5.869   6.854  1.00  0.00     0.041 C 
ATOM      6  O   UNL     1      -9.731   5.341   5.731  1.00  0.00    -0.550 OA
ATOM      7  O   UNL     1      -8.713   6.995   6.945  1.00  0.00    -0.550 OA
ENDBRANCH   4   5
ENDBRANCH   3   4
ENDBRANCH   2   3
ENDBRANCH   1   2
BRANCH   1   8
ATOM      8  C   UNL     1     -13.663   6.422   8.334  1.00  0.00     0.000 C 
BRANCH   8   9
ATOM      9  C   UNL     1     -12.969   7.560   7.567  1.00  0.00     0.000 C 
BRANCH   9  10
ATOM     10  C   UNL     1     -12.797   7.245   6.072  1.00  0.00     0.006 C 
BRANCH  10  11
ATOM     11  C   UNL     1     -13.983   6.463   5.491  1.00  0.00     0.053 C 
BRANCH  11  12
ATOM     12  C   UNL     1     -13.515   5.510   4.439  1.00  0.00     0.041 C 
ATOM     13  O   UNL     1     -12.687   4.604   4.726  1.00  0.00    -0.550 OA
ATOM     14  O   UNL     1     -13.956   5.648   3.130  1.00  0.00    -0.550 OA
ENDBRANCH  11  12
ENDBRANCH  10  11
ENDBRANCH   9  10
ENDBRANCH   8   9
ENDBRANCH   1   8
TORSDOF 9
ENDMDL
MODEL 9
REMARK VINA RESULT:    -4.395      3.219      5.157
REMARK INTER + INTRA:          -7.120
REMARK INTER:                  -6.600
REMARK INTRA:                  -0.520
REMARK UNBOUND:                -0.413
REMARK SMILES O=C([O-])CCCCCCCCC(=O)[O-]
REMARK SMILES IDX 7 1 6 2 5 3 4 4 2 5 1 6 3 7 8 8 9 9 10 10 11 11 12 12 13 13
REMARK SMILES IDX 14 14
REMARK H PARENT
REMARK Flexibility Score: inf
ROOT
ATOM      1  C   UNL     1     -10.545  -3.803  -8.252  1.00  0.00     0.000 C 
ENDROOT
BRANCH   1   2
ATOM      2  C   UNL     1     -10.697  -2.934  -9.514  1.00  0.00     0.000 C 
BRANCH   2   3
ATOM      3  C   UNL     1     -10.809  -1.433  -9.198  1.00  0.00     0.006 C 
BRANCH   3   4
ATOM      4  C   UNL     1     -11.355  -0.631 -10.386  1.00  0.00     0.053 C 
BRANCH   4   5
ATOM      5  C   UNL     1     -12.757  -0.163 -10.144  1.00  0.00     0.041 C 
ATOM      6  O   UNL     1     -13.733  -0.881 -10.485  1.00  0.00    -0.550 OA
ATOM      7  O   UNL     1     -12.985   1.081  -9.571  1.00  0.00    -0.550 OA
ENDBRANCH   4   5
ENDBRANCH   3   4
ENDBRANCH   2   3
ENDBRANCH   1   2
BRANCH   1   8
ATOM      8  C   UNL     1      -9.957  -5.207  -8.489  1.00  0.00     0.000 C 
BRANCH   8   9
ATOM      9  C   UNL     1     -11.036  -6.271  -8.754  1.00  0.00     0.000 C 
BRANCH   9  10
ATOM     10  C   UNL     1     -12.400  -5.889  -8.156  1.00  0.00     0.006 C 
BRANCH  10  11
ATOM     11  C   UNL     1     -12.917  -6.926  -7.150  1.00  0.00     0.053 C 
BRANCH  11  12
ATOM     12  C   UNL     1     -12.209  -6.781  -5.841  1.00  0.00     0.041 C 
ATOM     13  O   UNL     1     -11.984  -7.793  -5.126  1.00  0.00    -0.550 OA
ATOM     14  O   UNL     1     -11.838  -5.522  -5.388  1.00  0.00    -0.550 OA
ENDBRANCH  11  12
ENDBRANCH  10  11
ENDBRANCH   9  10
ENDBRANCH   8   9
ENDBRANCH   1   8
TORSDOF 9
ENDMDL
