MODEL 1
REMARK VINA RESULT:    -3.925      0.000      0.000
REMARK INTER + INTRA:          -5.047
REMARK INTER:                  -4.728
REMARK INTRA:                  -0.319
REMARK UNBOUND:                -0.319
REMARK SMILES O=c1c(O)c(-c2ccc(O)cc2O)oc2cc(O)cc(O)c12
REMARK SMILES IDX 5 1 3 2 2 3 1 4 22 5 20 6 19 7 17 8 16 9 15 10 14 11 6 12
REMARK SMILES IDX 8 13 7 14 9 15 11 16 12 17 10 18 13 20 4 22 21 24 18 26
REMARK H PARENT 10 19 13 21 4 23 21 25 18 27
REMARK Flexibility Score: inf
ROOT
ATOM      1  C   UNL     1      -5.003  -6.005   4.583  1.00  0.00     0.184 A 
ATOM      2  C   UNL     1      -3.641  -6.322   4.714  1.00  0.00     0.208 A 
ATOM      3  C   UNL     1      -2.827  -6.316   3.570  1.00  0.00     0.238 A 
ATOM      4  O   UNL     1      -1.597  -6.545   3.703  1.00  0.00    -0.285 OA
ATOM      5  C   UNL     1      -3.390  -6.015   2.306  1.00  0.00     0.111 A 
ATOM      6  C   UNL     1      -2.668  -6.018   1.075  1.00  0.00     0.134 A 
ATOM      7  C   UNL     1      -3.298  -5.579  -0.096  1.00  0.00     0.093 A 
ATOM      8  C   UNL     1      -4.639  -5.199  -0.093  1.00  0.00     0.123 A 
ATOM      9  C   UNL     1      -5.371  -5.247   1.093  1.00  0.00     0.094 A 
ATOM     10  C   UNL     1      -4.761  -5.646   2.286  1.00  0.00     0.146 A 
ATOM     11  O   UNL     1      -5.490  -5.667   3.395  1.00  0.00    -0.451 OA
ENDROOT
BRANCH   1  12
ATOM     12  C   UNL     1      -5.923  -6.016   5.744  1.00  0.00     0.063 A 
ATOM     13  C   UNL     1      -7.813  -6.991   6.930  1.00  0.00     0.047 A 
ATOM     14  C   UNL     1      -6.926  -6.996   5.850  1.00  0.00     0.020 A 
ATOM     15  C   UNL     1      -7.715  -6.001   7.915  1.00  0.00     0.119 A 
ATOM     16  C   UNL     1      -6.730  -5.015   7.812  1.00  0.00     0.093 A 
ATOM     17  C   UNL     1      -5.835  -5.014   6.731  1.00  0.00     0.130 A 
BRANCH  15  18
ATOM     18  O   UNL     1      -8.592  -5.986   8.996  1.00  0.00    -0.508 OA
ATOM     19  H   UNL     1      -8.650  -5.189   9.620  1.00  0.00     0.293 HD
ENDBRANCH  15  18
BRANCH  17  20
ATOM     20  O   UNL     1      -4.853  -4.027   6.645  1.00  0.00    -0.507 OA
ATOM     21  H   UNL     1      -4.128  -4.059   5.937  1.00  0.00     0.293 HD
ENDBRANCH  17  20
ENDBRANCH   1  12
BRANCH   2  22
ATOM     22  O   UNL     1      -3.105  -6.604   5.973  1.00  0.00    -0.502 OA
ATOM     23  H   UNL     1      -3.432  -7.374   6.545  1.00  0.00     0.293 HD
ENDBRANCH   2  22
BRANCH   6  24
ATOM     24  O   UNL     1      -1.350  -6.467   0.944  1.00  0.00    -0.507 OA
ATOM     25  H   UNL     1      -0.838  -6.962   1.658  1.00  0.00     0.293 HD
ENDBRANCH   6  24
BRANCH   8  26
ATOM     26  O   UNL     1      -5.238  -4.782  -1.280  1.00  0.00    -0.508 OA
ATOM     27  H   UNL     1      -6.017  -4.134  -1.282  1.00  0.00     0.293 HD
ENDBRANCH   8  26
TORSDOF 6
ENDMDL
MODEL 2
REMARK VINA RESULT:    -3.882      2.885      4.616
REMARK INTER + INTRA:          -4.996
REMARK INTER:                  -4.717
REMARK INTRA:                  -0.279
REMARK UNBOUND:                -0.319
REMARK SMILES O=c1c(O)c(-c2ccc(O)cc2O)oc2cc(O)cc(O)c12
REMARK SMILES IDX 5 1 3 2 2 3 1 4 22 5 20 6 19 7 17 8 16 9 15 10 14 11 6 12
REMARK SMILES IDX 8 13 7 14 9 15 11 16 12 17 10 18 13 20 4 22 21 24 18 26
REMARK H PARENT 10 19 13 21 4 23 21 25 18 27
REMARK Flexibility Score: inf
ROOT
ATOM      1  C   UNL     1      -6.253  -4.730   4.988  1.00  0.00     0.184 A 
ATOM      2  C   UNL     1      -5.947  -4.720   6.358  1.00  0.00     0.208 A 
ATOM      3  C   UNL     1      -4.693  -5.189   6.780  1.00  0.00     0.238 A 
ATOM      4  O   UNL     1      -4.403  -5.125   8.003  1.00  0.00    -0.285 OA
ATOM      5  C   UNL     1      -3.768  -5.682   5.827  1.00  0.00     0.111 A 
ATOM      6  C   UNL     1      -2.484  -6.218   6.144  1.00  0.00     0.134 A 
ATOM      7  C   UNL     1      -1.602  -6.557   5.111  1.00  0.00     0.093 A 
ATOM      8  C   UNL     1      -1.981  -6.440   3.774  1.00  0.00     0.123 A 
ATOM      9  C   UNL     1      -3.255  -5.972   3.453  1.00  0.00     0.094 A 
ATOM     10  C   UNL     1      -4.145  -5.591   4.461  1.00  0.00     0.146 A 
ATOM     11  O   UNL     1      -5.344  -5.141   4.112  1.00  0.00    -0.451 OA
ENDROOT
BRANCH   1  12
ATOM     12  C   UNL     1      -7.567  -4.272   4.477  1.00  0.00     0.063 A 
ATOM     13  C   UNL     1      -8.910  -2.632   3.281  1.00  0.00     0.047 A 
ATOM     14  C   UNL     1      -7.668  -3.079   3.739  1.00  0.00     0.020 A 
ATOM     15  C   UNL     1     -10.069  -3.365   3.562  1.00  0.00     0.119 A 
ATOM     16  C   UNL     1      -9.980  -4.545   4.305  1.00  0.00     0.093 A 
ATOM     17  C   UNL     1      -8.737  -5.002   4.768  1.00  0.00     0.130 A 
BRANCH  15  18
ATOM     18  O   UNL     1     -11.312  -2.929   3.111  1.00  0.00    -0.508 OA
ATOM     19  H   UNL     1     -12.171  -3.379   3.407  1.00  0.00     0.293 HD
ENDBRANCH  15  18
BRANCH  17  20
ATOM     20  O   UNL     1      -8.663  -6.185   5.503  1.00  0.00    -0.507 OA
ATOM     21  H   UNL     1      -9.429  -6.849   5.521  1.00  0.00     0.293 HD
ENDBRANCH  17  20
ENDBRANCH   1  12
BRANCH   2  22
ATOM     22  O   UNL     1      -6.870  -4.218   7.280  1.00  0.00    -0.502 OA
ATOM     23  H   UNL     1      -7.361  -4.812   7.938  1.00  0.00     0.293 HD
ENDBRANCH   2  22
BRANCH   6  24
ATOM     24  O   UNL     1      -2.042  -6.462   7.448  1.00  0.00    -0.507 OA
ATOM     25  H   UNL     1      -1.076  -6.577   7.716  1.00  0.00     0.293 HD
ENDBRANCH   6  24
BRANCH   8  26
ATOM     26  O   UNL     1      -1.083  -6.801   2.772  1.00  0.00    -0.508 OA
ATOM     27  H   UNL     1      -0.174  -7.191   2.991  1.00  0.00     0.293 HD
ENDBRANCH   8  26
TORSDOF 6
ENDMDL
MODEL 3
REMARK VINA RESULT:    -3.827      1.720      3.191
REMARK INTER + INTRA:          -4.930
REMARK INTER:                  -4.512
REMARK INTRA:                  -0.418
REMARK UNBOUND:                -0.319
REMARK SMILES O=c1c(O)c(-c2ccc(O)cc2O)oc2cc(O)cc(O)c12
REMARK SMILES IDX 5 1 3 2 2 3 1 4 22 5 20 6 19 7 17 8 16 9 15 10 14 11 6 12
REMARK SMILES IDX 8 13 7 14 9 15 11 16 12 17 10 18 13 20 4 22 21 24 18 26
REMARK H PARENT 10 19 13 21 4 23 21 25 18 27
REMARK Flexibility Score: inf
ROOT
ATOM      1  C   UNL     1      -6.639  -5.228   4.528  1.00  0.00     0.184 A 
ATOM      2  C   UNL     1      -7.376  -4.337   3.731  1.00  0.00     0.208 A 
ATOM      3  C   UNL     1      -7.081  -4.243   2.362  1.00  0.00     0.238 A 
ATOM      4  O   UNL     1      -7.782  -3.485   1.643  1.00  0.00    -0.285 OA
ATOM      5  C   UNL     1      -6.038  -5.026   1.811  1.00  0.00     0.111 A 
ATOM      6  C   UNL     1      -5.626  -4.984   0.445  1.00  0.00     0.134 A 
ATOM      7  C   UNL     1      -4.669  -5.896  -0.017  1.00  0.00     0.093 A 
ATOM      8  C   UNL     1      -4.063  -6.804   0.850  1.00  0.00     0.123 A 
ATOM      9  C   UNL     1      -4.416  -6.816   2.199  1.00  0.00     0.094 A 
ATOM     10  C   UNL     1      -5.394  -5.943   2.683  1.00  0.00     0.146 A 
ATOM     11  O   UNL     1      -5.708  -5.994   3.972  1.00  0.00    -0.451 OA
ENDROOT
BRANCH   1  12
ATOM     12  C   UNL     1      -6.882  -5.359   5.984  1.00  0.00     0.063 A 
ATOM     13  C   UNL     1      -8.298  -6.072   7.831  1.00  0.00     0.047 A 
ATOM     14  C   UNL     1      -8.055  -5.973   6.458  1.00  0.00     0.020 A 
ATOM     15  C   UNL     1      -7.378  -5.550   8.747  1.00  0.00     0.119 A 
ATOM     16  C   UNL     1      -6.216  -4.927   8.286  1.00  0.00     0.093 A 
ATOM     17  C   UNL     1      -5.963  -4.825   6.910  1.00  0.00     0.130 A 
BRANCH  15  18
ATOM     18  O   UNL     1      -7.611  -5.643  10.118  1.00  0.00    -0.508 OA
ATOM     19  H   UNL     1      -6.949  -6.097  10.738  1.00  0.00     0.293 HD
ENDBRANCH  15  18
BRANCH  17  20
ATOM     20  O   UNL     1      -4.795  -4.206   6.463  1.00  0.00    -0.507 OA
ATOM     21  H   UNL     1      -4.808  -3.278   6.055  1.00  0.00     0.293 HD
ENDBRANCH  17  20
ENDBRANCH   1  12
BRANCH   2  22
ATOM     22  O   UNL     1      -8.409  -3.582   4.294  1.00  0.00    -0.502 OA
ATOM     23  H   UNL     1      -8.988  -3.930   5.049  1.00  0.00     0.293 HD
ENDBRANCH   2  22
BRANCH   6  24
ATOM     24  O   UNL     1      -6.101  -4.053  -0.484  1.00  0.00    -0.507 OA
ATOM     25  H   UNL     1      -7.055  -3.732  -0.541  1.00  0.00     0.293 HD
ENDBRANCH   6  24
BRANCH   8  26
ATOM     26  O   UNL     1      -3.104  -7.687   0.358  1.00  0.00    -0.508 OA
ATOM     27  H   UNL     1      -2.549  -7.465  -0.459  1.00  0.00     0.293 HD
ENDBRANCH   8  26
TORSDOF 6
ENDMDL
MODEL 4
REMARK VINA RESULT:    -3.818      3.629      4.995
REMARK INTER + INTRA:          -4.918
REMARK INTER:                  -4.638
REMARK INTRA:                  -0.280
REMARK UNBOUND:                -0.319
REMARK SMILES O=c1c(O)c(-c2ccc(O)cc2O)oc2cc(O)cc(O)c12
REMARK SMILES IDX 5 1 3 2 2 3 1 4 22 5 20 6 19 7 17 8 16 9 15 10 14 11 6 12
REMARK SMILES IDX 8 13 7 14 9 15 11 16 12 17 10 18 13 20 4 22 21 24 18 26
REMARK H PARENT 10 19 13 21 4 23 21 25 18 27
REMARK Flexibility Score: inf
ROOT
ATOM      1  C   UNL     1      -3.124  -5.922   8.161  1.00  0.00     0.184 A 
ATOM      2  C   UNL     1      -2.124  -5.789   9.139  1.00  0.00     0.208 A 
ATOM      3  C   UNL     1      -0.780  -5.955   8.766  1.00  0.00     0.238 A 
ATOM      4  O   UNL     1       0.114  -5.779   9.634  1.00  0.00    -0.285 OA
ATOM      5  C   UNL     1      -0.455  -6.272   7.425  1.00  0.00     0.111 A 
ATOM      6  C   UNL     1       0.869  -6.501   6.943  1.00  0.00     0.134 A 
ATOM      7  C   UNL     1       1.084  -6.681   5.571  1.00  0.00     0.093 A 
ATOM      8  C   UNL     1       0.017  -6.705   4.673  1.00  0.00     0.123 A 
ATOM      9  C   UNL     1      -1.286  -6.541   5.140  1.00  0.00     0.094 A 
ATOM     10  C   UNL     1      -1.530  -6.322   6.498  1.00  0.00     0.146 A 
ATOM     11  O   UNL     1      -2.785  -6.159   6.900  1.00  0.00    -0.451 OA
ENDROOT
BRANCH   1  12
ATOM     12  C   UNL     1      -4.562  -5.784   8.491  1.00  0.00     0.063 A 
ATOM     13  C   UNL     1      -6.491  -6.428   9.828  1.00  0.00     0.047 A 
ATOM     14  C   UNL     1      -5.129  -6.536   9.535  1.00  0.00     0.020 A 
ATOM     15  C   UNL     1      -7.306  -5.573   9.077  1.00  0.00     0.119 A 
ATOM     16  C   UNL     1      -6.754  -4.832   8.029  1.00  0.00     0.093 A 
ATOM     17  C   UNL     1      -5.388  -4.933   7.728  1.00  0.00     0.130 A 
BRANCH  15  18
ATOM     18  O   UNL     1      -8.665  -5.457   9.361  1.00  0.00    -0.508 OA
ATOM     19  H   UNL     1      -9.127  -4.555   9.381  1.00  0.00     0.293 HD
ENDBRANCH  15  18
BRANCH  17  20
ATOM     20  O   UNL     1      -4.850  -4.182   6.684  1.00  0.00    -0.507 OA
ATOM     21  H   UNL     1      -4.837  -3.168   6.709  1.00  0.00     0.293 HD
ENDBRANCH  17  20
ENDBRANCH   1  12
BRANCH   2  22
ATOM     22  O   UNL     1      -2.467  -5.463  10.454  1.00  0.00    -0.502 OA
ATOM     23  H   UNL     1      -2.903  -6.127  11.083  1.00  0.00     0.293 HD
ENDBRANCH   2  22
BRANCH   6  24
ATOM     24  O   UNL     1       1.994  -6.589   7.768  1.00  0.00    -0.507 OA
ATOM     25  H   UNL     1       2.391  -5.819   8.284  1.00  0.00     0.293 HD
ENDBRANCH   6  24
BRANCH   8  26
ATOM     26  O   UNL     1       0.267  -6.902   3.317  1.00  0.00    -0.508 OA
ATOM     27  H   UNL     1       0.907  -7.618   2.994  1.00  0.00     0.293 HD
ENDBRANCH   8  26
TORSDOF 6
ENDMDL
MODEL 5
REMARK VINA RESULT:    -3.809      1.911      6.610
REMARK INTER + INTRA:          -4.908
REMARK INTER:                  -4.431
REMARK INTRA:                  -0.477
REMARK UNBOUND:                -0.319
REMARK SMILES O=c1c(O)c(-c2ccc(O)cc2O)oc2cc(O)cc(O)c12
REMARK SMILES IDX 5 1 3 2 2 3 1 4 22 5 20 6 19 7 17 8 16 9 15 10 14 11 6 12
REMARK SMILES IDX 8 13 7 14 9 15 11 16 12 17 10 18 13 20 4 22 21 24 18 26
REMARK H PARENT 10 19 13 21 4 23 21 25 18 27
REMARK Flexibility Score: inf
ROOT
ATOM      1  C   UNL     1      -3.667  -6.080   2.365  1.00  0.00     0.184 A 
ATOM      2  C   UNL     1      -2.785  -6.118   3.457  1.00  0.00     0.208 A 
ATOM      3  C   UNL     1      -3.258  -5.755   4.728  1.00  0.00     0.238 A 
ATOM      4  O   UNL     1      -2.478  -5.845   5.712  1.00  0.00    -0.285 OA
ATOM      5  C   UNL     1      -4.602  -5.340   4.887  1.00  0.00     0.111 A 
ATOM      6  C   UNL     1      -5.179  -4.912   6.121  1.00  0.00     0.134 A 
ATOM      7  C   UNL     1      -6.553  -4.647   6.186  1.00  0.00     0.093 A 
ATOM      8  C   UNL     1      -7.357  -4.729   5.050  1.00  0.00     0.123 A 
ATOM      9  C   UNL     1      -6.792  -5.089   3.827  1.00  0.00     0.094 A 
ATOM     10  C   UNL     1      -5.432  -5.396   3.736  1.00  0.00     0.146 A 
ATOM     11  O   UNL     1      -4.937  -5.745   2.555  1.00  0.00    -0.451 OA
ENDROOT
BRANCH   1  12
ATOM     12  C   UNL     1      -3.227  -6.426   0.993  1.00  0.00     0.063 A 
ATOM     13  C   UNL     1      -2.161  -5.796  -1.103  1.00  0.00     0.047 A 
ATOM     14  C   UNL     1      -2.552  -5.480   0.201  1.00  0.00     0.020 A 
ATOM     15  C   UNL     1      -2.448  -7.058  -1.637  1.00  0.00     0.119 A 
ATOM     16  C   UNL     1      -3.131  -7.999  -0.863  1.00  0.00     0.093 A 
ATOM     17  C   UNL     1      -3.525  -7.692   0.448  1.00  0.00     0.130 A 
BRANCH  15  18
ATOM     18  O   UNL     1      -2.064  -7.383  -2.936  1.00  0.00    -0.508 OA
ATOM     19  H   UNL     1      -1.266  -7.982  -3.117  1.00  0.00     0.293 HD
ENDBRANCH  15  18
BRANCH  17  20
ATOM     20  O   UNL     1      -4.200  -8.644   1.211  1.00  0.00    -0.507 OA
ATOM     21  H   UNL     1      -4.575  -8.424   2.127  1.00  0.00     0.293 HD
ENDBRANCH  17  20
ENDBRANCH   1  12
BRANCH   2  22
ATOM     22  O   UNL     1      -1.465  -6.542   3.279  1.00  0.00    -0.502 OA
ATOM     23  H   UNL     1      -0.822  -6.662   4.052  1.00  0.00     0.293 HD
ENDBRANCH   2  22
BRANCH   6  24
ATOM     24  O   UNL     1      -4.447  -4.708   7.294  1.00  0.00    -0.507 OA
ATOM     25  H   UNL     1      -4.195  -3.805   7.665  1.00  0.00     0.293 HD
ENDBRANCH   6  24
BRANCH   8  26
ATOM     26  O   UNL     1      -8.716  -4.443   5.149  1.00  0.00    -0.508 OA
ATOM     27  H   UNL     1      -9.331  -4.988   5.743  1.00  0.00     0.293 HD
ENDBRANCH   8  26
TORSDOF 6
ENDMDL
MODEL 6
REMARK VINA RESULT:    -3.806      2.606      7.119
REMARK INTER + INTRA:          -4.904
REMARK INTER:                  -4.588
REMARK INTRA:                  -0.316
REMARK UNBOUND:                -0.319
REMARK SMILES O=c1c(O)c(-c2ccc(O)cc2O)oc2cc(O)cc(O)c12
REMARK SMILES IDX 5 1 3 2 2 3 1 4 22 5 20 6 19 7 17 8 16 9 15 10 14 11 6 12
REMARK SMILES IDX 8 13 7 14 9 15 11 16 12 17 10 18 13 20 4 22 21 24 18 26
REMARK H PARENT 10 19 13 21 4 23 21 25 18 27
REMARK Flexibility Score: inf
ROOT
ATOM      1  C   UNL     1      -6.449  -5.050   6.075  1.00  0.00     0.184 A 
ATOM      2  C   UNL     1      -5.180  -5.018   6.677  1.00  0.00     0.208 A 
ATOM      3  C   UNL     1      -5.072  -5.273   8.053  1.00  0.00     0.238 A 
ATOM      4  O   UNL     1      -3.927  -5.299   8.575  1.00  0.00    -0.285 OA
ATOM      5  C   UNL     1      -6.236  -5.535   8.815  1.00  0.00     0.111 A 
ATOM      6  C   UNL     1      -6.250  -5.768  10.223  1.00  0.00     0.134 A 
ATOM      7  C   UNL     1      -7.444  -6.145  10.850  1.00  0.00     0.093 A 
ATOM      8  C   UNL     1      -8.636  -6.233  10.133  1.00  0.00     0.123 A 
ATOM      9  C   UNL     1      -8.646  -5.951   8.767  1.00  0.00     0.094 A 
ATOM     10  C   UNL     1      -7.464  -5.609   8.106  1.00  0.00     0.146 A 
ATOM     11  O   UNL     1      -7.516  -5.359   6.803  1.00  0.00    -0.451 OA
ENDROOT
BRANCH   1  12
ATOM     12  C   UNL     1      -6.638  -4.767   4.633  1.00  0.00     0.063 A 
ATOM     13  C   UNL     1      -7.510  -3.347   2.858  1.00  0.00     0.047 A 
ATOM     14  C   UNL     1      -7.307  -3.602   4.217  1.00  0.00     0.020 A 
ATOM     15  C   UNL     1      -7.056  -4.257   1.897  1.00  0.00     0.119 A 
ATOM     16  C   UNL     1      -6.401  -5.424   2.301  1.00  0.00     0.093 A 
ATOM     17  C   UNL     1      -6.192  -5.687   3.663  1.00  0.00     0.130 A 
BRANCH  15  18
ATOM     18  O   UNL     1      -7.253  -4.014   0.540  1.00  0.00    -0.508 OA
ATOM     19  H   UNL     1      -7.484  -4.762  -0.104  1.00  0.00     0.293 HD
ENDBRANCH  15  18
BRANCH  17  20
ATOM     20  O   UNL     1      -5.531  -6.852   4.051  1.00  0.00    -0.507 OA
ATOM     21  H   UNL     1      -4.818  -7.278   3.469  1.00  0.00     0.293 HD
ENDBRANCH  17  20
ENDBRANCH   1  12
BRANCH   2  22
ATOM     22  O   UNL     1      -4.043  -4.769   5.903  1.00  0.00    -0.502 OA
ATOM     23  H   UNL     1      -3.931  -3.923   5.356  1.00  0.00     0.293 HD
ENDBRANCH   2  22
BRANCH   6  24
ATOM     24  O   UNL     1      -5.132  -5.616  11.049  1.00  0.00    -0.507 OA
ATOM     25  H   UNL     1      -5.039  -6.015  11.970  1.00  0.00     0.293 HD
ENDBRANCH   6  24
BRANCH   8  26
ATOM     26  O   UNL     1      -9.809  -6.596  10.793  1.00  0.00    -0.508 OA
ATOM     27  H   UNL     1      -9.857  -7.429  11.368  1.00  0.00     0.293 HD
ENDBRANCH   8  26
TORSDOF 6
ENDMDL
MODEL 7
REMARK VINA RESULT:    -3.791      2.062      7.129
REMARK INTER + INTRA:          -4.885
REMARK INTER:                  -4.479
REMARK INTRA:                  -0.407
REMARK UNBOUND:                -0.319
REMARK SMILES O=c1c(O)c(-c2ccc(O)cc2O)oc2cc(O)cc(O)c12
REMARK SMILES IDX 5 1 3 2 2 3 1 4 22 5 20 6 19 7 17 8 16 9 15 10 14 11 6 12
REMARK SMILES IDX 8 13 7 14 9 15 11 16 12 17 10 18 13 20 4 22 21 24 18 26
REMARK H PARENT 10 19 13 21 4 23 21 25 18 27
REMARK Flexibility Score: inf
ROOT
ATOM      1  C   UNL     1      -4.153  -5.777   2.007  1.00  0.00     0.184 A 
ATOM      2  C   UNL     1      -5.394  -5.259   1.604  1.00  0.00     0.208 A 
ATOM      3  C   UNL     1      -6.286  -4.790   2.582  1.00  0.00     0.238 A 
ATOM      4  O   UNL     1      -7.373  -4.276   2.211  1.00  0.00    -0.285 OA
ATOM      5  C   UNL     1      -5.934  -4.865   3.951  1.00  0.00     0.111 A 
ATOM      6  C   UNL     1      -6.776  -4.457   5.029  1.00  0.00     0.134 A 
ATOM      7  C   UNL     1      -6.274  -4.457   6.336  1.00  0.00     0.093 A 
ATOM      8  C   UNL     1      -4.984  -4.911   6.612  1.00  0.00     0.123 A 
ATOM      9  C   UNL     1      -4.174  -5.368   5.573  1.00  0.00     0.094 A 
ATOM     10  C   UNL     1      -4.633  -5.346   4.254  1.00  0.00     0.146 A 
ATOM     11  O   UNL     1      -3.825  -5.778   3.293  1.00  0.00    -0.451 OA
ENDROOT
BRANCH   1  12
ATOM     12  C   UNL     1      -3.175  -6.310   1.030  1.00  0.00     0.063 A 
ATOM     13  C   UNL     1      -1.623  -5.953  -0.812  1.00  0.00     0.047 A 
ATOM     14  C   UNL     1      -2.524  -5.448   0.129  1.00  0.00     0.020 A 
ATOM     15  C   UNL     1      -1.366  -7.328  -0.871  1.00  0.00     0.119 A 
ATOM     16  C   UNL     1      -2.017  -8.194   0.011  1.00  0.00     0.093 A 
ATOM     17  C   UNL     1      -2.922  -7.695   0.959  1.00  0.00     0.130 A 
BRANCH  15  18
ATOM     18  O   UNL     1      -0.470  -7.842  -1.805  1.00  0.00    -0.508 OA
ATOM     19  H   UNL     1       0.219  -8.541  -1.549  1.00  0.00     0.293 HD
ENDBRANCH  15  18
BRANCH  17  20
ATOM     20  O   UNL     1      -3.559  -8.571   1.838  1.00  0.00    -0.507 OA
ATOM     21  H   UNL     1      -4.564  -8.553   1.972  1.00  0.00     0.293 HD
ENDBRANCH  17  20
ENDBRANCH   1  12
BRANCH   2  22
ATOM     22  O   UNL     1      -5.716  -5.183   0.246  1.00  0.00    -0.502 OA
ATOM     23  H   UNL     1      -6.465  -4.598  -0.105  1.00  0.00     0.293 HD
ENDBRANCH   2  22
BRANCH   6  24
ATOM     24  O   UNL     1      -8.111  -4.073   4.874  1.00  0.00    -0.507 OA
ATOM     25  H   UNL     1      -8.696  -4.328   4.093  1.00  0.00     0.293 HD
ENDBRANCH   6  24
BRANCH   8  26
ATOM     26  O   UNL     1      -4.523  -4.911   7.926  1.00  0.00    -0.508 OA
ATOM     27  H   UNL     1      -3.602  -5.261   8.165  1.00  0.00     0.293 HD
ENDBRANCH   8  26
TORSDOF 6
ENDMDL
MODEL 8
REMARK VINA RESULT:    -3.743      1.911      2.287
REMARK INTER + INTRA:          -4.829
REMARK INTER:                  -4.349
REMARK INTRA:                  -0.480
REMARK UNBOUND:                -0.319
REMARK SMILES O=c1c(O)c(-c2ccc(O)cc2O)oc2cc(O)cc(O)c12
REMARK SMILES IDX 5 1 3 2 2 3 1 4 22 5 20 6 19 7 17 8 16 9 15 10 14 11 6 12
REMARK SMILES IDX 8 13 7 14 9 15 11 16 12 17 10 18 13 20 4 22 21 24 18 26
REMARK H PARENT 10 19 13 21 4 23 21 25 18 27
REMARK Flexibility Score: inf
ROOT
ATOM      1  C   UNL     1      -5.259  -6.020   6.427  1.00  0.00     0.184 A 
ATOM      2  C   UNL     1      -3.896  -5.756   6.218  1.00  0.00     0.208 A 
ATOM      3  C   UNL     1      -3.435  -5.554   4.907  1.00  0.00     0.238 A 
ATOM      4  O   UNL     1      -2.224  -5.262   4.730  1.00  0.00    -0.285 OA
ATOM      5  C   UNL     1      -4.340  -5.638   3.821  1.00  0.00     0.111 A 
ATOM      6  C   UNL     1      -3.977  -5.490   2.448  1.00  0.00     0.134 A 
ATOM      7  C   UNL     1      -4.976  -5.464   1.468  1.00  0.00     0.093 A 
ATOM      8  C   UNL     1      -6.317  -5.648   1.803  1.00  0.00     0.123 A 
ATOM      9  C   UNL     1      -6.678  -5.852   3.134  1.00  0.00     0.094 A 
ATOM     10  C   UNL     1      -5.708  -5.845   4.140  1.00  0.00     0.146 A 
ATOM     11  O   UNL     1      -6.094  -6.033   5.396  1.00  0.00    -0.451 OA
ENDROOT
BRANCH   1  12
ATOM     12  C   UNL     1      -5.808  -6.268   7.782  1.00  0.00     0.063 A 
ATOM     13  C   UNL     1      -6.109  -7.736   9.700  1.00  0.00     0.047 A 
ATOM     14  C   UNL     1      -5.569  -7.490   8.435  1.00  0.00     0.020 A 
ATOM     15  C   UNL     1      -6.902  -6.767  10.326  1.00  0.00     0.119 A 
ATOM     16  C   UNL     1      -7.156  -5.555   9.679  1.00  0.00     0.093 A 
ATOM     17  C   UNL     1      -6.617  -5.299   8.410  1.00  0.00     0.130 A 
BRANCH  15  18
ATOM     18  O   UNL     1      -7.446  -7.001  11.587  1.00  0.00    -0.508 OA
ATOM     19  H   UNL     1      -8.431  -6.853  11.775  1.00  0.00     0.293 HD
ENDBRANCH  15  18
BRANCH  17  20
ATOM     20  O   UNL     1      -6.873  -4.082   7.779  1.00  0.00    -0.507 OA
ATOM     21  H   UNL     1      -7.358  -3.329   8.254  1.00  0.00     0.293 HD
ENDBRANCH  17  20
ENDBRANCH   1  12
BRANCH   2  22
ATOM     22  O   UNL     1      -3.023  -5.666   7.305  1.00  0.00    -0.502 OA
ATOM     23  H   UNL     1      -3.349  -5.538   8.256  1.00  0.00     0.293 HD
ENDBRANCH   2  22
BRANCH   6  24
ATOM     24  O   UNL     1      -2.657  -5.392   1.997  1.00  0.00    -0.507 OA
ATOM     25  H   UNL     1      -1.844  -5.390   2.594  1.00  0.00     0.293 HD
ENDBRANCH   6  24
BRANCH   8  26
ATOM     26  O   UNL     1      -7.283  -5.632   0.799  1.00  0.00    -0.508 OA
ATOM     27  H   UNL     1      -7.088  -5.248  -0.118  1.00  0.00     0.293 HD
ENDBRANCH   8  26
TORSDOF 6
ENDMDL
MODEL 9
REMARK VINA RESULT:    -3.740      3.189      8.002
REMARK INTER + INTRA:          -4.825
REMARK INTER:                  -4.453
REMARK INTRA:                  -0.372
REMARK UNBOUND:                -0.319
REMARK SMILES O=c1c(O)c(-c2ccc(O)cc2O)oc2cc(O)cc(O)c12
REMARK SMILES IDX 5 1 3 2 2 3 1 4 22 5 20 6 19 7 17 8 16 9 15 10 14 11 6 12
REMARK SMILES IDX 8 13 7 14 9 15 11 16 12 17 10 18 13 20 4 22 21 24 18 26
REMARK H PARENT 10 19 13 21 4 23 21 25 18 27
REMARK Flexibility Score: inf
ROOT
ATOM      1  C   UNL     1      -3.929  -6.015   8.379  1.00  0.00     0.184 A 
ATOM      2  C   UNL     1      -3.112  -5.711   9.480  1.00  0.00     0.208 A 
ATOM      3  C   UNL     1      -3.696  -5.595  10.751  1.00  0.00     0.238 A 
ATOM      4  O   UNL     1      -2.951  -5.379  11.742  1.00  0.00    -0.285 OA
ATOM      5  C   UNL     1      -5.094  -5.764  10.902  1.00  0.00     0.111 A 
ATOM      6  C   UNL     1      -5.799  -5.630  12.136  1.00  0.00     0.134 A 
ATOM      7  C   UNL     1      -7.162  -5.946  12.190  1.00  0.00     0.093 A 
ATOM      8  C   UNL     1      -7.859  -6.327  11.044  1.00  0.00     0.123 A 
ATOM      9  C   UNL     1      -7.193  -6.404   9.821  1.00  0.00     0.094 A 
ATOM     10  C   UNL     1      -5.825  -6.132   9.741  1.00  0.00     0.146 A 
ATOM     11  O   UNL     1      -5.227  -6.228   8.560  1.00  0.00    -0.451 OA
ENDROOT
BRANCH   1  12
ATOM     12  C   UNL     1      -3.382  -6.128   7.007  1.00  0.00     0.063 A 
ATOM     13  C   UNL     1      -1.905  -7.217   5.407  1.00  0.00     0.047 A 
ATOM     14  C   UNL     1      -2.443  -7.127   6.694  1.00  0.00     0.020 A 
ATOM     15  C   UNL     1      -2.289  -6.304   4.419  1.00  0.00     0.119 A 
ATOM     16  C   UNL     1      -3.211  -5.299   4.724  1.00  0.00     0.093 A 
ATOM     17  C   UNL     1      -3.758  -5.202   6.012  1.00  0.00     0.130 A 
BRANCH  15  18
ATOM     18  O   UNL     1      -1.759  -6.384   3.133  1.00  0.00    -0.508 OA
ATOM     19  H   UNL     1      -1.341  -5.578   2.682  1.00  0.00     0.293 HD
ENDBRANCH  15  18
BRANCH  17  20
ATOM     20  O   UNL     1      -4.682  -4.198   6.300  1.00  0.00    -0.507 OA
ATOM     21  H   UNL     1      -4.395  -3.305   6.684  1.00  0.00     0.293 HD
ENDBRANCH  17  20
ENDBRANCH   1  12
BRANCH   2  22
ATOM     22  O   UNL     1      -1.733  -5.561   9.309  1.00  0.00    -0.502 OA
ATOM     23  H   UNL     1      -1.282  -5.650   8.406  1.00  0.00     0.293 HD
ENDBRANCH   2  22
BRANCH   6  24
ATOM     24  O   UNL     1      -5.218  -5.168  13.320  1.00  0.00    -0.507 OA
ATOM     25  H   UNL     1      -4.638  -5.722  13.931  1.00  0.00     0.293 HD
ENDBRANCH   6  24
BRANCH   8  26
ATOM     26  O   UNL     1      -9.219  -6.619  11.132  1.00  0.00    -0.508 OA
ATOM     27  H   UNL     1      -9.609  -7.083  11.944  1.00  0.00     0.293 HD
ENDBRANCH   8  26
TORSDOF 6
ENDMDL
