MODEL 1
REMARK VINA RESULT:    -6.644      0.000      0.000
REMARK INTER + INTRA:          -7.593
REMARK INTER:                  -8.003
REMARK INTRA:                   0.410
REMARK UNBOUND:                 0.410
REMARK SMILES O=c1c(O)c(-c2ccc(O)c(O)c2)oc2cc(O)cc(O)c12
REMARK SMILES IDX 5 1 3 2 2 3 1 4 22 5 20 6 19 7 17 8 16 9 15 10 14 11 6 12
REMARK SMILES IDX 7 13 8 14 9 15 13 16 11 17 10 18 12 20 4 22 21 24 18 26
REMARK H PARENT 10 19 12 21 4 23 21 25 18 27
REMARK Flexibility Score: inf
ROOT
ATOM      1  C   UNL     1      50.717 113.378  48.140  1.00  0.00     0.180 A 
ATOM      2  C   UNL     1      51.561 113.053  49.215  1.00  0.00     0.208 A 
ATOM      3  C   UNL     1      52.943 112.948  48.987  1.00  0.00     0.238 A 
ATOM      4  O   UNL     1      53.701 112.710  49.964  1.00  0.00    -0.285 OA
ATOM      5  C   UNL     1      53.460 113.155  47.685  1.00  0.00     0.111 A 
ATOM      6  C   UNL     1      54.838 113.034  47.332  1.00  0.00     0.134 A 
ATOM      7  C   UNL     1      55.253 113.388  46.043  1.00  0.00     0.093 A 
ATOM      8  C   UNL     1      54.335 113.795  45.076  1.00  0.00     0.123 A 
ATOM      9  C   UNL     1      52.977 113.858  45.393  1.00  0.00     0.094 A 
ATOM     10  C   UNL     1      52.536 113.547  46.682  1.00  0.00     0.146 A 
ATOM     11  O   UNL     1      51.238 113.631  46.945  1.00  0.00    -0.452 OA
ENDROOT
BRANCH   1  12
ATOM     12  C   UNL     1      49.248 113.483  48.297  1.00  0.00     0.025 A 
ATOM     13  C   UNL     1      48.479 114.036  47.260  1.00  0.00     0.016 A 
ATOM     14  C   UNL     1      47.090 114.125  47.379  1.00  0.00     0.051 A 
ATOM     15  C   UNL     1      46.447 113.647  48.528  1.00  0.00     0.157 A 
ATOM     16  C   UNL     1      48.596 112.985  49.441  1.00  0.00     0.062 A 
ATOM     17  C   UNL     1      47.201 113.071  49.559  1.00  0.00     0.158 A 
BRANCH  15  18
ATOM     18  O   UNL     1      45.062 113.734  48.652  1.00  0.00    -0.504 OA
ATOM     19  H   UNL     1      44.610 114.590  48.956  1.00  0.00     0.293 HD
ENDBRANCH  15  18
BRANCH  17  20
ATOM     20  O   UNL     1      46.558 112.584  50.695  1.00  0.00    -0.504 OA
ATOM     21  H   UNL     1      47.035 112.519  51.587  1.00  0.00     0.293 HD
ENDBRANCH  17  20
ENDBRANCH   1  12
BRANCH   2  22
ATOM     22  O   UNL     1      51.033 112.875  50.496  1.00  0.00    -0.502 OA
ATOM     23  H   UNL     1      50.695 111.980  50.826  1.00  0.00     0.293 HD
ENDBRANCH   2  22
BRANCH   6  24
ATOM     24  O   UNL     1      55.825 112.550  48.194  1.00  0.00    -0.507 OA
ATOM     25  H   UNL     1      56.808 112.503  47.973  1.00  0.00     0.293 HD
ENDBRANCH   6  24
BRANCH   8  26
ATOM     26  O   UNL     1      54.782 114.124  43.798  1.00  0.00    -0.508 OA
ATOM     27  H   UNL     1      55.752 114.354  43.619  1.00  0.00     0.293 HD
ENDBRANCH   8  26
TORSDOF 6
ENDMDL
MODEL 2
REMARK VINA RESULT:    -6.437      7.053      9.165
REMARK INTER + INTRA:          -7.343
REMARK INTER:                  -7.280
REMARK INTRA:                  -0.063
REMARK UNBOUND:                 0.410
REMARK SMILES O=c1c(O)c(-c2ccc(O)c(O)c2)oc2cc(O)cc(O)c12
REMARK SMILES IDX 5 1 3 2 2 3 1 4 22 5 20 6 19 7 17 8 16 9 15 10 14 11 6 12
REMARK SMILES IDX 7 13 8 14 9 15 13 16 11 17 10 18 12 20 4 22 21 24 18 26
REMARK H PARENT 10 19 12 21 4 23 21 25 18 27
REMARK Flexibility Score: inf
ROOT
ATOM      1  C   UNL     1      48.992 108.311  54.284  1.00  0.00     0.180 A 
ATOM      2  C   UNL     1      48.717 108.515  55.646  1.00  0.00     0.208 A 
ATOM      3  C   UNL     1      49.160 109.697  56.261  1.00  0.00     0.238 A 
ATOM      4  O   UNL     1      48.864 109.898  57.468  1.00  0.00    -0.285 OA
ATOM      5  C   UNL     1      49.885 110.653  55.509  1.00  0.00     0.111 A 
ATOM      6  C   UNL     1      50.417 111.867  56.040  1.00  0.00     0.134 A 
ATOM      7  C   UNL     1      51.004 112.799  55.176  1.00  0.00     0.093 A 
ATOM      8  C   UNL     1      51.138 112.535  53.814  1.00  0.00     0.123 A 
ATOM      9  C   UNL     1      50.676 111.324  53.295  1.00  0.00     0.094 A 
ATOM     10  C   UNL     1      50.052 110.389  54.125  1.00  0.00     0.146 A 
ATOM     11  O   UNL     1      49.617 109.256  53.590  1.00  0.00    -0.452 OA
ENDROOT
BRANCH   1  12
ATOM     12  C   UNL     1      48.580 107.080  53.572  1.00  0.00     0.025 A 
ATOM     13  C   UNL     1      47.219 106.736  53.518  1.00  0.00     0.016 A 
ATOM     14  C   UNL     1      46.806 105.589  52.834  1.00  0.00     0.051 A 
ATOM     15  C   UNL     1      47.744 104.780  52.181  1.00  0.00     0.157 A 
ATOM     16  C   UNL     1      49.516 106.275  52.897  1.00  0.00     0.062 A 
ATOM     17  C   UNL     1      49.101 105.126  52.209  1.00  0.00     0.158 A 
BRANCH  15  18
ATOM     18  O   UNL     1      47.337 103.635  51.499  1.00  0.00    -0.504 OA
ATOM     19  H   UNL     1      47.423 103.559  50.492  1.00  0.00     0.293 HD
ENDBRANCH  15  18
BRANCH  17  20
ATOM     20  O   UNL     1      50.031 104.327  51.547  1.00  0.00    -0.504 OA
ATOM     21  H   UNL     1      50.758 104.728  50.966  1.00  0.00     0.293 HD
ENDBRANCH  17  20
ENDBRANCH   1  12
BRANCH   2  22
ATOM     22  O   UNL     1      47.981 107.569  56.364  1.00  0.00    -0.502 OA
ATOM     23  H   UNL     1      48.082 106.572  56.215  1.00  0.00     0.293 HD
ENDBRANCH   2  22
BRANCH   6  24
ATOM     24  O   UNL     1      50.417 112.190  57.400  1.00  0.00    -0.507 OA
ATOM     25  H   UNL     1      49.805 112.867  57.830  1.00  0.00     0.293 HD
ENDBRANCH   6  24
BRANCH   8  26
ATOM     26  O   UNL     1      51.742 113.478  52.986  1.00  0.00    -0.508 OA
ATOM     27  H   UNL     1      52.582 113.262  52.462  1.00  0.00     0.293 HD
ENDBRANCH   8  26
TORSDOF 6
ENDMDL
MODEL 3
REMARK VINA RESULT:    -6.242      7.789      8.943
REMARK INTER + INTRA:          -7.109
REMARK INTER:                  -7.150
REMARK INTRA:                   0.041
REMARK UNBOUND:                 0.410
REMARK SMILES O=c1c(O)c(-c2ccc(O)c(O)c2)oc2cc(O)cc(O)c12
REMARK SMILES IDX 5 1 3 2 2 3 1 4 22 5 20 6 19 7 17 8 16 9 15 10 14 11 6 12
REMARK SMILES IDX 7 13 8 14 9 15 13 16 11 17 10 18 12 20 4 22 21 24 18 26
REMARK H PARENT 10 19 12 21 4 23 21 25 18 27
REMARK Flexibility Score: inf
ROOT
ATOM      1  C   UNL     1      49.899 108.237  53.748  1.00  0.00     0.180 A 
ATOM      2  C   UNL     1      49.327 109.519  53.781  1.00  0.00     0.208 A 
ATOM      3  C   UNL     1      50.071 110.583  54.317  1.00  0.00     0.238 A 
ATOM      4  O   UNL     1      49.574 111.740  54.295  1.00  0.00    -0.285 OA
ATOM      5  C   UNL     1      51.371 110.347  54.826  1.00  0.00     0.111 A 
ATOM      6  C   UNL     1      52.197 111.343  55.428  1.00  0.00     0.134 A 
ATOM      7  C   UNL     1      53.515 111.025  55.778  1.00  0.00     0.093 A 
ATOM      8  C   UNL     1      54.016 109.735  55.609  1.00  0.00     0.123 A 
ATOM      9  C   UNL     1      53.195 108.739  55.077  1.00  0.00     0.094 A 
ATOM     10  C   UNL     1      51.888 109.033  54.684  1.00  0.00     0.146 A 
ATOM     11  O   UNL     1      51.145 108.060  54.172  1.00  0.00    -0.452 OA
ENDROOT
BRANCH   1  12
ATOM     12  C   UNL     1      49.168 107.062  53.221  1.00  0.00     0.025 A 
ATOM     13  C   UNL     1      49.837 106.144  52.394  1.00  0.00     0.016 A 
ATOM     14  C   UNL     1      49.171 105.018  51.904  1.00  0.00     0.051 A 
ATOM     15  C   UNL     1      47.834 104.783  52.245  1.00  0.00     0.157 A 
ATOM     16  C   UNL     1      47.830 106.811  53.578  1.00  0.00     0.062 A 
ATOM     17  C   UNL     1      47.163 105.679  53.088  1.00  0.00     0.158 A 
BRANCH  15  18
ATOM     18  O   UNL     1      47.166 103.662  51.757  1.00  0.00    -0.504 OA
ATOM     19  H   UNL     1      47.662 102.808  51.527  1.00  0.00     0.293 HD
ENDBRANCH  15  18
BRANCH  17  20
ATOM     20  O   UNL     1      45.836 105.436  53.437  1.00  0.00    -0.504 OA
ATOM     21  H   UNL     1      45.067 105.800  52.885  1.00  0.00     0.293 HD
ENDBRANCH  17  20
ENDBRANCH   1  12
BRANCH   2  22
ATOM     22  O   UNL     1      48.051 109.735  53.253  1.00  0.00    -0.502 OA
ATOM     23  H   UNL     1      47.775 110.616  52.836  1.00  0.00     0.293 HD
ENDBRANCH   2  22
BRANCH   6  24
ATOM     24  O   UNL     1      51.768 112.639  55.726  1.00  0.00    -0.507 OA
ATOM     25  H   UNL     1      51.895 113.439  55.125  1.00  0.00     0.293 HD
ENDBRANCH   6  24
BRANCH   8  26
ATOM     26  O   UNL     1      55.327 109.451  55.984  1.00  0.00    -0.508 OA
ATOM     27  H   UNL     1      55.764 109.911  56.775  1.00  0.00     0.293 HD
ENDBRANCH   8  26
TORSDOF 6
ENDMDL
MODEL 4
REMARK VINA RESULT:    -6.208      6.183      9.698
REMARK INTER + INTRA:          -7.068
REMARK INTER:                  -6.748
REMARK INTRA:                  -0.320
REMARK UNBOUND:                 0.410
REMARK SMILES O=c1c(O)c(-c2ccc(O)c(O)c2)oc2cc(O)cc(O)c12
REMARK SMILES IDX 5 1 3 2 2 3 1 4 22 5 20 6 19 7 17 8 16 9 15 10 14 11 6 12
REMARK SMILES IDX 7 13 8 14 9 15 13 16 11 17 10 18 12 20 4 22 21 24 18 26
REMARK H PARENT 10 19 12 21 4 23 21 25 18 27
REMARK Flexibility Score: inf
ROOT
ATOM      1  C   UNL     1      49.789 109.328  53.739  1.00  0.00     0.180 A 
ATOM      2  C   UNL     1      48.724 109.624  54.606  1.00  0.00     0.208 A 
ATOM      3  C   UNL     1      47.631 108.744  54.668  1.00  0.00     0.238 A 
ATOM      4  O   UNL     1      46.705 108.986  55.485  1.00  0.00    -0.285 OA
ATOM      5  C   UNL     1      47.611 107.588  53.850  1.00  0.00     0.111 A 
ATOM      6  C   UNL     1      46.537 106.649  53.802  1.00  0.00     0.134 A 
ATOM      7  C   UNL     1      46.682 105.474  53.055  1.00  0.00     0.093 A 
ATOM      8  C   UNL     1      47.831 105.234  52.304  1.00  0.00     0.123 A 
ATOM      9  C   UNL     1      48.863 106.174  52.296  1.00  0.00     0.094 A 
ATOM     10  C   UNL     1      48.764 107.339  53.060  1.00  0.00     0.146 A 
ATOM     11  O   UNL     1      49.771 108.202  53.034  1.00  0.00    -0.452 OA
ENDROOT
BRANCH   1  12
ATOM     12  C   UNL     1      50.963 110.220  53.601  1.00  0.00     0.025 A 
ATOM     13  C   UNL     1      52.155 109.902  54.272  1.00  0.00     0.016 A 
ATOM     14  C   UNL     1      53.281 110.719  54.139  1.00  0.00     0.051 A 
ATOM     15  C   UNL     1      53.238 111.854  53.321  1.00  0.00     0.157 A 
ATOM     16  C   UNL     1      50.930 111.350  52.764  1.00  0.00     0.062 A 
ATOM     17  C   UNL     1      52.061 112.168  52.628  1.00  0.00     0.158 A 
BRANCH  15  18
ATOM     18  O   UNL     1      54.358 112.672  53.186  1.00  0.00    -0.504 OA
ATOM     19  H   UNL     1      55.218 112.330  52.772  1.00  0.00     0.293 HD
ENDBRANCH  15  18
BRANCH  17  20
ATOM     20  O   UNL     1      52.025 113.291  51.804  1.00  0.00    -0.504 OA
ATOM     21  H   UNL     1      52.856 113.841  51.620  1.00  0.00     0.293 HD
ENDBRANCH  17  20
ENDBRANCH   1  12
BRANCH   2  22
ATOM     22  O   UNL     1      48.774 110.759  55.420  1.00  0.00    -0.502 OA
ATOM     23  H   UNL     1      48.365 111.644  55.146  1.00  0.00     0.293 HD
ENDBRANCH   2  22
BRANCH   6  24
ATOM     24  O   UNL     1      45.309 106.834  54.442  1.00  0.00    -0.507 OA
ATOM     25  H   UNL     1      44.917 107.732  54.684  1.00  0.00     0.293 HD
ENDBRANCH   6  24
BRANCH   8  26
ATOM     26  O   UNL     1      47.934 104.061  51.559  1.00  0.00    -0.508 OA
ATOM     27  H   UNL     1      48.833 103.636  51.360  1.00  0.00     0.293 HD
ENDBRANCH   8  26
TORSDOF 6
ENDMDL
MODEL 5
REMARK VINA RESULT:    -6.045      7.594      8.849
REMARK INTER + INTRA:          -6.872
REMARK INTER:                  -6.553
REMARK INTRA:                  -0.319
REMARK UNBOUND:                 0.410
REMARK SMILES O=c1c(O)c(-c2ccc(O)c(O)c2)oc2cc(O)cc(O)c12
REMARK SMILES IDX 5 1 3 2 2 3 1 4 22 5 20 6 19 7 17 8 16 9 15 10 14 11 6 12
REMARK SMILES IDX 7 13 8 14 9 15 13 16 11 17 10 18 12 20 4 22 21 24 18 26
REMARK H PARENT 10 19 12 21 4 23 21 25 18 27
REMARK Flexibility Score: inf
ROOT
ATOM      1  C   UNL     1      47.844 109.153  53.748  1.00  0.00     0.180 A 
ATOM      2  C   UNL     1      49.241 109.229  53.879  1.00  0.00     0.208 A 
ATOM      3  C   UNL     1      50.018 108.105  53.556  1.00  0.00     0.238 A 
ATOM      4  O   UNL     1      51.272 108.197  53.625  1.00  0.00    -0.285 OA
ATOM      5  C   UNL     1      49.387 106.915  53.120  1.00  0.00     0.111 A 
ATOM      6  C   UNL     1      50.074 105.704  52.805  1.00  0.00     0.134 A 
ATOM      7  C   UNL     1      49.361 104.629  52.258  1.00  0.00     0.093 A 
ATOM      8  C   UNL     1      47.981 104.697  52.077  1.00  0.00     0.123 A 
ATOM      9  C   UNL     1      47.291 105.856  52.439  1.00  0.00     0.094 A 
ATOM     10  C   UNL     1      47.979 106.958  52.952  1.00  0.00     0.146 A 
ATOM     11  O   UNL     1      47.287 108.044  53.273  1.00  0.00    -0.452 OA
ENDROOT
BRANCH   1  12
ATOM     12  C   UNL     1      46.957 110.287  54.093  1.00  0.00     0.025 A 
ATOM     13  C   UNL     1      46.548 110.465  55.424  1.00  0.00     0.016 A 
ATOM     14  C   UNL     1      45.728 111.541  55.775  1.00  0.00     0.051 A 
ATOM     15  C   UNL     1      45.320 112.464  54.804  1.00  0.00     0.157 A 
ATOM     16  C   UNL     1      46.562 111.228  53.124  1.00  0.00     0.062 A 
ATOM     17  C   UNL     1      45.742 112.310  53.476  1.00  0.00     0.158 A 
BRANCH  15  18
ATOM     18  O   UNL     1      44.502 113.537  55.148  1.00  0.00    -0.504 OA
ATOM     19  H   UNL     1      44.858 114.329  55.673  1.00  0.00     0.293 HD
ENDBRANCH  15  18
BRANCH  17  20
ATOM     20  O   UNL     1      45.346 113.237  52.515  1.00  0.00    -0.504 OA
ATOM     21  H   UNL     1      45.197 114.213  52.748  1.00  0.00     0.293 HD
ENDBRANCH  17  20
ENDBRANCH   1  12
BRANCH   2  22
ATOM     22  O   UNL     1      49.844 110.421  54.290  1.00  0.00    -0.502 OA
ATOM     23  H   UNL     1      49.755 110.780  55.233  1.00  0.00     0.293 HD
ENDBRANCH   2  22
BRANCH   6  24
ATOM     24  O   UNL     1      51.437 105.497  53.032  1.00  0.00    -0.507 OA
ATOM     25  H   UNL     1      52.160 105.624  52.340  1.00  0.00     0.293 HD
ENDBRANCH   6  24
BRANCH   8  26
ATOM     26  O   UNL     1      47.301 103.603  51.547  1.00  0.00    -0.508 OA
ATOM     27  H   UNL     1      47.668 102.662  51.628  1.00  0.00     0.293 HD
ENDBRANCH   8  26
TORSDOF 6
ENDMDL
MODEL 6
REMARK VINA RESULT:    -6.005      6.314      9.822
REMARK INTER + INTRA:          -6.824
REMARK INTER:                  -6.598
REMARK INTRA:                  -0.226
REMARK UNBOUND:                 0.410
REMARK SMILES O=c1c(O)c(-c2ccc(O)c(O)c2)oc2cc(O)cc(O)c12
REMARK SMILES IDX 5 1 3 2 2 3 1 4 22 5 20 6 19 7 17 8 16 9 15 10 14 11 6 12
REMARK SMILES IDX 7 13 8 14 9 15 13 16 11 17 10 18 12 20 4 22 21 24 18 26
REMARK H PARENT 10 19 12 21 4 23 21 25 18 27
REMARK Flexibility Score: inf
ROOT
ATOM      1  C   UNL     1      49.816 109.251  53.757  1.00  0.00     0.180 A 
ATOM      2  C   UNL     1      48.789 109.554  54.667  1.00  0.00     0.208 A 
ATOM      3  C   UNL     1      47.680 108.697  54.752  1.00  0.00     0.238 A 
ATOM      4  O   UNL     1      46.789 108.945  55.606  1.00  0.00    -0.285 OA
ATOM      5  C   UNL     1      47.605 107.558  53.915  1.00  0.00     0.111 A 
ATOM      6  C   UNL     1      46.508 106.644  53.888  1.00  0.00     0.134 A 
ATOM      7  C   UNL     1      46.599 105.481  53.114  1.00  0.00     0.093 A 
ATOM      8  C   UNL     1      47.715 105.230  52.318  1.00  0.00     0.123 A 
ATOM      9  C   UNL     1      48.767 106.147  52.290  1.00  0.00     0.094 A 
ATOM     10  C   UNL     1      48.722 107.299  53.079  1.00  0.00     0.146 A 
ATOM     11  O   UNL     1      49.747 108.140  53.033  1.00  0.00    -0.452 OA
ENDROOT
BRANCH   1  12
ATOM     12  C   UNL     1      51.004 110.119  53.593  1.00  0.00     0.025 A 
ATOM     13  C   UNL     1      50.863 111.379  52.990  1.00  0.00     0.016 A 
ATOM     14  C   UNL     1      51.967 112.223  52.845  1.00  0.00     0.051 A 
ATOM     15  C   UNL     1      53.225 111.827  53.316  1.00  0.00     0.157 A 
ATOM     16  C   UNL     1      52.266 109.734  54.084  1.00  0.00     0.062 A 
ATOM     17  C   UNL     1      53.374 110.581  53.940  1.00  0.00     0.158 A 
BRANCH  15  18
ATOM     18  O   UNL     1      54.330 112.663  53.172  1.00  0.00    -0.504 OA
ATOM     19  H   UNL     1      54.311 113.465  52.550  1.00  0.00     0.293 HD
ENDBRANCH  15  18
BRANCH  17  20
ATOM     20  O   UNL     1      54.624 110.195  54.420  1.00  0.00    -0.504 OA
ATOM     21  H   UNL     1      55.161 109.461  53.972  1.00  0.00     0.293 HD
ENDBRANCH  17  20
ENDBRANCH   1  12
BRANCH   2  22
ATOM     22  O   UNL     1      48.894 110.672  55.500  1.00  0.00    -0.502 OA
ATOM     23  H   UNL     1      49.745 111.217  55.575  1.00  0.00     0.293 HD
ENDBRANCH   2  22
BRANCH   6  24
ATOM     24  O   UNL     1      45.308 106.845  54.575  1.00  0.00    -0.507 OA
ATOM     25  H   UNL     1      44.463 107.211  54.161  1.00  0.00     0.293 HD
ENDBRANCH   6  24
BRANCH   8  26
ATOM     26  O   UNL     1      47.765 104.070  51.548  1.00  0.00    -0.508 OA
ATOM     27  H   UNL     1      47.333 103.208  51.860  1.00  0.00     0.293 HD
ENDBRANCH   8  26
TORSDOF 6
ENDMDL
MODEL 7
REMARK VINA RESULT:    -5.981      7.734      9.771
REMARK INTER + INTRA:          -6.795
REMARK INTER:                  -6.500
REMARK INTRA:                  -0.294
REMARK UNBOUND:                 0.410
REMARK SMILES O=c1c(O)c(-c2ccc(O)c(O)c2)oc2cc(O)cc(O)c12
REMARK SMILES IDX 5 1 3 2 2 3 1 4 22 5 20 6 19 7 17 8 16 9 15 10 14 11 6 12
REMARK SMILES IDX 7 13 8 14 9 15 13 16 11 17 10 18 12 20 4 22 21 24 18 26
REMARK H PARENT 10 19 12 21 4 23 21 25 18 27
REMARK Flexibility Score: inf
ROOT
ATOM      1  C   UNL     1      49.110 109.388  54.541  1.00  0.00     0.180 A 
ATOM      2  C   UNL     1      47.778 109.152  54.920  1.00  0.00     0.208 A 
ATOM      3  C   UNL     1      47.138 107.986  54.470  1.00  0.00     0.238 A 
ATOM      4  O   UNL     1      45.963 107.753  54.857  1.00  0.00    -0.285 OA
ATOM      5  C   UNL     1      47.834 107.079  53.634  1.00  0.00     0.111 A 
ATOM      6  C   UNL     1      47.270 105.887  53.087  1.00  0.00     0.134 A 
ATOM      7  C   UNL     1      48.090 104.999  52.380  1.00  0.00     0.093 A 
ATOM      8  C   UNL     1      49.432 105.288  52.144  1.00  0.00     0.123 A 
ATOM      9  C   UNL     1      49.978 106.481  52.623  1.00  0.00     0.094 A 
ATOM     10  C   UNL     1      49.196 107.370  53.363  1.00  0.00     0.146 A 
ATOM     11  O   UNL     1      49.757 108.487  53.810  1.00  0.00    -0.452 OA
ENDROOT
BRANCH   1  12
ATOM     12  C   UNL     1      49.843 110.607  54.955  1.00  0.00     0.025 A 
ATOM     13  C   UNL     1      49.915 111.702  54.079  1.00  0.00     0.016 A 
ATOM     14  C   UNL     1      50.584 112.869  54.459  1.00  0.00     0.051 A 
ATOM     15  C   UNL     1      51.174 112.964  55.725  1.00  0.00     0.157 A 
ATOM     16  C   UNL     1      50.420 110.714  56.234  1.00  0.00     0.062 A 
ATOM     17  C   UNL     1      51.089 111.887  56.617  1.00  0.00     0.158 A 
BRANCH  15  18
ATOM     18  O   UNL     1      51.843 114.125  56.107  1.00  0.00    -0.504 OA
ATOM     19  H   UNL     1      51.630 114.597  56.979  1.00  0.00     0.293 HD
ENDBRANCH  15  18
BRANCH  17  20
ATOM     20  O   UNL     1      51.665 111.989  57.880  1.00  0.00    -0.504 OA
ATOM     21  H   UNL     1      51.310 112.637  58.574  1.00  0.00     0.293 HD
ENDBRANCH  17  20
ENDBRANCH   1  12
BRANCH   2  22
ATOM     22  O   UNL     1      47.117 110.049  55.764  1.00  0.00    -0.502 OA
ATOM     23  H   UNL     1      47.302 111.045  55.752  1.00  0.00     0.293 HD
ENDBRANCH   2  22
BRANCH   6  24
ATOM     24  O   UNL     1      45.919 105.546  53.185  1.00  0.00    -0.507 OA
ATOM     25  H   UNL     1      45.191 106.168  53.503  1.00  0.00     0.293 HD
ENDBRANCH   6  24
BRANCH   8  26
ATOM     26  O   UNL     1      50.214 104.389  51.423  1.00  0.00    -0.508 OA
ATOM     27  H   UNL     1      50.928 104.707  50.777  1.00  0.00     0.293 HD
ENDBRANCH   8  26
TORSDOF 6
ENDMDL
MODEL 8
REMARK VINA RESULT:    -5.769      6.822      8.668
REMARK INTER + INTRA:          -6.539
REMARK INTER:                  -6.243
REMARK INTRA:                  -0.296
REMARK UNBOUND:                 0.410
REMARK SMILES O=c1c(O)c(-c2ccc(O)c(O)c2)oc2cc(O)cc(O)c12
REMARK SMILES IDX 5 1 3 2 2 3 1 4 22 5 20 6 19 7 17 8 16 9 15 10 14 11 6 12
REMARK SMILES IDX 7 13 8 14 9 15 13 16 11 17 10 18 12 20 4 22 21 24 18 26
REMARK H PARENT 10 19 12 21 4 23 21 25 18 27
REMARK Flexibility Score: inf
ROOT
ATOM      1  C   UNL     1      49.704 108.780  54.346  1.00  0.00     0.180 A 
ATOM      2  C   UNL     1      49.867 109.958  53.597  1.00  0.00     0.208 A 
ATOM      3  C   UNL     1      51.145 110.533  53.502  1.00  0.00     0.238 A 
ATOM      4  O   UNL     1      51.295 111.557  52.786  1.00  0.00    -0.285 OA
ATOM      5  C   UNL     1      52.239 109.932  54.171  1.00  0.00     0.111 A 
ATOM      6  C   UNL     1      53.568 110.452  54.177  1.00  0.00     0.134 A 
ATOM      7  C   UNL     1      54.598 109.705  54.763  1.00  0.00     0.093 A 
ATOM      8  C   UNL     1      54.337 108.492  55.398  1.00  0.00     0.123 A 
ATOM      9  C   UNL     1      53.030 108.004  55.451  1.00  0.00     0.094 A 
ATOM     10  C   UNL     1      51.987 108.708  54.844  1.00  0.00     0.146 A 
ATOM     11  O   UNL     1      50.761 108.204  54.907  1.00  0.00    -0.452 OA
ENDROOT
BRANCH   1  12
ATOM     12  C   UNL     1      48.384 108.129  54.511  1.00  0.00     0.025 A 
ATOM     13  C   UNL     1      47.472 108.643  55.447  1.00  0.00     0.016 A 
ATOM     14  C   UNL     1      46.213 108.056  55.605  1.00  0.00     0.051 A 
ATOM     15  C   UNL     1      45.842 106.959  54.818  1.00  0.00     0.157 A 
ATOM     16  C   UNL     1      47.999 107.040  53.708  1.00  0.00     0.062 A 
ATOM     17  C   UNL     1      46.735 106.452  53.864  1.00  0.00     0.158 A 
BRANCH  15  18
ATOM     18  O   UNL     1      44.589 106.370  54.972  1.00  0.00    -0.504 OA
ATOM     19  H   UNL     1      44.490 105.399  55.247  1.00  0.00     0.293 HD
ENDBRANCH  15  18
BRANCH  17  20
ATOM     20  O   UNL     1      46.358 105.370  53.073  1.00  0.00    -0.504 OA
ATOM     21  H   UNL     1      46.139 105.482  52.090  1.00  0.00     0.293 HD
ENDBRANCH  17  20
ENDBRANCH   1  12
BRANCH   2  22
ATOM     22  O   UNL     1      48.778 110.522  52.927  1.00  0.00    -0.502 OA
ATOM     23  H   UNL     1      47.903 110.028  52.797  1.00  0.00     0.293 HD
ENDBRANCH   2  22
BRANCH   6  24
ATOM     24  O   UNL     1      53.922 111.697  53.651  1.00  0.00    -0.507 OA
ATOM     25  H   UNL     1      53.374 112.538  53.746  1.00  0.00     0.293 HD
ENDBRANCH   6  24
BRANCH   8  26
ATOM     26  O   UNL     1      55.383 107.784  55.984  1.00  0.00    -0.508 OA
ATOM     27  H   UNL     1      56.050 107.264  55.426  1.00  0.00     0.293 HD
ENDBRANCH   8  26
TORSDOF 6
ENDMDL
MODEL 9
REMARK VINA RESULT:    -5.714      6.278      7.776
REMARK INTER + INTRA:          -6.473
REMARK INTER:                  -6.149
REMARK INTRA:                  -0.324
REMARK UNBOUND:                 0.410
REMARK SMILES O=c1c(O)c(-c2ccc(O)c(O)c2)oc2cc(O)cc(O)c12
REMARK SMILES IDX 5 1 3 2 2 3 1 4 22 5 20 6 19 7 17 8 16 9 15 10 14 11 6 12
REMARK SMILES IDX 7 13 8 14 9 15 13 16 11 17 10 18 12 20 4 22 21 24 18 26
REMARK H PARENT 10 19 12 21 4 23 21 25 18 27
REMARK Flexibility Score: inf
ROOT
ATOM      1  C   UNL     1      50.675 108.839  53.922  1.00  0.00     0.180 A 
ATOM      2  C   UNL     1      51.552 108.724  55.014  1.00  0.00     0.208 A 
ATOM      3  C   UNL     1      52.588 109.662  55.156  1.00  0.00     0.238 A 
ATOM      4  O   UNL     1      53.337 109.587  56.164  1.00  0.00    -0.285 OA
ATOM      5  C   UNL     1      52.741 110.692  54.196  1.00  0.00     0.111 A 
ATOM      6  C   UNL     1      53.780 111.672  54.220  1.00  0.00     0.134 A 
ATOM      7  C   UNL     1      53.758 112.721  53.293  1.00  0.00     0.093 A 
ATOM      8  C   UNL     1      52.777 112.792  52.306  1.00  0.00     0.123 A 
ATOM      9  C   UNL     1      51.792 111.805  52.237  1.00  0.00     0.094 A 
ATOM     10  C   UNL     1      51.765 110.765  53.169  1.00  0.00     0.146 A 
ATOM     11  O   UNL     1      50.805 109.854  53.076  1.00  0.00    -0.452 OA
ENDROOT
BRANCH   1  12
ATOM     12  C   UNL     1      49.575 107.874  53.692  1.00  0.00     0.025 A 
ATOM     13  C   UNL     1      48.319 108.105  54.277  1.00  0.00     0.016 A 
ATOM     14  C   UNL     1      47.262 107.219  54.056  1.00  0.00     0.051 A 
ATOM     15  C   UNL     1      47.439 106.100  53.233  1.00  0.00     0.157 A 
ATOM     16  C   UNL     1      49.742 106.760  52.850  1.00  0.00     0.062 A 
ATOM     17  C   UNL     1      48.680 105.871  52.625  1.00  0.00     0.158 A 
BRANCH  15  18
ATOM     18  O   UNL     1      46.388 105.212  53.010  1.00  0.00    -0.504 OA
ATOM     19  H   UNL     1      46.210 104.820  52.092  1.00  0.00     0.293 HD
ENDBRANCH  15  18
BRANCH  17  20
ATOM     20  O   UNL     1      48.850 104.764  51.796  1.00  0.00    -0.504 OA
ATOM     21  H   UNL     1      48.769 104.839  50.789  1.00  0.00     0.293 HD
ENDBRANCH  17  20
ENDBRANCH   1  12
BRANCH   2  22
ATOM     22  O   UNL     1      51.368 107.713  55.961  1.00  0.00    -0.502 OA
ATOM     23  H   UNL     1      51.732 106.777  55.835  1.00  0.00     0.293 HD
ENDBRANCH   2  22
BRANCH   6  24
ATOM     24  O   UNL     1      54.859 111.644  55.106  1.00  0.00    -0.507 OA
ATOM     25  H   UNL     1      54.956 110.996  55.873  1.00  0.00     0.293 HD
ENDBRANCH   6  24
BRANCH   8  26
ATOM     26  O   UNL     1      52.796 113.841  51.390  1.00  0.00    -0.508 OA
ATOM     27  H   UNL     1      52.873 113.674  50.394  1.00  0.00     0.293 HD
ENDBRANCH   8  26
TORSDOF 6
ENDMDL
