MODEL 1
REMARK VINA RESULT:    -4.882      0.000      0.000
REMARK INTER + INTRA:          -5.553
REMARK INTER:                  -5.453
REMARK INTRA:                  -0.100
REMARK UNBOUND:                -0.100
REMARK SMILES CCc1ccc(O)cc1O
REMARK SMILES IDX 3 1 9 2 8 3 6 4 5 5 4 6 2 7 1 8 10 9 7 11
REMARK H PARENT 10 10 7 12
REMARK Flexibility Score: inf
ROOT
ATOM      1  C   UNL     1      29.288  13.858 -15.026  1.00  0.00    -0.006 A 
ATOM      2  C   UNL     1      29.857  15.048 -15.523  1.00  0.00     0.122 A 
ATOM      3  C   UNL     1      29.833  15.311 -16.902  1.00  0.00     0.092 A 
ATOM      4  C   UNL     1      29.237  14.401 -17.785  1.00  0.00     0.119 A 
ATOM      5  C   UNL     1      28.661  13.229 -17.290  1.00  0.00     0.047 A 
ATOM      6  C   UNL     1      28.681  12.960 -15.918  1.00  0.00     0.011 A 
ENDROOT
BRANCH   1   7
ATOM      7  C   UNL     1      29.273  13.566 -13.546  1.00  0.00     0.036 C 
ATOM      8  C   UNL     1      27.844  13.536 -13.016  1.00  0.00     0.009 C 
ENDBRANCH   1   7
BRANCH   2   9
ATOM      9  O   UNL     1      30.440  15.966 -14.650  1.00  0.00    -0.508 OA
ATOM     10  H   UNL     1      29.926  16.356 -13.867  1.00  0.00     0.293 HD
ENDBRANCH   2   9
BRANCH   4  11
ATOM     11  O   UNL     1      29.209  14.655 -19.154  1.00  0.00    -0.508 OA
ATOM     12  H   UNL     1      29.307  15.596 -19.521  1.00  0.00     0.293 HD
ENDBRANCH   4  11
TORSDOF 3
ENDMDL
MODEL 2
REMARK VINA RESULT:    -4.650      1.564      2.187
REMARK INTER + INTRA:          -5.294
REMARK INTER:                  -5.192
REMARK INTRA:                  -0.102
REMARK UNBOUND:                -0.100
REMARK SMILES CCc1ccc(O)cc1O
REMARK SMILES IDX 3 1 9 2 8 3 6 4 5 5 4 6 2 7 1 8 10 9 7 11
REMARK H PARENT 10 10 7 12
REMARK Flexibility Score: inf
ROOT
ATOM      1  C   UNL     1      29.336  13.996 -15.227  1.00  0.00    -0.006 A 
ATOM      2  C   UNL     1      28.835  12.968 -16.051  1.00  0.00     0.122 A 
ATOM      3  C   UNL     1      28.781  13.151 -17.441  1.00  0.00     0.092 A 
ATOM      4  C   UNL     1      29.232  14.346 -18.016  1.00  0.00     0.119 A 
ATOM      5  C   UNL     1      29.742  15.360 -17.200  1.00  0.00     0.047 A 
ATOM      6  C   UNL     1      29.799  15.185 -15.814  1.00  0.00     0.011 A 
ENDROOT
BRANCH   1   7
ATOM      7  C   UNL     1      29.434  13.814 -13.733  1.00  0.00     0.036 C 
ATOM      8  C   UNL     1      28.333  14.592 -13.020  1.00  0.00     0.009 C 
ENDBRANCH   1   7
BRANCH   2   9
ATOM      9  O   UNL     1      28.396  11.769 -15.490  1.00  0.00    -0.508 OA
ATOM     10  H   UNL     1      27.529  11.332 -15.781  1.00  0.00     0.293 HD
ENDBRANCH   2   9
BRANCH   4  11
ATOM     11  O   UNL     1      29.182  14.536 -19.395  1.00  0.00    -0.508 OA
ATOM     12  H   UNL     1      29.408  15.430 -19.815  1.00  0.00     0.293 HD
ENDBRANCH   4  11
TORSDOF 3
ENDMDL
MODEL 3
REMARK VINA RESULT:    -4.534     19.712     20.921
REMARK INTER + INTRA:          -5.164
REMARK INTER:                  -5.062
REMARK INTRA:                  -0.102
REMARK UNBOUND:                -0.100
REMARK SMILES CCc1ccc(O)cc1O
REMARK SMILES IDX 3 1 9 2 8 3 6 4 5 5 4 6 2 7 1 8 10 9 7 11
REMARK H PARENT 10 10 7 12
REMARK Flexibility Score: inf
ROOT
ATOM      1  C   UNL     1      15.727  -0.624 -14.479  1.00  0.00    -0.006 A 
ATOM      2  C   UNL     1      14.424  -1.005 -14.098  1.00  0.00     0.122 A 
ATOM      3  C   UNL     1      13.944  -0.673 -12.822  1.00  0.00     0.092 A 
ATOM      4  C   UNL     1      14.748   0.046 -11.927  1.00  0.00     0.119 A 
ATOM      5  C   UNL     1      16.034   0.436 -12.311  1.00  0.00     0.047 A 
ATOM      6  C   UNL     1      16.519   0.108 -13.580  1.00  0.00     0.011 A 
ENDROOT
BRANCH   1   7
ATOM      7  C   UNL     1      16.256  -0.941 -15.855  1.00  0.00     0.036 C 
ATOM      8  C   UNL     1      17.258  -2.090 -15.796  1.00  0.00     0.009 C 
ENDBRANCH   1   7
BRANCH   2   9
ATOM      9  O   UNL     1      13.610  -1.709 -14.986  1.00  0.00    -0.508 OA
ATOM     10  H   UNL     1      13.241  -1.276 -15.825  1.00  0.00     0.293 HD
ENDBRANCH   2   9
BRANCH   4  11
ATOM     11  O   UNL     1      14.279   0.379 -10.660  1.00  0.00    -0.508 OA
ATOM     12  H   UNL     1      13.476   0.986 -10.535  1.00  0.00     0.293 HD
ENDBRANCH   4  11
TORSDOF 3
ENDMDL
MODEL 4
REMARK VINA RESULT:    -4.498      1.776      3.919
REMARK INTER + INTRA:          -5.124
REMARK INTER:                  -5.039
REMARK INTRA:                  -0.085
REMARK UNBOUND:                -0.100
REMARK SMILES CCc1ccc(O)cc1O
REMARK SMILES IDX 3 1 9 2 8 3 6 4 5 5 4 6 2 7 1 8 10 9 7 11
REMARK H PARENT 10 10 7 12
REMARK Flexibility Score: inf
ROOT
ATOM      1  C   UNL     1      30.325  12.979 -17.528  1.00  0.00    -0.006 A 
ATOM      2  C   UNL     1      29.785  14.257 -17.776  1.00  0.00     0.122 A 
ATOM      3  C   UNL     1      29.813  15.235 -16.770  1.00  0.00     0.092 A 
ATOM      4  C   UNL     1      30.385  14.952 -15.523  1.00  0.00     0.119 A 
ATOM      5  C   UNL     1      30.934  13.689 -15.282  1.00  0.00     0.047 A 
ATOM      6  C   UNL     1      30.910  12.710 -16.279  1.00  0.00     0.011 A 
ENDROOT
BRANCH   1   7
ATOM      7  C   UNL     1      30.336  11.919 -18.601  1.00  0.00     0.036 C 
ATOM      8  C   UNL     1      30.692  10.558 -18.013  1.00  0.00     0.009 C 
ENDBRANCH   1   7
BRANCH   2   9
ATOM      9  O   UNL     1      29.224  14.553 -19.019  1.00  0.00    -0.508 OA
ATOM     10  H   UNL     1      29.676  15.187 -19.668  1.00  0.00     0.293 HD
ENDBRANCH   2   9
BRANCH   4  11
ATOM     11  O   UNL     1      30.417  15.917 -14.520  1.00  0.00    -0.508 OA
ATOM     12  H   UNL     1      30.360  16.906 -14.735  1.00  0.00     0.293 HD
ENDBRANCH   4  11
TORSDOF 3
ENDMDL
MODEL 5
REMARK VINA RESULT:    -4.486      1.786      3.732
REMARK INTER + INTRA:          -5.110
REMARK INTER:                  -5.025
REMARK INTRA:                  -0.085
REMARK UNBOUND:                -0.100
REMARK SMILES CCc1ccc(O)cc1O
REMARK SMILES IDX 3 1 9 2 8 3 6 4 5 5 4 6 2 7 1 8 10 9 7 11
REMARK H PARENT 10 10 7 12
REMARK Flexibility Score: inf
ROOT
ATOM      1  C   UNL     1      29.645  15.308 -16.804  1.00  0.00    -0.006 A 
ATOM      2  C   UNL     1      29.218  14.359 -17.755  1.00  0.00     0.122 A 
ATOM      3  C   UNL     1      28.826  13.078 -17.337  1.00  0.00     0.092 A 
ATOM      4  C   UNL     1      28.846  12.741 -15.977  1.00  0.00     0.119 A 
ATOM      5  C   UNL     1      29.255  13.686 -15.034  1.00  0.00     0.047 A 
ATOM      6  C   UNL     1      29.647  14.964 -15.442  1.00  0.00     0.011 A 
ENDROOT
BRANCH   1   7
ATOM      7  C   UNL     1      30.042  16.702 -17.223  1.00  0.00     0.036 C 
ATOM      8  C   UNL     1      30.945  17.344 -16.175  1.00  0.00     0.009 C 
ENDBRANCH   1   7
BRANCH   2   9
ATOM      9  O   UNL     1      29.183  14.690 -19.110  1.00  0.00    -0.508 OA
ATOM     10  H   UNL     1      28.353  14.537 -19.673  1.00  0.00     0.293 HD
ENDBRANCH   2   9
BRANCH   4  11
ATOM     11  O   UNL     1      28.458  11.472 -15.555  1.00  0.00    -0.508 OA
ATOM     12  H   UNL     1      27.558  11.081 -15.810  1.00  0.00     0.293 HD
ENDBRANCH   4  11
TORSDOF 3
ENDMDL
MODEL 6
REMARK VINA RESULT:    -4.387     19.000     20.246
REMARK INTER + INTRA:          -5.000
REMARK INTER:                  -4.896
REMARK INTRA:                  -0.104
REMARK UNBOUND:                -0.100
REMARK SMILES CCc1ccc(O)cc1O
REMARK SMILES IDX 3 1 9 2 8 3 6 4 5 5 4 6 2 7 1 8 10 9 7 11
REMARK H PARENT 10 10 7 12
REMARK Flexibility Score: inf
ROOT
ATOM      1  C   UNL     1      15.518  -0.240 -14.588  1.00  0.00    -0.006 A 
ATOM      2  C   UNL     1      16.444   0.304 -13.674  1.00  0.00     0.122 A 
ATOM      3  C   UNL     1      16.080   0.474 -12.330  1.00  0.00     0.092 A 
ATOM      4  C   UNL     1      14.806   0.095 -11.887  1.00  0.00     0.119 A 
ATOM      5  C   UNL     1      13.894  -0.457 -12.791  1.00  0.00     0.047 A 
ATOM      6  C   UNL     1      14.248  -0.629 -14.132  1.00  0.00     0.011 A 
ENDROOT
BRANCH   1   7
ATOM      7  C   UNL     1      15.893  -0.461 -16.032  1.00  0.00     0.036 C 
ATOM      8  C   UNL     1      15.457   0.721 -16.891  1.00  0.00     0.009 C 
ENDBRANCH   1   7
BRANCH   2   9
ATOM      9  O   UNL     1      17.719   0.671 -14.102  1.00  0.00    -0.508 OA
ATOM     10  H   UNL     1      17.935   0.796 -15.085  1.00  0.00     0.293 HD
ENDBRANCH   2   9
BRANCH   4  11
ATOM     11  O   UNL     1      14.438   0.260 -10.555  1.00  0.00    -0.508 OA
ATOM     12  H   UNL     1      13.908  -0.449 -10.060  1.00  0.00     0.293 HD
ENDBRANCH   4  11
TORSDOF 3
ENDMDL
MODEL 7
REMARK VINA RESULT:    -4.387      2.345      2.928
REMARK INTER + INTRA:          -5.000
REMARK INTER:                  -4.900
REMARK INTRA:                  -0.100
REMARK UNBOUND:                -0.100
REMARK SMILES CCc1ccc(O)cc1O
REMARK SMILES IDX 3 1 9 2 8 3 6 4 5 5 4 6 2 7 1 8 10 9 7 11
REMARK H PARENT 10 10 7 12
REMARK Flexibility Score: inf
ROOT
ATOM      1  C   UNL     1      29.761  11.415 -16.282  1.00  0.00    -0.006 A 
ATOM      2  C   UNL     1      28.882  12.491 -16.040  1.00  0.00     0.122 A 
ATOM      3  C   UNL     1      28.696  13.475 -17.023  1.00  0.00     0.092 A 
ATOM      4  C   UNL     1      29.371  13.390 -18.247  1.00  0.00     0.119 A 
ATOM      5  C   UNL     1      30.232  12.317 -18.492  1.00  0.00     0.047 A 
ATOM      6  C   UNL     1      30.422  11.332 -17.518  1.00  0.00     0.011 A 
ENDROOT
BRANCH   1   7
ATOM      7  C   UNL     1      29.956  10.327 -15.255  1.00  0.00     0.036 C 
ATOM      8  C   UNL     1      31.124  10.658 -14.332  1.00  0.00     0.009 C 
ENDBRANCH   1   7
BRANCH   2   9
ATOM      9  O   UNL     1      28.194  12.577 -14.829  1.00  0.00    -0.508 OA
ATOM     10  H   UNL     1      27.337  13.111 -14.742  1.00  0.00     0.293 HD
ENDBRANCH   2   9
BRANCH   4  11
ATOM     11  O   UNL     1      29.192  14.363 -19.227  1.00  0.00    -0.508 OA
ATOM     12  H   UNL     1      29.445  14.193 -20.194  1.00  0.00     0.293 HD
ENDBRANCH   4  11
TORSDOF 3
ENDMDL
MODEL 8
REMARK VINA RESULT:    -4.351     19.655     20.782
REMARK INTER + INTRA:          -4.959
REMARK INTER:                  -4.874
REMARK INTRA:                  -0.086
REMARK UNBOUND:                -0.100
REMARK SMILES CCc1ccc(O)cc1O
REMARK SMILES IDX 3 1 9 2 8 3 6 4 5 5 4 6 2 7 1 8 10 9 7 11
REMARK H PARENT 10 10 7 12
REMARK Flexibility Score: inf
ROOT
ATOM      1  C   UNL     1      13.837  -0.368 -13.006  1.00  0.00    -0.006 A 
ATOM      2  C   UNL     1      14.736   0.104 -12.027  1.00  0.00     0.122 A 
ATOM      3  C   UNL     1      16.072   0.359 -12.370  1.00  0.00     0.092 A 
ATOM      4  C   UNL     1      16.516   0.159 -13.684  1.00  0.00     0.119 A 
ATOM      5  C   UNL     1      15.622  -0.294 -14.657  1.00  0.00     0.047 A 
ATOM      6  C   UNL     1      14.289  -0.551 -14.322  1.00  0.00     0.011 A 
ENDROOT
BRANCH   1   7
ATOM      7  C   UNL     1      12.389  -0.621 -12.671  1.00  0.00     0.036 C 
ATOM      8  C   UNL     1      11.609  -1.025 -13.917  1.00  0.00     0.009 C 
ENDBRANCH   1   7
BRANCH   2   9
ATOM      9  O   UNL     1      14.300   0.319 -10.719  1.00  0.00    -0.508 OA
ATOM     10  H   UNL     1      14.040  -0.451 -10.112  1.00  0.00     0.293 HD
ENDBRANCH   2   9
BRANCH   4  11
ATOM     11  O   UNL     1      17.841   0.411 -14.033  1.00  0.00    -0.508 OA
ATOM     12  H   UNL     1      18.077   1.012 -14.815  1.00  0.00     0.293 HD
ENDBRANCH   4  11
TORSDOF 3
ENDMDL
MODEL 9
REMARK VINA RESULT:    -4.227     20.273     21.397
REMARK INTER + INTRA:          -4.821
REMARK INTER:                  -4.736
REMARK INTRA:                  -0.085
REMARK UNBOUND:                -0.100
REMARK SMILES CCc1ccc(O)cc1O
REMARK SMILES IDX 3 1 9 2 8 3 6 4 5 5 4 6 2 7 1 8 10 9 7 11
REMARK H PARENT 10 10 7 12
REMARK Flexibility Score: inf
ROOT
ATOM      1  C   UNL     1      14.984  -0.191 -13.275  1.00  0.00    -0.006 A 
ATOM      2  C   UNL     1      13.957  -0.165 -12.309  1.00  0.00     0.122 A 
ATOM      3  C   UNL     1      12.650  -0.528 -12.670  1.00  0.00     0.092 A 
ATOM      4  C   UNL     1      12.362  -0.926 -13.982  1.00  0.00     0.119 A 
ATOM      5  C   UNL     1      13.383  -0.965 -14.935  1.00  0.00     0.047 A 
ATOM      6  C   UNL     1      14.687  -0.605 -14.583  1.00  0.00     0.011 A 
ENDROOT
BRANCH   1   7
ATOM      7  C   UNL     1      16.403   0.165 -12.907  1.00  0.00     0.036 C 
ATOM      8  C   UNL     1      17.193   0.581 -14.143  1.00  0.00     0.009 C 
ENDBRANCH   1   7
BRANCH   2   9
ATOM      9  O   UNL     1      14.236   0.216 -10.997  1.00  0.00    -0.508 OA
ATOM     10  H   UNL     1      15.167   0.126 -10.604  1.00  0.00     0.293 HD
ENDBRANCH   2   9
BRANCH   4  11
ATOM     11  O   UNL     1      11.068  -1.288 -14.347  1.00  0.00    -0.508 OA
ATOM     12  H   UNL     1      10.550  -0.766 -15.046  1.00  0.00     0.293 HD
ENDBRANCH   4  11
TORSDOF 3
ENDMDL
