MODEL 1
REMARK VINA RESULT:    -8.829      0.000      0.000
REMARK INTER + INTRA:         -10.770
REMARK INTER:                 -10.119
REMARK INTRA:                  -0.650
REMARK UNBOUND:                -0.650
REMARK SMILES C=C(C)[C@H]1CC[C@]2(C(=O)[O-])CC[C@]3(C)[C@@H](CC[C@H]4[C@]5(C)CC[C@@H](O)C(C)(C)[C@H]5CC[C@@]43C)[C@H]12
REMARK SMILES IDX 7 1 6 2 33 3 11 4 5 5 15 6 4 7 12 8 16 9 13 10 17 11 31 12
REMARK SMILES IDX 14 13 18 14 30 15 32 16 19 17 29 18 21 19 20 20 28 21 22 22
REMARK SMILES IDX 25 23 23 24 26 25 27 26 8 27 9 28 10 29 2 30 3 31 1 32 24 33
REMARK H PARENT 24 34
REMARK Flexibility Score: inf
ROOT
ATOM      1  C   UNL     1      24.958  53.374  11.518  1.00  0.00     0.014 C 
ATOM      2  C   UNL     1      25.219  54.378  10.356  1.00  0.00     0.014 C 
ATOM      3  C   UNL     1      26.153  52.376  11.472  1.00  0.00     0.012 C 
ATOM      4  C   UNL     1      24.892  54.139  12.868  1.00  0.00     0.014 C 
ATOM      5  C   UNL     1      26.286  53.748   9.480  1.00  0.00     0.009 C 
ATOM      6  C   UNL     1      26.768  51.983  12.869  1.00  0.00     0.000 C 
ATOM      7  C   UNL     1      27.152  52.990  10.468  1.00  0.00     0.018 C 
ATOM      8  C   UNL     1      26.279  54.448  13.469  1.00  0.00     0.008 C 
ATOM      9  C   UNL     1      25.877  50.906  13.580  1.00  0.00     0.005 C 
ATOM     10  C   UNL     1      27.215  53.201  13.793  1.00  0.00    -0.024 C 
ATOM     11  C   UNL     1      25.090  51.312  14.846  1.00  0.00     0.005 C 
ATOM     12  C   UNL     1      27.210  52.754  15.352  1.00  0.00    -0.024 C 
ATOM     13  C   UNL     1      28.696  53.629  13.423  1.00  0.00     0.012 C 
ATOM     14  C   UNL     1      25.737  52.395  15.768  1.00  0.00     0.002 C 
ATOM     15  C   UNL     1      27.745  53.917  16.275  1.00  0.00     0.008 C 
ATOM     16  C   UNL     1      28.160  51.512  15.562  1.00  0.00     0.012 C 
ATOM     17  C   UNL     1      25.456  52.203  17.326  1.00  0.00    -0.026 C 
ATOM     18  C   UNL     1      27.478  53.733  17.776  1.00  0.00     0.005 C 
ATOM     19  C   UNL     1      23.913  52.111  17.540  1.00  0.00     0.010 C 
ATOM     20  C   UNL     1      26.110  50.892  17.874  1.00  0.00     0.012 C 
ATOM     21  C   UNL     1      25.973  53.503  18.055  1.00  0.00     0.003 C 
ATOM     22  C   UNL     1      23.472  52.218  19.007  1.00  0.00     0.033 C 
ATOM     23  C   UNL     1      25.533  53.700  19.564  1.00  0.00    -0.006 C 
ATOM     24  C   UNL     1      23.982  53.513  19.662  1.00  0.00     0.120 C 
ATOM     25  C   UNL     1      26.285  52.766  20.551  1.00  0.00     0.014 C 
ATOM     26  C   UNL     1      25.837  55.160  20.011  1.00  0.00     0.014 C 
ENDROOT
BRANCH   1  27
ATOM     27  C   UNL     1      23.651  52.626  11.261  1.00  0.00     0.048 C 
ATOM     28  O   UNL     1      22.868  52.345  12.209  1.00  0.00    -0.550 OA
ATOM     29  O   UNL     1      23.375  52.105  10.000  1.00  0.00    -0.550 OA
ENDBRANCH   1  27
BRANCH   7  30
ATOM     30  C   UNL     1      28.073  51.983   9.788  1.00  0.00    -0.077 C 
ATOM     31  C   UNL     1      29.345  51.498  10.448  1.00  0.00     0.039 C 
ATOM     32  C   UNL     1      27.752  51.496   8.576  1.00  0.00     0.008 C 
ENDBRANCH   7  30
BRANCH  24  33
ATOM     33  O   UNL     1      23.520  53.608  20.991  1.00  0.00    -0.393 OA
ATOM     34  H   UNL     1      23.515  52.699  21.387  1.00  0.00     0.210 HD
ENDBRANCH  24  33
TORSDOF 3
ENDMDL
MODEL 2
REMARK VINA RESULT:    -8.683      1.950      2.552
REMARK INTER + INTRA:         -10.602
REMARK INTER:                  -9.888
REMARK INTRA:                  -0.714
REMARK UNBOUND:                -0.650
REMARK SMILES C=C(C)[C@H]1CC[C@]2(C(=O)[O-])CC[C@]3(C)[C@@H](CC[C@H]4[C@]5(C)CC[C@@H](O)C(C)(C)[C@H]5CC[C@@]43C)[C@H]12
REMARK SMILES IDX 7 1 6 2 33 3 11 4 5 5 15 6 4 7 12 8 16 9 13 10 17 11 31 12
REMARK SMILES IDX 14 13 18 14 30 15 32 16 19 17 29 18 21 19 20 20 28 21 22 22
REMARK SMILES IDX 25 23 23 24 26 25 27 26 8 27 9 28 10 29 2 30 3 31 1 32 24 33
REMARK H PARENT 24 34
REMARK Flexibility Score: inf
ROOT
ATOM      1  C   UNL     1      27.466  54.903  11.846  1.00  0.00     0.014 C 
ATOM      2  C   UNL     1      28.622  55.806  11.321  1.00  0.00     0.014 C 
ATOM      3  C   UNL     1      28.102  53.495  12.038  1.00  0.00     0.012 C 
ATOM      4  C   UNL     1      26.914  55.478  13.180  1.00  0.00     0.014 C 
ATOM      5  C   UNL     1      29.731  54.868  10.883  1.00  0.00     0.009 C 
ATOM      6  C   UNL     1      27.687  52.732  13.353  1.00  0.00     0.000 C 
ATOM      7  C   UNL     1      29.620  53.710  11.858  1.00  0.00     0.018 C 
ATOM      8  C   UNL     1      27.756  55.087  14.412  1.00  0.00     0.008 C 
ATOM      9  C   UNL     1      26.269  52.084  13.191  1.00  0.00     0.005 C 
ATOM     10  C   UNL     1      27.910  53.530  14.713  1.00  0.00    -0.024 C 
ATOM     11  C   UNL     1      25.092  52.662  14.009  1.00  0.00     0.005 C 
ATOM     12  C   UNL     1      26.910  52.973  15.861  1.00  0.00    -0.024 C 
ATOM     13  C   UNL     1      29.394  53.305  15.221  1.00  0.00     0.012 C 
ATOM     14  C   UNL     1      25.428  53.253  15.416  1.00  0.00     0.002 C 
ATOM     15  C   UNL     1      27.184  53.686  17.243  1.00  0.00     0.008 C 
ATOM     16  C   UNL     1      27.139  51.427  16.075  1.00  0.00     0.012 C 
ATOM     17  C   UNL     1      24.295  53.044  16.519  1.00  0.00    -0.026 C 
ATOM     18  C   UNL     1      26.095  53.484  18.307  1.00  0.00     0.005 C 
ATOM     19  C   UNL     1      22.953  53.613  15.960  1.00  0.00     0.010 C 
ATOM     20  C   UNL     1      24.087  51.531  16.856  1.00  0.00     0.012 C 
ATOM     21  C   UNL     1      24.704  53.906  17.775  1.00  0.00     0.003 C 
ATOM     22  C   UNL     1      21.841  53.751  17.009  1.00  0.00     0.033 C 
ATOM     23  C   UNL     1      23.597  54.119  18.888  1.00  0.00    -0.006 C 
ATOM     24  C   UNL     1      22.283  54.619  18.199  1.00  0.00     0.120 C 
ATOM     25  C   UNL     1      23.343  52.855  19.754  1.00  0.00     0.014 C 
ATOM     26  C   UNL     1      24.047  55.247  19.864  1.00  0.00     0.014 C 
ENDROOT
BRANCH   1  27
ATOM     27  C   UNL     1      26.360  54.831  10.795  1.00  0.00     0.048 C 
ATOM     28  O   UNL     1      25.368  55.609  10.844  1.00  0.00    -0.550 OA
ATOM     29  O   UNL     1      26.348  53.805   9.854  1.00  0.00    -0.550 OA
ENDBRANCH   1  27
BRANCH   7  30
ATOM     30  C   UNL     1      30.390  52.478  11.395  1.00  0.00    -0.077 C 
ATOM     31  C   UNL     1      29.805  51.508  10.393  1.00  0.00     0.039 C 
ATOM     32  C   UNL     1      31.626  52.244  11.871  1.00  0.00     0.008 C 
ENDBRANCH   7  30
BRANCH  24  33
ATOM     33  O   UNL     1      21.227  54.769  19.120  1.00  0.00    -0.393 OA
ATOM     34  H   UNL     1      21.065  53.894  19.556  1.00  0.00     0.210 HD
ENDBRANCH  24  33
TORSDOF 3
ENDMDL
MODEL 3
REMARK VINA RESULT:    -8.666      2.347      7.329
REMARK INTER + INTRA:         -10.583
REMARK INTER:                  -9.866
REMARK INTRA:                  -0.717
REMARK UNBOUND:                -0.650
REMARK SMILES C=C(C)[C@H]1CC[C@]2(C(=O)[O-])CC[C@]3(C)[C@@H](CC[C@H]4[C@]5(C)CC[C@@H](O)C(C)(C)[C@H]5CC[C@@]43C)[C@H]12
REMARK SMILES IDX 7 1 6 2 33 3 11 4 5 5 15 6 4 7 12 8 16 9 13 10 17 11 31 12
REMARK SMILES IDX 14 13 18 14 30 15 32 16 19 17 29 18 21 19 20 20 28 21 22 22
REMARK SMILES IDX 25 23 23 24 26 25 27 26 8 27 9 28 10 29 2 30 3 31 1 32 24 33
REMARK H PARENT 24 34
REMARK Flexibility Score: inf
ROOT
ATOM      1  C   UNL     1      27.492  51.319  15.890  1.00  0.00     0.014 C 
ATOM      2  C   UNL     1      28.642  50.428  16.447  1.00  0.00     0.014 C 
ATOM      3  C   UNL     1      28.153  52.697  15.589  1.00  0.00     0.012 C 
ATOM      4  C   UNL     1      26.896  50.669  14.611  1.00  0.00     0.014 C 
ATOM      5  C   UNL     1      29.780  51.368  16.795  1.00  0.00     0.009 C 
ATOM      6  C   UNL     1      27.721  53.380  14.236  1.00  0.00     0.000 C 
ATOM      7  C   UNL     1      29.669  52.460  15.747  1.00  0.00     0.018 C 
ATOM      8  C   UNL     1      27.714  50.958  13.337  1.00  0.00     0.008 C 
ATOM      9  C   UNL     1      26.320  54.068  14.388  1.00  0.00     0.005 C 
ATOM     10  C   UNL     1      27.894  52.488  12.928  1.00  0.00    -0.024 C 
ATOM     11  C   UNL     1      25.112  53.464  13.638  1.00  0.00     0.005 C 
ATOM     12  C   UNL     1      26.876  52.989  11.769  1.00  0.00    -0.024 C 
ATOM     13  C   UNL     1      29.368  52.646  12.371  1.00  0.00     0.012 C 
ATOM     14  C   UNL     1      25.401  52.773  12.266  1.00  0.00     0.002 C 
ATOM     15  C   UNL     1      27.101  52.180  10.432  1.00  0.00     0.008 C 
ATOM     16  C   UNL     1      27.132  54.512  11.446  1.00  0.00     0.012 C 
ATOM     17  C   UNL     1      24.245  52.933  11.178  1.00  0.00    -0.026 C 
ATOM     18  C   UNL     1      25.991  52.335   9.383  1.00  0.00     0.005 C 
ATOM     19  C   UNL     1      22.906  52.432  11.806  1.00  0.00     0.010 C 
ATOM     20  C   UNL     1      24.060  54.425  10.746  1.00  0.00     0.012 C 
ATOM     21  C   UNL     1      24.605  51.981   9.974  1.00  0.00     0.003 C 
ATOM     22  C   UNL     1      21.765  52.250  10.795  1.00  0.00     0.033 C 
ATOM     23  C   UNL     1      23.466  51.718   8.904  1.00  0.00    -0.006 C 
ATOM     24  C   UNL     1      22.160  51.295   9.656  1.00  0.00     0.120 C 
ATOM     25  C   UNL     1      23.217  52.927   7.961  1.00  0.00     0.014 C 
ATOM     26  C   UNL     1      23.869  50.518   7.996  1.00  0.00     0.014 C 
ENDROOT
BRANCH   1  27
ATOM     27  C   UNL     1      26.414  51.486  16.960  1.00  0.00     0.048 C 
ATOM     28  O   UNL     1      25.466  50.660  17.057  1.00  0.00    -0.550 OA
ATOM     29  O   UNL     1      26.373  52.635  17.745  1.00  0.00    -0.550 OA
ENDBRANCH   1  27
BRANCH   7  30
ATOM     30  C   UNL     1      30.476  53.704  16.109  1.00  0.00    -0.077 C 
ATOM     31  C   UNL     1      30.022  54.656  17.193  1.00  0.00     0.039 C 
ATOM     32  C   UNL     1      31.628  53.964  15.465  1.00  0.00     0.008 C 
ENDBRANCH   7  30
BRANCH  24  33
ATOM     33  O   UNL     1      21.078  51.107   8.772  1.00  0.00    -0.393 OA
ATOM     34  H   UNL     1      20.282  50.846   9.302  1.00  0.00     0.210 HD
ENDBRANCH  24  33
TORSDOF 3
ENDMDL
MODEL 4
REMARK VINA RESULT:    -8.663      2.792      4.707
REMARK INTER + INTRA:         -10.580
REMARK INTER:                 -10.025
REMARK INTRA:                  -0.554
REMARK UNBOUND:                -0.650
REMARK SMILES C=C(C)[C@H]1CC[C@]2(C(=O)[O-])CC[C@]3(C)[C@@H](CC[C@H]4[C@]5(C)CC[C@@H](O)C(C)(C)[C@H]5CC[C@@]43C)[C@H]12
REMARK SMILES IDX 7 1 6 2 33 3 11 4 5 5 15 6 4 7 12 8 16 9 13 10 17 11 31 12
REMARK SMILES IDX 14 13 18 14 30 15 32 16 19 17 29 18 21 19 20 20 28 21 22 22
REMARK SMILES IDX 25 23 23 24 26 25 27 26 8 27 9 28 10 29 2 30 3 31 1 32 24 33
REMARK H PARENT 24 34
REMARK Flexibility Score: inf
ROOT
ATOM      1  C   UNL     1      23.548  53.183   9.735  1.00  0.00     0.014 C 
ATOM      2  C   UNL     1      22.260  54.024   9.488  1.00  0.00     0.014 C 
ATOM      3  C   UNL     1      24.656  53.873   8.885  1.00  0.00     0.012 C 
ATOM      4  C   UNL     1      23.893  53.184  11.250  1.00  0.00     0.014 C 
ATOM      5  C   UNL     1      22.544  54.893   8.277  1.00  0.00     0.009 C 
ATOM      6  C   UNL     1      26.061  54.020   9.585  1.00  0.00     0.000 C 
ATOM      7  C   UNL     1      24.026  55.195   8.399  1.00  0.00     0.018 C 
ATOM      8  C   UNL     1      24.651  54.448  11.707  1.00  0.00     0.008 C 
ATOM      9  C   UNL     1      26.846  52.664   9.535  1.00  0.00     0.005 C 
ATOM     10  C   UNL     1      26.051  54.739  11.005  1.00  0.00    -0.024 C 
ATOM     11  C   UNL     1      27.071  51.888  10.852  1.00  0.00     0.005 C 
ATOM     12  C   UNL     1      27.339  54.277  11.877  1.00  0.00    -0.024 C 
ATOM     13  C   UNL     1      26.147  56.308  10.805  1.00  0.00     0.012 C 
ATOM     14  C   UNL     1      27.230  52.734  12.156  1.00  0.00     0.002 C 
ATOM     15  C   UNL     1      27.400  55.055  13.250  1.00  0.00     0.008 C 
ATOM     16  C   UNL     1      28.668  54.604  11.092  1.00  0.00     0.012 C 
ATOM     17  C   UNL     1      28.240  52.126  13.231  1.00  0.00    -0.026 C 
ATOM     18  C   UNL     1      28.372  54.472  14.285  1.00  0.00     0.005 C 
ATOM     19  C   UNL     1      27.800  50.661  13.544  1.00  0.00     0.010 C 
ATOM     20  C   UNL     1      29.708  52.097  12.695  1.00  0.00     0.012 C 
ATOM     21  C   UNL     1      28.080  52.975  14.551  1.00  0.00     0.003 C 
ATOM     22  C   UNL     1      28.491  50.043  14.768  1.00  0.00     0.033 C 
ATOM     23  C   UNL     1      28.741  52.386  15.865  1.00  0.00    -0.006 C 
ATOM     24  C   UNL     1      28.285  50.897  16.031  1.00  0.00     0.120 C 
ATOM     25  C   UNL     1      30.288  52.516  15.888  1.00  0.00     0.014 C 
ATOM     26  C   UNL     1      28.208  53.158  17.109  1.00  0.00     0.014 C 
ENDROOT
BRANCH   1  27
ATOM     27  C   UNL     1      23.327  51.757   9.236  1.00  0.00     0.048 C 
ATOM     28  O   UNL     1      24.190  51.181   8.517  1.00  0.00    -0.550 OA
ATOM     29  O   UNL     1      22.104  51.122   9.436  1.00  0.00    -0.550 OA
ENDBRANCH   1  27
BRANCH   7  30
ATOM     30  C   UNL     1      24.620  55.749   7.108  1.00  0.00    -0.077 C 
ATOM     31  C   UNL     1      25.292  54.849   6.094  1.00  0.00     0.039 C 
ATOM     32  C   UNL     1      24.538  57.065   6.844  1.00  0.00     0.008 C 
ENDBRANCH   7  30
BRANCH  24  33
ATOM     33  O   UNL     1      28.887  50.281  17.147  1.00  0.00    -0.393 OA
ATOM     34  H   UNL     1      28.752  49.302  17.075  1.00  0.00     0.210 HD
ENDBRANCH  24  33
TORSDOF 3
ENDMDL
MODEL 5
REMARK VINA RESULT:    -8.645      1.773      7.738
REMARK INTER + INTRA:         -10.559
REMARK INTER:                  -9.904
REMARK INTRA:                  -0.655
REMARK UNBOUND:                -0.650
REMARK SMILES C=C(C)[C@H]1CC[C@]2(C(=O)[O-])CC[C@]3(C)[C@@H](CC[C@H]4[C@]5(C)CC[C@@H](O)C(C)(C)[C@H]5CC[C@@]43C)[C@H]12
REMARK SMILES IDX 7 1 6 2 33 3 11 4 5 5 15 6 4 7 12 8 16 9 13 10 17 11 31 12
REMARK SMILES IDX 14 13 18 14 30 15 32 16 19 17 29 18 21 19 20 20 28 21 22 22
REMARK SMILES IDX 25 23 23 24 26 25 27 26 8 27 9 28 10 29 2 30 3 31 1 32 24 33
REMARK H PARENT 24 34
REMARK Flexibility Score: inf
ROOT
ATOM      1  C   UNL     1      24.948  52.623  16.116  1.00  0.00     0.014 C 
ATOM      2  C   UNL     1      25.252  51.629  17.278  1.00  0.00     0.014 C 
ATOM      3  C   UNL     1      26.120  53.647  16.138  1.00  0.00     0.012 C 
ATOM      4  C   UNL     1      24.875  51.851  14.770  1.00  0.00     0.014 C 
ATOM      5  C   UNL     1      26.319  52.286  18.133  1.00  0.00     0.009 C 
ATOM      6  C   UNL     1      26.701  54.050  14.729  1.00  0.00     0.000 C 
ATOM      7  C   UNL     1      27.150  53.060  17.126  1.00  0.00     0.018 C 
ATOM      8  C   UNL     1      26.258  51.572  14.147  1.00  0.00     0.008 C 
ATOM      9  C   UNL     1      25.774  55.104  14.031  1.00  0.00     0.005 C 
ATOM     10  C   UNL     1      27.160  52.839  13.802  1.00  0.00    -0.024 C 
ATOM     11  C   UNL     1      24.974  54.675  12.781  1.00  0.00     0.005 C 
ATOM     12  C   UNL     1      27.117  53.280  12.242  1.00  0.00    -0.024 C 
ATOM     13  C   UNL     1      28.656  52.447  14.147  1.00  0.00     0.012 C 
ATOM     14  C   UNL     1      25.629  53.604  11.851  1.00  0.00     0.002 C 
ATOM     15  C   UNL     1      27.663  52.125  11.314  1.00  0.00     0.008 C 
ATOM     16  C   UNL     1      28.035  54.542  12.011  1.00  0.00     0.012 C 
ATOM     17  C   UNL     1      25.317  53.783  10.297  1.00  0.00    -0.026 C 
ATOM     18  C   UNL     1      27.365  52.298   9.817  1.00  0.00     0.005 C 
ATOM     19  C   UNL     1      23.768  53.839  10.110  1.00  0.00     0.010 C 
ATOM     20  C   UNL     1      25.931  55.107   9.733  1.00  0.00     0.012 C 
ATOM     21  C   UNL     1      25.851  52.493   9.563  1.00  0.00     0.003 C 
ATOM     22  C   UNL     1      23.305  53.716   8.651  1.00  0.00     0.033 C 
ATOM     23  C   UNL     1      25.389  52.280   8.063  1.00  0.00    -0.006 C 
ATOM     24  C   UNL     1      23.832  52.431   7.991  1.00  0.00     0.120 C 
ATOM     25  C   UNL     1      26.102  53.227   7.060  1.00  0.00     0.014 C 
ATOM     26  C   UNL     1      25.718  50.825   7.616  1.00  0.00     0.014 C 
ENDROOT
BRANCH   1  27
ATOM     27  C   UNL     1      23.629  53.341  16.394  1.00  0.00     0.048 C 
ATOM     28  O   UNL     1      22.791  53.537  15.472  1.00  0.00    -0.550 OA
ATOM     29  O   UNL     1      23.395  53.930  17.634  1.00  0.00    -0.550 OA
ENDBRANCH   1  27
BRANCH   7  30
ATOM     30  C   UNL     1      28.060  54.091  17.788  1.00  0.00    -0.077 C 
ATOM     31  C   UNL     1      29.315  54.593  17.109  1.00  0.00     0.039 C 
ATOM     32  C   UNL     1      27.743  54.583  18.998  1.00  0.00     0.008 C 
ENDBRANCH   7  30
BRANCH  24  33
ATOM     33  O   UNL     1      23.350  52.320   6.671  1.00  0.00    -0.393 OA
ATOM     34  H   UNL     1      24.111  52.448   6.048  1.00  0.00     0.210 HD
ENDBRANCH  24  33
TORSDOF 3
ENDMDL
MODEL 6
REMARK VINA RESULT:    -8.619      2.545      7.594
REMARK INTER + INTRA:         -10.530
REMARK INTER:                  -9.983
REMARK INTRA:                  -0.547
REMARK UNBOUND:                -0.650
REMARK SMILES C=C(C)[C@H]1CC[C@]2(C(=O)[O-])CC[C@]3(C)[C@@H](CC[C@H]4[C@]5(C)CC[C@@H](O)C(C)(C)[C@H]5CC[C@@]43C)[C@H]12
REMARK SMILES IDX 7 1 6 2 33 3 11 4 5 5 15 6 4 7 12 8 16 9 13 10 17 11 31 12
REMARK SMILES IDX 14 13 18 14 30 15 32 16 19 17 29 18 21 19 20 20 28 21 22 22
REMARK SMILES IDX 25 23 23 24 26 25 27 26 8 27 9 28 10 29 2 30 3 31 1 32 24 33
REMARK H PARENT 24 34
REMARK Flexibility Score: inf
ROOT
ATOM      1  C   UNL     1      23.689  52.813  17.952  1.00  0.00     0.014 C 
ATOM      2  C   UNL     1      22.424  51.944  18.225  1.00  0.00     0.014 C 
ATOM      3  C   UNL     1      24.816  52.175  18.816  1.00  0.00     0.012 C 
ATOM      4  C   UNL     1      24.030  52.782  16.437  1.00  0.00     0.014 C 
ATOM      5  C   UNL     1      22.734  51.115  19.457  1.00  0.00     0.009 C 
ATOM      6  C   UNL     1      26.223  52.048  18.116  1.00  0.00     0.000 C 
ATOM      7  C   UNL     1      24.224  50.849  19.338  1.00  0.00     0.018 C 
ATOM      8  C   UNL     1      24.820  51.528  16.010  1.00  0.00     0.008 C 
ATOM      9  C   UNL     1      26.972  53.425  18.129  1.00  0.00     0.005 C 
ATOM     10  C   UNL     1      26.230  51.292  16.715  1.00  0.00    -0.024 C 
ATOM     11  C   UNL     1      27.173  54.172  16.791  1.00  0.00     0.005 C 
ATOM     12  C   UNL     1      27.502  51.765  15.828  1.00  0.00    -0.024 C 
ATOM     13  C   UNL     1      26.369  49.732  16.956  1.00  0.00     0.012 C 
ATOM     14  C   UNL     1      27.352  53.297  15.509  1.00  0.00     0.002 C 
ATOM     15  C   UNL     1      27.581  50.955  14.476  1.00  0.00     0.008 C 
ATOM     16  C   UNL     1      28.842  51.495  16.617  1.00  0.00     0.012 C 
ATOM     17  C   UNL     1      28.342  53.905  14.416  1.00  0.00    -0.026 C 
ATOM     18  C   UNL     1      28.535  51.537  13.423  1.00  0.00     0.005 C 
ATOM     19  C   UNL     1      27.863  55.349  14.067  1.00  0.00     0.010 C 
ATOM     20  C   UNL     1      29.811  53.987  14.947  1.00  0.00     0.012 C 
ATOM     21  C   UNL     1      28.203  53.017  13.119  1.00  0.00     0.003 C 
ATOM     22  C   UNL     1      28.534  55.953  12.825  1.00  0.00     0.033 C 
ATOM     23  C   UNL     1      28.844  53.590  11.788  1.00  0.00    -0.006 C 
ATOM     24  C   UNL     1      28.348  55.061  11.585  1.00  0.00     0.120 C 
ATOM     25  C   UNL     1      30.394  53.501  11.764  1.00  0.00     0.014 C 
ATOM     26  C   UNL     1      28.330  52.772  10.567  1.00  0.00     0.014 C 
ENDROOT
BRANCH   1  27
ATOM     27  C   UNL     1      23.431  54.245  18.415  1.00  0.00     0.048 C 
ATOM     28  O   UNL     1      24.229  54.826  19.200  1.00  0.00    -0.550 OA
ATOM     29  O   UNL     1      22.233  54.881  18.102  1.00  0.00    -0.550 OA
ENDBRANCH   1  27
BRANCH   7  30
ATOM     30  C   UNL     1      24.835  50.346  20.642  1.00  0.00    -0.077 C 
ATOM     31  C   UNL     1      24.796  48.882  21.023  1.00  0.00     0.039 C 
ATOM     32  C   UNL     1      25.438  51.212  21.475  1.00  0.00     0.008 C 
ENDBRANCH   7  30
BRANCH  24  33
ATOM     33  O   UNL     1      28.930  55.664  10.452  1.00  0.00    -0.393 OA
ATOM     34  H   UNL     1      28.877  56.648  10.558  1.00  0.00     0.210 HD
ENDBRANCH  24  33
TORSDOF 3
ENDMDL
MODEL 7
REMARK VINA RESULT:    -8.239      2.080      3.088
REMARK INTER + INTRA:         -10.094
REMARK INTER:                  -9.426
REMARK INTRA:                  -0.668
REMARK UNBOUND:                -0.650
REMARK SMILES C=C(C)[C@H]1CC[C@]2(C(=O)[O-])CC[C@]3(C)[C@@H](CC[C@H]4[C@]5(C)CC[C@@H](O)C(C)(C)[C@H]5CC[C@@]43C)[C@H]12
REMARK SMILES IDX 7 1 6 2 33 3 11 4 5 5 15 6 4 7 12 8 16 9 13 10 17 11 31 12
REMARK SMILES IDX 14 13 18 14 30 15 32 16 19 17 29 18 21 19 20 20 28 21 22 22
REMARK SMILES IDX 25 23 23 24 26 25 27 26 8 27 9 28 10 29 2 30 3 31 1 32 24 33
REMARK H PARENT 24 34
REMARK Flexibility Score: inf
ROOT
ATOM      1  C   UNL     1      28.238  55.094  12.979  1.00  0.00     0.014 C 
ATOM      2  C   UNL     1      29.703  55.230  12.466  1.00  0.00     0.014 C 
ATOM      3  C   UNL     1      27.655  53.861  12.227  1.00  0.00     0.012 C 
ATOM      4  C   UNL     1      28.238  54.889  14.519  1.00  0.00     0.014 C 
ATOM      5  C   UNL     1      29.802  54.364  11.224  1.00  0.00     0.009 C 
ATOM      6  C   UNL     1      26.783  52.879  13.100  1.00  0.00     0.000 C 
ATOM      7  C   UNL     1      28.864  53.209  11.523  1.00  0.00     0.018 C 
ATOM      8  C   UNL     1      28.504  53.431  14.945  1.00  0.00     0.008 C 
ATOM      9  C   UNL     1      25.339  53.457  13.302  1.00  0.00     0.005 C 
ATOM     10  C   UNL     1      27.479  52.330  14.422  1.00  0.00    -0.024 C 
ATOM     11  C   UNL     1      24.922  53.935  14.711  1.00  0.00     0.005 C 
ATOM     12  C   UNL     1      26.355  51.900  15.510  1.00  0.00    -0.024 C 
ATOM     13  C   UNL     1      28.327  51.038  14.076  1.00  0.00     0.012 C 
ATOM     14  C   UNL     1      25.545  53.181  15.930  1.00  0.00     0.002 C 
ATOM     15  C   UNL     1      27.023  51.261  16.790  1.00  0.00     0.008 C 
ATOM     16  C   UNL     1      25.391  50.816  14.892  1.00  0.00     0.012 C 
ATOM     17  C   UNL     1      24.582  53.040  17.194  1.00  0.00    -0.026 C 
ATOM     18  C   UNL     1      26.098  51.123  18.007  1.00  0.00     0.005 C 
ATOM     19  C   UNL     1      24.082  54.464  17.591  1.00  0.00     0.010 C 
ATOM     20  C   UNL     1      23.337  52.149  16.876  1.00  0.00     0.012 C 
ATOM     21  C   UNL     1      25.455  52.480  18.383  1.00  0.00     0.003 C 
ATOM     22  C   UNL     1      23.385  54.529  18.958  1.00  0.00     0.033 C 
ATOM     23  C   UNL     1      24.816  52.543  19.831  1.00  0.00    -0.006 C 
ATOM     24  C   UNL     1      24.287  53.995  20.084  1.00  0.00     0.120 C 
ATOM     25  C   UNL     1      23.705  51.482  20.059  1.00  0.00     0.014 C 
ATOM     26  C   UNL     1      25.916  52.275  20.900  1.00  0.00     0.014 C 
ENDROOT
BRANCH   1  27
ATOM     27  C   UNL     1      27.449  56.347  12.604  1.00  0.00     0.048 C 
ATOM     28  O   UNL     1      26.597  56.322  11.674  1.00  0.00    -0.550 OA
ATOM     29  O   UNL     1      27.767  57.576  13.176  1.00  0.00    -0.550 OA
ENDBRANCH   1  27
BRANCH   7  30
ATOM     30  C   UNL     1      28.517  52.399  10.278  1.00  0.00    -0.077 C 
ATOM     31  C   UNL     1      27.221  52.612   9.528  1.00  0.00     0.039 C 
ATOM     32  C   UNL     1      29.383  51.478   9.817  1.00  0.00     0.008 C 
ENDBRANCH   7  30
BRANCH  24  33
ATOM     33  O   UNL     1      23.642  54.113  21.332  1.00  0.00    -0.393 OA
ATOM     34  H   UNL     1      23.661  53.229  21.779  1.00  0.00     0.210 HD
ENDBRANCH  24  33
TORSDOF 3
ENDMDL
MODEL 8
REMARK VINA RESULT:    -8.095      2.623      7.708
REMARK INTER + INTRA:          -9.929
REMARK INTER:                  -9.235
REMARK INTRA:                  -0.694
REMARK UNBOUND:                -0.650
REMARK SMILES C=C(C)[C@H]1CC[C@]2(C(=O)[O-])CC[C@]3(C)[C@@H](CC[C@H]4[C@]5(C)CC[C@@H](O)C(C)(C)[C@H]5CC[C@@]43C)[C@H]12
REMARK SMILES IDX 7 1 6 2 33 3 11 4 5 5 15 6 4 7 12 8 16 9 13 10 17 11 31 12
REMARK SMILES IDX 14 13 18 14 30 15 32 16 19 17 29 18 21 19 20 20 28 21 22 22
REMARK SMILES IDX 25 23 23 24 26 25 27 26 8 27 9 28 10 29 2 30 3 31 1 32 24 33
REMARK H PARENT 24 34
REMARK Flexibility Score: inf
ROOT
ATOM      1  C   UNL     1      28.154  51.027  14.900  1.00  0.00     0.014 C 
ATOM      2  C   UNL     1      29.609  50.806  15.411  1.00  0.00     0.014 C 
ATOM      3  C   UNL     1      27.696  52.369  15.543  1.00  0.00     0.012 C 
ATOM      4  C   UNL     1      28.147  51.093  13.348  1.00  0.00     0.014 C 
ATOM      5  C   UNL     1      29.806  51.766  16.569  1.00  0.00     0.009 C 
ATOM      6  C   UNL     1      26.899  53.344  14.594  1.00  0.00     0.000 C 
ATOM      7  C   UNL     1      28.969  52.969  16.176  1.00  0.00     0.018 C 
ATOM      8  C   UNL     1      28.535  52.478  12.791  1.00  0.00     0.008 C 
ATOM      9  C   UNL     1      25.407  52.883  14.456  1.00  0.00     0.005 C 
ATOM     10  C   UNL     1      27.619  53.709  13.221  1.00  0.00    -0.024 C 
ATOM     11  C   UNL     1      24.926  52.321  13.099  1.00  0.00     0.005 C 
ATOM     12  C   UNL     1      26.520  54.140  12.109  1.00  0.00    -0.024 C 
ATOM     13  C   UNL     1      28.585  54.946  13.443  1.00  0.00     0.012 C 
ATOM     14  C   UNL     1      25.593  52.905  11.813  1.00  0.00     0.002 C 
ATOM     15  C   UNL     1      27.222  54.600  10.771  1.00  0.00     0.008 C 
ATOM     16  C   UNL     1      25.666  55.357  12.635  1.00  0.00     0.012 C 
ATOM     17  C   UNL     1      24.626  53.019  10.549  1.00  0.00    -0.026 C 
ATOM     18  C   UNL     1      26.292  54.712   9.554  1.00  0.00     0.005 C 
ATOM     19  C   UNL     1      23.994  51.616  10.285  1.00  0.00     0.010 C 
ATOM     20  C   UNL     1      23.470  54.043  10.796  1.00  0.00     0.012 C 
ATOM     21  C   UNL     1      25.526  53.391   9.308  1.00  0.00     0.003 C 
ATOM     22  C   UNL     1      23.273  51.494   8.936  1.00  0.00     0.033 C 
ATOM     23  C   UNL     1      24.859  53.258   7.876  1.00  0.00    -0.006 C 
ATOM     24  C   UNL     1      24.200  51.843   7.759  1.00  0.00     0.120 C 
ATOM     25  C   UNL     1      23.843  54.390   7.564  1.00  0.00     0.014 C 
ATOM     26  C   UNL     1      25.961  53.330   6.778  1.00  0.00     0.014 C 
ENDROOT
BRANCH   1  27
ATOM     27  C   UNL     1      27.264  49.888  15.393  1.00  0.00     0.048 C 
ATOM     28  O   UNL     1      26.470  50.057  16.359  1.00  0.00    -0.550 OA
ATOM     29  O   UNL     1      27.423  48.600  14.887  1.00  0.00    -0.550 OA
ENDBRANCH   1  27
BRANCH   7  30
ATOM     30  C   UNL     1      28.716  53.914  17.346  1.00  0.00    -0.077 C 
ATOM     31  C   UNL     1      27.468  53.811  18.194  1.00  0.00     0.039 C 
ATOM     32  C   UNL     1      29.624  54.859  17.650  1.00  0.00     0.008 C 
ENDBRANCH   7  30
BRANCH  24  33
ATOM     33  O   UNL     1      23.526  51.673   6.533  1.00  0.00    -0.393 OA
ATOM     34  H   UNL     1      22.828  52.373   6.459  1.00  0.00     0.210 HD
ENDBRANCH  24  33
TORSDOF 3
ENDMDL
MODEL 9
REMARK VINA RESULT:    -7.514      2.338      3.907
REMARK INTER + INTRA:          -9.263
REMARK INTER:                  -8.792
REMARK INTRA:                  -0.471
REMARK UNBOUND:                -0.650
REMARK SMILES C=C(C)[C@H]1CC[C@]2(C(=O)[O-])CC[C@]3(C)[C@@H](CC[C@H]4[C@]5(C)CC[C@@H](O)C(C)(C)[C@H]5CC[C@@]43C)[C@H]12
REMARK SMILES IDX 7 1 6 2 33 3 11 4 5 5 15 6 4 7 12 8 16 9 13 10 17 11 31 12
REMARK SMILES IDX 14 13 18 14 30 15 32 16 19 17 29 18 21 19 20 20 28 21 22 22
REMARK SMILES IDX 25 23 23 24 26 25 27 26 8 27 9 28 10 29 2 30 3 31 1 32 24 33
REMARK H PARENT 24 34
REMARK Flexibility Score: inf
ROOT
ATOM      1  C   UNL     1      29.212  52.754  13.102  1.00  0.00     0.014 C 
ATOM      2  C   UNL     1      29.990  51.751  12.198  1.00  0.00     0.014 C 
ATOM      3  C   UNL     1      27.940  53.133  12.288  1.00  0.00     0.012 C 
ATOM      4  C   UNL     1      28.856  52.076  14.453  1.00  0.00     0.014 C 
ATOM      5  C   UNL     1      29.384  51.865  10.812  1.00  0.00     0.009 C 
ATOM      6  C   UNL     1      26.598  53.203  13.113  1.00  0.00     0.000 C 
ATOM      7  C   UNL     1      27.921  52.160  11.091  1.00  0.00     0.018 C 
ATOM      8  C   UNL     1      27.597  51.188  14.383  1.00  0.00     0.008 C 
ATOM      9  C   UNL     1      26.509  54.551  13.909  1.00  0.00     0.005 C 
ATOM     10  C   UNL     1      26.238  51.900  13.955  1.00  0.00    -0.024 C 
ATOM     11  C   UNL     1      26.616  54.511  15.450  1.00  0.00     0.005 C 
ATOM     12  C   UNL     1      25.270  52.285  15.197  1.00  0.00    -0.024 C 
ATOM     13  C   UNL     1      25.452  50.877  13.035  1.00  0.00     0.012 C 
ATOM     14  C   UNL     1      26.053  53.243  16.168  1.00  0.00     0.002 C 
ATOM     15  C   UNL     1      24.823  50.993  15.986  1.00  0.00     0.008 C 
ATOM     16  C   UNL     1      23.962  52.988  14.666  1.00  0.00     0.012 C 
ATOM     17  C   UNL     1      25.393  53.518  17.594  1.00  0.00    -0.026 C 
ATOM     18  C   UNL     1      24.185  51.256  17.358  1.00  0.00     0.005 C 
ATOM     19  C   UNL     1      26.435  54.268  18.481  1.00  0.00     0.010 C 
ATOM     20  C   UNL     1      24.112  54.407  17.476  1.00  0.00     0.012 C 
ATOM     21  C   UNL     1      25.111  52.113  18.254  1.00  0.00     0.003 C 
ATOM     22  C   UNL     1      26.058  54.344  19.968  1.00  0.00     0.033 C 
ATOM     23  C   UNL     1      24.746  52.108  19.796  1.00  0.00    -0.006 C 
ATOM     24  C   UNL     1      25.818  52.948  20.568  1.00  0.00     0.120 C 
ATOM     25  C   UNL     1      23.306  52.609  20.089  1.00  0.00     0.014 C 
ATOM     26  C   UNL     1      24.835  50.654  20.349  1.00  0.00     0.014 C 
ENDROOT
BRANCH   1  27
ATOM     27  C   UNL     1      30.067  53.998  13.334  1.00  0.00     0.048 C 
ATOM     28  O   UNL     1      30.831  54.081  14.334  1.00  0.00    -0.550 OA
ATOM     29  O   UNL     1      29.904  55.124  12.532  1.00  0.00    -0.550 OA
ENDBRANCH   1  27
BRANCH   7  30
ATOM     30  C   UNL     1      27.183  52.675   9.860  1.00  0.00    -0.077 C 
ATOM     31  C   UNL     1      27.082  51.855   8.593  1.00  0.00     0.039 C 
ATOM     32  C   UNL     1      26.590  53.883   9.893  1.00  0.00     0.008 C 
ENDBRANCH   7  30
BRANCH  24  33
ATOM     33  O   UNL     1      25.524  53.046  21.943  1.00  0.00    -0.393 OA
ATOM     34  H   UNL     1      25.392  54.002  22.168  1.00  0.00     0.210 HD
ENDBRANCH  24  33
TORSDOF 3
ENDMDL
