MODEL 1
REMARK VINA RESULT:    -4.518      0.000      0.000
REMARK INTER + INTRA:          -5.730
REMARK INTER:                  -5.442
REMARK INTRA:                  -0.288
REMARK UNBOUND:                -0.288
REMARK SMILES O=c1c(O)c(-c2ccc(O)c(O)c2)oc2cc(O)cc(O)c12
REMARK SMILES IDX 5 1 3 2 2 3 1 4 22 5 20 6 19 7 17 8 16 9 15 10 14 11 6 12
REMARK SMILES IDX 7 13 8 14 9 15 13 16 11 17 10 18 12 20 4 22 21 24 18 26
REMARK H PARENT 10 19 12 21 4 23 21 25 18 27
REMARK Flexibility Score: inf
ROOT
ATOM      1  C   UNL     1       0.252 -17.569  16.395  1.00  0.00     0.180 A 
ATOM      2  C   UNL     1      -0.047 -18.785  15.759  1.00  0.00     0.208 A 
ATOM      3  C   UNL     1      -0.874 -19.712  16.414  1.00  0.00     0.238 A 
ATOM      4  O   UNL     1      -1.200 -20.766  15.807  1.00  0.00    -0.285 OA
ATOM      5  C   UNL     1      -1.346 -19.437  17.721  1.00  0.00     0.111 A 
ATOM      6  C   UNL     1      -2.152 -20.322  18.498  1.00  0.00     0.134 A 
ATOM      7  C   UNL     1      -2.648 -19.898  19.737  1.00  0.00     0.093 A 
ATOM      8  C   UNL     1      -2.312 -18.646  20.256  1.00  0.00     0.123 A 
ATOM      9  C   UNL     1      -1.481 -17.796  19.531  1.00  0.00     0.094 A 
ATOM     10  C   UNL     1      -1.002 -18.175  18.274  1.00  0.00     0.146 A 
ATOM     11  O   UNL     1      -0.231 -17.325  17.608  1.00  0.00    -0.452 OA
ENDROOT
BRANCH   1  12
ATOM     12  C   UNL     1       1.105 -16.537  15.763  1.00  0.00     0.025 A 
ATOM     13  C   UNL     1       2.505 -16.660  15.737  1.00  0.00     0.016 A 
ATOM     14  C   UNL     1       3.288 -15.684  15.113  1.00  0.00     0.051 A 
ATOM     15  C   UNL     1       2.684 -14.582  14.495  1.00  0.00     0.157 A 
ATOM     16  C   UNL     1       0.503 -15.441  15.124  1.00  0.00     0.062 A 
ATOM     17  C   UNL     1       1.283 -14.462  14.498  1.00  0.00     0.158 A 
BRANCH  15  18
ATOM     18  O   UNL     1       3.467 -13.609  13.875  1.00  0.00    -0.504 OA
ATOM     19  H   UNL     1       3.054 -12.879  13.306  1.00  0.00     0.293 HD
ENDBRANCH  15  18
BRANCH  17  20
ATOM     20  O   UNL     1       0.651 -13.380  13.886  1.00  0.00    -0.504 OA
ATOM     21  H   UNL     1       0.992 -12.432  13.985  1.00  0.00     0.293 HD
ENDBRANCH  17  20
ENDBRANCH   1  12
BRANCH   2  22
ATOM     22  O   UNL     1       0.490 -19.072  14.501  1.00  0.00    -0.502 OA
ATOM     23  H   UNL     1       1.308 -18.597  14.137  1.00  0.00     0.293 HD
ENDBRANCH   2  22
BRANCH   6  24
ATOM     24  O   UNL     1      -2.474 -21.628  18.114  1.00  0.00    -0.507 OA
ATOM     25  H   UNL     1      -2.835 -22.339  18.729  1.00  0.00     0.293 HD
ENDBRANCH   6  24
BRANCH   8  26
ATOM     26  O   UNL     1      -2.795 -18.238  21.498  1.00  0.00    -0.508 OA
ATOM     27  H   UNL     1      -2.246 -18.350  22.342  1.00  0.00     0.293 HD
ENDBRANCH   8  26
TORSDOF 6
ENDMDL
MODEL 2
REMARK VINA RESULT:    -4.263      1.455      3.034
REMARK INTER + INTRA:          -5.423
REMARK INTER:                  -5.104
REMARK INTRA:                  -0.319
REMARK UNBOUND:                -0.288
REMARK SMILES O=c1c(O)c(-c2ccc(O)c(O)c2)oc2cc(O)cc(O)c12
REMARK SMILES IDX 5 1 3 2 2 3 1 4 22 5 20 6 19 7 17 8 16 9 15 10 14 11 6 12
REMARK SMILES IDX 7 13 8 14 9 15 13 16 11 17 10 18 12 20 4 22 21 24 18 26
REMARK H PARENT 10 19 12 21 4 23 21 25 18 27
REMARK Flexibility Score: inf
ROOT
ATOM      1  C   UNL     1      -0.252 -17.963  16.799  1.00  0.00     0.180 A 
ATOM      2  C   UNL     1      -0.496 -17.879  18.180  1.00  0.00     0.208 A 
ATOM      3  C   UNL     1      -1.229 -18.900  18.806  1.00  0.00     0.238 A 
ATOM      4  O   UNL     1      -1.379 -18.857  20.055  1.00  0.00    -0.285 OA
ATOM      5  C   UNL     1      -1.757 -19.964  18.035  1.00  0.00     0.111 A 
ATOM      6  C   UNL     1      -2.553 -21.030  18.556  1.00  0.00     0.134 A 
ATOM      7  C   UNL     1      -2.930 -22.084  17.716  1.00  0.00     0.093 A 
ATOM      8  C   UNL     1      -2.597 -22.080  16.360  1.00  0.00     0.123 A 
ATOM      9  C   UNL     1      -1.869 -21.018  15.830  1.00  0.00     0.094 A 
ATOM     10  C   UNL     1      -1.444 -19.970  16.650  1.00  0.00     0.146 A 
ATOM     11  O   UNL     1      -0.732 -18.990  16.107  1.00  0.00    -0.452 OA
ENDROOT
BRANCH   1  12
ATOM     12  C   UNL     1       0.524 -16.933  16.071  1.00  0.00     0.025 A 
ATOM     13  C   UNL     1       1.929 -16.951  16.056  1.00  0.00     0.016 A 
ATOM     14  C   UNL     1       2.640 -15.982  15.342  1.00  0.00     0.051 A 
ATOM     15  C   UNL     1       1.959 -14.993  14.621  1.00  0.00     0.157 A 
ATOM     16  C   UNL     1      -0.155 -15.953  15.330  1.00  0.00     0.062 A 
ATOM     17  C   UNL     1       0.553 -14.982  14.613  1.00  0.00     0.158 A 
BRANCH  15  18
ATOM     18  O   UNL     1       2.670 -14.027  13.911  1.00  0.00    -0.504 OA
ATOM     19  H   UNL     1       2.357 -13.065  13.866  1.00  0.00     0.293 HD
ENDBRANCH  15  18
BRANCH  17  20
ATOM     20  O   UNL     1      -0.155 -14.014  13.900  1.00  0.00    -0.504 OA
ATOM     21  H   UNL     1      -0.621 -13.242  14.359  1.00  0.00     0.293 HD
ENDBRANCH  17  20
ENDBRANCH   1  12
BRANCH   2  22
ATOM     22  O   UNL     1      -0.032 -16.781  18.911  1.00  0.00    -0.502 OA
ATOM     23  H   UNL     1       0.773 -16.237  18.623  1.00  0.00     0.293 HD
ENDBRANCH   2  22
BRANCH   6  24
ATOM     24  O   UNL     1      -3.016 -21.087  19.874  1.00  0.00    -0.507 OA
ATOM     25  H   UNL     1      -3.257 -21.933  20.366  1.00  0.00     0.293 HD
ENDBRANCH   6  24
BRANCH   8  26
ATOM     26  O   UNL     1      -2.992 -23.125  15.527  1.00  0.00    -0.508 OA
ATOM     27  H   UNL     1      -2.610 -23.232  14.594  1.00  0.00     0.293 HD
ENDBRANCH   8  26
TORSDOF 6
ENDMDL
MODEL 3
REMARK VINA RESULT:    -4.252      6.721      9.517
REMARK INTER + INTRA:          -5.410
REMARK INTER:                  -5.129
REMARK INTRA:                  -0.281
REMARK UNBOUND:                -0.288
REMARK SMILES O=c1c(O)c(-c2ccc(O)c(O)c2)oc2cc(O)cc(O)c12
REMARK SMILES IDX 5 1 3 2 2 3 1 4 22 5 20 6 19 7 17 8 16 9 15 10 14 11 6 12
REMARK SMILES IDX 7 13 8 14 9 15 13 16 11 17 10 18 12 20 4 22 21 24 18 26
REMARK H PARENT 10 19 12 21 4 23 21 25 18 27
REMARK Flexibility Score: inf
ROOT
ATOM      1  C   UNL     1       6.379 -21.047  15.970  1.00  0.00     0.180 A 
ATOM      2  C   UNL     1       7.361 -21.317  15.003  1.00  0.00     0.208 A 
ATOM      3  C   UNL     1       8.652 -20.793  15.178  1.00  0.00     0.238 A 
ATOM      4  O   UNL     1       9.547 -21.102  14.348  1.00  0.00    -0.285 OA
ATOM      5  C   UNL     1       8.930 -19.958  16.288  1.00  0.00     0.111 A 
ATOM      6  C   UNL     1      10.190 -19.335  16.542  1.00  0.00     0.134 A 
ATOM      7  C   UNL     1      10.379 -18.617  17.728  1.00  0.00     0.093 A 
ATOM      8  C   UNL     1       9.335 -18.443  18.640  1.00  0.00     0.123 A 
ATOM      9  C   UNL     1       8.086 -19.000  18.375  1.00  0.00     0.094 A 
ATOM     10  C   UNL     1       7.877 -19.756  17.219  1.00  0.00     0.146 A 
ATOM     11  O   UNL     1       6.677 -20.287  17.018  1.00  0.00    -0.452 OA
ENDROOT
BRANCH   1  12
ATOM     12  C   UNL     1       5.000 -21.575  15.863  1.00  0.00     0.025 A 
ATOM     13  C   UNL     1       4.569 -22.659  16.648  1.00  0.00     0.016 A 
ATOM     14  C   UNL     1       3.255 -23.125  16.547  1.00  0.00     0.051 A 
ATOM     15  C   UNL     1       2.350 -22.508  15.673  1.00  0.00     0.157 A 
ATOM     16  C   UNL     1       4.084 -20.947  15.004  1.00  0.00     0.062 A 
ATOM     17  C   UNL     1       2.768 -21.410  14.900  1.00  0.00     0.158 A 
BRANCH  15  18
ATOM     18  O   UNL     1       1.041 -22.976  15.573  1.00  0.00    -0.504 OA
ATOM     19  H   UNL     1       0.617 -23.526  16.311  1.00  0.00     0.293 HD
ENDBRANCH  15  18
BRANCH  17  20
ATOM     20  O   UNL     1       1.890 -20.770  14.026  1.00  0.00    -0.504 OA
ATOM     21  H   UNL     1       1.575 -21.203  13.166  1.00  0.00     0.293 HD
ENDBRANCH  17  20
ENDBRANCH   1  12
BRANCH   2  22
ATOM     22  O   UNL     1       7.047 -22.080  13.875  1.00  0.00    -0.502 OA
ATOM     23  H   UNL     1       7.642 -22.830  13.542  1.00  0.00     0.293 HD
ENDBRANCH   2  22
BRANCH   6  24
ATOM     24  O   UNL     1      11.272 -19.370  15.657  1.00  0.00    -0.507 OA
ATOM     25  H   UNL     1      11.272 -19.833  14.762  1.00  0.00     0.293 HD
ENDBRANCH   6  24
BRANCH   8  26
ATOM     26  O   UNL     1       9.526 -17.712  19.810  1.00  0.00    -0.508 OA
ATOM     27  H   UNL     1       9.643 -18.169  20.707  1.00  0.00     0.293 HD
ENDBRANCH   8  26
TORSDOF 6
ENDMDL
MODEL 4
REMARK VINA RESULT:    -4.030      5.479      7.123
REMARK INTER + INTRA:          -5.143
REMARK INTER:                  -4.830
REMARK INTRA:                  -0.313
REMARK UNBOUND:                -0.288
REMARK SMILES O=c1c(O)c(-c2ccc(O)c(O)c2)oc2cc(O)cc(O)c12
REMARK SMILES IDX 5 1 3 2 2 3 1 4 22 5 20 6 19 7 17 8 16 9 15 10 14 11 6 12
REMARK SMILES IDX 7 13 8 14 9 15 13 16 11 17 10 18 12 20 4 22 21 24 18 26
REMARK H PARENT 10 19 12 21 4 23 21 25 18 27
REMARK Flexibility Score: inf
ROOT
ATOM      1  C   UNL     1       5.468 -20.449  15.016  1.00  0.00     0.180 A 
ATOM      2  C   UNL     1       4.949 -21.754  15.053  1.00  0.00     0.208 A 
ATOM      3  C   UNL     1       3.575 -21.947  14.842  1.00  0.00     0.238 A 
ATOM      4  O   UNL     1       3.130 -23.125  14.800  1.00  0.00    -0.285 OA
ATOM      5  C   UNL     1       2.725 -20.830  14.653  1.00  0.00     0.111 A 
ATOM      6  C   UNL     1       1.311 -20.904  14.475  1.00  0.00     0.134 A 
ATOM      7  C   UNL     1       0.588 -19.739  14.191  1.00  0.00     0.093 A 
ATOM      8  C   UNL     1       1.219 -18.494  14.142  1.00  0.00     0.123 A 
ATOM      9  C   UNL     1       2.589 -18.403  14.369  1.00  0.00     0.094 A 
ATOM     10  C   UNL     1       3.344 -19.552  14.617  1.00  0.00     0.146 A 
ATOM     11  O   UNL     1       4.653 -19.423  14.805  1.00  0.00    -0.452 OA
ENDROOT
BRANCH   1  12
ATOM     12  C   UNL     1       6.908 -20.166  15.215  1.00  0.00     0.025 A 
ATOM     13  C   UNL     1       7.769 -19.956  14.125  1.00  0.00     0.016 A 
ATOM     14  C   UNL     1       9.120 -19.667  14.338  1.00  0.00     0.051 A 
ATOM     15  C   UNL     1       9.625 -19.568  15.641  1.00  0.00     0.157 A 
ATOM     16  C   UNL     1       7.413 -20.046  16.519  1.00  0.00     0.062 A 
ATOM     17  C   UNL     1       8.765 -19.756  16.737  1.00  0.00     0.158 A 
BRANCH  15  18
ATOM     18  O   UNL     1      10.973 -19.281  15.851  1.00  0.00    -0.504 OA
ATOM     19  H   UNL     1      11.281 -18.734  16.646  1.00  0.00     0.293 HD
ENDBRANCH  15  18
BRANCH  17  20
ATOM     20  O   UNL     1       9.236 -19.658  18.047  1.00  0.00    -0.504 OA
ATOM     21  H   UNL     1       8.991 -20.336  18.758  1.00  0.00     0.293 HD
ENDBRANCH  17  20
ENDBRANCH   1  12
BRANCH   2  22
ATOM     22  O   UNL     1       5.791 -22.839  15.316  1.00  0.00    -0.502 OA
ATOM     23  H   UNL     1       5.458 -23.694  15.745  1.00  0.00     0.293 HD
ENDBRANCH   2  22
BRANCH   6  24
ATOM     24  O   UNL     1       0.568 -22.084  14.591  1.00  0.00    -0.507 OA
ATOM     25  H   UNL     1       0.504 -22.647  15.424  1.00  0.00     0.293 HD
ENDBRANCH   6  24
BRANCH   8  26
ATOM     26  O   UNL     1       0.489 -17.337  13.876  1.00  0.00    -0.508 OA
ATOM     27  H   UNL     1      -0.356 -17.114  14.389  1.00  0.00     0.293 HD
ENDBRANCH   8  26
TORSDOF 6
ENDMDL
MODEL 5
REMARK VINA RESULT:    -3.984      2.158      3.000
REMARK INTER + INTRA:          -5.087
REMARK INTER:                  -5.573
REMARK INTRA:                   0.486
REMARK UNBOUND:                -0.288
REMARK SMILES O=c1c(O)c(-c2ccc(O)c(O)c2)oc2cc(O)cc(O)c12
REMARK SMILES IDX 5 1 3 2 2 3 1 4 22 5 20 6 19 7 17 8 16 9 15 10 14 11 6 12
REMARK SMILES IDX 7 13 8 14 9 15 13 16 11 17 10 18 12 20 4 22 21 24 18 26
REMARK H PARENT 10 19 12 21 4 23 21 25 18 27
REMARK Flexibility Score: inf
ROOT
ATOM      1  C   UNL     1      -0.112 -18.637  16.766  1.00  0.00     0.180 A 
ATOM      2  C   UNL     1      -0.504 -18.872  15.438  1.00  0.00     0.208 A 
ATOM      3  C   UNL     1      -1.373 -19.941  15.163  1.00  0.00     0.238 A 
ATOM      4  O   UNL     1      -1.780 -20.100  13.982  1.00  0.00    -0.285 OA
ATOM      5  C   UNL     1      -1.793 -20.796  16.210  1.00  0.00     0.111 A 
ATOM      6  C   UNL     1      -2.636 -21.937  16.041  1.00  0.00     0.134 A 
ATOM      7  C   UNL     1      -3.072 -22.646  17.166  1.00  0.00     0.093 A 
ATOM      8  C   UNL     1      -2.645 -22.297  18.449  1.00  0.00     0.123 A 
ATOM      9  C   UNL     1      -1.779 -21.221  18.620  1.00  0.00     0.094 A 
ATOM     10  C   UNL     1      -1.356 -20.469  17.521  1.00  0.00     0.146 A 
ATOM     11  O   UNL     1      -0.548 -19.436  17.732  1.00  0.00    -0.452 OA
ENDROOT
BRANCH   1  12
ATOM     12  C   UNL     1       0.790 -17.523  17.137  1.00  0.00     0.025 A 
ATOM     13  C   UNL     1       0.950 -17.127  18.476  1.00  0.00     0.016 A 
ATOM     14  C   UNL     1       1.825 -16.087  18.804  1.00  0.00     0.051 A 
ATOM     15  C   UNL     1       2.562 -15.439  17.804  1.00  0.00     0.157 A 
ATOM     16  C   UNL     1       1.545 -16.885  16.140  1.00  0.00     0.062 A 
ATOM     17  C   UNL     1       2.423 -15.844  16.465  1.00  0.00     0.158 A 
BRANCH  15  18
ATOM     18  O   UNL     1       3.432 -14.402  18.135  1.00  0.00    -0.504 OA
ATOM     19  H   UNL     1       3.451 -14.002  19.066  1.00  0.00     0.293 HD
ENDBRANCH  15  18
BRANCH  17  20
ATOM     20  O   UNL     1       3.147 -15.224  15.447  1.00  0.00    -0.504 OA
ATOM     21  H   UNL     1       2.728 -14.990  14.555  1.00  0.00     0.293 HD
ENDBRANCH  17  20
ENDBRANCH   1  12
BRANCH   2  22
ATOM     22  O   UNL     1      -0.018 -18.064  14.407  1.00  0.00    -0.502 OA
ATOM     23  H   UNL     1       0.527 -17.227  14.582  1.00  0.00     0.293 HD
ENDBRANCH   2  22
BRANCH   6  24
ATOM     24  O   UNL     1      -3.050 -22.425  14.797  1.00  0.00    -0.507 OA
ATOM     25  H   UNL     1      -3.477 -23.324  14.643  1.00  0.00     0.293 HD
ENDBRANCH   6  24
BRANCH   8  26
ATOM     26  O   UNL     1      -3.070 -23.020  19.562  1.00  0.00    -0.508 OA
ATOM     27  H   UNL     1      -3.039 -24.033  19.578  1.00  0.00     0.293 HD
ENDBRANCH   8  26
TORSDOF 6
ENDMDL
MODEL 6
REMARK VINA RESULT:    -3.937     14.885     18.106
REMARK INTER + INTRA:          -5.030
REMARK INTER:                  -4.713
REMARK INTRA:                  -0.317
REMARK UNBOUND:                -0.288
REMARK SMILES O=c1c(O)c(-c2ccc(O)c(O)c2)oc2cc(O)cc(O)c12
REMARK SMILES IDX 5 1 3 2 2 3 1 4 22 5 20 6 19 7 17 8 16 9 15 10 14 11 6 12
REMARK SMILES IDX 7 13 8 14 9 15 13 16 11 17 10 18 12 20 4 22 21 24 18 26
REMARK H PARENT 10 19 12 21 4 23 21 25 18 27
REMARK Flexibility Score: inf
ROOT
ATOM      1  C   UNL     1      10.910  -5.033  15.237  1.00  0.00     0.180 A 
ATOM      2  C   UNL     1      11.336  -6.166  14.524  1.00  0.00     0.208 A 
ATOM      3  C   UNL     1      12.710  -6.449  14.451  1.00  0.00     0.238 A 
ATOM      4  O   UNL     1      13.079  -7.506  13.875  1.00  0.00    -0.285 OA
ATOM      5  C   UNL     1      13.645  -5.565  15.042  1.00  0.00     0.111 A 
ATOM      6  C   UNL     1      15.063  -5.727  14.991  1.00  0.00     0.134 A 
ATOM      7  C   UNL     1      15.885  -4.846  15.704  1.00  0.00     0.093 A 
ATOM      8  C   UNL     1      15.345  -3.770  16.413  1.00  0.00     0.123 A 
ATOM      9  C   UNL     1      13.967  -3.571  16.424  1.00  0.00     0.094 A 
ATOM     10  C   UNL     1      13.117  -4.455  15.754  1.00  0.00     0.146 A 
ATOM     11  O   UNL     1      11.808  -4.240  15.810  1.00  0.00    -0.452 OA
ENDROOT
BRANCH   1  12
ATOM     12  C   UNL     1       9.479  -4.677  15.372  1.00  0.00     0.025 A 
ATOM     13  C   UNL     1       8.855  -3.804  14.464  1.00  0.00     0.016 A 
ATOM     14  C   UNL     1       7.496  -3.502  14.597  1.00  0.00     0.051 A 
ATOM     15  C   UNL     1       6.741  -4.077  15.627  1.00  0.00     0.157 A 
ATOM     16  C   UNL     1       8.714  -5.268  16.389  1.00  0.00     0.062 A 
ATOM     17  C   UNL     1       7.353  -4.968  16.525  1.00  0.00     0.158 A 
BRANCH  15  18
ATOM     18  O   UNL     1       5.387  -3.772  15.758  1.00  0.00    -0.504 OA
ATOM     19  H   UNL     1       4.694  -4.151  15.122  1.00  0.00     0.293 HD
ENDBRANCH  15  18
BRANCH  17  20
ATOM     20  O   UNL     1       6.627  -5.563  17.557  1.00  0.00    -0.504 OA
ATOM     21  H   UNL     1       6.646  -5.204  18.504  1.00  0.00     0.293 HD
ENDBRANCH  17  20
ENDBRANCH   1  12
BRANCH   2  22
ATOM     22  O   UNL     1      10.403  -6.985  13.882  1.00  0.00    -0.502 OA
ATOM     23  H   UNL     1       9.413  -6.770  13.862  1.00  0.00     0.293 HD
ENDBRANCH   2  22
BRANCH   6  24
ATOM     24  O   UNL     1      15.710  -6.713  14.241  1.00  0.00    -0.507 OA
ATOM     25  H   UNL     1      16.332  -7.411  14.618  1.00  0.00     0.293 HD
ENDBRANCH   6  24
BRANCH   8  26
ATOM     26  O   UNL     1      16.171  -2.887  17.105  1.00  0.00    -0.508 OA
ATOM     27  H   UNL     1      16.102  -1.885  16.975  1.00  0.00     0.293 HD
ENDBRANCH   8  26
TORSDOF 6
ENDMDL
MODEL 7
REMARK VINA RESULT:    -3.817      5.124      7.069
REMARK INTER + INTRA:          -4.886
REMARK INTER:                  -4.630
REMARK INTRA:                  -0.255
REMARK UNBOUND:                -0.288
REMARK SMILES O=c1c(O)c(-c2ccc(O)c(O)c2)oc2cc(O)cc(O)c12
REMARK SMILES IDX 5 1 3 2 2 3 1 4 22 5 20 6 19 7 17 8 16 9 15 10 14 11 6 12
REMARK SMILES IDX 7 13 8 14 9 15 13 16 11 17 10 18 12 20 4 22 21 24 18 26
REMARK H PARENT 10 19 12 21 4 23 21 25 18 27
REMARK Flexibility Score: inf
ROOT
ATOM      1  C   UNL     1       4.819 -20.034  14.865  1.00  0.00     0.180 A 
ATOM      2  C   UNL     1       3.745 -20.932  14.986  1.00  0.00     0.208 A 
ATOM      3  C   UNL     1       2.432 -20.441  14.900  1.00  0.00     0.238 A 
ATOM      4  O   UNL     1       1.477 -21.260  14.933  1.00  0.00    -0.285 OA
ATOM      5  C   UNL     1       2.208 -19.050  14.751  1.00  0.00     0.111 A 
ATOM      6  C   UNL     1       0.920 -18.435  14.698  1.00  0.00     0.134 A 
ATOM      7  C   UNL     1       0.821 -17.063  14.441  1.00  0.00     0.093 A 
ATOM      8  C   UNL     1       1.963 -16.270  14.300  1.00  0.00     0.123 A 
ATOM      9  C   UNL     1       3.224 -16.851  14.405  1.00  0.00     0.094 A 
ATOM     10  C   UNL     1       3.356 -18.225  14.622  1.00  0.00     0.146 A 
ATOM     11  O   UNL     1       4.578 -18.740  14.693  1.00  0.00    -0.452 OA
ENDROOT
BRANCH   1  12
ATOM     12  C   UNL     1       6.230 -20.478  14.931  1.00  0.00     0.025 A 
ATOM     13  C   UNL     1       6.821 -21.193  13.876  1.00  0.00     0.016 A 
ATOM     14  C   UNL     1       8.162 -21.581  13.950  1.00  0.00     0.051 A 
ATOM     15  C   UNL     1       8.934 -21.249  15.071  1.00  0.00     0.157 A 
ATOM     16  C   UNL     1       7.012 -20.129  16.043  1.00  0.00     0.062 A 
ATOM     17  C   UNL     1       8.355 -20.515  16.122  1.00  0.00     0.158 A 
BRANCH  15  18
ATOM     18  O   UNL     1      10.270 -21.638  15.144  1.00  0.00    -0.504 OA
ATOM     19  H   UNL     1      10.844 -21.418  15.950  1.00  0.00     0.293 HD
ENDBRANCH  15  18
BRANCH  17  20
ATOM     20  O   UNL     1       9.098 -20.163  17.249  1.00  0.00    -0.504 OA
ATOM     21  H   UNL     1       9.433 -20.853  17.909  1.00  0.00     0.293 HD
ENDBRANCH  17  20
ENDBRANCH   1  12
BRANCH   2  22
ATOM     22  O   UNL     1       3.985 -22.291  15.209  1.00  0.00    -0.502 OA
ATOM     23  H   UNL     1       4.921 -22.679  15.247  1.00  0.00     0.293 HD
ENDBRANCH   2  22
BRANCH   6  24
ATOM     24  O   UNL     1      -0.282 -19.117  14.913  1.00  0.00    -0.507 OA
ATOM     25  H   UNL     1      -0.766 -19.667  14.222  1.00  0.00     0.293 HD
ENDBRANCH   6  24
BRANCH   8  26
ATOM     26  O   UNL     1       1.855 -14.902  14.063  1.00  0.00    -0.508 OA
ATOM     27  H   UNL     1       0.956 -14.433  14.069  1.00  0.00     0.293 HD
ENDBRANCH   8  26
TORSDOF 6
ENDMDL
MODEL 8
REMARK VINA RESULT:    -3.787     14.505     17.784
REMARK INTER + INTRA:          -4.850
REMARK INTER:                  -4.519
REMARK INTRA:                  -0.331
REMARK UNBOUND:                -0.288
REMARK SMILES O=c1c(O)c(-c2ccc(O)c(O)c2)oc2cc(O)cc(O)c12
REMARK SMILES IDX 5 1 3 2 2 3 1 4 22 5 20 6 19 7 17 8 16 9 15 10 14 11 6 12
REMARK SMILES IDX 7 13 8 14 9 15 13 16 11 17 10 18 12 20 4 22 21 24 18 26
REMARK H PARENT 10 19 12 21 4 23 21 25 18 27
REMARK Flexibility Score: inf
ROOT
ATOM      1  C   UNL     1      10.800  -5.129  15.374  1.00  0.00     0.180 A 
ATOM      2  C   UNL     1      11.654  -4.084  15.765  1.00  0.00     0.208 A 
ATOM      3  C   UNL     1      13.043  -4.281  15.707  1.00  0.00     0.238 A 
ATOM      4  O   UNL     1      13.802  -3.316  15.986  1.00  0.00    -0.285 OA
ATOM      5  C   UNL     1      13.562  -5.539  15.314  1.00  0.00     0.111 A 
ATOM      6  C   UNL     1      14.951  -5.866  15.263  1.00  0.00     0.134 A 
ATOM      7  C   UNL     1      15.350  -7.109  14.757  1.00  0.00     0.093 A 
ATOM      8  C   UNL     1      14.408  -8.062  14.361  1.00  0.00     0.123 A 
ATOM      9  C   UNL     1      13.050  -7.774  14.459  1.00  0.00     0.094 A 
ATOM     10  C   UNL     1      12.621  -6.528  14.924  1.00  0.00     0.146 A 
ATOM     11  O   UNL     1      11.316  -6.287  14.979  1.00  0.00    -0.452 OA
ENDROOT
BRANCH   1  12
ATOM     12  C   UNL     1       9.326  -4.993  15.394  1.00  0.00     0.025 A 
ATOM     13  C   UNL     1       8.627  -4.452  14.300  1.00  0.00     0.016 A 
ATOM     14  C   UNL     1       7.233  -4.355  14.332  1.00  0.00     0.051 A 
ATOM     15  C   UNL     1       6.518  -4.810  15.447  1.00  0.00     0.157 A 
ATOM     16  C   UNL     1       8.604  -5.466  16.500  1.00  0.00     0.062 A 
ATOM     17  C   UNL     1       7.208  -5.372  16.535  1.00  0.00     0.158 A 
BRANCH  15  18
ATOM     18  O   UNL     1       5.127  -4.711  15.477  1.00  0.00    -0.504 OA
ATOM     19  H   UNL     1       4.546  -5.211  14.815  1.00  0.00     0.293 HD
ENDBRANCH  15  18
BRANCH  17  20
ATOM     20  O   UNL     1       6.524  -5.840  17.658  1.00  0.00    -0.504 OA
ATOM     21  H   UNL     1       6.071  -5.213  18.311  1.00  0.00     0.293 HD
ENDBRANCH  17  20
ENDBRANCH   1  12
BRANCH   2  22
ATOM     22  O   UNL     1      11.123  -2.875  16.222  1.00  0.00    -0.502 OA
ATOM     23  H   UNL     1      10.294  -2.457  15.816  1.00  0.00     0.293 HD
ENDBRANCH   2  22
BRANCH   6  24
ATOM     24  O   UNL     1      15.970  -5.023  15.716  1.00  0.00    -0.507 OA
ATOM     25  H   UNL     1      16.027  -4.631  16.642  1.00  0.00     0.293 HD
ENDBRANCH   6  24
BRANCH   8  26
ATOM     26  O   UNL     1      14.813  -9.303  13.875  1.00  0.00    -0.508 OA
ATOM     27  H   UNL     1      14.310 -10.152  14.107  1.00  0.00     0.293 HD
ENDBRANCH   8  26
TORSDOF 6
ENDMDL
