MODEL 1
REMARK VINA RESULT:    -4.451      0.000      0.000
REMARK INTER + INTRA:          -5.615
REMARK INTER:                  -5.231
REMARK INTRA:                  -0.384
REMARK UNBOUND:                -0.384
REMARK SMILES C=C[C@@]1(C)CC[C@H](C(=C)C)C[C@@H]1C(=C)C
REMARK SMILES IDX 7 1 6 2 5 3 3 4 12 5 11 6 4 7 8 8 10 9 9 10 13 11 14 12
REMARK SMILES IDX 15 13 2 14 1 15
REMARK H PARENT
REMARK Flexibility Score: inf
ROOT
ATOM      1  C   UNL     1      23.110   6.855 -21.564  1.00  0.00     0.015 C 
ATOM      2  C   UNL     1      24.440   7.315 -22.184  1.00  0.00     0.009 C 
ATOM      3  C   UNL     1      24.490   6.992 -23.685  1.00  0.00     0.012 C 
ATOM      4  C   UNL     1      24.283   5.479 -23.993  1.00  0.00    -0.008 C 
ATOM      5  C   UNL     1      22.951   5.000 -23.301  1.00  0.00     0.024 C 
ATOM      6  C   UNL     1      22.891   5.349 -21.794  1.00  0.00     0.017 C 
ATOM      7  C   UNL     1      25.518   4.668 -23.519  1.00  0.00     0.016 C 
ENDROOT
BRANCH   1   8
ATOM      8  C   UNL     1      23.044   7.201 -20.083  1.00  0.00    -0.077 C 
ATOM      9  C   UNL     1      22.797   8.615 -19.616  1.00  0.00     0.039 C 
ATOM     10  C   UNL     1      23.211   6.241 -19.158  1.00  0.00     0.008 C 
ENDBRANCH   1   8
BRANCH   5  11
ATOM     11  C   UNL     1      22.604   3.527 -23.546  1.00  0.00    -0.077 C 
ATOM     12  C   UNL     1      23.004   2.549 -22.714  1.00  0.00     0.008 C 
ATOM     13  C   UNL     1      21.738   3.143 -24.721  1.00  0.00     0.039 C 
ENDBRANCH   5  11
BRANCH   4  14
ATOM     14  C   UNL     1      24.143   5.317 -25.507  1.00  0.00    -0.028 C 
ATOM     15  C   UNL     1      24.021   6.354 -26.349  1.00  0.00     0.004 C 
ENDBRANCH   4  14
TORSDOF 3
ENDMDL
MODEL 2
REMARK VINA RESULT:    -4.362      1.709      5.409
REMARK INTER + INTRA:          -5.511
REMARK INTER:                  -5.285
REMARK INTRA:                  -0.226
REMARK UNBOUND:                -0.384
REMARK SMILES C=C[C@@]1(C)CC[C@H](C(=C)C)C[C@@H]1C(=C)C
REMARK SMILES IDX 7 1 6 2 5 3 3 4 12 5 11 6 4 7 8 8 10 9 9 10 13 11 14 12
REMARK SMILES IDX 15 13 2 14 1 15
REMARK H PARENT
REMARK Flexibility Score: inf
ROOT
ATOM      1  C   UNL     1      20.952   3.427 -25.305  1.00  0.00     0.015 C 
ATOM      2  C   UNL     1      21.095   3.009 -23.833  1.00  0.00     0.009 C 
ATOM      3  C   UNL     1      21.954   4.018 -23.054  1.00  0.00     0.012 C 
ATOM      4  C   UNL     1      23.373   4.215 -23.666  1.00  0.00    -0.008 C 
ATOM      5  C   UNL     1      23.219   4.580 -25.191  1.00  0.00     0.024 C 
ATOM      6  C   UNL     1      22.333   3.577 -25.969  1.00  0.00     0.017 C 
ATOM      7  C   UNL     1      24.225   2.938 -23.449  1.00  0.00     0.016 C 
ENDROOT
BRANCH   1   8
ATOM      8  C   UNL     1      20.076   2.446 -26.073  1.00  0.00    -0.077 C 
ATOM      9  C   UNL     1      18.605   2.704 -26.285  1.00  0.00     0.039 C 
ATOM     10  C   UNL     1      20.608   1.319 -26.576  1.00  0.00     0.008 C 
ENDBRANCH   1   8
BRANCH   5  11
ATOM     11  C   UNL     1      24.545   4.833 -25.918  1.00  0.00    -0.077 C 
ATOM     12  C   UNL     1      25.456   3.861 -26.104  1.00  0.00     0.008 C 
ATOM     13  C   UNL     1      24.834   6.193 -26.505  1.00  0.00     0.039 C 
ENDBRANCH   5  11
BRANCH   4  14
ATOM     14  C   UNL     1      24.044   5.381 -22.941  1.00  0.00    -0.028 C 
ATOM     15  C   UNL     1      23.416   6.143 -22.033  1.00  0.00     0.004 C 
ENDBRANCH   4  14
TORSDOF 3
ENDMDL
MODEL 3
REMARK VINA RESULT:    -4.362      1.444      1.963
REMARK INTER + INTRA:          -5.511
REMARK INTER:                  -5.128
REMARK INTRA:                  -0.383
REMARK UNBOUND:                -0.384
REMARK SMILES C=C[C@@]1(C)CC[C@H](C(=C)C)C[C@@H]1C(=C)C
REMARK SMILES IDX 7 1 6 2 5 3 3 4 12 5 11 6 4 7 8 8 10 9 9 10 13 11 14 12
REMARK SMILES IDX 15 13 2 14 1 15
REMARK H PARENT
REMARK Flexibility Score: inf
ROOT
ATOM      1  C   UNL     1      23.136   5.406 -22.333  1.00  0.00     0.015 C 
ATOM      2  C   UNL     1      24.465   5.349 -23.104  1.00  0.00     0.009 C 
ATOM      3  C   UNL     1      24.221   5.194 -24.613  1.00  0.00     0.012 C 
ATOM      4  C   UNL     1      23.371   3.938 -24.971  1.00  0.00    -0.008 C 
ATOM      5  C   UNL     1      22.040   3.972 -24.129  1.00  0.00     0.024 C 
ATOM      6  C   UNL     1      22.287   4.154 -22.611  1.00  0.00     0.017 C 
ATOM      7  C   UNL     1      24.197   2.650 -24.716  1.00  0.00     0.016 C 
ENDROOT
BRANCH   1   8
ATOM      8  C   UNL     1      23.373   5.590 -20.840  1.00  0.00    -0.077 C 
ATOM      9  C   UNL     1      23.390   6.961 -20.209  1.00  0.00     0.039 C 
ATOM     10  C   UNL     1      23.578   4.521 -20.054  1.00  0.00     0.008 C 
ENDBRANCH   1   8
BRANCH   5  11
ATOM     11  C   UNL     1      21.087   2.802 -24.403  1.00  0.00    -0.077 C 
ATOM     12  C   UNL     1      21.142   1.656 -23.702  1.00  0.00     0.008 C 
ATOM     13  C   UNL     1      20.007   2.940 -25.448  1.00  0.00     0.039 C 
ENDBRANCH   5  11
BRANCH   4  14
ATOM     14  C   UNL     1      23.021   4.009 -26.457  1.00  0.00    -0.028 C 
ATOM     15  C   UNL     1      23.220   5.102 -27.208  1.00  0.00     0.004 C 
ENDBRANCH   4  14
TORSDOF 3
ENDMDL
MODEL 4
REMARK VINA RESULT:    -4.212     13.717     15.977
REMARK INTER + INTRA:          -5.335
REMARK INTER:                  -5.022
REMARK INTRA:                  -0.312
REMARK UNBOUND:                -0.384
REMARK SMILES C=C[C@@]1(C)CC[C@H](C(=C)C)C[C@@H]1C(=C)C
REMARK SMILES IDX 7 1 6 2 5 3 3 4 12 5 11 6 4 7 8 8 10 9 9 10 13 11 14 12
REMARK SMILES IDX 15 13 2 14 1 15
REMARK H PARENT
REMARK Flexibility Score: inf
ROOT
ATOM      1  C   UNL     1      27.754  -7.289 -28.853  1.00  0.00     0.015 C 
ATOM      2  C   UNL     1      27.649  -6.939 -30.347  1.00  0.00     0.009 C 
ATOM      3  C   UNL     1      28.726  -7.672 -31.162  1.00  0.00     0.012 C 
ATOM      4  C   UNL     1      30.174  -7.374 -30.671  1.00  0.00    -0.008 C 
ATOM      5  C   UNL     1      30.257  -7.673 -29.127  1.00  0.00     0.024 C 
ATOM      6  C   UNL     1      29.155  -6.955 -28.310  1.00  0.00     0.017 C 
ATOM      7  C   UNL     1      30.556  -5.908 -31.008  1.00  0.00     0.016 C 
ENDROOT
BRANCH   1   8
ATOM      8  C   UNL     1      26.669  -6.589 -28.046  1.00  0.00    -0.077 C 
ATOM      9  C   UNL     1      26.079  -7.220 -26.809  1.00  0.00     0.039 C 
ATOM     10  C   UNL     1      26.213  -5.386 -28.432  1.00  0.00     0.008 C 
ENDBRANCH   1   8
BRANCH   5  11
ATOM     11  C   UNL     1      31.643  -7.449 -28.511  1.00  0.00    -0.077 C 
ATOM     12  C   UNL     1      32.073  -6.230 -28.141  1.00  0.00     0.008 C 
ATOM     13  C   UNL     1      32.549  -8.627 -28.248  1.00  0.00     0.039 C 
ENDBRANCH   5  11
BRANCH   4  14
ATOM     14  C   UNL     1      31.129  -8.310 -31.411  1.00  0.00    -0.028 C 
ATOM     15  C   UNL     1      32.313  -7.916 -31.902  1.00  0.00     0.004 C 
ENDBRANCH   4  14
TORSDOF 3
ENDMDL
MODEL 5
REMARK VINA RESULT:    -4.080     14.056     16.300
REMARK INTER + INTRA:          -5.180
REMARK INTER:                  -4.745
REMARK INTRA:                  -0.435
REMARK UNBOUND:                -0.384
REMARK SMILES C=C[C@@]1(C)CC[C@H](C(=C)C)C[C@@H]1C(=C)C
REMARK SMILES IDX 7 1 6 2 5 3 3 4 12 5 11 6 4 7 8 8 10 9 9 10 13 11 14 12
REMARK SMILES IDX 15 13 2 14 1 15
REMARK H PARENT
REMARK Flexibility Score: inf
ROOT
ATOM      1  C   UNL     1      32.004  -7.218 -28.887  1.00  0.00     0.015 C 
ATOM      2  C   UNL     1      32.252  -5.734 -29.205  1.00  0.00     0.009 C 
ATOM      3  C   UNL     1      30.939  -4.936 -29.168  1.00  0.00     0.012 C 
ATOM      4  C   UNL     1      29.857  -5.491 -30.142  1.00  0.00    -0.008 C 
ATOM      5  C   UNL     1      29.656  -7.026 -29.853  1.00  0.00     0.024 C 
ATOM      6  C   UNL     1      30.982  -7.825 -29.865  1.00  0.00     0.017 C 
ATOM      7  C   UNL     1      30.277  -5.218 -31.611  1.00  0.00     0.016 C 
ENDROOT
BRANCH   1   8
ATOM      8  C   UNL     1      33.307  -8.007 -28.893  1.00  0.00    -0.077 C 
ATOM      9  C   UNL     1      33.903  -8.549 -27.618  1.00  0.00     0.039 C 
ATOM     10  C   UNL     1      33.954  -8.230 -30.049  1.00  0.00     0.008 C 
ENDBRANCH   1   8
BRANCH   5  11
ATOM     11  C   UNL     1      28.591  -7.701 -30.726  1.00  0.00    -0.077 C 
ATOM     12  C   UNL     1      28.872  -8.197 -31.943  1.00  0.00     0.008 C 
ATOM     13  C   UNL     1      27.187  -7.878 -30.198  1.00  0.00     0.039 C 
ENDBRANCH   5  11
BRANCH   4  14
ATOM     14  C   UNL     1      28.546  -4.756 -29.863  1.00  0.00    -0.028 C 
ATOM     15  C   UNL     1      28.110  -4.474 -28.627  1.00  0.00     0.004 C 
ENDBRANCH   4  14
TORSDOF 3
ENDMDL
MODEL 6
REMARK VINA RESULT:    -4.039     15.436     17.393
REMARK INTER + INTRA:          -5.132
REMARK INTER:                  -4.741
REMARK INTRA:                  -0.391
REMARK UNBOUND:                -0.384
REMARK SMILES C=C[C@@]1(C)CC[C@H](C(=C)C)C[C@@H]1C(=C)C
REMARK SMILES IDX 7 1 6 2 5 3 3 4 12 5 11 6 4 7 8 8 10 9 9 10 13 11 14 12
REMARK SMILES IDX 15 13 2 14 1 15
REMARK H PARENT
REMARK Flexibility Score: inf
ROOT
ATOM      1  C   UNL     1      31.739  -8.765 -27.905  1.00  0.00     0.015 C 
ATOM      2  C   UNL     1      30.431  -7.960 -27.822  1.00  0.00     0.009 C 
ATOM      3  C   UNL     1      29.827  -7.745 -29.219  1.00  0.00     0.012 C 
ATOM      4  C   UNL     1      30.801  -7.033 -30.205  1.00  0.00    -0.008 C 
ATOM      5  C   UNL     1      32.161  -7.827 -30.235  1.00  0.00     0.024 C 
ATOM      6  C   UNL     1      32.755  -8.066 -28.825  1.00  0.00     0.017 C 
ATOM      7  C   UNL     1      30.993  -5.552 -29.782  1.00  0.00     0.016 C 
ENDROOT
BRANCH   1   8
ATOM      8  C   UNL     1      32.325  -9.007 -26.521  1.00  0.00    -0.077 C 
ATOM      9  C   UNL     1      33.417  -8.127 -25.965  1.00  0.00     0.039 C 
ATOM     10  C   UNL     1      31.874 -10.022 -25.766  1.00  0.00     0.008 C 
ENDBRANCH   1   8
BRANCH   5  11
ATOM     11  C   UNL     1      33.210  -7.251 -31.193  1.00  0.00    -0.077 C 
ATOM     12  C   UNL     1      34.075  -6.294 -30.814  1.00  0.00     0.008 C 
ATOM     13  C   UNL     1      33.335  -7.802 -32.592  1.00  0.00     0.039 C 
ENDBRANCH   5  11
BRANCH   4  14
ATOM     14  C   UNL     1      30.175  -7.067 -31.599  1.00  0.00    -0.028 C 
ATOM     15  C   UNL     1      29.225  -7.943 -31.957  1.00  0.00     0.004 C 
ENDBRANCH   4  14
TORSDOF 3
ENDMDL
MODEL 7
REMARK VINA RESULT:    -4.021     14.618     16.733
REMARK INTER + INTRA:          -5.110
REMARK INTER:                  -4.685
REMARK INTRA:                  -0.425
REMARK UNBOUND:                -0.384
REMARK SMILES C=C[C@@]1(C)CC[C@H](C(=C)C)C[C@@H]1C(=C)C
REMARK SMILES IDX 7 1 6 2 5 3 3 4 12 5 11 6 4 7 8 8 10 9 9 10 13 11 14 12
REMARK SMILES IDX 15 13 2 14 1 15
REMARK H PARENT
REMARK Flexibility Score: inf
ROOT
ATOM      1  C   UNL     1      32.169  -7.695 -28.147  1.00  0.00     0.015 C 
ATOM      2  C   UNL     1      32.945  -8.130 -29.401  1.00  0.00     0.009 C 
ATOM      3  C   UNL     1      32.599  -7.235 -30.602  1.00  0.00     0.012 C 
ATOM      4  C   UNL     1      31.076  -7.211 -30.929  1.00  0.00    -0.008 C 
ATOM      5  C   UNL     1      30.283  -6.828 -29.623  1.00  0.00     0.024 C 
ATOM      6  C   UNL     1      30.652  -7.713 -28.408  1.00  0.00     0.017 C 
ATOM      7  C   UNL     1      30.637  -8.584 -31.503  1.00  0.00     0.016 C 
ENDROOT
BRANCH   1   8
ATOM      8  C   UNL     1      32.532  -8.560 -26.948  1.00  0.00    -0.077 C 
ATOM      9  C   UNL     1      31.894  -9.909 -26.729  1.00  0.00     0.039 C 
ATOM     10  C   UNL     1      33.435  -8.126 -26.053  1.00  0.00     0.008 C 
ENDBRANCH   1   8
BRANCH   5  11
ATOM     11  C   UNL     1      28.764  -6.738 -29.807  1.00  0.00    -0.077 C 
ATOM     12  C   UNL     1      27.969  -7.820 -29.733  1.00  0.00     0.008 C 
ATOM     13  C   UNL     1      28.109  -5.395 -30.021  1.00  0.00     0.039 C 
ENDBRANCH   5  11
BRANCH   4  14
ATOM     14  C   UNL     1      30.834  -6.138 -31.990  1.00  0.00    -0.028 C 
ATOM     15  C   UNL     1      31.321  -4.891 -31.898  1.00  0.00     0.004 C 
ENDBRANCH   4  14
TORSDOF 3
ENDMDL
MODEL 8
REMARK VINA RESULT:    -3.986     14.320     16.318
REMARK INTER + INTRA:          -5.070
REMARK INTER:                  -4.645
REMARK INTRA:                  -0.425
REMARK UNBOUND:                -0.384
REMARK SMILES C=C[C@@]1(C)CC[C@H](C(=C)C)C[C@@H]1C(=C)C
REMARK SMILES IDX 7 1 6 2 5 3 3 4 12 5 11 6 4 7 8 8 10 9 9 10 13 11 14 12
REMARK SMILES IDX 15 13 2 14 1 15
REMARK H PARENT
REMARK Flexibility Score: inf
ROOT
ATOM      1  C   UNL     1      31.000  -8.375 -27.457  1.00  0.00     0.015 C 
ATOM      2  C   UNL     1      30.520  -7.086 -26.770  1.00  0.00     0.009 C 
ATOM      3  C   UNL     1      29.212  -6.580 -27.399  1.00  0.00     0.012 C 
ATOM      4  C   UNL     1      29.328  -6.327 -28.932  1.00  0.00    -0.008 C 
ATOM      5  C   UNL     1      29.882  -7.631 -29.620  1.00  0.00     0.024 C 
ATOM      6  C   UNL     1      31.186  -8.154 -28.969  1.00  0.00     0.017 C 
ATOM      7  C   UNL     1      30.230  -5.092 -29.198  1.00  0.00     0.016 C 
ENDROOT
BRANCH   1   8
ATOM      8  C   UNL     1      32.280  -8.896 -26.816  1.00  0.00    -0.077 C 
ATOM      9  C   UNL     1      33.635  -8.583 -27.400  1.00  0.00     0.039 C 
ATOM     10  C   UNL     1      32.218  -9.655 -25.709  1.00  0.00     0.008 C 
ENDBRANCH   1   8
BRANCH   5  11
ATOM     11  C   UNL     1      30.021  -7.533 -31.144  1.00  0.00    -0.077 C 
ATOM     12  C   UNL     1      31.120  -7.028 -31.732  1.00  0.00     0.008 C 
ATOM     13  C   UNL     1      28.926  -8.069 -32.035  1.00  0.00     0.039 C 
ENDBRANCH   5  11
BRANCH   4  14
ATOM     14  C   UNL     1      27.928  -6.036 -29.473  1.00  0.00    -0.028 C 
ATOM     15  C   UNL     1      26.837  -6.716 -29.092  1.00  0.00     0.004 C 
ENDBRANCH   4  14
TORSDOF 3
ENDMDL
MODEL 9
REMARK VINA RESULT:    -3.963     14.402     16.649
REMARK INTER + INTRA:          -5.043
REMARK INTER:                  -4.649
REMARK INTRA:                  -0.394
REMARK UNBOUND:                -0.384
REMARK SMILES C=C[C@@]1(C)CC[C@H](C(=C)C)C[C@@H]1C(=C)C
REMARK SMILES IDX 7 1 6 2 5 3 3 4 12 5 11 6 4 7 8 8 10 9 9 10 13 11 14 12
REMARK SMILES IDX 15 13 2 14 1 15
REMARK H PARENT
REMARK Flexibility Score: inf
ROOT
ATOM      1  C   UNL     1      28.949  -7.530 -30.211  1.00  0.00     0.015 C 
ATOM      2  C   UNL     1      29.187  -6.448 -31.277  1.00  0.00     0.009 C 
ATOM      3  C   UNL     1      30.609  -6.543 -31.851  1.00  0.00     0.012 C 
ATOM      4  C   UNL     1      31.718  -6.436 -30.761  1.00  0.00    -0.008 C 
ATOM      5  C   UNL     1      31.430  -7.504 -29.640  1.00  0.00     0.024 C 
ATOM      6  C   UNL     1      29.989  -7.425 -29.081  1.00  0.00     0.017 C 
ATOM      7  C   UNL     1      31.769  -4.991 -30.198  1.00  0.00     0.016 C 
ENDROOT
BRANCH   1   8
ATOM      8  C   UNL     1      27.530  -7.459 -29.662  1.00  0.00    -0.077 C 
ATOM      9  C   UNL     1      26.952  -6.165 -29.144  1.00  0.00     0.039 C 
ATOM     10  C   UNL     1      26.765  -8.562 -29.627  1.00  0.00     0.008 C 
ENDBRANCH   1   8
BRANCH   5  11
ATOM     11  C   UNL     1      32.466  -7.531 -28.510  1.00  0.00    -0.077 C 
ATOM     12  C   UNL     1      32.266  -6.897 -27.341  1.00  0.00     0.008 C 
ATOM     13  C   UNL     1      33.732  -8.338 -28.668  1.00  0.00     0.039 C 
ENDBRANCH   5  11
BRANCH   4  14
ATOM     14  C   UNL     1      33.061  -6.753 -31.417  1.00  0.00    -0.028 C 
ATOM     15  C   UNL     1      33.220  -7.710 -32.343  1.00  0.00     0.004 C 
ENDBRANCH   4  14
TORSDOF 3
ENDMDL
