MODEL 1
REMARK VINA RESULT:    -4.773      0.000      0.000
REMARK INTER + INTRA:         -11.002
REMARK INTER:                  -8.679
REMARK INTRA:                  -2.322
REMARK UNBOUND:                -2.322
REMARK SMILES CCCCCCCCCCCCCC[C@H](C)C(=O)[O-]
REMARK SMILES IDX 9 1 10 2 11 3 12 4 13 5 14 6 15 7 16 8 17 9 18 10 19 11 8 12
REMARK SMILES IDX 7 13 6 14 5 15 4 16 3 17 2 18 1 19
REMARK H PARENT
REMARK Flexibility Score: inf
ROOT
ATOM      1  C   UNL     1      64.030  30.320  27.788  1.00  0.00     0.000 C 
ENDROOT
BRANCH   1   2
ATOM      2  C   UNL     1      65.544  30.195  28.012  1.00  0.00     0.000 C 
BRANCH   2   3
ATOM      3  C   UNL     1      66.297  29.737  26.753  1.00  0.00     0.000 C 
BRANCH   3   4
ATOM      4  C   UNL     1      65.354  29.467  25.566  1.00  0.00     0.000 C 
BRANCH   4   5
ATOM      5  C   UNL     1      65.772  28.234  24.748  1.00  0.00     0.001 C 
BRANCH   5   6
ATOM      6  C   UNL     1      64.865  27.016  25.002  1.00  0.00     0.009 C 
BRANCH   6   7
ATOM      7  C   UNL     1      64.143  26.554  23.719  1.00  0.00     0.032 C 
ATOM      8  C   UNL     1      63.248  25.343  24.010  1.00  0.00     0.014 C 
BRANCH   7   9
ATOM      9  C   UNL     1      65.125  26.208  22.632  1.00  0.00     0.044 C 
ATOM     10  O   UNL     1      65.221  26.938  21.612  1.00  0.00    -0.550 OA
ATOM     11  O   UNL     1      65.928  25.078  22.744  1.00  0.00    -0.550 OA
ENDBRANCH   7   9
ENDBRANCH   6   7
ENDBRANCH   5   6
ENDBRANCH   4   5
ENDBRANCH   3   4
ENDBRANCH   2   3
ENDBRANCH   1   2
BRANCH   1  12
ATOM     12  C   UNL     1      63.250  29.576  28.882  1.00  0.00     0.000 C 
BRANCH  12  13
ATOM     13  C   UNL     1      61.728  29.756  28.755  1.00  0.00    -0.000 C 
BRANCH  13  14
ATOM     14  C   UNL     1      60.964  28.425  28.865  1.00  0.00    -0.000 C 
BRANCH  14  15
ATOM     15  C   UNL     1      61.849  27.209  28.542  1.00  0.00    -0.000 C 
BRANCH  15  16
ATOM     16  C   UNL     1      61.845  26.853  27.048  1.00  0.00    -0.000 C 
BRANCH  16  17
ATOM     17  C   UNL     1      60.518  27.259  26.390  1.00  0.00    -0.000 C 
BRANCH  17  18
ATOM     18  C   UNL     1      60.714  27.909  25.013  1.00  0.00    -0.003 C 
ATOM     19  C   UNL     1      61.612  29.145  25.064  1.00  0.00     0.004 C 
ENDBRANCH  17  18
ENDBRANCH  16  17
ENDBRANCH  15  16
ENDBRANCH  14  15
ENDBRANCH  13  14
ENDBRANCH  12  13
ENDBRANCH   1  12
TORSDOF 14
ENDMDL
MODEL 2
REMARK VINA RESULT:    -4.754     12.113     14.999
REMARK INTER + INTRA:         -10.968
REMARK INTER:                  -8.826
REMARK INTRA:                  -2.142
REMARK UNBOUND:                -2.322
REMARK SMILES CCCCCCCCCCCCCC[C@H](C)C(=O)[O-]
REMARK SMILES IDX 9 1 10 2 11 3 12 4 13 5 14 6 15 7 16 8 17 9 18 10 19 11 8 12
REMARK SMILES IDX 7 13 6 14 5 15 4 16 3 17 2 18 1 19
REMARK H PARENT
REMARK Flexibility Score: inf
ROOT
ATOM      1  C   UNL     1      63.512  29.751  10.011  1.00  0.00     0.000 C 
ENDROOT
BRANCH   1   2
ATOM      2  C   UNL     1      64.024  31.194   9.887  1.00  0.00     0.000 C 
BRANCH   2   3
ATOM      3  C   UNL     1      64.129  31.908  11.244  1.00  0.00     0.000 C 
BRANCH   3   4
ATOM      4  C   UNL     1      63.257  31.248  12.328  1.00  0.00     0.000 C 
BRANCH   4   5
ATOM      5  C   UNL     1      62.042  32.109  12.713  1.00  0.00     0.001 C 
BRANCH   5   6
ATOM      6  C   UNL     1      62.195  32.767  14.097  1.00  0.00     0.009 C 
BRANCH   6   7
ATOM      7  C   UNL     1      60.832  33.004  14.780  1.00  0.00     0.032 C 
ATOM      8  C   UNL     1      61.024  33.648  16.158  1.00  0.00     0.014 C 
BRANCH   7   9
ATOM      9  C   UNL     1      60.060  31.720  14.925  1.00  0.00     0.044 C 
ATOM     10  O   UNL     1      58.914  31.611  14.416  1.00  0.00    -0.550 OA
ATOM     11  O   UNL     1      60.605  30.648  15.623  1.00  0.00    -0.550 OA
ENDBRANCH   7   9
ENDBRANCH   6   7
ENDBRANCH   5   6
ENDBRANCH   4   5
ENDBRANCH   3   4
ENDBRANCH   2   3
ENDBRANCH   1   2
BRANCH   1  12
ATOM     12  C   UNL     1      62.349  29.495   9.042  1.00  0.00     0.000 C 
BRANCH  12  13
ATOM     13  C   UNL     1      61.678  28.130   9.264  1.00  0.00    -0.000 C 
BRANCH  13  14
ATOM     14  C   UNL     1      60.157  28.245   9.465  1.00  0.00    -0.000 C 
BRANCH  14  15
ATOM     15  C   UNL     1      59.729  29.641   9.948  1.00  0.00    -0.000 C 
BRANCH  15  16
ATOM     16  C   UNL     1      59.612  29.730  11.477  1.00  0.00    -0.000 C 
BRANCH  16  17
ATOM     17  C   UNL     1      59.224  28.370  12.077  1.00  0.00    -0.000 C 
BRANCH  17  18
ATOM     18  C   UNL     1      60.041  28.022  13.330  1.00  0.00    -0.003 C 
ATOM     19  C   UNL     1      61.540  28.253  13.143  1.00  0.00     0.004 C 
ENDBRANCH  17  18
ENDBRANCH  16  17
ENDBRANCH  15  16
ENDBRANCH  14  15
ENDBRANCH  13  14
ENDBRANCH  12  13
ENDBRANCH   1  12
TORSDOF 14
ENDMDL
MODEL 3
REMARK VINA RESULT:    -4.686     11.486     14.348
REMARK INTER + INTRA:         -10.843
REMARK INTER:                  -8.766
REMARK INTRA:                  -2.077
REMARK UNBOUND:                -2.322
REMARK SMILES CCCCCCCCCCCCCC[C@H](C)C(=O)[O-]
REMARK SMILES IDX 9 1 10 2 11 3 12 4 13 5 14 6 15 7 16 8 17 9 18 10 19 11 8 12
REMARK SMILES IDX 7 13 6 14 5 15 4 16 3 17 2 18 1 19
REMARK H PARENT
REMARK Flexibility Score: inf
ROOT
ATOM      1  C   UNL     1      63.137  30.694  12.517  1.00  0.00     0.000 C 
ENDROOT
BRANCH   1   2
ATOM      2  C   UNL     1      62.435  32.051  12.673  1.00  0.00     0.000 C 
BRANCH   2   3
ATOM      3  C   UNL     1      60.902  31.932  12.687  1.00  0.00     0.000 C 
BRANCH   3   4
ATOM      4  C   UNL     1      60.255  32.763  13.809  1.00  0.00     0.000 C 
BRANCH   4   5
ATOM      5  C   UNL     1      60.070  31.960  15.108  1.00  0.00     0.001 C 
BRANCH   5   6
ATOM      6  C   UNL     1      61.296  32.038  16.035  1.00  0.00     0.009 C 
BRANCH   6   7
ATOM      7  C   UNL     1      61.759  33.492  16.264  1.00  0.00     0.032 C 
ATOM      8  C   UNL     1      63.214  33.672  15.817  1.00  0.00     0.014 C 
BRANCH   7   9
ATOM      9  C   UNL     1      61.621  33.890  17.709  1.00  0.00     0.044 C 
ATOM     10  O   UNL     1      62.242  34.891  18.151  1.00  0.00    -0.550 OA
ATOM     11  O   UNL     1      60.810  33.154  18.566  1.00  0.00    -0.550 OA
ENDBRANCH   7   9
ENDBRANCH   6   7
ENDBRANCH   5   6
ENDBRANCH   4   5
ENDBRANCH   3   4
ENDBRANCH   2   3
ENDBRANCH   1   2
BRANCH   1  12
ATOM     12  C   UNL     1      63.387  30.373  11.036  1.00  0.00     0.000 C 
BRANCH  12  13
ATOM     13  C   UNL     1      62.958  28.946  10.655  1.00  0.00    -0.000 C 
BRANCH  13  14
ATOM     14  C   UNL     1      62.299  28.878   9.267  1.00  0.00    -0.000 C 
BRANCH  14  15
ATOM     15  C   UNL     1      60.810  29.265   9.301  1.00  0.00    -0.000 C 
BRANCH  15  16
ATOM     16  C   UNL     1      59.967  28.305  10.153  1.00  0.00    -0.000 C 
BRANCH  16  17
ATOM     17  C   UNL     1      59.267  29.056  11.295  1.00  0.00    -0.000 C 
BRANCH  17  18
ATOM     18  C   UNL     1      59.183  28.226  12.585  1.00  0.00    -0.003 C 
ATOM     19  C   UNL     1      60.487  28.238  13.383  1.00  0.00     0.004 C 
ENDBRANCH  17  18
ENDBRANCH  16  17
ENDBRANCH  15  16
ENDBRANCH  14  15
ENDBRANCH  13  14
ENDBRANCH  12  13
ENDBRANCH   1  12
TORSDOF 14
ENDMDL
MODEL 4
REMARK VINA RESULT:    -4.674     11.145     13.758
REMARK INTER + INTRA:         -10.822
REMARK INTER:                  -8.494
REMARK INTRA:                  -2.328
REMARK UNBOUND:                -2.322
REMARK SMILES CCCCCCCCCCCCCC[C@H](C)C(=O)[O-]
REMARK SMILES IDX 9 1 10 2 11 3 12 4 13 5 14 6 15 7 16 8 17 9 18 10 19 11 8 12
REMARK SMILES IDX 7 13 6 14 5 15 4 16 3 17 2 18 1 19
REMARK H PARENT
REMARK Flexibility Score: inf
ROOT
ATOM      1  C   UNL     1      61.179  31.685  12.876  1.00  0.00     0.000 C 
ENDROOT
BRANCH   1   2
ATOM      2  C   UNL     1      62.659  31.445  12.542  1.00  0.00     0.000 C 
BRANCH   2   3
ATOM      3  C   UNL     1      63.544  32.665  12.848  1.00  0.00     0.000 C 
BRANCH   3   4
ATOM      4  C   UNL     1      64.027  32.692  14.309  1.00  0.00     0.000 C 
BRANCH   4   5
ATOM      5  C   UNL     1      63.063  33.451  15.237  1.00  0.00     0.001 C 
BRANCH   5   6
ATOM      6  C   UNL     1      62.541  32.578  16.393  1.00  0.00     0.009 C 
BRANCH   6   7
ATOM      7  C   UNL     1      61.171  33.062  16.911  1.00  0.00     0.032 C 
ATOM      8  C   UNL     1      60.417  33.825  15.815  1.00  0.00     0.014 C 
BRANCH   7   9
ATOM      9  C   UNL     1      61.323  33.940  18.125  1.00  0.00     0.044 C 
ATOM     10  O   UNL     1      60.519  33.833  19.087  1.00  0.00    -0.550 OA
ATOM     11  O   UNL     1      62.348  34.877  18.190  1.00  0.00    -0.550 OA
ENDBRANCH   7   9
ENDBRANCH   6   7
ENDBRANCH   5   6
ENDBRANCH   4   5
ENDBRANCH   3   4
ENDBRANCH   2   3
ENDBRANCH   1   2
BRANCH   1  12
ATOM     12  C   UNL     1      60.665  30.638  13.875  1.00  0.00     0.000 C 
BRANCH  12  13
ATOM     13  C   UNL     1      61.291  29.250  13.657  1.00  0.00    -0.000 C 
BRANCH  13  14
ATOM     14  C   UNL     1      60.239  28.165  13.372  1.00  0.00    -0.000 C 
BRANCH  14  15
ATOM     15  C   UNL     1      59.296  28.546  12.218  1.00  0.00    -0.000 C 
BRANCH  15  16
ATOM     16  C   UNL     1      59.895  28.242  10.837  1.00  0.00    -0.000 C 
BRANCH  16  17
ATOM     17  C   UNL     1      60.131  29.537  10.045  1.00  0.00    -0.000 C 
BRANCH  17  18
ATOM     18  C   UNL     1      61.564  29.646   9.503  1.00  0.00    -0.003 C 
ATOM     19  C   UNL     1      62.516  28.632  10.137  1.00  0.00     0.004 C 
ENDBRANCH  17  18
ENDBRANCH  16  17
ENDBRANCH  15  16
ENDBRANCH  14  15
ENDBRANCH  13  14
ENDBRANCH  12  13
ENDBRANCH   1  12
TORSDOF 14
ENDMDL
MODEL 5
REMARK VINA RESULT:    -4.623      1.553      3.618
REMARK INTER + INTRA:         -10.730
REMARK INTER:                  -8.694
REMARK INTRA:                  -2.035
REMARK UNBOUND:                -2.322
REMARK SMILES CCCCCCCCCCCCCC[C@H](C)C(=O)[O-]
REMARK SMILES IDX 9 1 10 2 11 3 12 4 13 5 14 6 15 7 16 8 17 9 18 10 19 11 8 12
REMARK SMILES IDX 7 13 6 14 5 15 4 16 3 17 2 18 1 19
REMARK H PARENT
REMARK Flexibility Score: inf
ROOT
ATOM      1  C   UNL     1      61.555  26.747  25.415  1.00  0.00     0.000 C 
ENDROOT
BRANCH   1   2
ATOM      2  C   UNL     1      62.897  26.553  26.137  1.00  0.00     0.000 C 
BRANCH   2   3
ATOM      3  C   UNL     1      64.002  26.025  25.208  1.00  0.00     0.000 C 
BRANCH   3   4
ATOM      4  C   UNL     1      63.451  25.519  23.863  1.00  0.00     0.000 C 
BRANCH   4   5
ATOM      5  C   UNL     1      64.031  26.284  22.662  1.00  0.00     0.001 C 
BRANCH   5   6
ATOM      6  C   UNL     1      65.487  25.889  22.352  1.00  0.00     0.009 C 
BRANCH   6   7
ATOM      7  C   UNL     1      66.353  27.110  21.980  1.00  0.00     0.032 C 
ATOM      8  C   UNL     1      65.731  28.400  22.528  1.00  0.00     0.014 C 
BRANCH   7   9
ATOM      9  C   UNL     1      66.524  27.226  20.488  1.00  0.00     0.044 C 
ATOM     10  O   UNL     1      66.691  28.355  19.957  1.00  0.00    -0.550 OA
ATOM     11  O   UNL     1      66.496  26.091  19.688  1.00  0.00    -0.550 OA
ENDBRANCH   7   9
ENDBRANCH   6   7
ENDBRANCH   5   6
ENDBRANCH   4   5
ENDBRANCH   3   4
ENDBRANCH   2   3
ENDBRANCH   1   2
BRANCH   1  12
ATOM     12  C   UNL     1      60.432  27.053  26.418  1.00  0.00     0.000 C 
BRANCH  12  13
ATOM     13  C   UNL     1      60.946  27.209  27.858  1.00  0.00    -0.000 C 
BRANCH  13  14
ATOM     14  C   UNL     1      60.754  28.635  28.402  1.00  0.00    -0.000 C 
BRANCH  14  15
ATOM     15  C   UNL     1      62.049  29.221  28.991  1.00  0.00    -0.000 C 
BRANCH  15  16
ATOM     16  C   UNL     1      62.642  30.341  28.125  1.00  0.00    -0.000 C 
BRANCH  16  17
ATOM     17  C   UNL     1      63.991  29.916  27.526  1.00  0.00    -0.000 C 
BRANCH  17  18
ATOM     18  C   UNL     1      64.020  30.028  25.994  1.00  0.00    -0.003 C 
ATOM     19  C   UNL     1      62.628  30.194  25.386  1.00  0.00     0.004 C 
ENDBRANCH  17  18
ENDBRANCH  16  17
ENDBRANCH  15  16
ENDBRANCH  14  15
ENDBRANCH  13  14
ENDBRANCH  12  13
ENDBRANCH   1  12
TORSDOF 14
ENDMDL
MODEL 6
REMARK VINA RESULT:    -4.587     11.334     14.389
REMARK INTER + INTRA:         -10.664
REMARK INTER:                  -8.953
REMARK INTRA:                  -1.711
REMARK UNBOUND:                -2.322
REMARK SMILES CCCCCCCCCCCCCC[C@H](C)C(=O)[O-]
REMARK SMILES IDX 9 1 10 2 11 3 12 4 13 5 14 6 15 7 16 8 17 9 18 10 19 11 8 12
REMARK SMILES IDX 7 13 6 14 5 15 4 16 3 17 2 18 1 19
REMARK H PARENT
REMARK Flexibility Score: inf
ROOT
ATOM      1  C   UNL     1      59.828  29.702  13.217  1.00  0.00     0.000 C 
ENDROOT
BRANCH   1   2
ATOM      2  C   UNL     1      59.939  30.923  12.292  1.00  0.00     0.000 C 
BRANCH   2   3
ATOM      3  C   UNL     1      60.324  32.207  13.045  1.00  0.00     0.000 C 
BRANCH   3   4
ATOM      4  C   UNL     1      59.810  32.218  14.496  1.00  0.00     0.000 C 
BRANCH   4   5
ATOM      5  C   UNL     1      60.412  33.362  15.328  1.00  0.00     0.001 C 
BRANCH   5   6
ATOM      6  C   UNL     1      61.048  32.872  16.641  1.00  0.00     0.009 C 
BRANCH   6   7
ATOM      7  C   UNL     1      61.629  34.034  17.474  1.00  0.00     0.032 C 
ATOM      8  C   UNL     1      63.098  34.278  17.110  1.00  0.00     0.014 C 
BRANCH   7   9
ATOM      9  C   UNL     1      61.512  33.762  18.950  1.00  0.00     0.044 C 
ATOM     10  O   UNL     1      62.544  33.718  19.668  1.00  0.00    -0.550 OA
ATOM     11  O   UNL     1      60.265  33.555  19.529  1.00  0.00    -0.550 OA
ENDBRANCH   7   9
ENDBRANCH   6   7
ENDBRANCH   5   6
ENDBRANCH   4   5
ENDBRANCH   3   4
ENDBRANCH   2   3
ENDBRANCH   1   2
BRANCH   1  12
ATOM     12  C   UNL     1      59.670  28.409  12.402  1.00  0.00     0.000 C 
BRANCH  12  13
ATOM     13  C   UNL     1      59.390  28.674  10.914  1.00  0.00    -0.000 C 
BRANCH  13  14
ATOM     14  C   UNL     1      60.496  28.125   9.997  1.00  0.00    -0.000 C 
BRANCH  14  15
ATOM     15  C   UNL     1      60.954  29.149   8.945  1.00  0.00    -0.000 C 
BRANCH  15  16
ATOM     16  C   UNL     1      62.333  29.747   9.260  1.00  0.00    -0.000 C 
BRANCH  16  17
ATOM     17  C   UNL     1      63.015  28.981  10.403  1.00  0.00    -0.000 C 
BRANCH  17  18
ATOM     18  C   UNL     1      63.420  29.894  11.569  1.00  0.00    -0.003 C 
ATOM     19  C   UNL     1      63.345  29.192  12.925  1.00  0.00     0.004 C 
ENDBRANCH  17  18
ENDBRANCH  16  17
ENDBRANCH  15  16
ENDBRANCH  14  15
ENDBRANCH  13  14
ENDBRANCH  12  13
ENDBRANCH   1  12
TORSDOF 14
ENDMDL
MODEL 7
REMARK VINA RESULT:    -4.547     11.554     14.412
REMARK INTER + INTRA:         -10.591
REMARK INTER:                  -8.416
REMARK INTRA:                  -2.175
REMARK UNBOUND:                -2.322
REMARK SMILES CCCCCCCCCCCCCC[C@H](C)C(=O)[O-]
REMARK SMILES IDX 9 1 10 2 11 3 12 4 13 5 14 6 15 7 16 8 17 9 18 10 19 11 8 12
REMARK SMILES IDX 7 13 6 14 5 15 4 16 3 17 2 18 1 19
REMARK H PARENT
REMARK Flexibility Score: inf
ROOT
ATOM      1  C   UNL     1      63.384  29.908  11.617  1.00  0.00     0.000 C 
ENDROOT
BRANCH   1   2
ATOM      2  C   UNL     1      63.697  31.323  11.106  1.00  0.00     0.000 C 
BRANCH   2   3
ATOM      3  C   UNL     1      63.815  32.353  12.241  1.00  0.00     0.000 C 
BRANCH   3   4
ATOM      4  C   UNL     1      63.384  31.783  13.604  1.00  0.00     0.000 C 
BRANCH   4   5
ATOM      5  C   UNL     1      62.713  32.836  14.500  1.00  0.00     0.001 C 
BRANCH   5   6
ATOM      6  C   UNL     1      62.563  32.368  15.959  1.00  0.00     0.009 C 
BRANCH   6   7
ATOM      7  C   UNL     1      61.212  32.795  16.569  1.00  0.00     0.032 C 
ATOM      8  C   UNL     1      60.411  33.638  15.571  1.00  0.00     0.014 C 
BRANCH   7   9
ATOM      9  C   UNL     1      61.408  33.572  17.844  1.00  0.00     0.044 C 
ATOM     10  O   UNL     1      60.773  33.253  18.883  1.00  0.00    -0.550 OA
ATOM     11  O   UNL     1      62.286  34.649  17.883  1.00  0.00    -0.550 OA
ENDBRANCH   7   9
ENDBRANCH   6   7
ENDBRANCH   5   6
ENDBRANCH   4   5
ENDBRANCH   3   4
ENDBRANCH   2   3
ENDBRANCH   1   2
BRANCH   1  12
ATOM     12  C   UNL     1      63.008  28.976  10.456  1.00  0.00     0.000 C 
BRANCH  12  13
ATOM     13  C   UNL     1      62.407  29.730   9.258  1.00  0.00    -0.000 C 
BRANCH  13  14
ATOM     14  C   UNL     1      60.986  29.254   8.912  1.00  0.00    -0.000 C 
BRANCH  14  15
ATOM     15  C   UNL     1      60.381  28.358  10.007  1.00  0.00    -0.000 C 
BRANCH  15  16
ATOM     16  C   UNL     1      59.525  29.144  11.011  1.00  0.00    -0.000 C 
BRANCH  16  17
ATOM     17  C   UNL     1      59.867  28.744  12.454  1.00  0.00    -0.000 C 
BRANCH  17  18
ATOM     18  C   UNL     1      60.088  29.959  13.368  1.00  0.00    -0.003 C 
ATOM     19  C   UNL     1      59.881  31.290  12.644  1.00  0.00     0.004 C 
ENDBRANCH  17  18
ENDBRANCH  16  17
ENDBRANCH  15  16
ENDBRANCH  14  15
ENDBRANCH  13  14
ENDBRANCH  12  13
ENDBRANCH   1  12
TORSDOF 14
ENDMDL
MODEL 8
REMARK VINA RESULT:    -4.534     11.927     14.823
REMARK INTER + INTRA:         -10.568
REMARK INTER:                  -8.230
REMARK INTRA:                  -2.338
REMARK UNBOUND:                -2.322
REMARK SMILES CCCCCCCCCCCCCC[C@H](C)C(=O)[O-]
REMARK SMILES IDX 9 1 10 2 11 3 12 4 13 5 14 6 15 7 16 8 17 9 18 10 19 11 8 12
REMARK SMILES IDX 7 13 6 14 5 15 4 16 3 17 2 18 1 19
REMARK H PARENT
REMARK Flexibility Score: inf
ROOT
ATOM      1  C   UNL     1      61.024  28.874  13.755  1.00  0.00     0.000 C 
ENDROOT
BRANCH   1   2
ATOM      2  C   UNL     1      59.847  29.149  12.806  1.00  0.00     0.000 C 
BRANCH   2   3
ATOM      3  C   UNL     1      59.586  30.650  12.600  1.00  0.00     0.000 C 
BRANCH   3   4
ATOM      4  C   UNL     1      59.310  31.389  13.922  1.00  0.00     0.000 C 
BRANCH   4   5
ATOM      5  C   UNL     1      59.980  32.771  13.978  1.00  0.00     0.001 C 
BRANCH   5   6
ATOM      6  C   UNL     1      61.465  32.728  13.573  1.00  0.00     0.009 C 
BRANCH   6   7
ATOM      7  C   UNL     1      62.400  32.717  14.800  1.00  0.00     0.032 C 
ATOM      8  C   UNL     1      61.747  33.440  15.984  1.00  0.00     0.014 C 
BRANCH   7   9
ATOM      9  C   UNL     1      63.726  33.358  14.485  1.00  0.00     0.044 C 
ATOM     10  O   UNL     1      64.306  33.107  13.397  1.00  0.00    -0.550 OA
ATOM     11  O   UNL     1      64.319  34.227  15.393  1.00  0.00    -0.550 OA
ENDBRANCH   7   9
ENDBRANCH   6   7
ENDBRANCH   5   6
ENDBRANCH   4   5
ENDBRANCH   3   4
ENDBRANCH   2   3
ENDBRANCH   1   2
BRANCH   1  12
ATOM     12  C   UNL     1      62.275  28.452  12.970  1.00  0.00     0.000 C 
BRANCH  12  13
ATOM     13  C   UNL     1      63.295  29.593  12.818  1.00  0.00    -0.000 C 
BRANCH  13  14
ATOM     14  C   UNL     1      63.178  30.313  11.463  1.00  0.00    -0.000 C 
BRANCH  14  15
ATOM     15  C   UNL     1      63.599  29.421  10.283  1.00  0.00    -0.000 C 
BRANCH  15  16
ATOM     16  C   UNL     1      62.676  29.573   9.065  1.00  0.00    -0.000 C 
BRANCH  16  17
ATOM     17  C   UNL     1      61.508  28.578   9.134  1.00  0.00    -0.000 C 
BRANCH  17  18
ATOM     18  C   UNL     1      60.138  29.271   9.124  1.00  0.00    -0.003 C 
ATOM     19  C   UNL     1      58.975  28.283   9.034  1.00  0.00     0.004 C 
ENDBRANCH  17  18
ENDBRANCH  16  17
ENDBRANCH  15  16
ENDBRANCH  14  15
ENDBRANCH  13  14
ENDBRANCH  12  13
ENDBRANCH   1  12
TORSDOF 14
ENDMDL
MODEL 9
REMARK VINA RESULT:    -4.500      1.762      4.711
REMARK INTER + INTRA:         -10.505
REMARK INTER:                  -8.613
REMARK INTRA:                  -1.892
REMARK UNBOUND:                -2.322
REMARK SMILES CCCCCCCCCCCCCC[C@H](C)C(=O)[O-]
REMARK SMILES IDX 9 1 10 2 11 3 12 4 13 5 14 6 15 7 16 8 17 9 18 10 19 11 8 12
REMARK SMILES IDX 7 13 6 14 5 15 4 16 3 17 2 18 1 19
REMARK H PARENT
REMARK Flexibility Score: inf
ROOT
ATOM      1  C   UNL     1      64.328  30.336  27.871  1.00  0.00     0.000 C 
ENDROOT
BRANCH   1   2
ATOM      2  C   UNL     1      63.452  29.754  28.991  1.00  0.00     0.000 C 
BRANCH   2   3
ATOM      3  C   UNL     1      61.950  29.972  28.746  1.00  0.00     0.000 C 
BRANCH   3   4
ATOM      4  C   UNL     1      61.175  28.648  28.613  1.00  0.00     0.000 C 
BRANCH   4   5
ATOM      5  C   UNL     1      62.079  27.472  28.210  1.00  0.00     0.001 C 
BRANCH   5   6
ATOM      6  C   UNL     1      61.694  26.865  26.849  1.00  0.00     0.009 C 
BRANCH   6   7
ATOM      7  C   UNL     1      60.752  27.788  26.048  1.00  0.00     0.032 C 
ATOM      8  C   UNL     1      59.641  26.973  25.376  1.00  0.00     0.014 C 
BRANCH   7   9
ATOM      9  C   UNL     1      61.506  28.571  25.007  1.00  0.00     0.044 C 
ATOM     10  O   UNL     1      61.812  29.774  25.219  1.00  0.00    -0.550 OA
ATOM     11  O   UNL     1      61.865  27.976  23.804  1.00  0.00    -0.550 OA
ENDBRANCH   7   9
ENDBRANCH   6   7
ENDBRANCH   5   6
ENDBRANCH   4   5
ENDBRANCH   3   4
ENDBRANCH   2   3
ENDBRANCH   1   2
BRANCH   1  12
ATOM     12  C   UNL     1      65.728  30.688  28.396  1.00  0.00     0.000 C 
BRANCH  12  13
ATOM     13  C   UNL     1      66.796  30.689  27.289  1.00  0.00    -0.000 C 
BRANCH  13  14
ATOM     14  C   UNL     1      66.760  29.412  26.432  1.00  0.00    -0.000 C 
BRANCH  14  15
ATOM     15  C   UNL     1      66.279  29.678  24.995  1.00  0.00    -0.000 C 
BRANCH  15  16
ATOM     16  C   UNL     1      65.672  28.434  24.332  1.00  0.00    -0.000 C 
BRANCH  16  17
ATOM     17  C   UNL     1      65.002  27.528  25.376  1.00  0.00    -0.000 C 
BRANCH  17  18
ATOM     18  C   UNL     1      64.787  26.095  24.865  1.00  0.00    -0.003 C 
ATOM     19  C   UNL     1      65.228  25.912  23.413  1.00  0.00     0.004 C 
ENDBRANCH  17  18
ENDBRANCH  16  17
ENDBRANCH  15  16
ENDBRANCH  14  15
ENDBRANCH  13  14
ENDBRANCH  12  13
ENDBRANCH   1  12
TORSDOF 14
ENDMDL
