MODEL 1
REMARK VINA RESULT:    -3.967      0.000      0.000
REMARK INTER + INTRA:          -5.167
REMARK INTER:                  -4.895
REMARK INTRA:                  -0.272
REMARK UNBOUND:                -0.272
REMARK SMILES CCOC(=O)c1ccc(O)c(O)c1
REMARK SMILES IDX 4 1 5 2 3 3 2 4 1 5 6 6 13 7 7 8 11 9 8 10 9 11 12 12 10 14
REMARK H PARENT 12 13 10 15
REMARK Flexibility Score: inf
ROOT
ATOM      1  C   UNL     1       3.936   2.789 -15.000  1.00  0.00     0.338 C 
ATOM      2  O   UNL     1       3.015   3.375 -14.363  1.00  0.00    -0.246 OA
ENDROOT
BRANCH   1   3
ATOM      3  O   UNL     1       5.203   2.641 -14.423  1.00  0.00    -0.462 OA
BRANCH   3   4
ATOM      4  C   UNL     1       6.105   3.727 -14.215  1.00  0.00     0.230 C 
ATOM      5  C   UNL     1       6.868   4.045 -15.495  1.00  0.00     0.049 C 
ENDBRANCH   3   4
ENDBRANCH   1   3
BRANCH   1   6
ATOM      6  C   UNL     1       3.676   2.252 -16.354  1.00  0.00     0.064 A 
ATOM      7  C   UNL     1       3.917   3.044 -17.490  1.00  0.00     0.065 A 
ATOM      8  C   UNL     1       3.185   0.945 -16.525  1.00  0.00     0.020 A 
ATOM      9  C   UNL     1       3.672   2.542 -18.777  1.00  0.00     0.158 A 
ATOM     10  C   UNL     1       2.941   0.444 -17.807  1.00  0.00     0.051 A 
ATOM     11  C   UNL     1       3.182   1.234 -18.934  1.00  0.00     0.157 A 
BRANCH   9  12
ATOM     12  O   UNL     1       3.914   3.335 -19.897  1.00  0.00    -0.504 OA
ATOM     13  H   UNL     1       4.853   3.475 -20.255  1.00  0.00     0.293 HD
ENDBRANCH   9  12
BRANCH  11  14
ATOM     14  O   UNL     1       2.929   0.706 -20.199  1.00  0.00    -0.504 OA
ATOM     15  H   UNL     1       2.148   1.017 -20.766  1.00  0.00     0.293 HD
ENDBRANCH  11  14
ENDBRANCH   1   6
TORSDOF 5
ENDMDL
MODEL 2
REMARK VINA RESULT:    -3.745      1.207      5.102
REMARK INTER + INTRA:          -4.893
REMARK INTER:                  -4.752
REMARK INTRA:                  -0.141
REMARK UNBOUND:                -0.272
REMARK SMILES CCOC(=O)c1ccc(O)c(O)c1
REMARK SMILES IDX 4 1 5 2 3 3 2 4 1 5 6 6 13 7 7 8 11 9 8 10 9 11 12 12 10 14
REMARK H PARENT 12 13 10 15
REMARK Flexibility Score: inf
ROOT
ATOM      1  C   UNL     1       3.633   2.930 -18.887  1.00  0.00     0.338 C 
ATOM      2  O   UNL     1       3.651   3.870 -19.730  1.00  0.00    -0.246 OA
ENDROOT
BRANCH   1   3
ATOM      3  O   UNL     1       2.890   1.770 -19.144  1.00  0.00    -0.462 OA
BRANCH   3   4
ATOM      4  C   UNL     1       3.279   0.472 -18.699  1.00  0.00     0.230 C 
ATOM      5  C   UNL     1       2.942  -0.580 -19.749  1.00  0.00     0.049 C 
ENDBRANCH   3   4
ENDBRANCH   1   3
BRANCH   1   6
ATOM      6  C   UNL     1       4.402   3.047 -17.628  1.00  0.00     0.064 A 
ATOM      7  C   UNL     1       3.735   3.102 -16.392  1.00  0.00     0.065 A 
ATOM      8  C   UNL     1       5.807   3.106 -17.648  1.00  0.00     0.020 A 
ATOM      9  C   UNL     1       4.457   3.214 -15.194  1.00  0.00     0.158 A 
ATOM     10  C   UNL     1       6.526   3.218 -16.456  1.00  0.00     0.051 A 
ATOM     11  C   UNL     1       5.860   3.272 -15.229  1.00  0.00     0.157 A 
BRANCH   9  12
ATOM     12  O   UNL     1       3.786   3.268 -13.974  1.00  0.00    -0.504 OA
ATOM     13  H   UNL     1       2.851   2.892 -13.865  1.00  0.00     0.293 HD
ENDBRANCH   9  12
BRANCH  11  14
ATOM     14  O   UNL     1       6.606   3.383 -14.056  1.00  0.00    -0.504 OA
ATOM     15  H   UNL     1       6.342   2.906 -13.202  1.00  0.00     0.293 HD
ENDBRANCH  11  14
ENDBRANCH   1   6
TORSDOF 5
ENDMDL
MODEL 3
REMARK VINA RESULT:    -3.564      0.866      1.816
REMARK INTER + INTRA:          -4.670
REMARK INTER:                  -4.409
REMARK INTRA:                  -0.260
REMARK UNBOUND:                -0.272
REMARK SMILES CCOC(=O)c1ccc(O)c(O)c1
REMARK SMILES IDX 4 1 5 2 3 3 2 4 1 5 6 6 13 7 7 8 11 9 8 10 9 11 12 12 10 14
REMARK H PARENT 12 13 10 15
REMARK Flexibility Score: inf
ROOT
ATOM      1  C   UNL     1       3.809   2.856 -15.251  1.00  0.00     0.338 C 
ATOM      2  O   UNL     1       2.891   3.349 -14.536  1.00  0.00    -0.246 OA
ENDROOT
BRANCH   1   3
ATOM      3  O   UNL     1       5.057   2.562 -14.688  1.00  0.00    -0.462 OA
BRANCH   3   4
ATOM      4  C   UNL     1       6.103   3.522 -14.546  1.00  0.00     0.230 C 
ATOM      5  C   UNL     1       6.782   3.778 -15.886  1.00  0.00     0.049 C 
ENDBRANCH   3   4
ENDBRANCH   1   3
BRANCH   1   6
ATOM      6  C   UNL     1       3.566   2.584 -16.685  1.00  0.00     0.064 A 
ATOM      7  C   UNL     1       3.455   1.261 -17.147  1.00  0.00     0.065 A 
ATOM      8  C   UNL     1       3.441   3.640 -17.605  1.00  0.00     0.020 A 
ATOM      9  C   UNL     1       3.226   0.995 -18.505  1.00  0.00     0.158 A 
ATOM     10  C   UNL     1       3.213   3.376 -18.958  1.00  0.00     0.051 A 
ATOM     11  C   UNL     1       3.104   2.059 -19.414  1.00  0.00     0.157 A 
BRANCH   9  12
ATOM     12  O   UNL     1       3.119  -0.320 -18.954  1.00  0.00    -0.504 OA
ATOM     13  H   UNL     1       3.472  -0.602 -19.862  1.00  0.00     0.293 HD
ENDBRANCH   9  12
BRANCH  11  14
ATOM     14  O   UNL     1       2.875   1.828 -20.770  1.00  0.00    -0.504 OA
ATOM     15  H   UNL     1       3.011   0.916 -21.191  1.00  0.00     0.293 HD
ENDBRANCH  11  14
ENDBRANCH   1   6
TORSDOF 5
ENDMDL
MODEL 4
REMARK VINA RESULT:    -3.133      1.518      4.813
REMARK INTER + INTRA:          -4.137
REMARK INTER:                  -3.823
REMARK INTRA:                  -0.314
REMARK UNBOUND:                -0.272
REMARK SMILES CCOC(=O)c1ccc(O)c(O)c1
REMARK SMILES IDX 4 1 5 2 3 3 2 4 1 5 6 6 13 7 7 8 11 9 8 10 9 11 12 12 10 14
REMARK H PARENT 12 13 10 15
REMARK Flexibility Score: inf
ROOT
ATOM      1  C   UNL     1       3.517   1.017 -17.838  1.00  0.00     0.338 C 
ATOM      2  O   UNL     1       3.417  -0.241 -17.807  1.00  0.00    -0.246 OA
ENDROOT
BRANCH   1   3
ATOM      3  O   UNL     1       2.875   1.748 -18.845  1.00  0.00    -0.462 OA
BRANCH   3   4
ATOM      4  C   UNL     1       3.518   2.766 -19.611  1.00  0.00     0.230 C 
ATOM      5  C   UNL     1       2.885   4.125 -19.336  1.00  0.00     0.049 C 
ENDBRANCH   3   4
ENDBRANCH   1   3
BRANCH   1   6
ATOM      6  C   UNL     1       4.308   1.724 -16.806  1.00  0.00     0.064 A 
ATOM      7  C   UNL     1       3.670   2.555 -15.869  1.00  0.00     0.065 A 
ATOM      8  C   UNL     1       5.706   1.577 -16.747  1.00  0.00     0.020 A 
ATOM      9  C   UNL     1       4.414   3.230 -14.889  1.00  0.00     0.158 A 
ATOM     10  C   UNL     1       6.446   2.248 -15.771  1.00  0.00     0.051 A 
ATOM     11  C   UNL     1       5.809   3.073 -14.840  1.00  0.00     0.157 A 
BRANCH   9  12
ATOM     12  O   UNL     1       3.772   4.052 -13.964  1.00  0.00    -0.504 OA
ATOM     13  H   UNL     1       4.287   4.532 -13.234  1.00  0.00     0.293 HD
ENDBRANCH   9  12
BRANCH  11  14
ATOM     14  O   UNL     1       6.576   3.729 -13.878  1.00  0.00    -0.504 OA
ATOM     15  H   UNL     1       6.198   3.991 -12.975  1.00  0.00     0.293 HD
ENDBRANCH  11  14
ENDBRANCH   1   6
TORSDOF 5
ENDMDL
MODEL 5
REMARK VINA RESULT:    -3.109      1.851      5.258
REMARK INTER + INTRA:          -4.107
REMARK INTER:                  -3.963
REMARK INTRA:                  -0.144
REMARK UNBOUND:                -0.272
REMARK SMILES CCOC(=O)c1ccc(O)c(O)c1
REMARK SMILES IDX 4 1 5 2 3 3 2 4 1 5 6 6 13 7 7 8 11 9 8 10 9 11 12 12 10 14
REMARK H PARENT 12 13 10 15
REMARK Flexibility Score: inf
ROOT
ATOM      1  C   UNL     1       3.258   0.974 -19.463  1.00  0.00     0.338 C 
ATOM      2  O   UNL     1       2.875   1.940 -20.181  1.00  0.00    -0.246 OA
ENDROOT
BRANCH   1   3
ATOM      3  O   UNL     1       3.169  -0.338 -19.945  1.00  0.00    -0.462 OA
BRANCH   3   4
ATOM      4  C   UNL     1       2.901  -0.660 -21.309  1.00  0.00     0.230 C 
ATOM      5  C   UNL     1       3.716  -1.870 -21.746  1.00  0.00     0.049 C 
ENDBRANCH   3   4
ENDBRANCH   1   3
BRANCH   1   6
ATOM      6  C   UNL     1       3.808   1.226 -18.113  1.00  0.00     0.064 A 
ATOM      7  C   UNL     1       4.154   2.531 -17.720  1.00  0.00     0.065 A 
ATOM      8  C   UNL     1       3.992   0.169 -17.203  1.00  0.00     0.020 A 
ATOM      9  C   UNL     1       4.677   2.778 -16.442  1.00  0.00     0.158 A 
ATOM     10  C   UNL     1       4.512   0.414 -15.930  1.00  0.00     0.051 A 
ATOM     11  C   UNL     1       4.856   1.713 -15.543  1.00  0.00     0.157 A 
BRANCH   9  12
ATOM     12  O   UNL     1       5.017   4.075 -16.062  1.00  0.00    -0.504 OA
ATOM     13  H   UNL     1       5.765   4.584 -16.521  1.00  0.00     0.293 HD
ENDBRANCH   9  12
BRANCH  11  14
ATOM     14  O   UNL     1       5.372   1.925 -14.266  1.00  0.00    -0.504 OA
ATOM     15  H   UNL     1       4.785   1.919 -13.440  1.00  0.00     0.293 HD
ENDBRANCH  11  14
ENDBRANCH   1   6
TORSDOF 5
ENDMDL
MODEL 6
REMARK VINA RESULT:    -3.106      1.816      5.477
REMARK INTER + INTRA:          -4.104
REMARK INTER:                  -3.938
REMARK INTRA:                  -0.166
REMARK UNBOUND:                -0.272
REMARK SMILES CCOC(=O)c1ccc(O)c(O)c1
REMARK SMILES IDX 4 1 5 2 3 3 2 4 1 5 6 6 13 7 7 8 11 9 8 10 9 11 12 12 10 14
REMARK H PARENT 12 13 10 15
REMARK Flexibility Score: inf
ROOT
ATOM      1  C   UNL     1       3.226   0.904 -19.466  1.00  0.00     0.338 C 
ATOM      2  O   UNL     1       2.875   1.699 -20.383  1.00  0.00    -0.246 OA
ENDROOT
BRANCH   1   3
ATOM      3  O   UNL     1       3.370  -0.462 -19.739  1.00  0.00    -0.462 OA
BRANCH   3   4
ATOM      4  C   UNL     1       2.884  -1.083 -20.927  1.00  0.00     0.230 C 
ATOM      5  C   UNL     1       4.035  -1.669 -21.737  1.00  0.00     0.049 C 
ENDBRANCH   3   4
ENDBRANCH   1   3
BRANCH   1   6
ATOM      6  C   UNL     1       3.490   1.415 -18.103  1.00  0.00     0.064 A 
ATOM      7  C   UNL     1       4.061   0.576 -17.129  1.00  0.00     0.065 A 
ATOM      8  C   UNL     1       3.176   2.742 -17.760  1.00  0.00     0.020 A 
ATOM      9  C   UNL     1       4.314   1.053 -15.834  1.00  0.00     0.158 A 
ATOM     10  C   UNL     1       3.428   3.218 -16.470  1.00  0.00     0.051 A 
ATOM     11  C   UNL     1       3.995   2.381 -15.505  1.00  0.00     0.157 A 
BRANCH   9  12
ATOM     12  O   UNL     1       4.880   0.214 -14.876  1.00  0.00    -0.504 OA
ATOM     13  H   UNL     1       5.108  -0.752 -15.085  1.00  0.00     0.293 HD
ENDBRANCH   9  12
BRANCH  11  14
ATOM     14  O   UNL     1       4.235   2.885 -14.227  1.00  0.00    -0.504 OA
ATOM     15  H   UNL     1       3.482   3.141 -13.599  1.00  0.00     0.293 HD
ENDBRANCH  11  14
ENDBRANCH   1   6
TORSDOF 5
ENDMDL
MODEL 7
REMARK VINA RESULT:    -2.853      2.099      5.508
REMARK INTER + INTRA:          -3.792
REMARK INTER:                  -3.638
REMARK INTRA:                  -0.154
REMARK UNBOUND:                -0.272
REMARK SMILES CCOC(=O)c1ccc(O)c(O)c1
REMARK SMILES IDX 4 1 5 2 3 3 2 4 1 5 6 6 13 7 7 8 11 9 8 10 9 11 12 12 10 14
REMARK H PARENT 12 13 10 15
REMARK Flexibility Score: inf
ROOT
ATOM      1  C   UNL     1       2.937  -0.164 -20.206  1.00  0.00     0.338 C 
ATOM      2  O   UNL     1       2.877  -1.425 -20.170  1.00  0.00    -0.246 OA
ENDROOT
BRANCH   1   3
ATOM      3  O   UNL     1       2.877   0.507 -21.434  1.00  0.00    -0.462 OA
BRANCH   3   4
ATOM      4  C   UNL     1       3.088  -0.133 -22.692  1.00  0.00     0.230 C 
ATOM      5  C   UNL     1       3.677   0.845 -23.700  1.00  0.00     0.049 C 
ENDBRANCH   3   4
ENDBRANCH   1   3
BRANCH   1   6
ATOM      6  C   UNL     1       3.063   0.609 -18.951  1.00  0.00     0.064 A 
ATOM      7  C   UNL     1       3.236   2.003 -18.990  1.00  0.00     0.065 A 
ATOM      8  C   UNL     1       3.013  -0.037 -17.702  1.00  0.00     0.020 A 
ATOM      9  C   UNL     1       3.358   2.742 -17.804  1.00  0.00     0.158 A 
ATOM     10  C   UNL     1       3.134   0.698 -16.521  1.00  0.00     0.051 A 
ATOM     11  C   UNL     1       3.306   2.085 -16.563  1.00  0.00     0.157 A 
BRANCH   9  12
ATOM     12  O   UNL     1       3.529   4.125 -17.854  1.00  0.00    -0.504 OA
ATOM     13  H   UNL     1       2.737   4.757 -17.879  1.00  0.00     0.293 HD
ENDBRANCH   9  12
BRANCH  11  14
ATOM     14  O   UNL     1       3.424   2.791 -15.367  1.00  0.00    -0.504 OA
ATOM     15  H   UNL     1       4.234   3.362 -15.157  1.00  0.00     0.293 HD
ENDBRANCH  11  14
ENDBRANCH   1   6
TORSDOF 5
ENDMDL
MODEL 8
REMARK VINA RESULT:    -2.823      1.459      2.463
REMARK INTER + INTRA:          -3.755
REMARK INTER:                  -3.452
REMARK INTRA:                  -0.303
REMARK UNBOUND:                -0.272
REMARK SMILES CCOC(=O)c1ccc(O)c(O)c1
REMARK SMILES IDX 4 1 5 2 3 3 2 4 1 5 6 6 13 7 7 8 11 9 8 10 9 11 12 12 10 14
REMARK H PARENT 12 13 10 15
REMARK Flexibility Score: inf
ROOT
ATOM      1  C   UNL     1       3.938   1.195 -16.092  1.00  0.00     0.338 C 
ATOM      2  O   UNL     1       3.947   0.080 -15.500  1.00  0.00    -0.246 OA
ENDROOT
BRANCH   1   3
ATOM      3  O   UNL     1       4.195   2.372 -15.377  1.00  0.00    -0.462 OA
BRANCH   3   4
ATOM      4  C   UNL     1       5.396   2.599 -14.641  1.00  0.00     0.230 C 
ATOM      5  C   UNL     1       6.534   2.991 -15.576  1.00  0.00     0.049 C 
ENDBRANCH   3   4
ENDBRANCH   1   3
BRANCH   1   6
ATOM      6  C   UNL     1       3.662   1.262 -17.544  1.00  0.00     0.064 A 
ATOM      7  C   UNL     1       3.434   0.085 -18.277  1.00  0.00     0.065 A 
ATOM      8  C   UNL     1       3.625   2.499 -18.211  1.00  0.00     0.020 A 
ATOM      9  C   UNL     1       3.173   0.140 -19.655  1.00  0.00     0.158 A 
ATOM     10  C   UNL     1       3.365   2.555 -19.583  1.00  0.00     0.051 A 
ATOM     11  C   UNL     1       3.138   1.383 -20.309  1.00  0.00     0.157 A 
BRANCH   9  12
ATOM     12  O   UNL     1       2.948  -1.032 -20.374  1.00  0.00    -0.504 OA
ATOM     13  H   UNL     1       2.298  -1.739 -20.046  1.00  0.00     0.293 HD
ENDBRANCH   9  12
BRANCH  11  14
ATOM     14  O   UNL     1       2.881   1.471 -21.677  1.00  0.00    -0.504 OA
ATOM     15  H   UNL     1       2.027   1.879 -22.039  1.00  0.00     0.293 HD
ENDBRANCH  11  14
ENDBRANCH   1   6
TORSDOF 5
ENDMDL
MODEL 9
REMARK VINA RESULT:    -1.806      2.367      3.372
REMARK INTER + INTRA:          -2.500
REMARK INTER:                  -2.208
REMARK INTRA:                  -0.292
REMARK UNBOUND:                -0.272
REMARK SMILES CCOC(=O)c1ccc(O)c(O)c1
REMARK SMILES IDX 4 1 5 2 3 3 2 4 1 5 6 6 13 7 7 8 11 9 8 10 9 11 12 12 10 14
REMARK H PARENT 12 13 10 15
REMARK Flexibility Score: inf
ROOT
ATOM      1  C   UNL     1       2.956   1.307 -17.788  1.00  0.00     0.338 C 
ATOM      2  O   UNL     1       2.875   0.621 -16.730  1.00  0.00    -0.246 OA
ENDROOT
BRANCH   1   3
ATOM      3  O   UNL     1       3.068   2.701 -17.714  1.00  0.00    -0.462 OA
BRANCH   3   4
ATOM      4  C   UNL     1       4.176   3.371 -17.114  1.00  0.00     0.230 C 
ATOM      5  C   UNL     1       5.491   2.772 -17.597  1.00  0.00     0.049 C 
ENDBRANCH   3   4
ENDBRANCH   1   3
BRANCH   1   6
ATOM      6  C   UNL     1       2.938   0.640 -19.108  1.00  0.00     0.064 A 
ATOM      7  C   UNL     1       2.917   1.402 -20.288  1.00  0.00     0.065 A 
ATOM      8  C   UNL     1       2.941  -0.764 -19.203  1.00  0.00     0.020 A 
ATOM      9  C   UNL     1       2.899   0.776 -21.544  1.00  0.00     0.158 A 
ATOM     10  C   UNL     1       2.924  -1.388 -20.452  1.00  0.00     0.051 A 
ATOM     11  C   UNL     1       2.903  -0.627 -21.624  1.00  0.00     0.157 A 
BRANCH   9  12
ATOM     12  O   UNL     1       2.878   1.541 -22.709  1.00  0.00    -0.504 OA
ATOM     13  H   UNL     1       2.898   2.555 -22.679  1.00  0.00     0.293 HD
ENDBRANCH   9  12
BRANCH  11  14
ATOM     14  O   UNL     1       2.886  -1.279 -22.857  1.00  0.00    -0.504 OA
ATOM     15  H   UNL     1       2.021  -1.501 -23.336  1.00  0.00     0.293 HD
ENDBRANCH  11  14
ENDBRANCH   1   6
TORSDOF 5
ENDMDL
