MODEL 1
REMARK VINA RESULT:    -5.677      0.000      0.000
REMARK INTER + INTRA:         -12.832
REMARK INTER:                 -10.655
REMARK INTRA:                  -2.177
REMARK UNBOUND:                -2.177
REMARK SMILES O=C([O-])CCCCCCCCCCCCCCC(=O)[O-]
REMARK SMILES IDX 10 1 9 2 8 3 7 4 6 5 5 6 4 7 2 8 1 9 3 10 11 11 12 12 13 13
REMARK SMILES IDX 14 14 15 15 16 16 17 17 18 18 19 19 20 20
REMARK H PARENT
REMARK Flexibility Score: inf
ROOT
ATOM      1  C   UNL     1      16.713  -5.335  15.419  1.00  0.00     0.000 C 
ENDROOT
BRANCH   1   2
ATOM      2  C   UNL     1      15.919  -6.385  16.223  1.00  0.00     0.000 C 
BRANCH   2   3
ATOM      3  C   UNL     1      14.780  -7.074  15.449  1.00  0.00     0.000 C 
BRANCH   3   4
ATOM      4  C   UNL     1      14.962  -7.106  13.920  1.00  0.00     0.000 C 
BRANCH   4   5
ATOM      5  C   UNL     1      13.689  -6.725  13.135  1.00  0.00     0.000 C 
BRANCH   5   6
ATOM      6  C   UNL     1      14.002  -5.957  11.839  1.00  0.00     0.006 C 
BRANCH   6   7
ATOM      7  C   UNL     1      15.334  -5.199  11.922  1.00  0.00     0.053 C 
BRANCH   7   8
ATOM      8  C   UNL     1      16.320  -5.699  10.910  1.00  0.00     0.041 C 
ATOM      9  O   UNL     1      16.052  -5.635   9.681  1.00  0.00    -0.550 OA
ATOM     10  O   UNL     1      17.519  -6.264  11.326  1.00  0.00    -0.550 OA
ENDBRANCH   7   8
ENDBRANCH   6   7
ENDBRANCH   5   6
ENDBRANCH   4   5
ENDBRANCH   3   4
ENDBRANCH   2   3
ENDBRANCH   1   2
BRANCH   1  11
ATOM     11  C   UNL     1      16.164  -3.896  15.498  1.00  0.00     0.000 C 
BRANCH  11  12
ATOM     12  C   UNL     1      15.273  -3.605  16.719  1.00  0.00     0.000 C 
BRANCH  12  13
ATOM     13  C   UNL     1      13.775  -3.433  16.404  1.00  0.00     0.000 C 
BRANCH  13  14
ATOM     14  C   UNL     1      13.447  -3.466  14.895  1.00  0.00     0.000 C 
BRANCH  14  15
ATOM     15  C   UNL     1      12.258  -2.560  14.530  1.00  0.00     0.000 C 
BRANCH  15  16
ATOM     16  C   UNL     1      12.592  -1.562  13.407  1.00  0.00     0.006 C 
BRANCH  16  17
ATOM     17  C   UNL     1      13.792  -1.968  12.537  1.00  0.00     0.053 C 
BRANCH  17  18
ATOM     18  C   UNL     1      14.658  -0.797  12.191  1.00  0.00     0.041 C 
ATOM     19  O   UNL     1      15.825  -0.713  12.657  1.00  0.00    -0.550 OA
ATOM     20  O   UNL     1      14.170   0.214  11.374  1.00  0.00    -0.550 OA
ENDBRANCH  17  18
ENDBRANCH  16  17
ENDBRANCH  15  16
ENDBRANCH  14  15
ENDBRANCH  13  14
ENDBRANCH  12  13
ENDBRANCH  11  12
ENDBRANCH   1  11
TORSDOF 15
ENDMDL
MODEL 2
REMARK VINA RESULT:    -5.519      2.152      4.728
REMARK INTER + INTRA:         -12.535
REMARK INTER:                 -10.500
REMARK INTRA:                  -2.035
REMARK UNBOUND:                -2.177
REMARK SMILES O=C([O-])CCCCCCCCCCCCCCC(=O)[O-]
REMARK SMILES IDX 10 1 9 2 8 3 7 4 6 5 5 6 4 7 2 8 1 9 3 10 11 11 12 12 13 13
REMARK SMILES IDX 14 14 15 15 16 16 17 17 18 18 19 19 20 20
REMARK H PARENT
REMARK Flexibility Score: inf
ROOT
ATOM      1  C   UNL     1      12.397  -2.807  14.325  1.00  0.00     0.000 C 
ENDROOT
BRANCH   1   2
ATOM      2  C   UNL     1      12.637  -1.763  13.214  1.00  0.00     0.000 C 
BRANCH   2   3
ATOM      3  C   UNL     1      12.569  -2.314  11.777  1.00  0.00     0.000 C 
BRANCH   3   4
ATOM      4  C   UNL     1      11.967  -3.727  11.653  1.00  0.00     0.000 C 
BRANCH   4   5
ATOM      5  C   UNL     1      12.821  -4.692  10.802  1.00  0.00     0.000 C 
BRANCH   5   6
ATOM      6  C   UNL     1      13.748  -5.571  11.660  1.00  0.00     0.006 C 
BRANCH   6   7
ATOM      7  C   UNL     1      15.143  -4.954  11.825  1.00  0.00     0.053 C 
BRANCH   7   8
ATOM      8  C   UNL     1      16.150  -5.615  10.934  1.00  0.00     0.041 C 
ATOM      9  O   UNL     1      15.938  -5.704   9.696  1.00  0.00    -0.550 OA
ATOM     10  O   UNL     1      17.307  -6.161  11.476  1.00  0.00    -0.550 OA
ENDBRANCH   7   8
ENDBRANCH   6   7
ENDBRANCH   5   6
ENDBRANCH   4   5
ENDBRANCH   3   4
ENDBRANCH   2   3
ENDBRANCH   1   2
BRANCH   1  11
ATOM     11  C   UNL     1      13.674  -3.398  14.956  1.00  0.00     0.000 C 
BRANCH  11  12
ATOM     12  C   UNL     1      13.628  -3.561  16.487  1.00  0.00     0.000 C 
BRANCH  12  13
ATOM     13  C   UNL     1      14.925  -3.169  17.220  1.00  0.00     0.000 C 
BRANCH  13  14
ATOM     14  C   UNL     1      16.188  -3.236  16.333  1.00  0.00     0.000 C 
BRANCH  14  15
ATOM     15  C   UNL     1      17.303  -4.091  16.960  1.00  0.00     0.000 C 
BRANCH  15  16
ATOM     16  C   UNL     1      17.374  -5.508  16.363  1.00  0.00     0.006 C 
BRANCH  16  17
ATOM     17  C   UNL     1      16.558  -5.691  15.073  1.00  0.00     0.053 C 
BRANCH  17  18
ATOM     18  C   UNL     1      15.565  -6.805  15.189  1.00  0.00     0.041 C 
ATOM     19  O   UNL     1      15.406  -7.614  14.237  1.00  0.00    -0.550 OA
ATOM     20  O   UNL     1      14.796  -6.937  16.339  1.00  0.00    -0.550 OA
ENDBRANCH  17  18
ENDBRANCH  16  17
ENDBRANCH  15  16
ENDBRANCH  14  15
ENDBRANCH  13  14
ENDBRANCH  12  13
ENDBRANCH  11  12
ENDBRANCH   1  11
TORSDOF 15
ENDMDL
MODEL 3
REMARK VINA RESULT:    -5.503      2.029      3.334
REMARK INTER + INTRA:         -12.506
REMARK INTER:                 -10.217
REMARK INTRA:                  -2.289
REMARK UNBOUND:                -2.177
REMARK SMILES O=C([O-])CCCCCCCCCCCCCCC(=O)[O-]
REMARK SMILES IDX 10 1 9 2 8 3 7 4 6 5 5 6 4 7 2 8 1 9 3 10 11 11 12 12 13 13
REMARK SMILES IDX 14 14 15 15 16 16 17 17 18 18 19 19 20 20
REMARK H PARENT
REMARK Flexibility Score: inf
ROOT
ATOM      1  C   UNL     1      15.120  -7.486  13.782  1.00  0.00     0.000 C 
ENDROOT
BRANCH   1   2
ATOM      2  C   UNL     1      13.965  -6.574  13.320  1.00  0.00     0.000 C 
BRANCH   2   3
ATOM      3  C   UNL     1      14.162  -5.924  11.938  1.00  0.00     0.000 C 
BRANCH   3   4
ATOM      4  C   UNL     1      15.426  -5.053  11.804  1.00  0.00     0.000 C 
BRANCH   4   5
ATOM      5  C   UNL     1      16.555  -5.722  10.992  1.00  0.00     0.000 C 
BRANCH   5   6
ATOM      6  C   UNL     1      17.843  -5.906  11.815  1.00  0.00     0.006 C 
BRANCH   6   7
ATOM      7  C   UNL     1      17.836  -5.065  13.098  1.00  0.00     0.053 C 
BRANCH   7   8
ATOM      8  C   UNL     1      18.456  -3.718  12.882  1.00  0.00     0.041 C 
ATOM      9  O   UNL     1      19.631  -3.626  12.442  1.00  0.00    -0.550 OA
ATOM     10  O   UNL     1      17.744  -2.567  13.196  1.00  0.00    -0.550 OA
ENDBRANCH   7   8
ENDBRANCH   6   7
ENDBRANCH   5   6
ENDBRANCH   4   5
ENDBRANCH   3   4
ENDBRANCH   2   3
ENDBRANCH   1   2
BRANCH   1  11
ATOM     11  C   UNL     1      15.555  -7.302  15.250  1.00  0.00     0.000 C 
BRANCH  11  12
ATOM     12  C   UNL     1      14.877  -6.134  15.989  1.00  0.00     0.000 C 
BRANCH  12  13
ATOM     13  C   UNL     1      15.686  -4.823  16.012  1.00  0.00     0.000 C 
BRANCH  13  14
ATOM     14  C   UNL     1      14.881  -3.584  15.562  1.00  0.00     0.000 C 
BRANCH  14  15
ATOM     15  C   UNL     1      13.488  -3.519  16.213  1.00  0.00     0.000 C 
BRANCH  15  16
ATOM     16  C   UNL     1      12.357  -3.350  15.182  1.00  0.00     0.006 C 
BRANCH  16  17
ATOM     17  C   UNL     1      12.617  -2.256  14.134  1.00  0.00     0.053 C 
BRANCH  17  18
ATOM     18  C   UNL     1      12.432  -2.761  12.736  1.00  0.00     0.041 C 
ATOM     19  O   UNL     1      13.081  -2.248  11.787  1.00  0.00    -0.550 OA
ATOM     20  O   UNL     1      11.525  -3.780  12.478  1.00  0.00    -0.550 OA
ENDBRANCH  17  18
ENDBRANCH  16  17
ENDBRANCH  15  16
ENDBRANCH  14  15
ENDBRANCH  13  14
ENDBRANCH  12  13
ENDBRANCH  11  12
ENDBRANCH   1  11
TORSDOF 15
ENDMDL
MODEL 4
REMARK VINA RESULT:    -5.497      3.009      5.164
REMARK INTER + INTRA:         -12.495
REMARK INTER:                 -10.499
REMARK INTRA:                  -1.996
REMARK UNBOUND:                -2.177
REMARK SMILES O=C([O-])CCCCCCCCCCCCCCC(=O)[O-]
REMARK SMILES IDX 10 1 9 2 8 3 7 4 6 5 5 6 4 7 2 8 1 9 3 10 11 11 12 12 13 13
REMARK SMILES IDX 14 14 15 15 16 16 17 17 18 18 19 19 20 20
REMARK H PARENT
REMARK Flexibility Score: inf
ROOT
ATOM      1  C   UNL     1      13.602  -6.557  12.885  1.00  0.00     0.000 C 
ENDROOT
BRANCH   1   2
ATOM      2  C   UNL     1      13.929  -5.466  11.844  1.00  0.00     0.000 C 
BRANCH   2   3
ATOM      3  C   UNL     1      15.367  -4.917  11.907  1.00  0.00     0.000 C 
BRANCH   3   4
ATOM      4  C   UNL     1      16.382  -5.653  11.011  1.00  0.00     0.000 C 
BRANCH   4   5
ATOM      5  C   UNL     1      17.731  -5.934  11.705  1.00  0.00     0.000 C 
BRANCH   5   6
ATOM      6  C   UNL     1      17.960  -5.036  12.934  1.00  0.00     0.006 C 
BRANCH   6   7
ATOM      7  C   UNL     1      19.024  -3.961  12.676  1.00  0.00     0.053 C 
BRANCH   7   8
ATOM      8  C   UNL     1      18.613  -2.631  13.231  1.00  0.00     0.041 C 
ATOM      9  O   UNL     1      17.469  -2.169  12.984  1.00  0.00    -0.550 OA
ATOM     10  O   UNL     1      19.507  -1.889  13.993  1.00  0.00    -0.550 OA
ENDBRANCH   7   8
ENDBRANCH   6   7
ENDBRANCH   5   6
ENDBRANCH   4   5
ENDBRANCH   3   4
ENDBRANCH   2   3
ENDBRANCH   1   2
BRANCH   1  11
ATOM     11  C   UNL     1      14.809  -7.076  13.693  1.00  0.00     0.000 C 
BRANCH  11  12
ATOM     12  C   UNL     1      14.514  -7.402  15.168  1.00  0.00     0.000 C 
BRANCH  12  13
ATOM     13  C   UNL     1      15.058  -6.377  16.181  1.00  0.00     0.000 C 
BRANCH  13  14
ATOM     14  C   UNL     1      14.655  -4.919  15.870  1.00  0.00     0.000 C 
BRANCH  14  15
ATOM     15  C   UNL     1      15.872  -3.991  15.716  1.00  0.00     0.000 C 
BRANCH  15  16
ATOM     16  C   UNL     1      17.120  -4.519  16.446  1.00  0.00     0.006 C 
BRANCH  16  17
ATOM     17  C   UNL     1      18.095  -3.422  16.905  1.00  0.00     0.053 C 
BRANCH  17  18
ATOM     18  C   UNL     1      17.906  -3.069  18.348  1.00  0.00     0.041 C 
ATOM     19  O   UNL     1      16.777  -2.704  18.768  1.00  0.00    -0.550 OA
ATOM     20  O   UNL     1      18.983  -3.120  19.224  1.00  0.00    -0.550 OA
ENDBRANCH  17  18
ENDBRANCH  16  17
ENDBRANCH  15  16
ENDBRANCH  14  15
ENDBRANCH  13  14
ENDBRANCH  12  13
ENDBRANCH  11  12
ENDBRANCH   1  11
TORSDOF 15
ENDMDL
MODEL 5
REMARK VINA RESULT:    -5.461      2.030      5.009
REMARK INTER + INTRA:         -12.427
REMARK INTER:                 -10.237
REMARK INTRA:                  -2.191
REMARK UNBOUND:                -2.177
REMARK SMILES O=C([O-])CCCCCCCCCCCCCCC(=O)[O-]
REMARK SMILES IDX 10 1 9 2 8 3 7 4 6 5 5 6 4 7 2 8 1 9 3 10 11 11 12 12 13 13
REMARK SMILES IDX 14 14 15 15 16 16 17 17 18 18 19 19 20 20
REMARK H PARENT
REMARK Flexibility Score: inf
ROOT
ATOM      1  C   UNL     1      17.482  -3.627  17.687  1.00  0.00     0.000 C 
ENDROOT
BRANCH   1   2
ATOM      2  C   UNL     1      16.302  -2.638  17.792  1.00  0.00     0.000 C 
BRANCH   2   3
ATOM      3  C   UNL     1      15.014  -3.084  17.075  1.00  0.00     0.000 C 
BRANCH   3   4
ATOM      4  C   UNL     1      15.160  -4.345  16.202  1.00  0.00     0.000 C 
BRANCH   4   5
ATOM      5  C   UNL     1      14.749  -4.131  14.730  1.00  0.00     0.000 C 
BRANCH   5   6
ATOM      6  C   UNL     1      15.542  -2.997  14.055  1.00  0.00     0.006 C 
BRANCH   6   7
ATOM      7  C   UNL     1      14.798  -2.406  12.851  1.00  0.00     0.053 C 
BRANCH   7   8
ATOM      8  C   UNL     1      15.343  -1.065  12.467  1.00  0.00     0.041 C 
ATOM      9  O   UNL     1      16.475  -0.699  12.880  1.00  0.00    -0.550 OA
ATOM     10  O   UNL     1      14.588  -0.206  11.678  1.00  0.00    -0.550 OA
ENDBRANCH   7   8
ENDBRANCH   6   7
ENDBRANCH   5   6
ENDBRANCH   4   5
ENDBRANCH   3   4
ENDBRANCH   2   3
ENDBRANCH   1   2
BRANCH   1  11
ATOM     11  C   UNL     1      18.670  -3.141  16.831  1.00  0.00     0.000 C 
BRANCH  11  12
ATOM     12  C   UNL     1      18.785  -3.798  15.444  1.00  0.00     0.000 C 
BRANCH  12  13
ATOM     13  C   UNL     1      19.018  -2.818  14.279  1.00  0.00     0.000 C 
BRANCH  13  14
ATOM     14  C   UNL     1      18.999  -3.487  12.887  1.00  0.00     0.000 C 
BRANCH  14  15
ATOM     15  C   UNL     1      18.771  -5.006  12.966  1.00  0.00     0.000 C 
BRANCH  15  16
ATOM     16  C   UNL     1      17.970  -5.551  11.770  1.00  0.00     0.006 C 
BRANCH  16  17
ATOM     17  C   UNL     1      16.594  -6.127  12.141  1.00  0.00     0.053 C 
BRANCH  17  18
ATOM     18  C   UNL     1      15.532  -5.720  11.167  1.00  0.00     0.041 C 
ATOM     19  O   UNL     1      14.327  -5.668  11.528  1.00  0.00    -0.550 OA
ATOM     20  O   UNL     1      15.870  -5.422   9.853  1.00  0.00    -0.550 OA
ENDBRANCH  17  18
ENDBRANCH  16  17
ENDBRANCH  15  16
ENDBRANCH  14  15
ENDBRANCH  13  14
ENDBRANCH  12  13
ENDBRANCH  11  12
ENDBRANCH   1  11
TORSDOF 15
ENDMDL
MODEL 6
REMARK VINA RESULT:    -5.457      2.617      4.660
REMARK INTER + INTRA:         -12.420
REMARK INTER:                 -10.491
REMARK INTRA:                  -1.929
REMARK UNBOUND:                -2.177
REMARK SMILES O=C([O-])CCCCCCCCCCCCCCC(=O)[O-]
REMARK SMILES IDX 10 1 9 2 8 3 7 4 6 5 5 6 4 7 2 8 1 9 3 10 11 11 12 12 13 13
REMARK SMILES IDX 14 14 15 15 16 16 17 17 18 18 19 19 20 20
REMARK H PARENT
REMARK Flexibility Score: inf
ROOT
ATOM      1  C   UNL     1      14.812  -4.115  15.906  1.00  0.00     0.000 C 
ENDROOT
BRANCH   1   2
ATOM      2  C   UNL     1      14.899  -3.251  17.182  1.00  0.00     0.000 C 
BRANCH   2   3
ATOM      3  C   UNL     1      16.271  -2.600  17.435  1.00  0.00     0.000 C 
BRANCH   3   4
ATOM      4  C   UNL     1      17.442  -3.591  17.582  1.00  0.00     0.000 C 
BRANCH   4   5
ATOM      5  C   UNL     1      18.576  -3.367  16.559  1.00  0.00     0.000 C 
BRANCH   5   6
ATOM      6  C   UNL     1      18.714  -4.537  15.569  1.00  0.00     0.006 C 
BRANCH   6   7
ATOM      7  C   UNL     1      18.078  -4.225  14.208  1.00  0.00     0.053 C 
BRANCH   7   8
ATOM      8  C   UNL     1      19.106  -4.133  13.123  1.00  0.00     0.041 C 
ATOM      9  O   UNL     1      19.432  -3.012  12.654  1.00  0.00    -0.550 OA
ATOM     10  O   UNL     1      19.679  -5.289  12.608  1.00  0.00    -0.550 OA
ENDBRANCH   7   8
ENDBRANCH   6   7
ENDBRANCH   5   6
ENDBRANCH   4   5
ENDBRANCH   3   4
ENDBRANCH   2   3
ENDBRANCH   1   2
BRANCH   1  11
ATOM     11  C   UNL     1      14.499  -5.606  16.143  1.00  0.00     0.000 C 
BRANCH  11  12
ATOM     12  C   UNL     1      15.671  -6.568  15.880  1.00  0.00     0.000 C 
BRANCH  12  13
ATOM     13  C   UNL     1      15.422  -7.608  14.771  1.00  0.00     0.000 C 
BRANCH  13  14
ATOM     14  C   UNL     1      15.604  -7.051  13.342  1.00  0.00     0.000 C 
BRANCH  14  15
ATOM     15  C   UNL     1      14.283  -6.553  12.730  1.00  0.00     0.000 C 
BRANCH  15  16
ATOM     16  C   UNL     1      14.329  -5.064  12.345  1.00  0.00     0.006 C 
BRANCH  16  17
ATOM     17  C   UNL     1      13.492  -4.706  11.107  1.00  0.00     0.053 C 
BRANCH  17  18
ATOM     18  C   UNL     1      14.015  -5.360   9.865  1.00  0.00     0.041 C 
ATOM     19  O   UNL     1      15.233  -5.263   9.564  1.00  0.00    -0.550 OA
ATOM     20  O   UNL     1      13.152  -6.055   9.028  1.00  0.00    -0.550 OA
ENDBRANCH  17  18
ENDBRANCH  16  17
ENDBRANCH  15  16
ENDBRANCH  14  15
ENDBRANCH  13  14
ENDBRANCH  12  13
ENDBRANCH  11  12
ENDBRANCH   1  11
TORSDOF 15
ENDMDL
MODEL 7
REMARK VINA RESULT:    -5.456      2.332      4.586
REMARK INTER + INTRA:         -12.418
REMARK INTER:                 -10.237
REMARK INTRA:                  -2.182
REMARK UNBOUND:                -2.177
REMARK SMILES O=C([O-])CCCCCCCCCCCCCCC(=O)[O-]
REMARK SMILES IDX 10 1 9 2 8 3 7 4 6 5 5 6 4 7 2 8 1 9 3 10 11 11 12 12 13 13
REMARK SMILES IDX 14 14 15 15 16 16 17 17 18 18 19 19 20 20
REMARK H PARENT
REMARK Flexibility Score: inf
ROOT
ATOM      1  C   UNL     1      15.592  -7.532  14.464  1.00  0.00     0.000 C 
ENDROOT
BRANCH   1   2
ATOM      2  C   UNL     1      15.428  -6.691  15.747  1.00  0.00     0.000 C 
BRANCH   2   3
ATOM      3  C   UNL     1      16.667  -5.868  16.149  1.00  0.00     0.000 C 
BRANCH   3   4
ATOM      4  C   UNL     1      16.593  -4.371  15.795  1.00  0.00     0.000 C 
BRANCH   4   5
ATOM      5  C   UNL     1      15.166  -3.879  15.475  1.00  0.00     0.000 C 
BRANCH   5   6
ATOM      6  C   UNL     1      15.086  -3.140  14.127  1.00  0.00     0.006 C 
BRANCH   6   7
ATOM      7  C   UNL     1      16.458  -2.638  13.658  1.00  0.00     0.053 C 
BRANCH   7   8
ATOM      8  C   UNL     1      16.357  -1.313  12.967  1.00  0.00     0.041 C 
ATOM      9  O   UNL     1      17.143  -0.379  13.273  1.00  0.00    -0.550 OA
ATOM     10  O   UNL     1      15.375  -1.101  12.007  1.00  0.00    -0.550 OA
ENDBRANCH   7   8
ENDBRANCH   6   7
ENDBRANCH   5   6
ENDBRANCH   4   5
ENDBRANCH   3   4
ENDBRANCH   2   3
ENDBRANCH   1   2
BRANCH   1  11
ATOM     11  C   UNL     1      15.541  -6.733  13.145  1.00  0.00     0.000 C 
BRANCH  11  12
ATOM     12  C   UNL     1      16.910  -6.468  12.492  1.00  0.00     0.000 C 
BRANCH  12  13
ATOM     13  C   UNL     1      16.847  -5.842  11.086  1.00  0.00     0.000 C 
BRANCH  13  14
ATOM     14  C   UNL     1      15.597  -4.966  10.848  1.00  0.00     0.000 C 
BRANCH  14  15
ATOM     15  C   UNL     1      14.823  -5.376   9.583  1.00  0.00     0.000 C 
BRANCH  15  16
ATOM     16  C   UNL     1      13.327  -5.620   9.853  1.00  0.00     0.006 C 
BRANCH  16  17
ATOM     17  C   UNL     1      12.819  -5.020  11.174  1.00  0.00     0.053 C 
BRANCH  17  18
ATOM     18  C   UNL     1      12.054  -3.751  10.959  1.00  0.00     0.041 C 
ATOM     19  O   UNL     1      11.149  -3.697  10.086  1.00  0.00    -0.550 OA
ATOM     20  O   UNL     1      12.359  -2.619  11.705  1.00  0.00    -0.550 OA
ENDBRANCH  17  18
ENDBRANCH  16  17
ENDBRANCH  15  16
ENDBRANCH  14  15
ENDBRANCH  13  14
ENDBRANCH  12  13
ENDBRANCH  11  12
ENDBRANCH   1  11
TORSDOF 15
ENDMDL
MODEL 8
REMARK VINA RESULT:    -5.451      1.017      4.611
REMARK INTER + INTRA:         -12.408
REMARK INTER:                 -10.204
REMARK INTRA:                  -2.203
REMARK UNBOUND:                -2.177
REMARK SMILES O=C([O-])CCCCCCCCCCCCCCC(=O)[O-]
REMARK SMILES IDX 10 1 9 2 8 3 7 4 6 5 5 6 4 7 2 8 1 9 3 10 11 11 12 12 13 13
REMARK SMILES IDX 14 14 15 15 16 16 17 17 18 18 19 19 20 20
REMARK H PARENT
REMARK Flexibility Score: inf
ROOT
ATOM      1  C   UNL     1      15.666  -3.880  15.144  1.00  0.00     0.000 C 
ENDROOT
BRANCH   1   2
ATOM      2  C   UNL     1      14.906  -3.351  16.379  1.00  0.00     0.000 C 
BRANCH   2   3
ATOM      3  C   UNL     1      13.371  -3.397  16.268  1.00  0.00     0.000 C 
BRANCH   3   4
ATOM      4  C   UNL     1      12.834  -3.923  14.923  1.00  0.00     0.000 C 
BRANCH   4   5
ATOM      5  C   UNL     1      11.959  -2.903  14.163  1.00  0.00     0.000 C 
BRANCH   5   6
ATOM      6  C   UNL     1      12.753  -1.660  13.722  1.00  0.00     0.006 C 
BRANCH   6   7
ATOM      7  C   UNL     1      13.527  -1.899  12.418  1.00  0.00     0.053 C 
BRANCH   7   8
ATOM      8  C   UNL     1      14.450  -0.761  12.105  1.00  0.00     0.041 C 
ATOM      9  O   UNL     1      14.057   0.192  11.384  1.00  0.00    -0.550 OA
ATOM     10  O   UNL     1      15.754  -0.771  12.585  1.00  0.00    -0.550 OA
ENDBRANCH   7   8
ENDBRANCH   6   7
ENDBRANCH   5   6
ENDBRANCH   4   5
ENDBRANCH   3   4
ENDBRANCH   2   3
ENDBRANCH   1   2
BRANCH   1  11
ATOM     11  C   UNL     1      16.392  -5.226  15.347  1.00  0.00     0.000 C 
BRANCH  11  12
ATOM     12  C   UNL     1      15.627  -6.256  16.199  1.00  0.00     0.000 C 
BRANCH  12  13
ATOM     13  C   UNL     1      14.816  -7.289  15.394  1.00  0.00     0.000 C 
BRANCH  13  14
ATOM     14  C   UNL     1      15.141  -7.299  13.884  1.00  0.00     0.000 C 
BRANCH  14  15
ATOM     15  C   UNL     1      13.971  -6.788  13.026  1.00  0.00     0.000 C 
BRANCH  15  16
ATOM     16  C   UNL     1      14.365  -5.601  12.128  1.00  0.00     0.006 C 
BRANCH  16  17
ATOM     17  C   UNL     1      13.331  -5.260  11.043  1.00  0.00     0.053 C 
BRANCH  17  18
ATOM     18  C   UNL     1      13.843  -5.549   9.666  1.00  0.00     0.041 C 
ATOM     19  O   UNL     1      13.078  -6.040   8.795  1.00  0.00    -0.550 OA
ATOM     20  O   UNL     1      15.173  -5.299   9.351  1.00  0.00    -0.550 OA
ENDBRANCH  17  18
ENDBRANCH  16  17
ENDBRANCH  15  16
ENDBRANCH  14  15
ENDBRANCH  13  14
ENDBRANCH  12  13
ENDBRANCH  11  12
ENDBRANCH   1  11
TORSDOF 15
ENDMDL
MODEL 9
REMARK VINA RESULT:    -5.409      2.167      4.628
REMARK INTER + INTRA:         -12.329
REMARK INTER:                  -9.804
REMARK INTRA:                  -2.524
REMARK UNBOUND:                -2.177
REMARK SMILES O=C([O-])CCCCCCCCCCCCCCC(=O)[O-]
REMARK SMILES IDX 10 1 9 2 8 3 7 4 6 5 5 6 4 7 2 8 1 9 3 10 11 11 12 12 13 13
REMARK SMILES IDX 14 14 15 15 16 16 17 17 18 18 19 19 20 20
REMARK H PARENT
REMARK Flexibility Score: inf
ROOT
ATOM      1  C   UNL     1      16.701  -6.027  15.830  1.00  0.00     0.000 C 
ENDROOT
BRANCH   1   2
ATOM      2  C   UNL     1      16.974  -4.664  16.500  1.00  0.00     0.000 C 
BRANCH   2   3
ATOM      3  C   UNL     1      16.045  -3.521  16.053  1.00  0.00     0.000 C 
BRANCH   3   4
ATOM      4  C   UNL     1      14.859  -3.242  16.996  1.00  0.00     0.000 C 
BRANCH   4   5
ATOM      5  C   UNL     1      13.483  -3.555  16.370  1.00  0.00     0.000 C 
BRANCH   5   6
ATOM      6  C   UNL     1      13.546  -3.678  14.837  1.00  0.00     0.006 C 
BRANCH   6   7
ATOM      7  C   UNL     1      12.321  -3.058  14.154  1.00  0.00     0.053 C 
BRANCH   7   8
ATOM      8  C   UNL     1      12.267  -3.398  12.696  1.00  0.00     0.041 C 
ATOM      9  O   UNL     1      13.158  -2.974  11.914  1.00  0.00    -0.550 OA
ATOM     10  O   UNL     1      11.217  -4.158  12.196  1.00  0.00    -0.550 OA
ENDBRANCH   7   8
ENDBRANCH   6   7
ENDBRANCH   5   6
ENDBRANCH   4   5
ENDBRANCH   3   4
ENDBRANCH   2   3
ENDBRANCH   1   2
BRANCH   1  11
ATOM     11  C   UNL     1      15.387  -6.714  16.253  1.00  0.00     0.000 C 
BRANCH  11  12
ATOM     12  C   UNL     1      14.582  -7.345  15.102  1.00  0.00     0.000 C 
BRANCH  12  13
ATOM     13  C   UNL     1      15.256  -7.263  13.719  1.00  0.00     0.000 C 
BRANCH  13  14
ATOM     14  C   UNL     1      14.528  -6.332  12.724  1.00  0.00     0.000 C 
BRANCH  14  15
ATOM     15  C   UNL     1      15.493  -5.663  11.729  1.00  0.00     0.000 C 
BRANCH  15  16
ATOM     16  C   UNL     1      16.463  -4.681  12.409  1.00  0.00     0.006 C 
BRANCH  16  17
ATOM     17  C   UNL     1      17.940  -5.103  12.338  1.00  0.00     0.053 C 
BRANCH  17  18
ATOM     18  C   UNL     1      18.815  -4.231  13.184  1.00  0.00     0.041 C 
ATOM     19  O   UNL     1      19.678  -4.745  13.943  1.00  0.00    -0.550 OA
ATOM     20  O   UNL     1      18.662  -2.850  13.153  1.00  0.00    -0.550 OA
ENDBRANCH  17  18
ENDBRANCH  16  17
ENDBRANCH  15  16
ENDBRANCH  14  15
ENDBRANCH  13  14
ENDBRANCH  12  13
ENDBRANCH  11  12
ENDBRANCH   1  11
TORSDOF 15
ENDMDL
