MODEL 1
REMARK VINA RESULT:    -7.265      0.000      0.000
REMARK INTER + INTRA:         -11.771
REMARK INTER:                 -10.662
REMARK INTRA:                  -1.109
REMARK UNBOUND:                -1.109
REMARK SMILES Cc1cc2c(C(C)C)c(O)c(O)c(C=O)c2c(O)c1-c1c(C)cc2c(C(C)C)c(O)c(O)c(C=O)c2c1O
REMARK SMILES IDX 1 1 2 2 3 3 4 4 16 5 13 6 11 7 9 8 5 9 17 10 19 11 20 12
REMARK SMILES IDX 37 13 21 14 36 15 23 16 22 17 24 18 33 19 25 20 31 21 29 22
REMARK SMILES IDX 38 23 34 25 35 26 26 27 27 28 28 29 32 30 30 32 18 34 6 36
REMARK SMILES IDX 7 37 8 38 14 39 15 40 10 41 12 43
REMARK H PARENT 38 24 32 31 30 33 18 35 10 42 12 44
REMARK Flexibility Score: inf
ROOT
ATOM      1  C   UNL     1      24.444 -29.732  23.826  1.00  0.00     0.045 C 
ATOM      2  C   UNL     1      23.149 -30.273  23.269  1.00  0.00    -0.039 A 
ATOM      3  C   UNL     1      22.934 -31.652  23.249  1.00  0.00     0.013 A 
ATOM      4  C   UNL     1      21.763 -32.218  22.696  1.00  0.00    -0.006 A 
ATOM      5  C   UNL     1      20.739 -31.345  22.219  1.00  0.00     0.039 A 
ATOM      6  C   UNL     1      19.547 -31.910  21.681  1.00  0.00     0.072 A 
ATOM      7  C   UNL     1      19.315 -33.293  21.789  1.00  0.00     0.169 A 
ATOM      8  C   UNL     1      20.290 -34.136  22.349  1.00  0.00     0.162 A 
ATOM      9  C   UNL     1      21.576 -33.634  22.651  1.00  0.00     0.008 A 
ATOM     10  C   UNL     1      20.924 -29.933  22.332  1.00  0.00     0.132 A 
ATOM     11  C   UNL     1      22.143 -29.409  22.808  1.00  0.00     0.031 A 
ENDROOT
BRANCH  11  12
ATOM     12  C   UNL     1      22.359 -27.938  22.849  1.00  0.00     0.031 A 
ATOM     13  C   UNL     1      22.710 -27.238  21.676  1.00  0.00     0.132 A 
ATOM     14  C   UNL     1      22.255 -27.252  24.071  1.00  0.00    -0.039 A 
ATOM     15  C   UNL     1      22.855 -25.821  21.698  1.00  0.00     0.039 A 
ATOM     16  C   UNL     1      22.519 -25.882  24.115  1.00  0.00     0.013 A 
ATOM     17  C   UNL     1      21.940 -27.989  25.350  1.00  0.00     0.045 C 
ATOM     18  C   UNL     1      22.790 -25.135  22.947  1.00  0.00    -0.006 A 
ATOM     19  C   UNL     1      23.122 -25.072  20.517  1.00  0.00     0.072 A 
ATOM     20  C   UNL     1      23.047 -23.730  23.006  1.00  0.00     0.008 A 
ATOM     21  C   UNL     1      23.553 -23.740  20.615  1.00  0.00     0.169 A 
ATOM     22  C   UNL     1      23.591 -23.097  21.865  1.00  0.00     0.162 A 
BRANCH  13  23
ATOM     23  O   UNL     1      22.976 -27.953  20.502  1.00  0.00    -0.507 OA
ATOM     24  H   UNL     1      23.265 -28.923  20.488  1.00  0.00     0.293 HD
ENDBRANCH  13  23
BRANCH  19  25
ATOM     25  C   UNL     1      22.889 -25.603  19.155  1.00  0.00     0.264 C 
ATOM     26  O   UNL     1      23.856 -25.875  18.394  1.00  0.00    -0.298 OA
ENDBRANCH  19  25
BRANCH  20  27
ATOM     27  C   UNL     1      22.805 -22.914  24.288  1.00  0.00     0.017 C 
ATOM     28  C   UNL     1      24.128 -22.586  24.986  1.00  0.00     0.012 C 
ATOM     29  C   UNL     1      21.958 -21.646  24.069  1.00  0.00     0.012 C 
ENDBRANCH  20  27
BRANCH  21  30
ATOM     30  O   UNL     1      23.893 -23.061  19.439  1.00  0.00    -0.504 OA
ATOM     31  H   UNL     1      23.909 -23.486  18.522  1.00  0.00     0.293 HD
ENDBRANCH  21  30
BRANCH  22  32
ATOM     32  O   UNL     1      24.171 -21.833  21.998  1.00  0.00    -0.504 OA
ATOM     33  H   UNL     1      23.744 -21.062  22.493  1.00  0.00     0.293 HD
ENDBRANCH  22  32
ENDBRANCH  11  12
BRANCH  10  34
ATOM     34  O   UNL     1      19.879 -29.056  22.019  1.00  0.00    -0.507 OA
ATOM     35  H   UNL     1      19.937 -28.051  22.116  1.00  0.00     0.293 HD
ENDBRANCH  10  34
BRANCH   9  36
ATOM     36  C   UNL     1      22.720 -34.613  22.969  1.00  0.00     0.017 C 
ATOM     37  C   UNL     1      23.971 -34.281  22.148  1.00  0.00     0.012 C 
ATOM     38  C   UNL     1      23.050 -34.721  24.471  1.00  0.00     0.012 C 
ENDBRANCH   9  36
BRANCH   6  39
ATOM     39  C   UNL     1      18.563 -31.101  20.922  1.00  0.00     0.264 C 
ATOM     40  O   UNL     1      17.430 -30.834  21.404  1.00  0.00    -0.298 OA
ENDBRANCH   6  39
BRANCH   8  41
ATOM     41  O   UNL     1      20.000 -35.475  22.625  1.00  0.00    -0.504 OA
ATOM     42  H   UNL     1      20.164 -36.234  21.980  1.00  0.00     0.293 HD
ENDBRANCH   8  41
BRANCH   7  43
ATOM     43  O   UNL     1      18.120 -33.817  21.280  1.00  0.00    -0.504 OA
ATOM     44  H   UNL     1      17.855 -33.780  20.306  1.00  0.00     0.293 HD
ENDBRANCH   7  43
TORSDOF 11
ENDMDL
MODEL 2
REMARK VINA RESULT:    -7.248      6.065      8.706
REMARK INTER + INTRA:         -11.746
REMARK INTER:                 -10.583
REMARK INTRA:                  -1.163
REMARK UNBOUND:                -1.109
REMARK SMILES Cc1cc2c(C(C)C)c(O)c(O)c(C=O)c2c(O)c1-c1c(C)cc2c(C(C)C)c(O)c(O)c(C=O)c2c1O
REMARK SMILES IDX 1 1 2 2 3 3 4 4 16 5 13 6 11 7 9 8 5 9 17 10 19 11 20 12
REMARK SMILES IDX 37 13 21 14 36 15 23 16 22 17 24 18 33 19 25 20 31 21 29 22
REMARK SMILES IDX 38 23 34 25 35 26 26 27 27 28 28 29 32 30 30 32 18 34 6 36
REMARK SMILES IDX 7 37 8 38 14 39 15 40 10 41 12 43
REMARK H PARENT 38 24 32 31 30 33 18 35 10 42 12 44
REMARK Flexibility Score: inf
ROOT
ATOM      1  C   UNL     1      20.363 -31.249  21.202  1.00  0.00     0.045 C 
ATOM      2  C   UNL     1      20.790 -32.457  22.000  1.00  0.00    -0.039 A 
ATOM      3  C   UNL     1      22.149 -32.737  22.146  1.00  0.00     0.013 A 
ATOM      4  C   UNL     1      22.606 -33.881  22.840  1.00  0.00    -0.006 A 
ATOM      5  C   UNL     1      21.647 -34.726  23.476  1.00  0.00     0.039 A 
ATOM      6  C   UNL     1      22.104 -35.867  24.196  1.00  0.00     0.072 A 
ATOM      7  C   UNL     1      23.480 -36.049  24.423  1.00  0.00     0.169 A 
ATOM      8  C   UNL     1      24.416 -35.157  23.871  1.00  0.00     0.162 A 
ATOM      9  C   UNL     1      24.001 -34.173  22.947  1.00  0.00     0.008 A 
ATOM     10  C   UNL     1      20.264 -34.378  23.406  1.00  0.00     0.132 A 
ATOM     11  C   UNL     1      19.841 -33.279  22.629  1.00  0.00     0.031 A 
ENDROOT
BRANCH  11  12
ATOM     12  C   UNL     1      18.393 -32.970  22.496  1.00  0.00     0.031 A 
ATOM     13  C   UNL     1      17.672 -33.414  21.368  1.00  0.00     0.132 A 
ATOM     14  C   UNL     1      17.752 -32.197  23.479  1.00  0.00    -0.039 A 
ATOM     15  C   UNL     1      16.272 -33.174  21.267  1.00  0.00     0.039 A 
ATOM     16  C   UNL     1      16.408 -31.858  23.319  1.00  0.00     0.013 A 
ATOM     17  C   UNL     1      18.516 -31.660  24.665  1.00  0.00     0.045 C 
ATOM     18  C   UNL     1      15.635 -32.353  22.244  1.00  0.00    -0.006 A 
ATOM     19  C   UNL     1      15.497 -33.681  20.187  1.00  0.00     0.072 A 
ATOM     20  C   UNL     1      14.256 -32.007  22.099  1.00  0.00     0.008 A 
ATOM     21  C   UNL     1      14.204 -33.185  19.959  1.00  0.00     0.169 A 
ATOM     22  C   UNL     1      13.617 -32.289  20.870  1.00  0.00     0.162 A 
BRANCH  13  23
ATOM     23  O   UNL     1      18.356 -34.036  20.317  1.00  0.00    -0.507 OA
ATOM     24  H   UNL     1      17.898 -34.483  19.534  1.00  0.00     0.293 HD
ENDBRANCH  13  23
BRANCH  19  25
ATOM     25  C   UNL     1      15.953 -34.788  19.316  1.00  0.00     0.264 C 
ATOM     26  O   UNL     1      16.022 -35.968  19.755  1.00  0.00    -0.298 OA
ENDBRANCH  19  25
BRANCH  20  27
ATOM     27  C   UNL     1      13.478 -31.288  23.215  1.00  0.00     0.017 C 
ATOM     28  C   UNL     1      13.496 -32.105  24.511  1.00  0.00     0.012 C 
ATOM     29  C   UNL     1      13.939 -29.839  23.462  1.00  0.00     0.012 C 
ENDBRANCH  20  27
BRANCH  21  30
ATOM     30  O   UNL     1      13.503 -33.639  18.835  1.00  0.00    -0.504 OA
ATOM     31  H   UNL     1      13.943 -33.976  17.990  1.00  0.00     0.293 HD
ENDBRANCH  21  30
BRANCH  22  32
ATOM     32  O   UNL     1      12.404 -31.662  20.572  1.00  0.00    -0.504 OA
ATOM     33  H   UNL     1      11.500 -32.106  20.656  1.00  0.00     0.293 HD
ENDBRANCH  22  32
ENDBRANCH  11  12
BRANCH  10  34
ATOM     34  O   UNL     1      19.317 -35.095  24.147  1.00  0.00    -0.507 OA
ATOM     35  H   UNL     1      19.253 -35.071  25.156  1.00  0.00     0.293 HD
ENDBRANCH  10  34
BRANCH   9  36
ATOM     36  C   UNL     1      25.054 -33.411  22.122  1.00  0.00     0.017 C 
ATOM     37  C   UNL     1      25.865 -32.461  23.012  1.00  0.00     0.012 C 
ATOM     38  C   UNL     1      25.978 -34.324  21.293  1.00  0.00     0.012 C 
ENDBRANCH   9  36
BRANCH   6  39
ATOM     39  C   UNL     1      21.181 -36.935  24.649  1.00  0.00     0.264 C 
ATOM     40  O   UNL     1      20.775 -36.982  25.841  1.00  0.00    -0.298 OA
ENDBRANCH   6  39
BRANCH   8  41
ATOM     41  O   UNL     1      25.763 -35.223  24.238  1.00  0.00    -0.504 OA
ATOM     42  H   UNL     1      26.133 -34.857  25.102  1.00  0.00     0.293 HD
ENDBRANCH   8  41
BRANCH   7  43
ATOM     43  O   UNL     1      23.899 -37.163  25.161  1.00  0.00    -0.504 OA
ATOM     44  H   UNL     1      23.554 -37.393  26.083  1.00  0.00     0.293 HD
ENDBRANCH   7  43
TORSDOF 11
ENDMDL
MODEL 3
REMARK VINA RESULT:    -7.190      6.065      9.116
REMARK INTER + INTRA:         -11.662
REMARK INTER:                 -10.641
REMARK INTRA:                  -1.022
REMARK UNBOUND:                -1.109
REMARK SMILES Cc1cc2c(C(C)C)c(O)c(O)c(C=O)c2c(O)c1-c1c(C)cc2c(C(C)C)c(O)c(O)c(C=O)c2c1O
REMARK SMILES IDX 1 1 2 2 3 3 4 4 16 5 13 6 11 7 9 8 5 9 17 10 19 11 20 12
REMARK SMILES IDX 37 13 21 14 36 15 23 16 22 17 24 18 33 19 25 20 31 21 29 22
REMARK SMILES IDX 38 23 34 25 35 26 26 27 27 28 28 29 32 30 30 32 18 34 6 36
REMARK SMILES IDX 7 37 8 38 14 39 15 40 10 41 12 43
REMARK H PARENT 38 24 32 31 30 33 18 35 10 42 12 44
REMARK Flexibility Score: inf
ROOT
ATOM      1  C   UNL     1      18.462 -31.800  24.782  1.00  0.00     0.045 C 
ATOM      2  C   UNL     1      17.738 -32.314  23.561  1.00  0.00    -0.039 A 
ATOM      3  C   UNL     1      16.406 -31.953  23.350  1.00  0.00     0.013 A 
ATOM      4  C   UNL     1      15.664 -32.444  22.251  1.00  0.00    -0.006 A 
ATOM      5  C   UNL     1      16.325 -33.266  21.290  1.00  0.00     0.039 A 
ATOM      6  C   UNL     1      15.587 -33.744  20.169  1.00  0.00     0.072 A 
ATOM      7  C   UNL     1      14.288 -33.263  19.926  1.00  0.00     0.169 A 
ATOM      8  C   UNL     1      13.678 -32.376  20.831  1.00  0.00     0.162 A 
ATOM      9  C   UNL     1      14.291 -32.093  22.072  1.00  0.00     0.008 A 
ATOM     10  C   UNL     1      17.714 -33.550  21.460  1.00  0.00     0.132 A 
ATOM     11  C   UNL     1      18.396 -33.117  22.615  1.00  0.00     0.031 A 
ENDROOT
BRANCH  11  12
ATOM     12  C   UNL     1      19.822 -33.484  22.824  1.00  0.00     0.031 A 
ATOM     13  C   UNL     1      20.158 -34.650  23.543  1.00  0.00     0.132 A 
ATOM     14  C   UNL     1      20.837 -32.642  22.339  1.00  0.00    -0.039 A 
ATOM     15  C   UNL     1      21.520 -35.038  23.691  1.00  0.00     0.039 A 
ATOM     16  C   UNL     1      22.172 -32.959  22.591  1.00  0.00     0.013 A 
ATOM     17  C   UNL     1      20.502 -31.358  21.619  1.00  0.00     0.045 C 
ATOM     18  C   UNL     1      22.547 -34.160  23.235  1.00  0.00    -0.006 A 
ATOM     19  C   UNL     1      21.892 -36.252  24.335  1.00  0.00     0.072 A 
ATOM     20  C   UNL     1      23.920 -34.477  23.475  1.00  0.00     0.008 A 
ATOM     21  C   UNL     1      23.224 -36.458  24.727  1.00  0.00     0.169 A 
ATOM     22  C   UNL     1      24.220 -35.533  24.367  1.00  0.00     0.162 A 
BRANCH  13  23
ATOM     23  O   UNL     1      19.145 -35.389  24.166  1.00  0.00    -0.507 OA
ATOM     24  H   UNL     1      19.058 -36.394  24.097  1.00  0.00     0.293 HD
ENDBRANCH  13  23
BRANCH  19  25
ATOM     25  C   UNL     1      20.950 -37.374  24.547  1.00  0.00     0.264 C 
ATOM     26  O   UNL     1      20.571 -38.090  23.581  1.00  0.00    -0.298 OA
ENDBRANCH  19  25
BRANCH  20  27
ATOM     27  C   UNL     1      25.063 -33.666  22.842  1.00  0.00     0.017 C 
ATOM     28  C   UNL     1      25.127 -33.897  21.329  1.00  0.00     0.012 C 
ATOM     29  C   UNL     1      25.020 -32.162  23.177  1.00  0.00     0.012 C 
ENDBRANCH  20  27
BRANCH  21  30
ATOM     30  O   UNL     1      23.538 -37.622  25.437  1.00  0.00    -0.504 OA
ATOM     31  H   UNL     1      24.219 -37.666  26.183  1.00  0.00     0.293 HD
ENDBRANCH  21  30
BRANCH  22  32
ATOM     32  O   UNL     1      25.512 -35.638  24.888  1.00  0.00    -0.504 OA
ATOM     33  H   UNL     1      26.123 -36.429  24.736  1.00  0.00     0.293 HD
ENDBRANCH  22  32
ENDBRANCH  11  12
BRANCH  10  34
ATOM     34  O   UNL     1      18.426 -34.221  20.458  1.00  0.00    -0.507 OA
ATOM     35  H   UNL     1      17.992 -34.672  19.663  1.00  0.00     0.293 HD
ENDBRANCH  10  34
BRANCH   9  36
ATOM     36  C   UNL     1      13.485 -31.377  23.172  1.00  0.00     0.017 C 
ATOM     37  C   UNL     1      13.497 -32.186  24.473  1.00  0.00     0.012 C 
ATOM     38  C   UNL     1      13.922 -29.919  23.416  1.00  0.00     0.012 C 
ENDBRANCH   9  36
BRANCH   6  39
ATOM     39  C   UNL     1      16.106 -34.810  19.280  1.00  0.00     0.264 C 
ATOM     40  O   UNL     1      16.134 -36.013  19.653  1.00  0.00    -0.298 OA
ENDBRANCH   6  39
BRANCH   8  41
ATOM     41  O   UNL     1      12.468 -31.755  20.510  1.00  0.00    -0.504 OA
ATOM     42  H   UNL     1      12.221 -30.817  20.791  1.00  0.00     0.293 HD
ENDBRANCH   8  41
BRANCH   7  43
ATOM     43  O   UNL     1      13.598 -33.725  18.799  1.00  0.00    -0.504 OA
ATOM     44  H   UNL     1      13.795 -33.428  17.853  1.00  0.00     0.293 HD
ENDBRANCH   7  43
TORSDOF 11
ENDMDL
MODEL 4
REMARK VINA RESULT:    -7.048      5.138      9.807
REMARK INTER + INTRA:         -11.454
REMARK INTER:                 -10.128
REMARK INTRA:                  -1.325
REMARK UNBOUND:                -1.109
REMARK SMILES Cc1cc2c(C(C)C)c(O)c(O)c(C=O)c2c(O)c1-c1c(C)cc2c(C(C)C)c(O)c(O)c(C=O)c2c1O
REMARK SMILES IDX 1 1 2 2 3 3 4 4 16 5 13 6 11 7 9 8 5 9 17 10 19 11 20 12
REMARK SMILES IDX 37 13 21 14 36 15 23 16 22 17 24 18 33 19 25 20 31 21 29 22
REMARK SMILES IDX 38 23 34 25 35 26 26 27 27 28 28 29 32 30 30 32 18 34 6 36
REMARK SMILES IDX 7 37 8 38 14 39 15 40 10 41 12 43
REMARK H PARENT 38 24 32 31 30 33 18 35 10 42 12 44
REMARK Flexibility Score: inf
ROOT
ATOM      1  C   UNL     1      21.023 -24.499  28.002  1.00  0.00     0.045 C 
ATOM      2  C   UNL     1      22.475 -24.496  28.415  1.00  0.00    -0.039 A 
ATOM      3  C   UNL     1      22.815 -24.145  29.722  1.00  0.00     0.013 A 
ATOM      4  C   UNL     1      24.161 -24.078  30.151  1.00  0.00    -0.006 A 
ATOM      5  C   UNL     1      25.191 -24.459  29.240  1.00  0.00     0.039 A 
ATOM      6  C   UNL     1      26.547 -24.415  29.675  1.00  0.00     0.072 A 
ATOM      7  C   UNL     1      26.842 -24.175  31.029  1.00  0.00     0.169 A 
ATOM      8  C   UNL     1      25.812 -23.893  31.942  1.00  0.00     0.162 A 
ATOM      9  C   UNL     1      24.493 -23.680  31.483  1.00  0.00     0.008 A 
ATOM     10  C   UNL     1      24.828 -24.912  27.935  1.00  0.00     0.132 A 
ATOM     11  C   UNL     1      23.483 -24.879  27.515  1.00  0.00     0.031 A 
ENDROOT
BRANCH  11  12
ATOM     12  C   UNL     1      23.121 -25.277  26.129  1.00  0.00     0.031 A 
ATOM     13  C   UNL     1      23.032 -26.641  25.781  1.00  0.00     0.132 A 
ATOM     14  C   UNL     1      22.910 -24.288  25.153  1.00  0.00    -0.039 A 
ATOM     15  C   UNL     1      22.625 -27.025  24.471  1.00  0.00     0.039 A 
ATOM     16  C   UNL     1      22.632 -24.667  23.839  1.00  0.00     0.013 A 
ATOM     17  C   UNL     1      23.060 -22.823  25.486  1.00  0.00     0.045 C 
ATOM     18  C   UNL     1      22.454 -26.021  23.473  1.00  0.00    -0.006 A 
ATOM     19  C   UNL     1      22.440 -28.389  24.110  1.00  0.00     0.072 A 
ATOM     20  C   UNL     1      22.157 -26.394  22.126  1.00  0.00     0.008 A 
ATOM     21  C   UNL     1      22.335 -28.748  22.757  1.00  0.00     0.169 A 
ATOM     22  C   UNL     1      22.275 -27.755  21.763  1.00  0.00     0.162 A 
BRANCH  13  23
ATOM     23  O   UNL     1      23.409 -27.614  26.714  1.00  0.00    -0.507 OA
ATOM     24  H   UNL     1      23.501 -27.437  27.706  1.00  0.00     0.293 HD
ENDBRANCH  13  23
BRANCH  19  25
ATOM     25  C   UNL     1      22.265 -29.472  25.105  1.00  0.00     0.264 C 
ATOM     26  O   UNL     1      23.189 -30.299  25.327  1.00  0.00    -0.298 OA
ENDBRANCH  19  25
BRANCH  20  27
ATOM     27  C   UNL     1      21.778 -25.351  21.060  1.00  0.00     0.017 C 
ATOM     28  C   UNL     1      22.972 -25.031  20.156  1.00  0.00     0.012 C 
ATOM     29  C   UNL     1      20.536 -25.731  20.231  1.00  0.00     0.012 C 
ENDBRANCH  20  27
BRANCH  21  30
ATOM     30  O   UNL     1      22.245 -30.107  22.432  1.00  0.00    -0.504 OA
ATOM     31  H   UNL     1      22.618 -30.514  21.585  1.00  0.00     0.293 HD
ENDBRANCH  21  30
BRANCH  22  32
ATOM     32  O   UNL     1      22.337 -28.097  20.410  1.00  0.00    -0.504 OA
ATOM     33  H   UNL     1      23.078 -28.646  19.997  1.00  0.00     0.293 HD
ENDBRANCH  22  32
ENDBRANCH  11  12
BRANCH  10  34
ATOM     34  O   UNL     1      25.799 -25.439  27.075  1.00  0.00    -0.507 OA
ATOM     35  H   UNL     1      25.619 -26.173  26.402  1.00  0.00     0.293 HD
ENDBRANCH  10  34
BRANCH   9  36
ATOM     36  C   UNL     1      23.443 -23.077  32.435  1.00  0.00     0.017 C 
ATOM     37  C   UNL     1      23.316 -23.916  33.712  1.00  0.00     0.012 C 
ATOM     38  C   UNL     1      23.680 -21.590  32.764  1.00  0.00     0.012 C 
ENDBRANCH   9  36
BRANCH   6  39
ATOM     39  C   UNL     1      27.683 -24.527  28.729  1.00  0.00     0.264 C 
ATOM     40  O   UNL     1      28.402 -25.561  28.695  1.00  0.00    -0.298 OA
ENDBRANCH   6  39
BRANCH   8  41
ATOM     41  O   UNL     1      26.074 -23.833  33.314  1.00  0.00    -0.504 OA
ATOM     42  H   UNL     1      25.803 -23.063  33.908  1.00  0.00     0.293 HD
ENDBRANCH   8  41
BRANCH   7  43
ATOM     43  O   UNL     1      28.182 -24.169  31.435  1.00  0.00    -0.504 OA
ATOM     44  H   UNL     1      28.871 -24.840  31.123  1.00  0.00     0.293 HD
ENDBRANCH   7  43
TORSDOF 11
ENDMDL
MODEL 5
REMARK VINA RESULT:    -7.027      0.241      8.924
REMARK INTER + INTRA:         -11.422
REMARK INTER:                 -10.398
REMARK INTRA:                  -1.024
REMARK UNBOUND:                -1.109
REMARK SMILES Cc1cc2c(C(C)C)c(O)c(O)c(C=O)c2c(O)c1-c1c(C)cc2c(C(C)C)c(O)c(O)c(C=O)c2c1O
REMARK SMILES IDX 1 1 2 2 3 3 4 4 16 5 13 6 11 7 9 8 5 9 17 10 19 11 20 12
REMARK SMILES IDX 37 13 21 14 36 15 23 16 22 17 24 18 33 19 25 20 31 21 29 22
REMARK SMILES IDX 38 23 34 25 35 26 26 27 27 28 28 29 32 30 30 32 18 34 6 36
REMARK SMILES IDX 7 37 8 38 14 39 15 40 10 41 12 43
REMARK H PARENT 38 24 32 31 30 33 18 35 10 42 12 44
REMARK Flexibility Score: inf
ROOT
ATOM      1  C   UNL     1      21.889 -28.003  25.287  1.00  0.00     0.045 C 
ATOM      2  C   UNL     1      22.227 -27.278  24.007  1.00  0.00    -0.039 A 
ATOM      3  C   UNL     1      22.510 -25.912  24.046  1.00  0.00     0.013 A 
ATOM      4  C   UNL     1      22.786 -25.172  22.873  1.00  0.00    -0.006 A 
ATOM      5  C   UNL     1      22.854 -25.863  21.626  1.00  0.00     0.039 A 
ATOM      6  C   UNL     1      23.154 -25.125  20.445  1.00  0.00     0.072 A 
ATOM      7  C   UNL     1      23.551 -23.779  20.540  1.00  0.00     0.169 A 
ATOM      8  C   UNL     1      23.573 -23.131  21.787  1.00  0.00     0.162 A 
ATOM      9  C   UNL     1      23.037 -23.766  22.928  1.00  0.00     0.008 A 
ATOM     10  C   UNL     1      22.661 -27.278  21.607  1.00  0.00     0.132 A 
ATOM     11  C   UNL     1      22.300 -27.965  22.784  1.00  0.00     0.031 A 
ENDROOT
BRANCH  11  12
ATOM     12  C   UNL     1      22.022 -29.426  22.742  1.00  0.00     0.031 A 
ATOM     13  C   UNL     1      20.779 -29.900  22.274  1.00  0.00     0.132 A 
ATOM     14  C   UNL     1      22.988 -30.333  23.210  1.00  0.00    -0.039 A 
ATOM     15  C   UNL     1      20.532 -31.299  22.173  1.00  0.00     0.039 A 
ATOM     16  C   UNL     1      22.699 -31.698  23.225  1.00  0.00     0.013 A 
ATOM     17  C   UNL     1      24.302 -29.847  23.771  1.00  0.00     0.045 C 
ATOM     18  C   UNL     1      21.498 -32.214  22.688  1.00  0.00    -0.006 A 
ATOM     19  C   UNL     1      19.324 -31.813  21.625  1.00  0.00     0.072 A 
ATOM     20  C   UNL     1      21.220 -33.616  22.700  1.00  0.00     0.008 A 
ATOM     21  C   UNL     1      18.988 -33.163  21.813  1.00  0.00     0.169 A 
ATOM     22  C   UNL     1      19.901 -34.043  22.420  1.00  0.00     0.162 A 
BRANCH  13  23
ATOM     23  O   UNL     1      19.765 -28.983  21.971  1.00  0.00    -0.507 OA
ATOM     24  H   UNL     1      18.780 -29.217  21.957  1.00  0.00     0.293 HD
ENDBRANCH  13  23
BRANCH  19  25
ATOM     25  C   UNL     1      18.415 -31.008  20.777  1.00  0.00     0.264 C 
ATOM     26  O   UNL     1      17.289 -30.640  21.207  1.00  0.00    -0.298 OA
ENDBRANCH  19  25
BRANCH  20  27
ATOM     27  C   UNL     1      22.295 -34.653  23.066  1.00  0.00     0.017 C 
ATOM     28  C   UNL     1      23.603 -34.375  22.318  1.00  0.00     0.012 C 
ATOM     29  C   UNL     1      22.537 -34.792  24.581  1.00  0.00     0.012 C 
ENDBRANCH  20  27
BRANCH  21  30
ATOM     30  O   UNL     1      17.751 -33.615  21.339  1.00  0.00    -0.504 OA
ATOM     31  H   UNL     1      17.341 -33.331  20.460  1.00  0.00     0.293 HD
ENDBRANCH  21  30
BRANCH  22  32
ATOM     32  O   UNL     1      19.519 -35.343  22.761  1.00  0.00    -0.504 OA
ATOM     33  H   UNL     1      20.154 -36.049  23.105  1.00  0.00     0.293 HD
ENDBRANCH  22  32
ENDBRANCH  11  12
BRANCH  10  34
ATOM     34  O   UNL     1      22.874 -28.004  20.430  1.00  0.00    -0.507 OA
ATOM     35  H   UNL     1      23.677 -28.600  20.272  1.00  0.00     0.293 HD
ENDBRANCH  10  34
BRANCH   9  36
ATOM     36  C   UNL     1      22.785 -22.947  24.208  1.00  0.00     0.017 C 
ATOM     37  C   UNL     1      24.105 -22.602  24.906  1.00  0.00     0.012 C 
ATOM     38  C   UNL     1      21.926 -21.687  23.983  1.00  0.00     0.012 C 
ENDBRANCH   9  36
BRANCH   6  39
ATOM     39  C   UNL     1      22.978 -25.700  19.090  1.00  0.00     0.264 C 
ATOM     40  O   UNL     1      23.968 -25.920  18.342  1.00  0.00    -0.298 OA
ENDBRANCH   6  39
BRANCH   8  41
ATOM     41  O   UNL     1      24.136 -21.858  21.916  1.00  0.00    -0.504 OA
ATOM     42  H   UNL     1      24.179 -21.343  22.783  1.00  0.00     0.293 HD
ENDBRANCH   8  41
BRANCH   7  43
ATOM     43  O   UNL     1      23.871 -23.087  19.365  1.00  0.00    -0.504 OA
ATOM     44  H   UNL     1      24.625 -22.418  19.290  1.00  0.00     0.293 HD
ENDBRANCH   7  43
TORSDOF 11
ENDMDL
MODEL 6
REMARK VINA RESULT:    -7.001      5.713      9.642
REMARK INTER + INTRA:         -11.385
REMARK INTER:                 -10.095
REMARK INTRA:                  -1.290
REMARK UNBOUND:                -1.109
REMARK SMILES Cc1cc2c(C(C)C)c(O)c(O)c(C=O)c2c(O)c1-c1c(C)cc2c(C(C)C)c(O)c(O)c(C=O)c2c1O
REMARK SMILES IDX 1 1 2 2 3 3 4 4 16 5 13 6 11 7 9 8 5 9 17 10 19 11 20 12
REMARK SMILES IDX 37 13 21 14 36 15 23 16 22 17 24 18 33 19 25 20 31 21 29 22
REMARK SMILES IDX 38 23 34 25 35 26 26 27 27 28 28 29 32 30 30 32 18 34 6 36
REMARK SMILES IDX 7 37 8 38 14 39 15 40 10 41 12 43
REMARK H PARENT 38 24 32 31 30 33 18 35 10 42 12 44
REMARK Flexibility Score: inf
ROOT
ATOM      1  C   UNL     1      21.292 -26.440  27.247  1.00  0.00     0.045 C 
ATOM      2  C   UNL     1      21.950 -25.456  26.310  1.00  0.00    -0.039 A 
ATOM      3  C   UNL     1      21.909 -25.685  24.934  1.00  0.00     0.013 A 
ATOM      4  C   UNL     1      22.550 -24.825  24.013  1.00  0.00    -0.006 A 
ATOM      5  C   UNL     1      23.186 -23.646  24.505  1.00  0.00     0.039 A 
ATOM      6  C   UNL     1      23.813 -22.764  23.579  1.00  0.00     0.072 A 
ATOM      7  C   UNL     1      23.647 -22.963  22.197  1.00  0.00     0.169 A 
ATOM      8  C   UNL     1      22.935 -24.078  21.720  1.00  0.00     0.162 A 
ATOM      9  C   UNL     1      22.528 -25.096  22.611  1.00  0.00     0.008 A 
ATOM     10  C   UNL     1      23.139 -23.366  25.905  1.00  0.00     0.132 A 
ATOM     11  C   UNL     1      22.569 -24.294  26.800  1.00  0.00     0.031 A 
ENDROOT
BRANCH  11  12
ATOM     12  C   UNL     1      22.594 -24.034  28.264  1.00  0.00     0.031 A 
ATOM     13  C   UNL     1      23.713 -24.414  29.035  1.00  0.00     0.132 A 
ATOM     14  C   UNL     1      21.480 -23.446  28.887  1.00  0.00    -0.039 A 
ATOM     15  C   UNL     1      23.767 -24.109  30.425  1.00  0.00     0.039 A 
ATOM     16  C   UNL     1      21.484 -23.260  30.270  1.00  0.00     0.013 A 
ATOM     17  C   UNL     1      20.247 -23.086  28.094  1.00  0.00     0.045 C 
ATOM     18  C   UNL     1      22.619 -23.552  31.060  1.00  0.00    -0.006 A 
ATOM     19  C   UNL     1      24.915 -24.400  31.215  1.00  0.00     0.072 A 
ATOM     20  C   UNL     1      22.613 -23.345  32.474  1.00  0.00     0.008 A 
ATOM     21  C   UNL     1      24.828 -24.367  32.615  1.00  0.00     0.169 A 
ATOM     22  C   UNL     1      23.654 -23.917  33.242  1.00  0.00     0.162 A 
BRANCH  13  23
ATOM     23  O   UNL     1      24.742 -25.150  28.435  1.00  0.00    -0.507 OA
ATOM     24  H   UNL     1      25.639 -25.320  28.869  1.00  0.00     0.293 HD
ENDBRANCH  13  23
BRANCH  19  25
ATOM     25  C   UNL     1      26.251 -24.660  30.632  1.00  0.00     0.264 C 
ATOM     26  O   UNL     1      26.739 -25.822  30.633  1.00  0.00    -0.298 OA
ENDBRANCH  19  25
BRANCH  20  27
ATOM     27  C   UNL     1      21.481 -22.576  33.178  1.00  0.00     0.017 C 
ATOM     28  C   UNL     1      20.558 -23.534  33.939  1.00  0.00     0.012 C 
ATOM     29  C   UNL     1      21.974 -21.434  34.086  1.00  0.00     0.012 C 
ENDBRANCH  20  27
BRANCH  21  30
ATOM     30  O   UNL     1      25.951 -24.745  33.362  1.00  0.00    -0.504 OA
ATOM     31  H   UNL     1      26.839 -24.264  33.334  1.00  0.00     0.293 HD
ENDBRANCH  21  30
BRANCH  22  32
ATOM     32  O   UNL     1      23.494 -24.035  34.625  1.00  0.00    -0.504 OA
ATOM     33  H   UNL     1      23.047 -24.819  35.080  1.00  0.00     0.293 HD
ENDBRANCH  22  32
ENDBRANCH  11  12
BRANCH  10  34
ATOM     34  O   UNL     1      23.616 -22.146  26.398  1.00  0.00    -0.507 OA
ATOM     35  H   UNL     1      23.928 -21.383  25.812  1.00  0.00     0.293 HD
ENDBRANCH  10  34
BRANCH   9  36
ATOM     36  C   UNL     1      22.029 -26.441  22.052  1.00  0.00     0.017 C 
ATOM     37  C   UNL     1      20.629 -26.297  21.446  1.00  0.00     0.012 C 
ATOM     38  C   UNL     1      23.003 -27.104  21.058  1.00  0.00     0.012 C 
ENDBRANCH   9  36
BRANCH   6  39
ATOM     39  C   UNL     1      24.721 -21.677  24.016  1.00  0.00     0.264 C 
ATOM     40  O   UNL     1      25.903 -21.602  23.586  1.00  0.00    -0.298 OA
ENDBRANCH   6  39
BRANCH   8  41
ATOM     41  O   UNL     1      22.611 -24.188  20.365  1.00  0.00    -0.504 OA
ATOM     42  H   UNL     1      22.032 -24.919  19.979  1.00  0.00     0.293 HD
ENDBRANCH   8  41
BRANCH   7  43
ATOM     43  O   UNL     1      24.248 -22.063  21.309  1.00  0.00    -0.504 OA
ATOM     44  H   UNL     1      25.206 -21.748  21.383  1.00  0.00     0.293 HD
ENDBRANCH   7  43
TORSDOF 11
ENDMDL
MODEL 7
REMARK VINA RESULT:    -6.999      5.146      8.019
REMARK INTER + INTRA:         -11.381
REMARK INTER:                 -10.060
REMARK INTRA:                  -1.321
REMARK UNBOUND:                -1.109
REMARK SMILES Cc1cc2c(C(C)C)c(O)c(O)c(C=O)c2c(O)c1-c1c(C)cc2c(C(C)C)c(O)c(O)c(C=O)c2c1O
REMARK SMILES IDX 1 1 2 2 3 3 4 4 16 5 13 6 11 7 9 8 5 9 17 10 19 11 20 12
REMARK SMILES IDX 37 13 21 14 36 15 23 16 22 17 24 18 33 19 25 20 31 21 29 22
REMARK SMILES IDX 38 23 34 25 35 26 26 27 27 28 28 29 32 30 30 32 18 34 6 36
REMARK SMILES IDX 7 37 8 38 14 39 15 40 10 41 12 43
REMARK H PARENT 38 24 32 31 30 33 18 35 10 42 12 44
REMARK Flexibility Score: inf
ROOT
ATOM      1  C   UNL     1      23.140 -22.779  25.445  1.00  0.00     0.045 C 
ATOM      2  C   UNL     1      23.002 -24.249  25.132  1.00  0.00    -0.039 A 
ATOM      3  C   UNL     1      22.699 -24.647  23.829  1.00  0.00     0.013 A 
ATOM      4  C   UNL     1      22.509 -26.006  23.488  1.00  0.00    -0.006 A 
ATOM      5  C   UNL     1      22.714 -27.000  24.491  1.00  0.00     0.039 A 
ATOM      6  C   UNL     1      22.546 -28.372  24.147  1.00  0.00     0.072 A 
ATOM      7  C   UNL     1      22.362 -28.741  22.802  1.00  0.00     0.169 A 
ATOM      8  C   UNL     1      22.257 -27.757  21.803  1.00  0.00     0.162 A 
ATOM      9  C   UNL     1      22.164 -26.393  22.156  1.00  0.00     0.008 A 
ATOM     10  C   UNL     1      23.120 -26.592  25.798  1.00  0.00     0.132 A 
ATOM     11  C   UNL     1      23.211 -25.222  26.123  1.00  0.00     0.031 A 
ENDROOT
BRANCH  11  12
ATOM     12  C   UNL     1      23.557 -24.803  27.507  1.00  0.00     0.031 A 
ATOM     13  C   UNL     1      24.900 -24.812  27.938  1.00  0.00     0.132 A 
ATOM     14  C   UNL     1      22.536 -24.437  28.400  1.00  0.00    -0.039 A 
ATOM     15  C   UNL     1      25.241 -24.351  29.242  1.00  0.00     0.039 A 
ATOM     16  C   UNL     1      22.859 -24.103  29.715  1.00  0.00     0.013 A 
ATOM     17  C   UNL     1      21.086 -24.477  27.980  1.00  0.00     0.045 C 
ATOM     18  C   UNL     1      24.199 -24.022  30.158  1.00  0.00    -0.006 A 
ATOM     19  C   UNL     1      26.593 -24.265  29.680  1.00  0.00     0.072 A 
ATOM     20  C   UNL     1      24.517 -23.667  31.505  1.00  0.00     0.008 A 
ATOM     21  C   UNL     1      26.877 -24.100  31.044  1.00  0.00     0.169 A 
ATOM     22  C   UNL     1      25.837 -23.881  31.964  1.00  0.00     0.162 A 
BRANCH  13  23
ATOM     23  O   UNL     1      25.887 -25.339  27.097  1.00  0.00    -0.507 OA
ATOM     24  H   UNL     1      25.691 -25.797  26.217  1.00  0.00     0.293 HD
ENDBRANCH  13  23
BRANCH  19  25
ATOM     25  C   UNL     1      27.744 -24.258  28.749  1.00  0.00     0.264 C 
ATOM     26  O   UNL     1      28.507 -25.257  28.659  1.00  0.00    -0.298 OA
ENDBRANCH  19  25
BRANCH  20  27
ATOM     27  C   UNL     1      23.452 -23.123  32.474  1.00  0.00     0.017 C 
ATOM     28  C   UNL     1      23.355 -23.995  33.729  1.00  0.00     0.012 C 
ATOM     29  C   UNL     1      23.643 -21.638  32.839  1.00  0.00     0.012 C 
ENDBRANCH  20  27
BRANCH  21  30
ATOM     30  O   UNL     1      28.217 -24.109  31.452  1.00  0.00    -0.504 OA
ATOM     31  H   UNL     1      28.962 -24.563  30.943  1.00  0.00     0.293 HD
ENDBRANCH  21  30
BRANCH  22  32
ATOM     32  O   UNL     1      26.090 -23.880  33.338  1.00  0.00    -0.504 OA
ATOM     33  H   UNL     1      25.499 -23.430  34.024  1.00  0.00     0.293 HD
ENDBRANCH  22  32
ENDBRANCH  11  12
BRANCH  10  34
ATOM     34  O   UNL     1      23.478 -27.546  26.758  1.00  0.00    -0.507 OA
ATOM     35  H   UNL     1      23.320 -27.435  27.751  1.00  0.00     0.293 HD
ENDBRANCH  10  34
BRANCH   9  36
ATOM     36  C   UNL     1      21.744 -25.359  21.095  1.00  0.00     0.017 C 
ATOM     37  C   UNL     1      22.899 -25.062  20.133  1.00  0.00     0.012 C 
ATOM     38  C   UNL     1      20.461 -25.737  20.329  1.00  0.00     0.012 C 
ENDBRANCH   9  36
BRANCH   6  39
ATOM     39  C   UNL     1      22.470 -29.439  25.173  1.00  0.00     0.264 C 
ATOM     40  O   UNL     1      23.425 -30.241  25.351  1.00  0.00    -0.298 OA
ENDBRANCH   6  39
BRANCH   8  41
ATOM     41  O   UNL     1      22.255 -28.114  20.452  1.00  0.00    -0.504 OA
ATOM     42  H   UNL     1      21.500 -27.909  19.814  1.00  0.00     0.293 HD
ENDBRANCH   8  41
BRANCH   7  43
ATOM     43  O   UNL     1      22.232 -30.099  22.488  1.00  0.00    -0.504 OA
ATOM     44  H   UNL     1      22.968 -30.782  22.612  1.00  0.00     0.293 HD
ENDBRANCH   7  43
TORSDOF 11
ENDMDL
MODEL 8
REMARK VINA RESULT:    -6.967      3.779      7.350
REMARK INTER + INTRA:         -11.334
REMARK INTER:                  -9.894
REMARK INTRA:                  -1.440
REMARK UNBOUND:                -1.109
REMARK SMILES Cc1cc2c(C(C)C)c(O)c(O)c(C=O)c2c(O)c1-c1c(C)cc2c(C(C)C)c(O)c(O)c(C=O)c2c1O
REMARK SMILES IDX 1 1 2 2 3 3 4 4 16 5 13 6 11 7 9 8 5 9 17 10 19 11 20 12
REMARK SMILES IDX 37 13 21 14 36 15 23 16 22 17 24 18 33 19 25 20 31 21 29 22
REMARK SMILES IDX 38 23 34 25 35 26 26 27 27 28 28 29 32 30 30 32 18 34 6 36
REMARK SMILES IDX 7 37 8 38 14 39 15 40 10 41 12 43
REMARK H PARENT 38 24 32 31 30 33 18 35 10 42 12 44
REMARK Flexibility Score: inf
ROOT
ATOM      1  C   UNL     1      18.389 -31.346  25.554  1.00  0.00     0.045 C 
ATOM      2  C   UNL     1      17.957 -31.979  24.253  1.00  0.00    -0.039 A 
ATOM      3  C   UNL     1      16.618 -31.912  23.869  1.00  0.00     0.013 A 
ATOM      4  C   UNL     1      16.148 -32.529  22.686  1.00  0.00    -0.006 A 
ATOM      5  C   UNL     1      17.090 -33.166  21.825  1.00  0.00     0.039 A 
ATOM      6  C   UNL     1      16.625 -33.769  20.621  1.00  0.00     0.072 A 
ATOM      7  C   UNL     1      15.294 -33.577  20.208  1.00  0.00     0.169 A 
ATOM      8  C   UNL     1      14.394 -32.864  21.019  1.00  0.00     0.162 A 
ATOM      9  C   UNL     1      14.766 -32.482  22.328  1.00  0.00     0.008 A 
ATOM     10  C   UNL     1      18.475 -33.145  22.175  1.00  0.00     0.132 A 
ATOM     11  C   UNL     1      18.891 -32.598  23.407  1.00  0.00     0.031 A 
ENDROOT
BRANCH  11  12
ATOM     12  C   UNL     1      20.324 -32.651  23.802  1.00  0.00     0.031 A 
ATOM     13  C   UNL     1      21.171 -31.552  23.550  1.00  0.00     0.132 A 
ATOM     14  C   UNL     1      20.843 -33.817  24.389  1.00  0.00    -0.039 A 
ATOM     15  C   UNL     1      22.528 -31.573  23.984  1.00  0.00     0.039 A 
ATOM     16  C   UNL     1      22.201 -33.884  24.701  1.00  0.00     0.013 A 
ATOM     17  C   UNL     1      19.970 -35.028  24.613  1.00  0.00     0.045 C 
ATOM     18  C   UNL     1      23.061 -32.773  24.540  1.00  0.00    -0.006 A 
ATOM     19  C   UNL     1      23.387 -30.450  23.825  1.00  0.00     0.072 A 
ATOM     20  C   UNL     1      24.448 -32.852  24.876  1.00  0.00     0.008 A 
ATOM     21  C   UNL     1      24.774 -30.601  23.982  1.00  0.00     0.169 A 
ATOM     22  C   UNL     1      25.308 -31.822  24.429  1.00  0.00     0.162 A 
BRANCH  13  23
ATOM     23  O   UNL     1      20.685 -30.464  22.814  1.00  0.00    -0.507 OA
ATOM     24  H   UNL     1      19.936 -29.861  23.129  1.00  0.00     0.293 HD
ENDBRANCH  13  23
BRANCH  19  25
ATOM     25  C   UNL     1      22.886 -29.079  23.578  1.00  0.00     0.264 C 
ATOM     26  O   UNL     1      22.976 -28.556  22.435  1.00  0.00    -0.298 OA
ENDBRANCH  19  25
BRANCH  20  27
ATOM     27  C   UNL     1      25.029 -34.049  25.649  1.00  0.00     0.017 C 
ATOM     28  C   UNL     1      25.781 -34.996  24.709  1.00  0.00     0.012 C 
ATOM     29  C   UNL     1      25.902 -33.648  26.854  1.00  0.00     0.012 C 
ENDBRANCH  20  27
BRANCH  21  30
ATOM     30  O   UNL     1      25.598 -29.498  23.731  1.00  0.00    -0.504 OA
ATOM     31  H   UNL     1      26.536 -29.563  23.359  1.00  0.00     0.293 HD
ENDBRANCH  21  30
BRANCH  22  32
ATOM     32  O   UNL     1      26.688 -32.038  24.431  1.00  0.00    -0.504 OA
ATOM     33  H   UNL     1      27.267 -32.019  23.603  1.00  0.00     0.293 HD
ENDBRANCH  22  32
ENDBRANCH  11  12
BRANCH  10  34
ATOM     34  O   UNL     1      19.438 -33.622  21.279  1.00  0.00    -0.507 OA
ATOM     35  H   UNL     1      20.381 -33.876  21.546  1.00  0.00     0.293 HD
ENDBRANCH  10  34
BRANCH   9  36
ATOM     36  C   UNL     1      13.689 -31.982  23.309  1.00  0.00     0.017 C 
ATOM     37  C   UNL     1      13.735 -32.772  24.621  1.00  0.00     0.012 C 
ATOM     38  C   UNL     1      13.738 -30.463  23.568  1.00  0.00     0.012 C 
ENDBRANCH   9  36
BRANCH   6  39
ATOM     39  C   UNL     1      17.475 -34.677  19.814  1.00  0.00     0.264 C 
ATOM     40  O   UNL     1      17.927 -34.321  18.693  1.00  0.00    -0.298 OA
ENDBRANCH   6  39
BRANCH   8  41
ATOM     41  O   UNL     1      13.129 -32.514  20.540  1.00  0.00    -0.504 OA
ATOM     42  H   UNL     1      12.535 -31.818  20.966  1.00  0.00     0.293 HD
ENDBRANCH   8  41
BRANCH   7  43
ATOM     43  O   UNL     1      14.873 -34.154  19.004  1.00  0.00    -0.504 OA
ATOM     44  H   UNL     1      14.742 -33.638  18.144  1.00  0.00     0.293 HD
ENDBRANCH   7  43
TORSDOF 11
ENDMDL
MODEL 9
REMARK VINA RESULT:    -6.953      2.633      4.376
REMARK INTER + INTRA:         -11.313
REMARK INTER:                 -10.092
REMARK INTRA:                  -1.221
REMARK UNBOUND:                -1.109
REMARK SMILES Cc1cc2c(C(C)C)c(O)c(O)c(C=O)c2c(O)c1-c1c(C)cc2c(C(C)C)c(O)c(O)c(C=O)c2c1O
REMARK SMILES IDX 1 1 2 2 3 3 4 4 16 5 13 6 11 7 9 8 5 9 17 10 19 11 20 12
REMARK SMILES IDX 37 13 21 14 36 15 23 16 22 17 24 18 33 19 25 20 31 21 29 22
REMARK SMILES IDX 38 23 34 25 35 26 26 27 27 28 28 29 32 30 30 32 18 34 6 36
REMARK SMILES IDX 7 37 8 38 14 39 15 40 10 41 12 43
REMARK H PARENT 38 24 32 31 30 33 18 35 10 42 12 44
REMARK Flexibility Score: inf
ROOT
ATOM      1  C   UNL     1      23.475 -32.689  23.257  1.00  0.00     0.045 C 
ATOM      2  C   UNL     1      22.045 -33.052  23.577  1.00  0.00    -0.039 A 
ATOM      3  C   UNL     1      21.744 -34.349  23.996  1.00  0.00     0.013 A 
ATOM      4  C   UNL     1      20.417 -34.759  24.262  1.00  0.00    -0.006 A 
ATOM      5  C   UNL     1      19.371 -33.793  24.177  1.00  0.00     0.039 A 
ATOM      6  C   UNL     1      18.035 -34.196  24.466  1.00  0.00     0.072 A 
ATOM      7  C   UNL     1      17.788 -35.474  25.000  1.00  0.00     0.169 A 
ATOM      8  C   UNL     1      18.841 -36.389  25.171  1.00  0.00     0.162 A 
ATOM      9  C   UNL     1      20.124 -36.102  24.654  1.00  0.00     0.008 A 
ATOM     10  C   UNL     1      19.699 -32.444  23.844  1.00  0.00     0.132 A 
ATOM     11  C   UNL     1      21.021 -32.095  23.498  1.00  0.00     0.031 A 
ENDROOT
BRANCH  11  12
ATOM     12  C   UNL     1      21.341 -30.705  23.075  1.00  0.00     0.031 A 
ATOM     13  C   UNL     1      21.814 -29.767  24.016  1.00  0.00     0.132 A 
ATOM     14  C   UNL     1      21.132 -30.317  21.742  1.00  0.00    -0.039 A 
ATOM     15  C   UNL     1      22.182 -28.454  23.603  1.00  0.00     0.039 A 
ATOM     16  C   UNL     1      21.375 -28.996  21.363  1.00  0.00     0.013 A 
ATOM     17  C   UNL     1      20.570 -31.286  20.730  1.00  0.00     0.045 C 
ATOM     18  C   UNL     1      21.927 -28.052  22.259  1.00  0.00    -0.006 A 
ATOM     19  C   UNL     1      22.743 -27.510  24.508  1.00  0.00     0.072 A 
ATOM     20  C   UNL     1      22.183 -26.705  21.855  1.00  0.00     0.008 A 
ATOM     21  C   UNL     1      22.813 -26.154  24.151  1.00  0.00     0.169 A 
ATOM     22  C   UNL     1      22.458 -25.743  22.854  1.00  0.00     0.162 A 
BRANCH  13  23
ATOM     23  O   UNL     1      21.858 -30.116  25.371  1.00  0.00    -0.507 OA
ATOM     24  H   UNL     1      22.492 -30.805  25.755  1.00  0.00     0.293 HD
ENDBRANCH  13  23
BRANCH  19  25
ATOM     25  C   UNL     1      23.349 -27.894  25.803  1.00  0.00     0.264 C 
ATOM     26  O   UNL     1      22.748 -27.669  26.888  1.00  0.00    -0.298 OA
ENDBRANCH  19  25
BRANCH  20  27
ATOM     27  C   UNL     1      22.106 -26.271  20.381  1.00  0.00     0.017 C 
ATOM     28  C   UNL     1      20.742 -25.652  20.062  1.00  0.00     0.012 C 
ATOM     29  C   UNL     1      23.256 -25.345  19.942  1.00  0.00     0.012 C 
ENDBRANCH  20  27
BRANCH  21  30
ATOM     30  O   UNL     1      23.287 -25.239  25.098  1.00  0.00    -0.504 OA
ATOM     31  H   UNL     1      24.266 -25.093  25.305  1.00  0.00     0.293 HD
ENDBRANCH  21  30
BRANCH  22  32
ATOM     32  O   UNL     1      22.364 -24.386  22.538  1.00  0.00    -0.504 OA
ATOM     33  H   UNL     1      21.573 -23.801  22.771  1.00  0.00     0.293 HD
ENDBRANCH  22  32
ENDBRANCH  11  12
BRANCH  10  34
ATOM     34  O   UNL     1      18.722 -31.443  23.904  1.00  0.00    -0.507 OA
ATOM     35  H   UNL     1      17.868 -31.519  24.441  1.00  0.00     0.293 HD
ENDBRANCH  10  34
BRANCH   9  36
ATOM     36  C   UNL     1      21.179 -37.220  24.572  1.00  0.00     0.017 C 
ATOM     37  C   UNL     1      21.629 -37.443  23.124  1.00  0.00     0.012 C 
ATOM     38  C   UNL     1      22.386 -37.010  25.507  1.00  0.00     0.012 C 
ENDBRANCH   9  36
BRANCH   6  39
ATOM     39  C   UNL     1      16.866 -33.344  24.142  1.00  0.00     0.264 C 
ATOM     40  O   UNL     1      15.938 -33.766  23.402  1.00  0.00    -0.298 OA
ENDBRANCH   6  39
BRANCH   8  41
ATOM     41  O   UNL     1      18.637 -37.586  25.864  1.00  0.00    -0.504 OA
ATOM     42  H   UNL     1      18.193 -37.648  26.768  1.00  0.00     0.293 HD
ENDBRANCH   8  41
BRANCH   7  43
ATOM     43  O   UNL     1      16.469 -35.832  25.305  1.00  0.00    -0.504 OA
ATOM     44  H   UNL     1      15.668 -35.577  24.743  1.00  0.00     0.293 HD
ENDBRANCH   7  43
TORSDOF 11
ENDMDL
