MODEL 1
REMARK VINA RESULT:    -3.413      0.000      0.000
REMARK INTER + INTRA:          -3.633
REMARK INTER:                  -3.612
REMARK INTRA:                  -0.021
REMARK UNBOUND:                -0.021
REMARK SMILES O=C([O-])c1cccnc1
REMARK SMILES IDX 4 1 5 2 9 3 6 4 8 5 7 6 2 7 1 8 3 9
REMARK H PARENT
REMARK Flexibility Score: inf
ROOT
ATOM      1  C   UNL     1      43.561   5.540  46.578  1.00  0.00     0.016 A 
ATOM      2  C   UNL     1      42.297   5.011  46.891  1.00  0.00     0.013 A 
ATOM      3  C   UNL     1      44.677   4.689  46.649  1.00  0.00     0.120 A 
ATOM      4  C   UNL     1      42.170   3.671  47.262  1.00  0.00     0.021 A 
ATOM      5  N   UNL     1      44.526   3.387  47.014  1.00  0.00    -0.264 NA
ATOM      6  C   UNL     1      43.309   2.867  47.319  1.00  0.00     0.111 A 
ENDROOT
BRANCH   1   7
ATOM      7  C   UNL     1      43.717   6.956  46.181  1.00  0.00     0.073 C 
ATOM      8  O   UNL     1      42.839   7.524  45.477  1.00  0.00    -0.545 OA
ATOM      9  O   UNL     1      44.834   7.681  46.580  1.00  0.00    -0.545 OA
ENDBRANCH   1   7
TORSDOF 1
ENDMDL
MODEL 2
REMARK VINA RESULT:    -3.410      1.761      2.401
REMARK INTER + INTRA:          -3.631
REMARK INTER:                  -3.608
REMARK INTRA:                  -0.022
REMARK UNBOUND:                -0.021
REMARK SMILES O=C([O-])c1cccnc1
REMARK SMILES IDX 4 1 5 2 9 3 6 4 8 5 7 6 2 7 1 8 3 9
REMARK H PARENT
REMARK Flexibility Score: inf
ROOT
ATOM      1  C   UNL     1      44.423   6.641  47.143  1.00  0.00     0.016 A 
ATOM      2  C   UNL     1      43.462   6.807  46.131  1.00  0.00     0.013 A 
ATOM      3  C   UNL     1      44.298   5.543  48.010  1.00  0.00     0.120 A 
ATOM      4  C   UNL     1      42.414   5.893  46.003  1.00  0.00     0.021 A 
ATOM      5  N   UNL     1      43.267   4.667  47.864  1.00  0.00    -0.264 NA
ATOM      6  C   UNL     1      42.333   4.818  46.890  1.00  0.00     0.111 A 
ENDROOT
BRANCH   1   7
ATOM      7  C   UNL     1      45.542   7.596  47.294  1.00  0.00     0.073 C 
ATOM      8  O   UNL     1      46.125   7.729  48.404  1.00  0.00    -0.545 OA
ATOM      9  O   UNL     1      45.967   8.361  46.214  1.00  0.00    -0.545 OA
ENDBRANCH   1   7
TORSDOF 1
ENDMDL
MODEL 3
REMARK VINA RESULT:    -3.380      2.897      3.698
REMARK INTER + INTRA:          -3.599
REMARK INTER:                  -3.581
REMARK INTRA:                  -0.018
REMARK UNBOUND:                -0.021
REMARK SMILES O=C([O-])c1cccnc1
REMARK SMILES IDX 4 1 5 2 9 3 6 4 8 5 7 6 2 7 1 8 3 9
REMARK H PARENT
REMARK Flexibility Score: inf
ROOT
ATOM      1  C   UNL     1      42.807   5.065  47.256  1.00  0.00     0.016 A 
ATOM      2  C   UNL     1      42.350   5.735  46.108  1.00  0.00     0.013 A 
ATOM      3  C   UNL     1      43.929   5.580  47.926  1.00  0.00     0.120 A 
ATOM      4  C   UNL     1      43.006   6.882  45.657  1.00  0.00     0.021 A 
ATOM      5  N   UNL     1      44.551   6.700  47.466  1.00  0.00    -0.264 NA
ATOM      6  C   UNL     1      44.118   7.353  46.358  1.00  0.00     0.111 A 
ENDROOT
BRANCH   1   7
ATOM      7  C   UNL     1      42.126   3.850  47.751  1.00  0.00     0.073 C 
ATOM      8  O   UNL     1      42.026   2.829  47.018  1.00  0.00    -0.545 OA
ATOM      9  O   UNL     1      41.586   3.816  49.031  1.00  0.00    -0.545 OA
ENDBRANCH   1   7
TORSDOF 1
ENDMDL
MODEL 4
REMARK VINA RESULT:    -3.277      5.076      5.995
REMARK INTER + INTRA:          -3.490
REMARK INTER:                  -3.471
REMARK INTRA:                  -0.018
REMARK UNBOUND:                -0.021
REMARK SMILES O=C([O-])c1cccnc1
REMARK SMILES IDX 4 1 5 2 9 3 6 4 8 5 7 6 2 7 1 8 3 9
REMARK H PARENT
REMARK Flexibility Score: inf
ROOT
ATOM      1  C   UNL     1      41.419   0.222  46.596  1.00  0.00     0.016 A 
ATOM      2  C   UNL     1      40.104   0.370  46.124  1.00  0.00     0.013 A 
ATOM      3  C   UNL     1      42.051  -1.022  46.432  1.00  0.00     0.120 A 
ATOM      4  C   UNL     1      39.455  -0.702  45.509  1.00  0.00     0.021 A 
ATOM      5  N   UNL     1      41.396  -2.051  45.829  1.00  0.00    -0.264 NA
ATOM      6  C   UNL     1      40.125  -1.918  45.370  1.00  0.00     0.111 A 
ENDROOT
BRANCH   1   7
ATOM      7  C   UNL     1      42.125   1.345  47.249  1.00  0.00     0.073 C 
ATOM      8  O   UNL     1      43.248   1.730  46.824  1.00  0.00    -0.545 OA
ATOM      9  O   UNL     1      41.559   1.994  48.340  1.00  0.00    -0.545 OA
ENDBRANCH   1   7
TORSDOF 1
ENDMDL
MODEL 5
REMARK VINA RESULT:    -3.245      8.484      9.226
REMARK INTER + INTRA:          -3.456
REMARK INTER:                  -3.433
REMARK INTRA:                  -0.023
REMARK UNBOUND:                -0.021
REMARK SMILES O=C([O-])c1cccnc1
REMARK SMILES IDX 4 1 5 2 9 3 6 4 8 5 7 6 2 7 1 8 3 9
REMARK H PARENT
REMARK Flexibility Score: inf
ROOT
ATOM      1  C   UNL     1      40.086  -2.636  46.800  1.00  0.00     0.016 A 
ATOM      2  C   UNL     1      40.276  -1.947  45.589  1.00  0.00     0.013 A 
ATOM      3  C   UNL     1      39.264  -2.052  47.778  1.00  0.00     0.120 A 
ATOM      4  C   UNL     1      39.655  -0.714  45.379  1.00  0.00     0.021 A 
ATOM      5  N   UNL     1      38.671  -0.849  47.549  1.00  0.00    -0.264 NA
ATOM      6  C   UNL     1      38.849  -0.176  46.382  1.00  0.00     0.111 A 
ENDROOT
BRANCH   1   7
ATOM      7  C   UNL     1      40.733  -3.943  47.042  1.00  0.00     0.073 C 
ATOM      8  O   UNL     1      41.224  -4.602  46.085  1.00  0.00    -0.545 OA
ATOM      9  O   UNL     1      40.810  -4.464  48.328  1.00  0.00    -0.545 OA
ENDBRANCH   1   7
TORSDOF 1
ENDMDL
MODEL 6
REMARK VINA RESULT:    -3.166      5.521      6.646
REMARK INTER + INTRA:          -3.372
REMARK INTER:                  -3.349
REMARK INTRA:                  -0.023
REMARK UNBOUND:                -0.021
REMARK SMILES O=C([O-])c1cccnc1
REMARK SMILES IDX 4 1 5 2 9 3 6 4 8 5 7 6 2 7 1 8 3 9
REMARK H PARENT
REMARK Flexibility Score: inf
ROOT
ATOM      1  C   UNL     1      41.074  -0.299  46.301  1.00  0.00     0.016 A 
ATOM      2  C   UNL     1      41.090   1.023  46.779  1.00  0.00     0.013 A 
ATOM      3  C   UNL     1      42.202  -1.105  46.528  1.00  0.00     0.120 A 
ATOM      4  C   UNL     1      42.208   1.508  47.460  1.00  0.00     0.021 A 
ATOM      5  N   UNL     1      43.279  -0.608  47.195  1.00  0.00    -0.264 NA
ATOM      6  C   UNL     1      43.304   0.668  47.660  1.00  0.00     0.111 A 
ENDROOT
BRANCH   1   7
ATOM      7  C   UNL     1      39.900  -0.833  45.578  1.00  0.00     0.073 C 
ATOM      8  O   UNL     1      39.747  -2.076  45.435  1.00  0.00    -0.545 OA
ATOM      9  O   UNL     1      38.948   0.029  45.046  1.00  0.00    -0.545 OA
ENDBRANCH   1   7
TORSDOF 1
ENDMDL
MODEL 7
REMARK VINA RESULT:    -3.161      8.355      9.238
REMARK INTER + INTRA:          -3.367
REMARK INTER:                  -3.347
REMARK INTRA:                  -0.020
REMARK UNBOUND:                -0.021
REMARK SMILES O=C([O-])c1cccnc1
REMARK SMILES IDX 4 1 5 2 9 3 6 4 8 5 7 6 2 7 1 8 3 9
REMARK H PARENT
REMARK Flexibility Score: inf
ROOT
ATOM      1  C   UNL     1      39.519  -2.413  47.474  1.00  0.00     0.016 A 
ATOM      2  C   UNL     1      38.839  -1.192  47.620  1.00  0.00     0.013 A 
ATOM      3  C   UNL     1      40.301  -2.608  46.323  1.00  0.00     0.120 A 
ATOM      4  C   UNL     1      38.948  -0.207  46.637  1.00  0.00     0.021 A 
ATOM      5  N   UNL     1      40.390  -1.633  45.379  1.00  0.00    -0.264 NA
ATOM      6  C   UNL     1      39.736  -0.449  45.511  1.00  0.00     0.111 A 
ENDROOT
BRANCH   1   7
ATOM      7  C   UNL     1      39.419  -3.469  48.504  1.00  0.00     0.073 C 
ATOM      8  O   UNL     1      40.434  -4.141  48.834  1.00  0.00    -0.545 OA
ATOM      9  O   UNL     1      38.204  -3.735  49.125  1.00  0.00    -0.545 OA
ENDBRANCH   1   7
TORSDOF 1
ENDMDL
MODEL 8
REMARK VINA RESULT:    -3.146      7.480      8.649
REMARK INTER + INTRA:          -3.351
REMARK INTER:                  -3.328
REMARK INTRA:                  -0.023
REMARK UNBOUND:                -0.021
REMARK SMILES O=C([O-])c1cccnc1
REMARK SMILES IDX 4 1 5 2 9 3 6 4 8 5 7 6 2 7 1 8 3 9
REMARK H PARENT
REMARK Flexibility Score: inf
ROOT
ATOM      1  C   UNL     1      40.545  -2.253  46.027  1.00  0.00     0.016 A 
ATOM      2  C   UNL     1      39.544  -1.396  45.538  1.00  0.00     0.013 A 
ATOM      3  C   UNL     1      41.634  -1.686  46.711  1.00  0.00     0.120 A 
ATOM      4  C   UNL     1      39.644  -0.018  45.735  1.00  0.00     0.021 A 
ATOM      5  N   UNL     1      41.707  -0.339  46.889  1.00  0.00    -0.264 NA
ATOM      6  C   UNL     1      40.745   0.497  46.420  1.00  0.00     0.111 A 
ENDROOT
BRANCH   1   7
ATOM      7  C   UNL     1      40.458  -3.716  45.830  1.00  0.00     0.073 C 
ATOM      8  O   UNL     1      41.131  -4.500  46.552  1.00  0.00    -0.545 OA
ATOM      9  O   UNL     1      39.632  -4.247  44.846  1.00  0.00    -0.545 OA
ENDBRANCH   1   7
TORSDOF 1
ENDMDL
