MODEL 1
REMARK VINA RESULT:    -4.541      0.000      0.000
REMARK INTER + INTRA:          -6.296
REMARK INTER:                  -6.399
REMARK INTRA:                   0.104
REMARK UNBOUND:                 0.104
REMARK SMILES CC1=CCC(=C(C)C)C(=O)CC(C)=CCC1
REMARK SMILES IDX 12 1 14 2 13 3 15 4 16 5 2 6 1 7 3 8 11 10 9 11 10 12 5 13
REMARK SMILES IDX 6 14 7 15 8 16 4 17
REMARK H PARENT
REMARK Flexibility Score: 60.00
ROOT
ATOM      1  C   UNL     1      17.098 -30.325  22.251  1.00  0.00    -0.070 C 
ATOM      2  C   UNL     1      17.858 -30.920  21.304  1.00  0.00    -0.027 C 
ATOM      3  C   UNL     1      16.567 -28.943  21.969  1.00  0.00     0.039 C 
ENDROOT
BRANCH   2   4
ATOM      4  C   UNL     1      18.344 -32.346  21.357  1.00  0.00     0.032 C 
BRANCH   4   5
ATOM      5  C   UNL     1      17.530 -33.210  20.387  1.00  0.00     0.034 C 
BRANCH   5   6
ATOM      6  C   UNL     1      16.625 -34.192  21.105  1.00  0.00    -0.077 C 
ATOM      7  C   UNL     1      17.164 -35.563  21.433  1.00  0.00     0.039 C 
ATOM      8  C   UNL     1      15.329 -33.936  21.407  1.00  0.00    -0.023 CG0
ATOM      9  G   UNL     1      14.583 -32.625  21.231  1.00  0.00     0.000 G0
ENDBRANCH   5   6
ENDBRANCH   4   5
ENDBRANCH   2   4
BRANCH   1  10
ATOM     10  C   UNL     1      16.770 -30.968  23.584  1.00  0.00     0.111 C 
BRANCH  10  11
ATOM     11  C   UNL     1      15.545 -31.846  23.501  1.00  0.00     0.163 C 
ATOM     12  O   UNL     1      15.432 -32.756  24.367  1.00  0.00    -0.294 OA
BRANCH  11  13
ATOM     13  C   UNL     1      14.487 -31.705  22.446  1.00  0.00    -0.002 C 
ATOM     14  C   UNL     1      13.401 -30.897  22.653  1.00  0.00    -0.069 C 
ATOM     15  C   UNL     1      12.208 -30.906  21.726  1.00  0.00     0.039 C 
ATOM     16  C   UNL     1      13.359 -29.910  23.798  1.00  0.00     0.039 C 
BRANCH  13  17
ATOM     17  C   UNL     1      14.567 -32.622  21.231  1.00  0.00     0.066 CG0
ATOM     18  G   UNL     1      15.334 -33.921  21.413  1.00  0.00     0.000 G0
ENDBRANCH  13  17
ENDBRANCH  11  13
ENDBRANCH  10  11
ENDBRANCH   1  10
TORSDOF 0
ENDMDL
MODEL 2
REMARK VINA RESULT:    -4.453      1.500      2.132
REMARK INTER + INTRA:          -6.172
REMARK INTER:                  -6.165
REMARK INTRA:                  -0.006
REMARK UNBOUND:                 0.104
REMARK SMILES CC1=CCC(=C(C)C)C(=O)CC(C)=CCC1
REMARK SMILES IDX 12 1 14 2 13 3 15 4 16 5 2 6 1 7 3 8 11 10 9 11 10 12 5 13
REMARK SMILES IDX 6 14 7 15 8 16 4 17
REMARK H PARENT
REMARK Flexibility Score: 60.00
ROOT
ATOM      1  C   UNL     1      19.067 -31.244  21.222  1.00  0.00    -0.070 C 
ATOM      2  C   UNL     1      19.406 -32.511  20.888  1.00  0.00    -0.027 C 
ATOM      3  C   UNL     1      20.174 -30.280  21.563  1.00  0.00     0.039 C 
ENDROOT
BRANCH   2   4
ATOM      4  C   UNL     1      18.446 -33.555  20.380  1.00  0.00     0.032 C 
BRANCH   4   5
ATOM      5  C   UNL     1      17.718 -34.211  21.560  1.00  0.00     0.034 C 
BRANCH   5   6
ATOM      6  C   UNL     1      16.225 -34.328  21.327  1.00  0.00    -0.077 C 
ATOM      7  C   UNL     1      15.737 -35.182  20.183  1.00  0.00     0.039 C 
ATOM      8  C   UNL     1      15.298 -33.649  22.046  1.00  0.00    -0.023 CG0
ATOM      9  G   UNL     1      15.534 -32.780  23.270  1.00  0.00     0.000 G0
ENDBRANCH   5   6
ENDBRANCH   4   5
ENDBRANCH   2   4
BRANCH   1  10
ATOM     10  C   UNL     1      17.635 -30.753  21.287  1.00  0.00     0.111 C 
BRANCH  10  11
ATOM     11  C   UNL     1      17.084 -30.803  22.691  1.00  0.00     0.163 C 
ATOM     12  O   UNL     1      17.852 -30.436  23.622  1.00  0.00    -0.294 OA
BRANCH  11  13
ATOM     13  C   UNL     1      15.701 -31.279  23.029  1.00  0.00    -0.002 C 
ATOM     14  C   UNL     1      14.696 -30.382  23.271  1.00  0.00    -0.069 C 
ATOM     15  C   UNL     1      13.361 -30.808  23.839  1.00  0.00     0.039 C 
ATOM     16  C   UNL     1      14.850 -28.915  22.936  1.00  0.00     0.039 C 
BRANCH  13  17
ATOM     17  C   UNL     1      15.502 -32.771  23.272  1.00  0.00     0.066 CG0
ATOM     18  G   UNL     1      15.302 -33.637  22.040  1.00  0.00     0.000 G0
ENDBRANCH  13  17
ENDBRANCH  11  13
ENDBRANCH  10  11
ENDBRANCH   1  10
TORSDOF 0
ENDMDL
MODEL 3
REMARK VINA RESULT:    -4.451      1.831      4.458
REMARK INTER + INTRA:          -6.169
REMARK INTER:                  -6.048
REMARK INTRA:                  -0.121
REMARK UNBOUND:                 0.104
REMARK SMILES CC1=CCC(=C(C)C)C(=O)CC(C)=CCC1
REMARK SMILES IDX 12 1 14 2 13 3 15 4 16 5 2 6 1 7 3 8 11 10 9 11 10 12 5 13
REMARK SMILES IDX 6 14 7 15 8 16 4 17
REMARK H PARENT
REMARK Flexibility Score: 60.00
ROOT
ATOM      1  C   UNL     1      14.171 -29.917  22.427  1.00  0.00    -0.070 C 
ATOM      2  C   UNL     1      14.905 -28.827  22.750  1.00  0.00    -0.027 C 
ATOM      3  C   UNL     1      12.886 -30.154  23.177  1.00  0.00     0.039 C 
ENDROOT
BRANCH   2   4
ATOM      4  C   UNL     1      16.131 -28.361  22.007  1.00  0.00     0.032 C 
BRANCH   4   5
ATOM      5  C   UNL     1      17.383 -29.008  22.610  1.00  0.00     0.034 C 
BRANCH   5   6
ATOM      6  C   UNL     1      18.357 -29.485  21.551  1.00  0.00    -0.077 C 
ATOM      7  C   UNL     1      19.109 -28.454  20.745  1.00  0.00     0.039 C 
ATOM      8  C   UNL     1      18.540 -30.790  21.233  1.00  0.00    -0.023 CG0
ATOM      9  G   UNL     1      17.948 -32.001  21.932  1.00  0.00     0.000 G0
ENDBRANCH   5   6
ENDBRANCH   4   5
ENDBRANCH   2   4
BRANCH   1  10
ATOM     10  C   UNL     1      14.585 -30.916  21.365  1.00  0.00     0.111 C 
BRANCH  10  11
ATOM     11  C   UNL     1      15.363 -32.070  21.949  1.00  0.00     0.163 C 
ATOM     12  O   UNL     1      14.892 -32.615  22.984  1.00  0.00    -0.294 OA
BRANCH  11  13
ATOM     13  C   UNL     1      16.656 -32.577  21.380  1.00  0.00    -0.002 C 
ATOM     14  C   UNL     1      16.667 -33.629  20.504  1.00  0.00    -0.069 C 
ATOM     15  C   UNL     1      17.948 -34.317  20.093  1.00  0.00     0.039 C 
ATOM     16  C   UNL     1      15.394 -34.130  19.858  1.00  0.00     0.039 C 
BRANCH  13  17
ATOM     17  C   UNL     1      17.953 -32.011  21.947  1.00  0.00     0.066 CG0
ATOM     18  G   UNL     1      18.533 -30.802  21.232  1.00  0.00     0.000 G0
ENDBRANCH  13  17
ENDBRANCH  11  13
ENDBRANCH  10  11
ENDBRANCH   1  10
TORSDOF 0
ENDMDL
MODEL 4
REMARK VINA RESULT:    -4.432      2.063      3.978
REMARK INTER + INTRA:          -6.142
REMARK INTER:                  -6.011
REMARK INTRA:                  -0.132
REMARK UNBOUND:                 0.104
REMARK SMILES CC1=CCC(=C(C)C)C(=O)CC(C)=CCC1
REMARK SMILES IDX 12 1 14 2 13 3 15 4 16 5 2 6 1 7 3 8 11 10 9 11 10 12 5 13
REMARK SMILES IDX 6 14 7 15 8 16 4 17
REMARK H PARENT
REMARK Flexibility Score: 60.00
ROOT
ATOM      1  C   UNL     1      13.926 -30.639  23.504  1.00  0.00    -0.070 C 
ATOM      2  C   UNL     1      13.613 -31.906  23.861  1.00  0.00    -0.027 C 
ATOM      3  C   UNL     1      12.809 -29.733  23.053  1.00  0.00     0.039 C 
ENDROOT
BRANCH   2   4
ATOM      4  C   UNL     1      14.574 -32.893  24.472  1.00  0.00     0.032 C 
BRANCH   4   5
ATOM      5  C   UNL     1      15.069 -33.870  23.398  1.00  0.00     0.034 C 
BRANCH   5   6
ATOM      6  C   UNL     1      16.569 -34.079  23.452  1.00  0.00    -0.077 C 
ATOM      7  C   UNL     1      17.127 -35.051  24.464  1.00  0.00     0.039 C 
ATOM      8  C   UNL     1      17.452 -33.388  22.691  1.00  0.00    -0.023 CG0
ATOM      9  G   UNL     1      17.136 -32.407  21.574  1.00  0.00     0.000 G0
ENDBRANCH   5   6
ENDBRANCH   4   5
ENDBRANCH   2   4
BRANCH   1  10
ATOM     10  C   UNL     1      15.340 -30.094  23.516  1.00  0.00     0.111 C 
BRANCH  10  11
ATOM     11  C   UNL     1      15.989 -30.177  22.156  1.00  0.00     0.163 C 
ATOM     12  O   UNL     1      15.404 -29.590  21.205  1.00  0.00    -0.294 OA
BRANCH  11  13
ATOM     13  C   UNL     1      17.260 -30.926  21.882  1.00  0.00    -0.002 C 
ATOM     14  C   UNL     1      18.450 -30.259  21.766  1.00  0.00    -0.069 C 
ATOM     15  C   UNL     1      19.703 -30.938  21.263  1.00  0.00     0.039 C 
ATOM     16  C   UNL     1      18.587 -28.812  22.184  1.00  0.00     0.039 C 
BRANCH  13  17
ATOM     17  C   UNL     1      17.154 -32.411  21.556  1.00  0.00     0.066 CG0
ATOM     18  G   UNL     1      17.458 -33.376  22.690  1.00  0.00     0.000 G0
ENDBRANCH  13  17
ENDBRANCH  11  13
ENDBRANCH  10  11
ENDBRANCH   1  10
TORSDOF 0
ENDMDL
MODEL 5
REMARK VINA RESULT:    -4.414      1.795      3.665
REMARK INTER + INTRA:          -6.117
REMARK INTER:                  -5.934
REMARK INTRA:                  -0.183
REMARK UNBOUND:                 0.104
REMARK SMILES CC1=CCC(=C(C)C)C(=O)CC(C)=CCC1
REMARK SMILES IDX 12 1 14 2 13 3 15 4 16 5 2 6 1 7 3 8 11 10 9 11 10 12 5 13
REMARK SMILES IDX 6 14 7 15 8 16 4 17
REMARK H PARENT
REMARK Flexibility Score: 60.00
ROOT
ATOM      1  C   UNL     1      16.988 -33.885  20.733  1.00  0.00    -0.070 C 
ATOM      2  C   UNL     1      18.073 -33.171  20.356  1.00  0.00    -0.027 C 
ATOM      3  C   UNL     1      16.565 -35.043  19.866  1.00  0.00     0.039 C 
ENDROOT
BRANCH   2   4
ATOM      4  C   UNL     1      18.717 -32.083  21.176  1.00  0.00     0.032 C 
BRANCH   4   5
ATOM      5  C   UNL     1      18.292 -30.709  20.643  1.00  0.00     0.034 C 
BRANCH   5   6
ATOM      6  C   UNL     1      17.948 -29.737  21.754  1.00  0.00    -0.077 C 
ATOM      7  C   UNL     1      19.072 -29.016  22.458  1.00  0.00     0.039 C 
ATOM      8  C   UNL     1      16.687 -29.529  22.205  1.00  0.00    -0.023 CG0
ATOM      9  G   UNL     1      15.397 -30.088  21.629  1.00  0.00     0.000 G0
ENDBRANCH   5   6
ENDBRANCH   4   5
ENDBRANCH   2   4
BRANCH   1  10
ATOM     10  C   UNL     1      16.169 -33.569  21.968  1.00  0.00     0.111 C 
BRANCH  10  11
ATOM     11  C   UNL     1      15.013 -32.648  21.659  1.00  0.00     0.163 C 
ATOM     12  O   UNL     1      14.200 -33.027  20.772  1.00  0.00    -0.294 OA
BRANCH  11  13
ATOM     13  C   UNL     1      14.800 -31.322  22.327  1.00  0.00    -0.002 C 
ATOM     14  C   UNL     1      13.978 -31.215  23.416  1.00  0.00    -0.069 C 
ATOM     15  C   UNL     1      13.554 -29.874  23.972  1.00  0.00     0.039 C 
ATOM     16  C   UNL     1      13.486 -32.438  24.157  1.00  0.00     0.039 C 
BRANCH  13  17
ATOM     17  C   UNL     1      15.375 -30.084  21.649  1.00  0.00     0.066 CG0
ATOM     18  G   UNL     1      16.675 -29.542  22.218  1.00  0.00     0.000 G0
ENDBRANCH  13  17
ENDBRANCH  11  13
ENDBRANCH  10  11
ENDBRANCH   1  10
TORSDOF 0
ENDMDL
MODEL 6
REMARK VINA RESULT:    -4.397      2.491      4.347
REMARK INTER + INTRA:          -6.092
REMARK INTER:                  -5.955
REMARK INTRA:                  -0.136
REMARK UNBOUND:                 0.104
REMARK SMILES CC1=CCC(=C(C)C)C(=O)CC(C)=CCC1
REMARK SMILES IDX 12 1 14 2 13 3 15 4 16 5 2 6 1 7 3 8 11 10 9 11 10 12 5 13
REMARK SMILES IDX 6 14 7 15 8 16 4 17
REMARK H PARENT
REMARK Flexibility Score: 60.00
ROOT
ATOM      1  C   UNL     1      14.697 -33.059  21.497  1.00  0.00    -0.070 C 
ATOM      2  C   UNL     1      14.802 -33.683  20.301  1.00  0.00    -0.027 C 
ATOM      3  C   UNL     1      13.920 -31.769  21.559  1.00  0.00     0.039 C 
ENDROOT
BRANCH   2   4
ATOM      4  C   UNL     1      15.411 -35.045  20.089  1.00  0.00     0.032 C 
BRANCH   4   5
ATOM      5  C   UNL     1      16.898 -34.902  19.743  1.00  0.00     0.034 C 
BRANCH   5   6
ATOM      6  C   UNL     1      17.749 -35.975  20.392  1.00  0.00    -0.077 C 
ATOM      7  C   UNL     1      17.662 -37.385  19.862  1.00  0.00     0.039 C 
ATOM      8  C   UNL     1      18.537 -35.757  21.473  1.00  0.00    -0.023 CG0
ATOM      9  G   UNL     1      18.832 -34.427  22.146  1.00  0.00     0.000 G0
ENDBRANCH   5   6
ENDBRANCH   4   5
ENDBRANCH   2   4
BRANCH   1  10
ATOM     10  C   UNL     1      15.335 -33.581  22.769  1.00  0.00     0.111 C 
BRANCH  10  11
ATOM     11  C   UNL     1      16.758 -33.103  22.925  1.00  0.00     0.163 C 
ATOM     12  O   UNL     1      16.976 -31.877  22.723  1.00  0.00    -0.294 OA
BRANCH  11  13
ATOM     13  C   UNL     1      17.906 -34.001  23.281  1.00  0.00    -0.002 C 
ATOM     14  C   UNL     1      18.190 -34.282  24.590  1.00  0.00    -0.069 C 
ATOM     15  C   UNL     1      19.464 -34.984  25.001  1.00  0.00     0.039 C 
ATOM     16  C   UNL     1      17.215 -33.948  25.698  1.00  0.00     0.039 C 
BRANCH  13  17
ATOM     17  C   UNL     1      18.845 -34.433  22.161  1.00  0.00     0.066 CG0
ATOM     18  G   UNL     1      18.515 -35.744  21.469  1.00  0.00     0.000 G0
ENDBRANCH  13  17
ENDBRANCH  11  13
ENDBRANCH  10  11
ENDBRANCH   1  10
TORSDOF 0
ENDMDL
MODEL 7
REMARK VINA RESULT:    -4.266      1.743      4.876
REMARK INTER + INTRA:          -5.907
REMARK INTER:                  -6.114
REMARK INTRA:                   0.206
REMARK UNBOUND:                 0.104
REMARK SMILES CC1=CCC(=C(C)C)C(=O)CC(C)=CCC1
REMARK SMILES IDX 12 1 14 2 13 3 15 4 16 5 2 6 1 7 3 8 11 10 9 11 10 12 5 13
REMARK SMILES IDX 6 14 7 15 8 16 4 17
REMARK H PARENT
REMARK Flexibility Score: 60.00
ROOT
ATOM      1  C   UNL     1      15.354 -33.901  20.919  1.00  0.00    -0.070 C 
ATOM      2  C   UNL     1      14.358 -33.027  20.645  1.00  0.00    -0.027 C 
ATOM      3  C   UNL     1      15.891 -34.742  19.790  1.00  0.00     0.039 C 
ENDROOT
BRANCH   2   4
ATOM      4  C   UNL     1      13.808 -32.012  21.613  1.00  0.00     0.032 C 
BRANCH   4   5
ATOM      5  C   UNL     1      14.136 -30.596  21.124  1.00  0.00     0.034 C 
BRANCH   5   6
ATOM      6  C   UNL     1      15.072 -29.860  22.062  1.00  0.00    -0.077 C 
ATOM      7  C   UNL     1      14.482 -28.895  23.061  1.00  0.00     0.039 C 
ATOM      8  C   UNL     1      16.422 -29.963  22.008  1.00  0.00    -0.023 CG0
ATOM      9  G   UNL     1      17.242 -30.900  21.137  1.00  0.00     0.000 G0
ENDBRANCH   5   6
ENDBRANCH   4   5
ENDBRANCH   2   4
BRANCH   1  10
ATOM     10  C   UNL     1      15.941 -34.087  22.304  1.00  0.00     0.111 C 
BRANCH  10  11
ATOM     11  C   UNL     1      16.789 -32.910  22.720  1.00  0.00     0.163 C 
ATOM     12  O   UNL     1      16.665 -32.505  23.909  1.00  0.00    -0.294 OA
BRANCH  11  13
ATOM     13  C   UNL     1      17.738 -32.198  21.802  1.00  0.00    -0.002 C 
ATOM     14  C   UNL     1      19.040 -32.609  21.691  1.00  0.00    -0.069 C 
ATOM     15  C   UNL     1      20.080 -31.787  20.964  1.00  0.00     0.039 C 
ATOM     16  C   UNL     1      19.498 -33.937  22.249  1.00  0.00     0.039 C 
BRANCH  13  17
ATOM     17  C   UNL     1      17.261 -30.907  21.147  1.00  0.00     0.066 CG0
ATOM     18  G   UNL     1      16.428 -29.977  22.012  1.00  0.00     0.000 G0
ENDBRANCH  13  17
ENDBRANCH  11  13
ENDBRANCH  10  11
ENDBRANCH   1  10
TORSDOF 0
ENDMDL
MODEL 8
REMARK VINA RESULT:    -4.253      2.159      5.071
REMARK INTER + INTRA:          -5.890
REMARK INTER:                  -5.738
REMARK INTRA:                  -0.152
REMARK UNBOUND:                 0.104
REMARK SMILES CC1=CCC(=C(C)C)C(=O)CC(C)=CCC1
REMARK SMILES IDX 12 1 14 2 13 3 15 4 16 5 2 6 1 7 3 8 11 10 9 11 10 12 5 13
REMARK SMILES IDX 6 14 7 15 8 16 4 17
REMARK H PARENT
REMARK Flexibility Score: 60.00
ROOT
ATOM      1  C   UNL     1      16.668 -34.491  20.113  1.00  0.00    -0.070 C 
ATOM      2  C   UNL     1      15.411 -34.461  20.614  1.00  0.00    -0.027 C 
ATOM      3  C   UNL     1      17.123 -35.745  19.412  1.00  0.00     0.039 C 
ENDROOT
BRANCH   2   4
ATOM      4  C   UNL     1      14.747 -33.246  21.210  1.00  0.00     0.032 C 
BRANCH   4   5
ATOM      5  C   UNL     1      14.884 -33.275  22.737  1.00  0.00     0.034 C 
BRANCH   5   6
ATOM      6  C   UNL     1      15.236 -31.918  23.313  1.00  0.00    -0.077 C 
ATOM      7  C   UNL     1      14.152 -30.873  23.413  1.00  0.00     0.039 C 
ATOM      8  C   UNL     1      16.491 -31.562  23.680  1.00  0.00    -0.023 CG0
ATOM      9  G   UNL     1      17.725 -32.446  23.725  1.00  0.00     0.000 G0
ENDBRANCH   5   6
ENDBRANCH   4   5
ENDBRANCH   2   4
BRANCH   1  10
ATOM     10  C   UNL     1      17.643 -33.337  20.240  1.00  0.00     0.111 C 
BRANCH  10  11
ATOM     11  C   UNL     1      18.504 -33.459  21.473  1.00  0.00     0.163 C 
ATOM     12  O   UNL     1      19.117 -34.548  21.640  1.00  0.00    -0.294 OA
BRANCH  11  13
ATOM     13  C   UNL     1      18.648 -32.375  22.501  1.00  0.00    -0.002 C 
ATOM     14  C   UNL     1      19.668 -31.465  22.416  1.00  0.00    -0.069 C 
ATOM     15  C   UNL     1      19.986 -30.511  23.545  1.00  0.00     0.039 C 
ATOM     16  C   UNL     1      20.504 -31.333  21.163  1.00  0.00     0.039 C 
BRANCH  13  17
ATOM     17  C   UNL     1      17.743 -32.432  23.727  1.00  0.00     0.066 CG0
ATOM     18  G   UNL     1      16.501 -31.558  23.693  1.00  0.00     0.000 G0
ENDBRANCH  13  17
ENDBRANCH  11  13
ENDBRANCH  10  11
ENDBRANCH   1  10
TORSDOF 0
ENDMDL
MODEL 9
REMARK VINA RESULT:    -4.235      1.698      4.569
REMARK INTER + INTRA:          -5.865
REMARK INTER:                  -6.131
REMARK INTRA:                   0.266
REMARK UNBOUND:                 0.104
REMARK SMILES CC1=CCC(=C(C)C)C(=O)CC(C)=CCC1
REMARK SMILES IDX 12 1 14 2 13 3 15 4 16 5 2 6 1 7 3 8 11 10 9 11 10 12 5 13
REMARK SMILES IDX 6 14 7 15 8 16 4 17
REMARK H PARENT
REMARK Flexibility Score: 60.00
ROOT
ATOM      1  C   UNL     1      14.609 -32.570  22.015  1.00  0.00    -0.070 C 
ATOM      2  C   UNL     1      14.825 -31.411  22.679  1.00  0.00    -0.027 C 
ATOM      3  C   UNL     1      13.929 -32.502  20.672  1.00  0.00     0.039 C 
ENDROOT
BRANCH   2   4
ATOM      4  C   UNL     1      15.617 -31.282  23.955  1.00  0.00     0.032 C 
BRANCH   4   5
ATOM      5  C   UNL     1      17.053 -30.849  23.634  1.00  0.00     0.034 C 
BRANCH   5   6
ATOM      6  C   UNL     1      17.217 -30.402  22.195  1.00  0.00    -0.077 C 
ATOM      7  C   UNL     1      16.769 -29.012  21.815  1.00  0.00     0.039 C 
ATOM      8  C   UNL     1      17.677 -31.208  21.207  1.00  0.00    -0.023 CG0
ATOM      9  G   UNL     1      18.235 -32.614  21.348  1.00  0.00     0.000 G0
ENDBRANCH   5   6
ENDBRANCH   4   5
ENDBRANCH   2   4
BRANCH   1  10
ATOM     10  C   UNL     1      14.998 -33.929  22.562  1.00  0.00     0.111 C 
BRANCH  10  11
ATOM     11  C   UNL     1      16.474 -34.201  22.400  1.00  0.00     0.163 C 
ATOM     12  O   UNL     1      17.055 -34.800  23.346  1.00  0.00    -0.294 OA
BRANCH  11  13
ATOM     13  C   UNL     1      17.273 -33.783  21.200  1.00  0.00    -0.002 C 
ATOM     14  C   UNL     1      17.245 -34.528  20.051  1.00  0.00    -0.069 C 
ATOM     15  C   UNL     1      18.205 -34.277  18.911  1.00  0.00     0.039 C 
ATOM     16  C   UNL     1      16.215 -35.615  19.840  1.00  0.00     0.039 C 
BRANCH  13  17
ATOM     17  C   UNL     1      18.247 -32.622  21.363  1.00  0.00     0.066 CG0
ATOM     18  G   UNL     1      17.666 -31.226  21.218  1.00  0.00     0.000 G0
ENDBRANCH  13  17
ENDBRANCH  11  13
ENDBRANCH  10  11
ENDBRANCH   1  10
TORSDOF 0
ENDMDL
