MODEL 1
REMARK VINA RESULT:    -3.821      0.000      0.000
REMARK INTER + INTRA:          -6.691
REMARK INTER:                  -6.055
REMARK INTRA:                  -0.637
REMARK UNBOUND:                -0.637
REMARK SMILES CCCCCCCCCCCC(=O)[O-]
REMARK SMILES IDX 7 1 8 2 9 3 10 4 11 5 12 6 13 7 14 8 6 9 5 10 4 11 3 12 2 13
REMARK SMILES IDX 1 14
REMARK H PARENT
REMARK Flexibility Score: inf
ROOT
ATOM      1  C   UNL     1       3.565  -0.358   9.768  1.00  0.00     0.000 C 
ENDROOT
BRANCH   1   2
ATOM      2  C   UNL     1       4.509   0.793   9.380  1.00  0.00     0.000 C 
BRANCH   2   3
ATOM      3  C   UNL     1       3.804   1.880   8.553  1.00  0.00     0.000 C 
BRANCH   3   4
ATOM      4  C   UNL     1       4.784   2.692   7.689  1.00  0.00     0.006 C 
BRANCH   4   5
ATOM      5  C   UNL     1       6.218   2.152   7.779  1.00  0.00     0.053 C 
BRANCH   5   6
ATOM      6  C   UNL     1       7.222   3.167   7.326  1.00  0.00     0.041 C 
ATOM      7  O   UNL     1       8.409   2.821   7.086  1.00  0.00    -0.550 OA
ATOM      8  O   UNL     1       6.857   4.502   7.204  1.00  0.00    -0.550 OA
ENDBRANCH   5   6
ENDBRANCH   4   5
ENDBRANCH   3   4
ENDBRANCH   2   3
ENDBRANCH   1   2
BRANCH   1   9
ATOM      9  C   UNL     1       2.158  -0.204   9.162  1.00  0.00     0.000 C 
BRANCH   9  10
ATOM     10  C   UNL     1       1.409  -1.530   8.919  1.00  0.00    -0.000 C 
BRANCH  10  11
ATOM     11  C   UNL     1       0.081  -1.400   8.146  1.00  0.00    -0.000 C 
BRANCH  11  12
ATOM     12  C   UNL     1      -0.227   0.013   7.616  1.00  0.00    -0.000 C 
BRANCH  12  13
ATOM     13  C   UNL     1      -1.482   0.625   8.253  1.00  0.00    -0.003 C 
ATOM     14  C   UNL     1      -1.135   1.875   9.058  1.00  0.00     0.004 C 
ENDBRANCH  12  13
ENDBRANCH  11  12
ENDBRANCH  10  11
ENDBRANCH   9  10
ENDBRANCH   1   9
TORSDOF 10
ENDMDL
MODEL 2
REMARK VINA RESULT:    -3.699      2.598      3.278
REMARK INTER + INTRA:          -6.498
REMARK INTER:                  -5.063
REMARK INTRA:                  -1.435
REMARK UNBOUND:                -0.637
REMARK SMILES CCCCCCCCCCCC(=O)[O-]
REMARK SMILES IDX 7 1 8 2 9 3 10 4 11 5 12 6 13 7 14 8 6 9 5 10 4 11 3 12 2 13
REMARK SMILES IDX 1 14
REMARK H PARENT
REMARK Flexibility Score: inf
ROOT
ATOM      1  C   UNL     1       1.966  -1.109   9.944  1.00  0.00     0.000 C 
ENDROOT
BRANCH   1   2
ATOM      2  C   UNL     1       3.246  -0.324   9.612  1.00  0.00     0.000 C 
BRANCH   2   3
ATOM      3  C   UNL     1       3.082   1.189   9.830  1.00  0.00     0.000 C 
BRANCH   3   4
ATOM      4  C   UNL     1       2.979   1.967   8.507  1.00  0.00     0.006 C 
BRANCH   4   5
ATOM      5  C   UNL     1       1.932   3.087   8.573  1.00  0.00     0.053 C 
BRANCH   5   6
ATOM      6  C   UNL     1       1.773   3.777   7.254  1.00  0.00     0.041 C 
ATOM      7  O   UNL     1       2.771   3.950   6.505  1.00  0.00    -0.550 OA
ATOM      8  O   UNL     1       0.530   4.260   6.865  1.00  0.00    -0.550 OA
ENDBRANCH   5   6
ENDBRANCH   4   5
ENDBRANCH   3   4
ENDBRANCH   2   3
ENDBRANCH   1   2
BRANCH   1   9
ATOM      9  C   UNL     1       1.451  -1.937   8.752  1.00  0.00     0.000 C 
BRANCH   9  10
ATOM     10  C   UNL     1       0.077  -1.499   8.205  1.00  0.00    -0.000 C 
BRANCH  10  11
ATOM     11  C   UNL     1       0.021  -0.062   7.649  1.00  0.00    -0.000 C 
BRANCH  11  12
ATOM     12  C   UNL     1      -1.223   0.747   8.062  1.00  0.00    -0.000 C 
BRANCH  12  13
ATOM     13  C   UNL     1      -1.634   0.500   9.520  1.00  0.00    -0.003 C 
ATOM     14  C   UNL     1      -0.811   1.359  10.476  1.00  0.00     0.004 C 
ENDBRANCH  12  13
ENDBRANCH  11  12
ENDBRANCH  10  11
ENDBRANCH   9  10
ENDBRANCH   1   9
TORSDOF 10
ENDMDL
MODEL 3
REMARK VINA RESULT:    -3.673      1.559      2.867
REMARK INTER + INTRA:          -6.456
REMARK INTER:                  -5.554
REMARK INTRA:                  -0.903
REMARK UNBOUND:                -0.637
REMARK SMILES CCCCCCCCCCCC(=O)[O-]
REMARK SMILES IDX 7 1 8 2 9 3 10 4 11 5 12 6 13 7 14 8 6 9 5 10 4 11 3 12 2 13
REMARK SMILES IDX 1 14
REMARK H PARENT
REMARK Flexibility Score: inf
ROOT
ATOM      1  C   UNL     1       1.529  -2.060   8.966  1.00  0.00     0.000 C 
ENDROOT
BRANCH   1   2
ATOM      2  C   UNL     1       2.288  -0.748   9.233  1.00  0.00     0.000 C 
BRANCH   2   3
ATOM      3  C   UNL     1       3.693  -0.987   9.807  1.00  0.00     0.000 C 
BRANCH   3   4
ATOM      4  C   UNL     1       4.669   0.154   9.470  1.00  0.00     0.006 C 
BRANCH   4   5
ATOM      5  C   UNL     1       3.937   1.443   9.074  1.00  0.00     0.053 C 
BRANCH   5   6
ATOM      6  C   UNL     1       4.643   2.164   7.967  1.00  0.00     0.041 C 
ATOM      7  O   UNL     1       4.047   3.061   7.314  1.00  0.00    -0.550 OA
ATOM      8  O   UNL     1       5.948   1.822   7.634  1.00  0.00    -0.550 OA
ENDBRANCH   5   6
ENDBRANCH   4   5
ENDBRANCH   3   4
ENDBRANCH   2   3
ENDBRANCH   1   2
BRANCH   1   9
ATOM      9  C   UNL     1       0.210  -1.840   8.204  1.00  0.00     0.000 C 
BRANCH   9  10
ATOM     10  C   UNL     1      -0.028  -0.393   7.725  1.00  0.00    -0.000 C 
BRANCH  10  11
ATOM     11  C   UNL     1      -1.026   0.422   8.572  1.00  0.00    -0.000 C 
BRANCH  11  12
ATOM     12  C   UNL     1      -0.836   1.948   8.511  1.00  0.00    -0.000 C 
BRANCH  12  13
ATOM     13  C   UNL     1       0.528   2.354   7.936  1.00  0.00    -0.003 C 
ATOM     14  C   UNL     1       0.535   3.825   7.526  1.00  0.00     0.004 C 
ENDBRANCH  12  13
ENDBRANCH  11  12
ENDBRANCH  10  11
ENDBRANCH   9  10
ENDBRANCH   1   9
TORSDOF 10
ENDMDL
MODEL 4
REMARK VINA RESULT:    -3.641     12.088     13.567
REMARK INTER + INTRA:          -6.405
REMARK INTER:                  -5.022
REMARK INTRA:                  -1.383
REMARK UNBOUND:                -0.637
REMARK SMILES CCCCCCCCCCCC(=O)[O-]
REMARK SMILES IDX 7 1 8 2 9 3 10 4 11 5 12 6 13 7 14 8 6 9 5 10 4 11 3 12 2 13
REMARK SMILES IDX 1 14
REMARK H PARENT
REMARK Flexibility Score: inf
ROOT
ATOM      1  C   UNL     1       2.441  -0.851  -4.027  1.00  0.00     0.000 C 
ENDROOT
BRANCH   1   2
ATOM      2  C   UNL     1       1.372  -1.933  -3.794  1.00  0.00     0.000 C 
BRANCH   2   3
ATOM      3  C   UNL     1       1.132  -2.212  -2.301  1.00  0.00     0.000 C 
BRANCH   3   4
ATOM      4  C   UNL     1       1.089  -3.716  -1.983  1.00  0.00     0.006 C 
BRANCH   4   5
ATOM      5  C   UNL     1      -0.264  -4.345  -2.342  1.00  0.00     0.053 C 
BRANCH   5   6
ATOM      6  C   UNL     1      -0.775  -5.226  -1.243  1.00  0.00     0.041 C 
ATOM      7  O   UNL     1      -1.515  -6.208  -1.512  1.00  0.00    -0.550 OA
ATOM      8  O   UNL     1      -0.462  -4.942   0.080  1.00  0.00    -0.550 OA
ENDBRANCH   5   6
ENDBRANCH   4   5
ENDBRANCH   3   4
ENDBRANCH   2   3
ENDBRANCH   1   2
BRANCH   1   9
ATOM      9  C   UNL     1       3.459  -0.763  -2.875  1.00  0.00     0.000 C 
BRANCH   9  10
ATOM     10  C   UNL     1       4.935  -0.891  -3.304  1.00  0.00    -0.000 C 
BRANCH  10  11
ATOM     11  C   UNL     1       5.415  -2.330  -3.577  1.00  0.00    -0.000 C 
BRANCH  11  12
ATOM     12  C   UNL     1       4.986  -3.370  -2.526  1.00  0.00    -0.000 C 
BRANCH  12  13
ATOM     13  C   UNL     1       4.500  -4.683  -3.154  1.00  0.00    -0.003 C 
ATOM     14  C   UNL     1       3.939  -4.448  -4.554  1.00  0.00     0.004 C 
ENDBRANCH  12  13
ENDBRANCH  11  12
ENDBRANCH  10  11
ENDBRANCH   9  10
ENDBRANCH   1   9
TORSDOF 10
ENDMDL
MODEL 5
REMARK VINA RESULT:    -3.631      4.224      6.352
REMARK INTER + INTRA:          -6.390
REMARK INTER:                  -5.368
REMARK INTRA:                  -1.022
REMARK UNBOUND:                -0.637
REMARK SMILES CCCCCCCCCCCC(=O)[O-]
REMARK SMILES IDX 7 1 8 2 9 3 10 4 11 5 12 6 13 7 14 8 6 9 5 10 4 11 3 12 2 13
REMARK SMILES IDX 1 14
REMARK H PARENT
REMARK Flexibility Score: inf
ROOT
ATOM      1  C   UNL     1       3.371   0.914   9.241  1.00  0.00     0.000 C 
ENDROOT
BRANCH   1   2
ATOM      2  C   UNL     1       1.895   0.805   8.824  1.00  0.00     0.000 C 
BRANCH   2   3
ATOM      3  C   UNL     1       1.366  -0.637   8.898  1.00  0.00     0.000 C 
BRANCH   3   4
ATOM      4  C   UNL     1       0.138  -0.861   8.000  1.00  0.00     0.006 C 
BRANCH   4   5
ATOM      5  C   UNL     1      -0.608   0.447   7.701  1.00  0.00     0.053 C 
BRANCH   5   6
ATOM      6  C   UNL     1      -1.828   0.598   8.557  1.00  0.00     0.041 C 
ATOM      7  O   UNL     1      -2.041   1.676   9.172  1.00  0.00    -0.550 OA
ATOM      8  O   UNL     1      -2.712  -0.463   8.703  1.00  0.00    -0.550 OA
ENDBRANCH   5   6
ENDBRANCH   4   5
ENDBRANCH   3   4
ENDBRANCH   2   3
ENDBRANCH   1   2
BRANCH   1   9
ATOM      9  C   UNL     1       3.934   2.336   9.071  1.00  0.00     0.000 C 
BRANCH   9  10
ATOM     10  C   UNL     1       4.365   2.696   7.635  1.00  0.00    -0.000 C 
BRANCH  10  11
ATOM     11  C   UNL     1       3.712   3.965   7.053  1.00  0.00    -0.000 C 
BRANCH  11  12
ATOM     12  C   UNL     1       2.211   3.837   6.734  1.00  0.00    -0.000 C 
BRANCH  12  13
ATOM     13  C   UNL     1       1.350   4.842   7.511  1.00  0.00    -0.003 C 
ATOM     14  C   UNL     1       0.264   4.129   8.314  1.00  0.00     0.004 C 
ENDBRANCH  12  13
ENDBRANCH  11  12
ENDBRANCH  10  11
ENDBRANCH   9  10
ENDBRANCH   1   9
TORSDOF 10
ENDMDL
MODEL 6
REMARK VINA RESULT:    -3.620      2.613      4.065
REMARK INTER + INTRA:          -6.373
REMARK INTER:                  -5.663
REMARK INTRA:                  -0.711
REMARK UNBOUND:                -0.637
REMARK SMILES CCCCCCCCCCCC(=O)[O-]
REMARK SMILES IDX 7 1 8 2 9 3 10 4 11 5 12 6 13 7 14 8 6 9 5 10 4 11 3 12 2 13
REMARK SMILES IDX 1 14
REMARK H PARENT
REMARK Flexibility Score: inf
ROOT
ATOM      1  C   UNL     1       0.040  -1.605   8.411  1.00  0.00     0.000 C 
ENDROOT
BRANCH   1   2
ATOM      2  C   UNL     1       1.449  -2.038   8.851  1.00  0.00     0.000 C 
BRANCH   2   3
ATOM      3  C   UNL     1       2.302  -0.857   9.340  1.00  0.00     0.000 C 
BRANCH   3   4
ATOM      4  C   UNL     1       3.664  -1.305   9.898  1.00  0.00     0.006 C 
BRANCH   4   5
ATOM      5  C   UNL     1       4.766  -0.270   9.635  1.00  0.00     0.053 C 
BRANCH   5   6
ATOM      6  C   UNL     1       6.110  -0.915   9.492  1.00  0.00     0.041 C 
ATOM      7  O   UNL     1       6.239  -2.156   9.662  1.00  0.00    -0.550 OA
ATOM      8  O   UNL     1       7.228  -0.141   9.206  1.00  0.00    -0.550 OA
ENDBRANCH   5   6
ENDBRANCH   4   5
ENDBRANCH   3   4
ENDBRANCH   2   3
ENDBRANCH   1   2
BRANCH   1   9
ATOM      9  C   UNL     1       0.040  -0.274   7.639  1.00  0.00     0.000 C 
BRANCH   9  10
ATOM     10  C   UNL     1      -1.105   0.691   8.010  1.00  0.00    -0.000 C 
BRANCH  10  11
ATOM     11  C   UNL     1      -0.716   1.832   8.970  1.00  0.00    -0.000 C 
BRANCH  11  12
ATOM     12  C   UNL     1       0.647   2.488   8.682  1.00  0.00    -0.000 C 
BRANCH  12  13
ATOM     13  C   UNL     1       0.538   3.691   7.734  1.00  0.00    -0.003 C 
ATOM     14  C   UNL     1       1.791   3.824   6.871  1.00  0.00     0.004 C 
ENDBRANCH  12  13
ENDBRANCH  11  12
ENDBRANCH  10  11
ENDBRANCH   9  10
ENDBRANCH   1   9
TORSDOF 10
ENDMDL
MODEL 7
REMARK VINA RESULT:    -3.564      3.209      3.992
REMARK INTER + INTRA:          -6.284
REMARK INTER:                  -5.222
REMARK INTRA:                  -1.062
REMARK UNBOUND:                -0.637
REMARK SMILES CCCCCCCCCCCC(=O)[O-]
REMARK SMILES IDX 7 1 8 2 9 3 10 4 11 5 12 6 13 7 14 8 6 9 5 10 4 11 3 12 2 13
REMARK SMILES IDX 1 14
REMARK H PARENT
REMARK Flexibility Score: inf
ROOT
ATOM      1  C   UNL     1       1.971  -0.606   9.770  1.00  0.00     0.000 C 
ENDROOT
BRANCH   1   2
ATOM      2  C   UNL     1       2.511   0.635   9.039  1.00  0.00     0.000 C 
BRANCH   2   3
ATOM      3  C   UNL     1       1.640   1.881   9.270  1.00  0.00     0.000 C 
BRANCH   3   4
ATOM      4  C   UNL     1       0.700   2.169   8.087  1.00  0.00     0.006 C 
BRANCH   4   5
ATOM      5  C   UNL     1       0.250   3.636   8.050  1.00  0.00     0.053 C 
BRANCH   5   6
ATOM      6  C   UNL     1       0.900   4.388   6.929  1.00  0.00     0.041 C 
ATOM      7  O   UNL     1       2.101   4.159   6.626  1.00  0.00    -0.550 OA
ATOM      8  O   UNL     1       0.191   5.365   6.242  1.00  0.00    -0.550 OA
ENDBRANCH   5   6
ENDBRANCH   4   5
ENDBRANCH   3   4
ENDBRANCH   2   3
ENDBRANCH   1   2
BRANCH   1   9
ATOM      9  C   UNL     1       1.510  -1.711   8.804  1.00  0.00     0.000 C 
BRANCH   9  10
ATOM     10  C   UNL     1       0.135  -1.467   8.149  1.00  0.00    -0.000 C 
BRANCH  10  11
ATOM     11  C   UNL     1      -1.075  -1.601   9.095  1.00  0.00    -0.000 C 
BRANCH  11  12
ATOM     12  C   UNL     1      -1.725  -0.268   9.511  1.00  0.00    -0.000 C 
BRANCH  12  13
ATOM     13  C   UNL     1      -2.505   0.394   8.367  1.00  0.00    -0.003 C 
ATOM     14  C   UNL     1      -3.959  -0.072   8.353  1.00  0.00     0.004 C 
ENDBRANCH  12  13
ENDBRANCH  11  12
ENDBRANCH  10  11
ENDBRANCH   9  10
ENDBRANCH   1   9
TORSDOF 10
ENDMDL
MODEL 8
REMARK VINA RESULT:    -3.544      4.349      6.565
REMARK INTER + INTRA:          -6.252
REMARK INTER:                  -5.001
REMARK INTRA:                  -1.251
REMARK UNBOUND:                -0.637
REMARK SMILES CCCCCCCCCCCC(=O)[O-]
REMARK SMILES IDX 7 1 8 2 9 3 10 4 11 5 12 6 13 7 14 8 6 9 5 10 4 11 3 12 2 13
REMARK SMILES IDX 1 14
REMARK H PARENT
REMARK Flexibility Score: inf
ROOT
ATOM      1  C   UNL     1       1.533  -1.136   8.847  1.00  0.00     0.000 C 
ENDROOT
BRANCH   1   2
ATOM      2  C   UNL     1       0.211  -1.152   8.060  1.00  0.00     0.000 C 
BRANCH   2   3
ATOM      3  C   UNL     1      -0.260   0.259   7.670  1.00  0.00     0.000 C 
BRANCH   3   4
ATOM      4  C   UNL     1      -1.690   0.556   8.151  1.00  0.00     0.006 C 
BRANCH   4   5
ATOM      5  C   UNL     1      -1.711   1.525   9.341  1.00  0.00     0.053 C 
BRANCH   5   6
ATOM      6  C   UNL     1      -2.127   0.840  10.606  1.00  0.00     0.041 C 
ATOM      7  O   UNL     1      -1.494  -0.167  11.019  1.00  0.00    -0.550 OA
ATOM      8  O   UNL     1      -3.235   1.292  11.312  1.00  0.00    -0.550 OA
ENDBRANCH   5   6
ENDBRANCH   4   5
ENDBRANCH   3   4
ENDBRANCH   2   3
ENDBRANCH   1   2
BRANCH   1   9
ATOM      9  C   UNL     1       1.780   0.202   9.567  1.00  0.00     0.000 C 
BRANCH   9  10
ATOM     10  C   UNL     1       3.046   0.957   9.115  1.00  0.00    -0.000 C 
BRANCH  10  11
ATOM     11  C   UNL     1       2.922   2.494   9.098  1.00  0.00    -0.000 C 
BRANCH  11  12
ATOM     12  C   UNL     1       3.223   3.155   7.740  1.00  0.00    -0.000 C 
BRANCH  12  13
ATOM     13  C   UNL     1       1.952   3.601   7.002  1.00  0.00    -0.003 C 
ATOM     14  C   UNL     1       0.818   3.884   7.984  1.00  0.00     0.004 C 
ENDBRANCH  12  13
ENDBRANCH  11  12
ENDBRANCH  10  11
ENDBRANCH   9  10
ENDBRANCH   1   9
TORSDOF 10
ENDMDL
MODEL 9
REMARK VINA RESULT:    -3.540     11.955     12.560
REMARK INTER + INTRA:          -6.246
REMARK INTER:                  -4.839
REMARK INTRA:                  -1.406
REMARK UNBOUND:                -0.637
REMARK SMILES CCCCCCCCCCCC(=O)[O-]
REMARK SMILES IDX 7 1 8 2 9 3 10 4 11 5 12 6 13 7 14 8 6 9 5 10 4 11 3 12 2 13
REMARK SMILES IDX 1 14
REMARK H PARENT
REMARK Flexibility Score: inf
ROOT
ATOM      1  C   UNL     1       3.508  -4.104  -4.045  1.00  0.00     0.000 C 
ENDROOT
BRANCH   1   2
ATOM      2  C   UNL     1       4.472  -4.140  -2.847  1.00  0.00     0.000 C 
BRANCH   2   3
ATOM      3  C   UNL     1       5.089  -2.765  -2.545  1.00  0.00     0.000 C 
BRANCH   3   4
ATOM      4  C   UNL     1       5.215  -1.887  -3.802  1.00  0.00     0.006 C 
BRANCH   4   5
ATOM      5  C   UNL     1       5.438  -0.409  -3.456  1.00  0.00     0.053 C 
BRANCH   5   6
ATOM      6  C   UNL     1       5.478   0.449  -4.684  1.00  0.00     0.041 C 
ATOM      7  O   UNL     1       4.830   0.115  -5.711  1.00  0.00    -0.550 OA
ATOM      8  O   UNL     1       6.258   1.598  -4.706  1.00  0.00    -0.550 OA
ENDBRANCH   5   6
ENDBRANCH   4   5
ENDBRANCH   3   4
ENDBRANCH   2   3
ENDBRANCH   1   2
BRANCH   1   9
ATOM      9  C   UNL     1       2.074  -4.514  -3.666  1.00  0.00     0.000 C 
BRANCH   9  10
ATOM     10  C   UNL     1       1.562  -3.928  -2.335  1.00  0.00    -0.000 C 
BRANCH  10  11
ATOM     11  C   UNL     1       0.761  -2.617  -2.460  1.00  0.00    -0.000 C 
BRANCH  11  12
ATOM     12  C   UNL     1       1.615  -1.346  -2.620  1.00  0.00    -0.000 C 
BRANCH  12  13
ATOM     13  C   UNL     1       1.575  -0.779  -4.046  1.00  0.00    -0.003 C 
ATOM     14  C   UNL     1       0.377  -1.325  -4.820  1.00  0.00     0.004 C 
ENDBRANCH  12  13
ENDBRANCH  11  12
ENDBRANCH  10  11
ENDBRANCH   9  10
ENDBRANCH   1   9
TORSDOF 10
ENDMDL
