MODEL 1
REMARK VINA RESULT:    -3.508      0.000      0.000
REMARK INTER + INTRA:          -4.300
REMARK INTER:                  -4.328
REMARK INTRA:                   0.028
REMARK UNBOUND:                 0.028
REMARK SMILES CCCCCC(=O)[O-]
REMARK SMILES IDX 4 1 5 2 6 3 7 4 8 5 3 6 2 7 1 8
REMARK H PARENT
REMARK Flexibility Score: inf
ROOT
ATOM      1  C   UNL     1      20.326  41.607  12.006  1.00  0.00     0.006 C 
ENDROOT
BRANCH   1   2
ATOM      2  C   UNL     1      20.372  42.657  13.125  1.00  0.00     0.053 C 
BRANCH   2   3
ATOM      3  C   UNL     1      20.594  44.021  12.553  1.00  0.00     0.041 C 
ATOM      4  O   UNL     1      21.308  44.171  11.528  1.00  0.00    -0.550 OA
ATOM      5  O   UNL     1      19.971  45.124  13.125  1.00  0.00    -0.550 OA
ENDBRANCH   2   3
ENDBRANCH   1   2
BRANCH   1   6
ATOM      6  C   UNL     1      19.126  41.816  11.059  1.00  0.00     0.000 C 
BRANCH   6   7
ATOM      7  C   UNL     1      18.645  40.522  10.379  1.00  0.00    -0.003 C 
ATOM      8  C   UNL     1      17.232  40.635   9.811  1.00  0.00     0.004 C 
ENDBRANCH   6   7
ENDBRANCH   1   6
TORSDOF 4
ENDMDL
MODEL 2
REMARK VINA RESULT:    -3.293      1.021      1.268
REMARK INTER + INTRA:          -4.035
REMARK INTER:                  -3.923
REMARK INTRA:                  -0.111
REMARK UNBOUND:                 0.028
REMARK SMILES CCCCCC(=O)[O-]
REMARK SMILES IDX 4 1 5 2 6 3 7 4 8 5 3 6 2 7 1 8
REMARK H PARENT
REMARK Flexibility Score: inf
ROOT
ATOM      1  C   UNL     1      19.850  41.216  11.675  1.00  0.00     0.006 C 
ENDROOT
BRANCH   1   2
ATOM      2  C   UNL     1      19.496  42.699  11.501  1.00  0.00     0.053 C 
BRANCH   2   3
ATOM      3  C   UNL     1      20.401  43.554  12.329  1.00  0.00     0.041 C 
ATOM      4  O   UNL     1      21.228  43.026  13.117  1.00  0.00    -0.550 OA
ATOM      5  O   UNL     1      20.366  44.937  12.194  1.00  0.00    -0.550 OA
ENDBRANCH   2   3
ENDBRANCH   1   2
BRANCH   1   6
ATOM      6  C   UNL     1      19.092  40.313  10.679  1.00  0.00     0.000 C 
BRANCH   6   7
ATOM      7  C   UNL     1      18.011  41.056   9.875  1.00  0.00    -0.003 C 
ATOM      8  C   UNL     1      16.680  40.310   9.830  1.00  0.00     0.004 C 
ENDBRANCH   6   7
ENDBRANCH   1   6
TORSDOF 4
ENDMDL
MODEL 3
REMARK VINA RESULT:    -2.695      2.969      4.576
REMARK INTER + INTRA:          -3.297
REMARK INTER:                  -3.220
REMARK INTRA:                  -0.077
REMARK UNBOUND:                 0.028
REMARK SMILES CCCCCC(=O)[O-]
REMARK SMILES IDX 4 1 5 2 6 3 7 4 8 5 3 6 2 7 1 8
REMARK H PARENT
REMARK Flexibility Score: inf
ROOT
ATOM      1  C   UNL     1      19.297  42.025  11.261  1.00  0.00     0.006 C 
ENDROOT
BRANCH   1   2
ATOM      2  C   UNL     1      19.078  40.703  10.513  1.00  0.00     0.053 C 
BRANCH   2   3
ATOM      3  C   UNL     1      17.718  40.671   9.892  1.00  0.00     0.041 C 
ATOM      4  O   UNL     1      17.107  39.578   9.761  1.00  0.00    -0.550 OA
ATOM      5  O   UNL     1      17.103  41.854   9.504  1.00  0.00    -0.550 OA
ENDBRANCH   2   3
ENDBRANCH   1   2
BRANCH   1   6
ATOM      6  C   UNL     1      20.277  41.873  12.442  1.00  0.00     0.000 C 
BRANCH   6   7
ATOM      7  C   UNL     1      20.631  43.207  13.125  1.00  0.00    -0.003 C 
ATOM      8  C   UNL     1      20.592  44.397  12.169  1.00  0.00     0.004 C 
ENDBRANCH   6   7
ENDBRANCH   1   6
TORSDOF 4
ENDMDL
MODEL 4
REMARK VINA RESULT:    -2.407      1.720      2.360
REMARK INTER + INTRA:          -2.942
REMARK INTER:                  -2.875
REMARK INTRA:                  -0.067
REMARK UNBOUND:                 0.028
REMARK SMILES CCCCCC(=O)[O-]
REMARK SMILES IDX 4 1 5 2 6 3 7 4 8 5 3 6 2 7 1 8
REMARK H PARENT
REMARK Flexibility Score: inf
ROOT
ATOM      1  C   UNL     1      19.067  41.061  10.591  1.00  0.00     0.006 C 
ENDROOT
BRANCH   1   2
ATOM      2  C   UNL     1      19.348  42.364  11.352  1.00  0.00     0.053 C 
BRANCH   2   3
ATOM      3  C   UNL     1      20.292  42.116  12.485  1.00  0.00     0.041 C 
ATOM      4  O   UNL     1      21.049  43.035  12.893  1.00  0.00    -0.550 OA
ATOM      5  O   UNL     1      20.302  40.882  13.124  1.00  0.00    -0.550 OA
ENDBRANCH   2   3
ENDBRANCH   1   2
BRANCH   1   6
ATOM      6  C   UNL     1      17.870  41.194   9.627  1.00  0.00     0.000 C 
BRANCH   6   7
ATOM      7  C   UNL     1      16.797  40.108   9.823  1.00  0.00    -0.003 C 
ATOM      8  C   UNL     1      15.395  40.681  10.018  1.00  0.00     0.004 C 
ENDBRANCH   6   7
ENDBRANCH   1   6
TORSDOF 4
ENDMDL
