MODEL 1
REMARK VINA RESULT:    -3.991      0.000      0.000
REMARK INTER + INTRA:          -8.226
REMARK INTER:                  -7.024
REMARK INTRA:                  -1.202
REMARK UNBOUND:                -1.202
REMARK SMILES CCCCCCC=CCCCCCCCC(=O)[O-]
REMARK SMILES IDX 10 1 11 2 12 3 13 4 14 5 15 6 16 7 17 8 18 9 9 10 8 11 7 12
REMARK SMILES IDX 6 13 5 14 4 15 3 16 2 17 1 18
REMARK H PARENT
REMARK Flexibility Score: inf
ROOT
ATOM      1  C   UNL     1       4.005 -18.131  17.887  1.00  0.00     0.004 C 
ENDROOT
BRANCH   1   2
ATOM      2  C   UNL     1       4.620 -19.471  18.330  1.00  0.00     0.000 C 
BRANCH   2   3
ATOM      3  C   UNL     1       3.823 -20.146  19.460  1.00  0.00     0.000 C 
BRANCH   3   4
ATOM      4  C   UNL     1       2.872 -19.170  20.173  1.00  0.00     0.000 C 
BRANCH   4   5
ATOM      5  C   UNL     1       1.522 -19.813  20.534  1.00  0.00     0.006 C 
BRANCH   5   6
ATOM      6  C   UNL     1       1.458 -21.291  20.126  1.00  0.00     0.053 C 
BRANCH   6   7
ATOM      7  C   UNL     1       0.217 -21.599  19.344  1.00  0.00     0.041 C 
ATOM      8  O   UNL     1       0.196 -21.425  18.097  1.00  0.00    -0.550 OA
ATOM      9  O   UNL     1      -0.901 -22.112  19.987  1.00  0.00    -0.550 OA
ENDBRANCH   6   7
ENDBRANCH   5   6
ENDBRANCH   4   5
ENDBRANCH   3   4
ENDBRANCH   2   3
ENDBRANCH   1   2
BRANCH   1  10
ATOM     10  C   UNL     1       4.345 -17.723  16.443  1.00  0.00     0.027 C 
BRANCH  10  11
ATOM     11  C   UNL     1       3.636 -16.466  16.013  1.00  0.00    -0.031 C 
ATOM     12  C   UNL     1       3.461 -16.164  14.717  1.00  0.00    -0.031 C 
BRANCH  12  13
ATOM     13  C   UNL     1       2.756 -14.906  14.289  1.00  0.00     0.027 C 
BRANCH  13  14
ATOM     14  C   UNL     1       2.505 -13.939  15.460  1.00  0.00     0.004 C 
BRANCH  14  15
ATOM     15  C   UNL     1       3.382 -12.673  15.433  1.00  0.00     0.000 C 
BRANCH  15  16
ATOM     16  C   UNL     1       4.633 -12.768  14.539  1.00  0.00    -0.000 C 
BRANCH  16  17
ATOM     17  C   UNL     1       5.926 -13.100  15.313  1.00  0.00    -0.003 C 
ATOM     18  C   UNL     1       6.571 -14.404  14.846  1.00  0.00     0.004 C 
ENDBRANCH  16  17
ENDBRANCH  15  16
ENDBRANCH  14  15
ENDBRANCH  13  14
ENDBRANCH  12  13
ENDBRANCH  10  11
ENDBRANCH   1  10
TORSDOF 13
ENDMDL
MODEL 2
REMARK VINA RESULT:    -3.867      5.744      7.821
REMARK INTER + INTRA:          -8.008
REMARK INTER:                  -5.639
REMARK INTRA:                  -2.369
REMARK UNBOUND:                -1.202
REMARK SMILES CCCCCCC=CCCCCCCCC(=O)[O-]
REMARK SMILES IDX 10 1 11 2 12 3 13 4 14 5 15 6 16 7 17 8 18 9 9 10 8 11 7 12
REMARK SMILES IDX 6 13 5 14 4 15 3 16 2 17 1 18
REMARK H PARENT
REMARK Flexibility Score: inf
ROOT
ATOM      1  C   UNL     1       6.419 -16.865  14.924  1.00  0.00     0.004 C 
ENDROOT
BRANCH   1   2
ATOM      2  C   UNL     1       6.741 -15.444  14.426  1.00  0.00     0.000 C 
BRANCH   2   3
ATOM      3  C   UNL     1       7.232 -14.517  15.552  1.00  0.00     0.000 C 
BRANCH   3   4
ATOM      4  C   UNL     1       6.616 -13.111  15.467  1.00  0.00     0.000 C 
BRANCH   4   5
ATOM      5  C   UNL     1       5.612 -12.972  14.310  1.00  0.00     0.006 C 
BRANCH   5   6
ATOM      6  C   UNL     1       4.961 -11.582  14.272  1.00  0.00     0.053 C 
BRANCH   6   7
ATOM      7  C   UNL     1       5.659 -10.668  13.312  1.00  0.00     0.041 C 
ATOM      8  O   UNL     1       5.347  -9.449  13.258  1.00  0.00    -0.550 OA
ATOM      9  O   UNL     1       6.678 -11.154  12.504  1.00  0.00    -0.550 OA
ENDBRANCH   6   7
ENDBRANCH   5   6
ENDBRANCH   4   5
ENDBRANCH   3   4
ENDBRANCH   2   3
ENDBRANCH   1   2
BRANCH   1  10
ATOM     10  C   UNL     1       4.960 -17.300  14.703  1.00  0.00     0.027 C 
BRANCH  10  11
ATOM     11  C   UNL     1       3.969 -16.290  15.219  1.00  0.00    -0.031 C 
ATOM     12  C   UNL     1       3.194 -15.577  14.388  1.00  0.00    -0.031 C 
BRANCH  12  13
ATOM     13  C   UNL     1       2.207 -14.565  14.904  1.00  0.00     0.027 C 
BRANCH  13  14
ATOM     14  C   UNL     1       2.185 -14.490  16.441  1.00  0.00     0.004 C 
BRANCH  14  15
ATOM     15  C   UNL     1       3.154 -13.451  17.038  1.00  0.00     0.000 C 
BRANCH  15  16
ATOM     16  C   UNL     1       3.725 -13.815  18.422  1.00  0.00    -0.000 C 
BRANCH  16  17
ATOM     17  C   UNL     1       5.015 -14.660  18.359  1.00  0.00    -0.003 C 
ATOM     18  C   UNL     1       4.809 -16.084  18.873  1.00  0.00     0.004 C 
ENDBRANCH  16  17
ENDBRANCH  15  16
ENDBRANCH  14  15
ENDBRANCH  13  14
ENDBRANCH  12  13
ENDBRANCH  10  11
ENDBRANCH   1  10
TORSDOF 13
ENDMDL
MODEL 3
REMARK VINA RESULT:    -3.852      1.310      1.994
REMARK INTER + INTRA:          -7.982
REMARK INTER:                  -6.671
REMARK INTRA:                  -1.310
REMARK UNBOUND:                -1.202
REMARK SMILES CCCCCCC=CCCCCCCCC(=O)[O-]
REMARK SMILES IDX 10 1 11 2 12 3 13 4 14 5 15 6 16 7 17 8 18 9 9 10 8 11 7 12
REMARK SMILES IDX 6 13 5 14 4 15 3 16 2 17 1 18
REMARK H PARENT
REMARK Flexibility Score: inf
ROOT
ATOM      1  C   UNL     1       4.403 -17.637  17.346  1.00  0.00     0.004 C 
ENDROOT
BRANCH   1   2
ATOM      2  C   UNL     1       3.866 -18.795  18.208  1.00  0.00     0.000 C 
BRANCH   2   3
ATOM      3  C   UNL     1       4.045 -18.545  19.716  1.00  0.00     0.000 C 
BRANCH   3   4
ATOM      4  C   UNL     1       3.054 -19.357  20.568  1.00  0.00     0.000 C 
BRANCH   4   5
ATOM      5  C   UNL     1       1.837 -19.842  19.761  1.00  0.00     0.006 C 
BRANCH   5   6
ATOM      6  C   UNL     1       1.280 -21.169  20.296  1.00  0.00     0.053 C 
BRANCH   6   7
ATOM      7  C   UNL     1       0.106 -21.641  19.494  1.00  0.00     0.041 C 
ATOM      8  O   UNL     1      -0.906 -22.117  20.074  1.00  0.00    -0.550 OA
ATOM      9  O   UNL     1       0.114 -21.522  18.111  1.00  0.00    -0.550 OA
ENDBRANCH   6   7
ENDBRANCH   5   6
ENDBRANCH   4   5
ENDBRANCH   3   4
ENDBRANCH   2   3
ENDBRANCH   1   2
BRANCH   1  10
ATOM     10  C   UNL     1       4.425 -17.927  15.835  1.00  0.00     0.027 C 
BRANCH  10  11
ATOM     11  C   UNL     1       4.114 -16.710  15.006  1.00  0.00    -0.031 C 
ATOM     12  C   UNL     1       2.952 -16.051  15.132  1.00  0.00    -0.031 C 
BRANCH  12  13
ATOM     13  C   UNL     1       2.641 -14.836  14.301  1.00  0.00     0.027 C 
BRANCH  13  14
ATOM     14  C   UNL     1       2.515 -13.556  15.146  1.00  0.00     0.004 C 
BRANCH  14  15
ATOM     15  C   UNL     1       3.857 -13.011  15.671  1.00  0.00     0.000 C 
BRANCH  15  16
ATOM     16  C   UNL     1       4.217 -13.445  17.105  1.00  0.00    -0.000 C 
BRANCH  16  17
ATOM     17  C   UNL     1       2.990 -13.754  17.988  1.00  0.00    -0.003 C 
ATOM     18  C   UNL     1       3.336 -14.635  19.187  1.00  0.00     0.004 C 
ENDBRANCH  16  17
ENDBRANCH  15  16
ENDBRANCH  14  15
ENDBRANCH  13  14
ENDBRANCH  12  13
ENDBRANCH  10  11
ENDBRANCH   1  10
TORSDOF 13
ENDMDL
MODEL 4
REMARK VINA RESULT:    -3.819      3.622      6.778
REMARK INTER + INTRA:          -7.923
REMARK INTER:                  -6.090
REMARK INTRA:                  -1.832
REMARK UNBOUND:                -1.202
REMARK SMILES CCCCCCC=CCCCCCCCC(=O)[O-]
REMARK SMILES IDX 10 1 11 2 12 3 13 4 14 5 15 6 16 7 17 8 18 9 9 10 8 11 7 12
REMARK SMILES IDX 6 13 5 14 4 15 3 16 2 17 1 18
REMARK H PARENT
REMARK Flexibility Score: inf
ROOT
ATOM      1  C   UNL     1       7.067 -13.365  15.270  1.00  0.00     0.004 C 
ENDROOT
BRANCH   1   2
ATOM      2  C   UNL     1       5.704 -13.273  14.558  1.00  0.00     0.000 C 
BRANCH   2   3
ATOM      3  C   UNL     1       4.678 -12.439  15.345  1.00  0.00     0.000 C 
BRANCH   3   4
ATOM      4  C   UNL     1       4.353 -13.049  16.718  1.00  0.00     0.000 C 
BRANCH   4   5
ATOM      5  C   UNL     1       3.992 -14.542  16.633  1.00  0.00     0.006 C 
BRANCH   5   6
ATOM      6  C   UNL     1       2.533 -14.762  16.210  1.00  0.00     0.053 C 
BRANCH   6   7
ATOM      7  C   UNL     1       2.424 -15.119  14.759  1.00  0.00     0.041 C 
ATOM      8  O   UNL     1       1.518 -14.610  14.048  1.00  0.00    -0.550 OA
ATOM      9  O   UNL     1       3.345 -15.984  14.184  1.00  0.00    -0.550 OA
ENDBRANCH   6   7
ENDBRANCH   5   6
ENDBRANCH   4   5
ENDBRANCH   3   4
ENDBRANCH   2   3
ENDBRANCH   1   2
BRANCH   1  10
ATOM     10  C   UNL     1       7.572 -14.801  15.491  1.00  0.00     0.027 C 
BRANCH  10  11
ATOM     11  C   UNL     1       6.906 -15.798  14.580  1.00  0.00    -0.031 C 
ATOM     12  C   UNL     1       7.613 -16.723  13.913  1.00  0.00    -0.031 C 
BRANCH  12  13
ATOM     13  C   UNL     1       6.947 -17.717  13.000  1.00  0.00     0.027 C 
BRANCH  13  14
ATOM     14  C   UNL     1       5.739 -18.409  13.658  1.00  0.00     0.004 C 
BRANCH  14  15
ATOM     15  C   UNL     1       6.110 -19.582  14.584  1.00  0.00     0.000 C 
BRANCH  15  16
ATOM     16  C   UNL     1       5.863 -19.328  16.084  1.00  0.00    -0.000 C 
BRANCH  16  17
ATOM     17  C   UNL     1       4.772 -18.273  16.364  1.00  0.00    -0.003 C 
ATOM     18  C   UNL     1       4.041 -18.521  17.683  1.00  0.00     0.004 C 
ENDBRANCH  16  17
ENDBRANCH  15  16
ENDBRANCH  14  15
ENDBRANCH  13  14
ENDBRANCH  12  13
ENDBRANCH  10  11
ENDBRANCH   1  10
TORSDOF 13
ENDMDL
MODEL 5
REMARK VINA RESULT:    -3.802      3.964      5.690
REMARK INTER + INTRA:          -7.893
REMARK INTER:                  -5.435
REMARK INTRA:                  -2.457
REMARK UNBOUND:                -1.202
REMARK SMILES CCCCCCC=CCCCCCCCC(=O)[O-]
REMARK SMILES IDX 10 1 11 2 12 3 13 4 14 5 15 6 16 7 17 8 18 9 9 10 8 11 7 12
REMARK SMILES IDX 6 13 5 14 4 15 3 16 2 17 1 18
REMARK H PARENT
REMARK Flexibility Score: inf
ROOT
ATOM      1  C   UNL     1       6.316 -16.589  17.444  1.00  0.00     0.004 C 
ENDROOT
BRANCH   1   2
ATOM      2  C   UNL     1       7.501 -16.724  16.469  1.00  0.00     0.000 C 
BRANCH   2   3
ATOM      3  C   UNL     1       7.628 -15.520  15.519  1.00  0.00     0.000 C 
BRANCH   3   4
ATOM      4  C   UNL     1       7.308 -15.885  14.060  1.00  0.00     0.000 C 
BRANCH   4   5
ATOM      5  C   UNL     1       7.787 -17.298  13.683  1.00  0.00     0.006 C 
BRANCH   5   6
ATOM      6  C   UNL     1       6.736 -18.067  12.871  1.00  0.00     0.053 C 
BRANCH   6   7
ATOM      7  C   UNL     1       6.317 -19.330  13.560  1.00  0.00     0.041 C 
ATOM      8  O   UNL     1       5.187 -19.405  14.112  1.00  0.00    -0.550 OA
ATOM      9  O   UNL     1       7.158 -20.435  13.561  1.00  0.00    -0.550 OA
ENDBRANCH   6   7
ENDBRANCH   5   6
ENDBRANCH   4   5
ENDBRANCH   3   4
ENDBRANCH   2   3
ENDBRANCH   1   2
BRANCH   1  10
ATOM     10  C   UNL     1       5.154 -17.560  17.170  1.00  0.00     0.027 C 
BRANCH  10  11
ATOM     11  C   UNL     1       3.958 -16.877  16.562  1.00  0.00    -0.031 C 
ATOM     12  C   UNL     1       4.002 -16.344  15.332  1.00  0.00    -0.031 C 
BRANCH  12  13
ATOM     13  C   UNL     1       2.806 -15.659  14.727  1.00  0.00     0.027 C 
BRANCH  13  14
ATOM     14  C   UNL     1       2.963 -14.128  14.678  1.00  0.00     0.004 C 
BRANCH  14  15
ATOM     15  C   UNL     1       4.422 -13.644  14.577  1.00  0.00     0.000 C 
BRANCH  15  16
ATOM     16  C   UNL     1       4.817 -12.557  15.595  1.00  0.00    -0.000 C 
BRANCH  16  17
ATOM     17  C   UNL     1       4.778 -13.034  17.062  1.00  0.00    -0.003 C 
ATOM     18  C   UNL     1       6.142 -12.945  17.745  1.00  0.00     0.004 C 
ENDBRANCH  16  17
ENDBRANCH  15  16
ENDBRANCH  14  15
ENDBRANCH  13  14
ENDBRANCH  12  13
ENDBRANCH  10  11
ENDBRANCH   1  10
TORSDOF 13
ENDMDL
MODEL 6
REMARK VINA RESULT:    -3.801      5.232      6.614
REMARK INTER + INTRA:          -7.892
REMARK INTER:                  -6.050
REMARK INTRA:                  -1.842
REMARK UNBOUND:                -1.202
REMARK SMILES CCCCCCC=CCCCCCCCC(=O)[O-]
REMARK SMILES IDX 10 1 11 2 12 3 13 4 14 5 15 6 16 7 17 8 18 9 9 10 8 11 7 12
REMARK SMILES IDX 6 13 5 14 4 15 3 16 2 17 1 18
REMARK H PARENT
REMARK Flexibility Score: inf
ROOT
ATOM      1  C   UNL     1       2.631 -14.176  16.804  1.00  0.00     0.004 C 
ENDROOT
BRANCH   1   2
ATOM      2  C   UNL     1       2.357 -13.897  15.314  1.00  0.00     0.000 C 
BRANCH   2   3
ATOM      3  C   UNL     1       2.804 -15.053  14.402  1.00  0.00     0.000 C 
BRANCH   3   4
ATOM      4  C   UNL     1       3.497 -16.183  15.181  1.00  0.00     0.000 C 
BRANCH   4   5
ATOM      5  C   UNL     1       4.520 -16.952  14.327  1.00  0.00     0.006 C 
BRANCH   5   6
ATOM      6  C   UNL     1       5.931 -16.902  14.930  1.00  0.00     0.053 C 
BRANCH   6   7
ATOM      7  C   UNL     1       6.983 -16.773  13.871  1.00  0.00     0.041 C 
ATOM      8  O   UNL     1       7.045 -17.612  12.934  1.00  0.00    -0.550 OA
ATOM      9  O   UNL     1       7.871 -15.707  13.899  1.00  0.00    -0.550 OA
ENDBRANCH   6   7
ENDBRANCH   5   6
ENDBRANCH   4   5
ENDBRANCH   3   4
ENDBRANCH   2   3
ENDBRANCH   1   2
BRANCH   1  10
ATOM     10  C   UNL     1       3.031 -12.934  17.620  1.00  0.00     0.027 C 
BRANCH  10  11
ATOM     11  C   UNL     1       3.201 -11.708  16.764  1.00  0.00    -0.031 C 
ATOM     12  C   UNL     1       2.657 -10.530  17.106  1.00  0.00    -0.031 C 
BRANCH  12  13
ATOM     13  C   UNL     1       2.824  -9.305  16.248  1.00  0.00     0.027 C 
BRANCH  13  14
ATOM     14  C   UNL     1       3.232  -9.645  14.803  1.00  0.00     0.004 C 
BRANCH  14  15
ATOM     15  C   UNL     1       4.649  -9.177  14.419  1.00  0.00     0.000 C 
BRANCH  15  16
ATOM     16  C   UNL     1       5.686 -10.306  14.266  1.00  0.00    -0.000 C 
BRANCH  16  17
ATOM     17  C   UNL     1       5.081 -11.647  13.799  1.00  0.00    -0.003 C 
ATOM     18  C   UNL     1       5.825 -12.855  14.365  1.00  0.00     0.004 C 
ENDBRANCH  16  17
ENDBRANCH  15  16
ENDBRANCH  14  15
ENDBRANCH  13  14
ENDBRANCH  12  13
ENDBRANCH  10  11
ENDBRANCH   1  10
TORSDOF 13
ENDMDL
MODEL 7
REMARK VINA RESULT:    -3.799      5.418      8.102
REMARK INTER + INTRA:          -7.889
REMARK INTER:                  -5.478
REMARK INTRA:                  -2.411
REMARK UNBOUND:                -1.202
REMARK SMILES CCCCCCC=CCCCCCCCC(=O)[O-]
REMARK SMILES IDX 10 1 11 2 12 3 13 4 14 5 15 6 16 7 17 8 18 9 9 10 8 11 7 12
REMARK SMILES IDX 6 13 5 14 4 15 3 16 2 17 1 18
REMARK H PARENT
REMARK Flexibility Score: inf
ROOT
ATOM      1  C   UNL     1       3.042 -11.936  17.879  1.00  0.00     0.004 C 
ENDROOT
BRANCH   1   2
ATOM      2  C   UNL     1       4.481 -11.453  18.142  1.00  0.00     0.000 C 
BRANCH   2   3
ATOM      3  C   UNL     1       5.342 -11.430  16.867  1.00  0.00     0.000 C 
BRANCH   3   4
ATOM      4  C   UNL     1       5.811 -12.833  16.449  1.00  0.00     0.000 C 
BRANCH   4   5
ATOM      5  C   UNL     1       6.018 -12.961  14.929  1.00  0.00     0.006 C 
BRANCH   5   6
ATOM      6  C   UNL     1       4.979 -12.158  14.134  1.00  0.00     0.053 C 
BRANCH   6   7
ATOM      7  C   UNL     1       5.620 -11.090  13.303  1.00  0.00     0.041 C 
ATOM      8  O   UNL     1       6.662 -11.341  12.642  1.00  0.00    -0.550 OA
ATOM      9  O   UNL     1       5.047  -9.827  13.229  1.00  0.00    -0.550 OA
ENDBRANCH   6   7
ENDBRANCH   5   6
ENDBRANCH   4   5
ENDBRANCH   3   4
ENDBRANCH   2   3
ENDBRANCH   1   2
BRANCH   1  10
ATOM     10  C   UNL     1       2.719 -13.321  18.464  1.00  0.00     0.027 C 
BRANCH  10  11
ATOM     11  C   UNL     1       2.531 -14.371  17.401  1.00  0.00    -0.031 C 
ATOM     12  C   UNL     1       2.247 -14.044  16.132  1.00  0.00    -0.031 C 
BRANCH  12  13
ATOM     13  C   UNL     1       2.056 -15.094  15.071  1.00  0.00     0.027 C 
BRANCH  13  14
ATOM     14  C   UNL     1       3.361 -15.425  14.325  1.00  0.00     0.004 C 
BRANCH  14  15
ATOM     15  C   UNL     1       4.015 -16.753  14.754  1.00  0.00     0.000 C 
BRANCH  15  16
ATOM     16  C   UNL     1       5.425 -16.615  15.361  1.00  0.00    -0.000 C 
BRANCH  16  17
ATOM     17  C   UNL     1       5.457 -16.772  16.896  1.00  0.00    -0.003 C 
ATOM     18  C   UNL     1       4.244 -17.529  17.435  1.00  0.00     0.004 C 
ENDBRANCH  16  17
ENDBRANCH  15  16
ENDBRANCH  14  15
ENDBRANCH  13  14
ENDBRANCH  12  13
ENDBRANCH  10  11
ENDBRANCH   1  10
TORSDOF 13
ENDMDL
MODEL 8
REMARK VINA RESULT:    -3.782      5.678      9.131
REMARK INTER + INTRA:          -7.859
REMARK INTER:                  -5.972
REMARK INTRA:                  -1.887
REMARK UNBOUND:                -1.202
REMARK SMILES CCCCCCC=CCCCCCCCC(=O)[O-]
REMARK SMILES IDX 10 1 11 2 12 3 13 4 14 5 15 6 16 7 17 8 18 9 9 10 8 11 7 12
REMARK SMILES IDX 6 13 5 14 4 15 3 16 2 17 1 18
REMARK H PARENT
REMARK Flexibility Score: inf
ROOT
ATOM      1  C   UNL     1       3.385 -10.580  16.766  1.00  0.00     0.004 C 
ENDROOT
BRANCH   1   2
ATOM      2  C   UNL     1       2.594 -10.281  15.478  1.00  0.00     0.000 C 
BRANCH   2   3
ATOM      3  C   UNL     1       3.126  -9.048  14.728  1.00  0.00     0.000 C 
BRANCH   3   4
ATOM      4  C   UNL     1       4.484  -8.569  15.270  1.00  0.00     0.000 C 
BRANCH   4   5
ATOM      5  C   UNL     1       5.605  -8.653  14.219  1.00  0.00     0.006 C 
BRANCH   5   6
ATOM      6  C   UNL     1       6.362  -9.986  14.286  1.00  0.00     0.053 C 
BRANCH   6   7
ATOM      7  C   UNL     1       6.124 -10.822  13.066  1.00  0.00     0.041 C 
ATOM      8  O   UNL     1       5.010 -11.384  12.892  1.00  0.00    -0.550 OA
ATOM      9  O   UNL     1       7.117 -10.950  12.105  1.00  0.00    -0.550 OA
ENDBRANCH   6   7
ENDBRANCH   5   6
ENDBRANCH   4   5
ENDBRANCH   3   4
ENDBRANCH   2   3
ENDBRANCH   1   2
BRANCH   1  10
ATOM     10  C   UNL     1       4.124 -11.929  16.759  1.00  0.00     0.027 C 
BRANCH  10  11
ATOM     11  C   UNL     1       3.557 -12.896  15.754  1.00  0.00    -0.031 C 
ATOM     12  C   UNL     1       2.654 -13.825  16.103  1.00  0.00    -0.031 C 
BRANCH  12  13
ATOM     13  C   UNL     1       2.090 -14.793  15.099  1.00  0.00     0.027 C 
BRANCH  13  14
ATOM     14  C   UNL     1       3.166 -15.710  14.491  1.00  0.00     0.004 C 
BRANCH  14  15
ATOM     15  C   UNL     1       3.773 -16.719  15.485  1.00  0.00     0.000 C 
BRANCH  15  16
ATOM     16  C   UNL     1       5.234 -16.438  15.884  1.00  0.00    -0.000 C 
BRANCH  16  17
ATOM     17  C   UNL     1       6.109 -15.928  14.720  1.00  0.00    -0.003 C 
ATOM     18  C   UNL     1       6.640 -14.515  14.960  1.00  0.00     0.004 C 
ENDBRANCH  16  17
ENDBRANCH  15  16
ENDBRANCH  14  15
ENDBRANCH  13  14
ENDBRANCH  12  13
ENDBRANCH  10  11
ENDBRANCH   1  10
TORSDOF 13
ENDMDL
MODEL 9
REMARK VINA RESULT:    -3.737      5.689      8.309
REMARK INTER + INTRA:          -7.779
REMARK INTER:                  -5.855
REMARK INTRA:                  -1.925
REMARK UNBOUND:                -1.202
REMARK SMILES CCCCCCC=CCCCCCCCC(=O)[O-]
REMARK SMILES IDX 10 1 11 2 12 3 13 4 14 5 15 6 16 7 17 8 18 9 9 10 8 11 7 12
REMARK SMILES IDX 6 13 5 14 4 15 3 16 2 17 1 18
REMARK H PARENT
REMARK Flexibility Score: inf
ROOT
ATOM      1  C   UNL     1       2.852 -14.127  16.431  1.00  0.00     0.004 C 
ENDROOT
BRANCH   1   2
ATOM      2  C   UNL     1       3.559 -12.760  16.375  1.00  0.00     0.000 C 
BRANCH   2   3
ATOM      3  C   UNL     1       5.083 -12.887  16.204  1.00  0.00     0.000 C 
BRANCH   3   4
ATOM      4  C   UNL     1       5.513 -12.861  14.728  1.00  0.00     0.000 C 
BRANCH   4   5
ATOM      5  C   UNL     1       4.815 -11.749  13.926  1.00  0.00     0.006 C 
BRANCH   5   6
ATOM      6  C   UNL     1       5.508 -10.390  14.095  1.00  0.00     0.053 C 
BRANCH   6   7
ATOM      7  C   UNL     1       4.539  -9.318  14.488  1.00  0.00     0.041 C 
ATOM      8  O   UNL     1       3.305  -9.477  14.294  1.00  0.00    -0.550 OA
ATOM      9  O   UNL     1       4.994  -8.159  15.104  1.00  0.00    -0.550 OA
ENDBRANCH   6   7
ENDBRANCH   5   6
ENDBRANCH   4   5
ENDBRANCH   3   4
ENDBRANCH   2   3
ENDBRANCH   1   2
BRANCH   1  10
ATOM     10  C   UNL     1       2.439 -14.685  15.058  1.00  0.00     0.027 C 
BRANCH  10  11
ATOM     11  C   UNL     1       3.154 -15.964  14.712  1.00  0.00    -0.031 C 
ATOM     12  C   UNL     1       3.764 -16.705  15.650  1.00  0.00    -0.031 C 
BRANCH  12  13
ATOM     13  C   UNL     1       4.481 -17.981  15.303  1.00  0.00     0.027 C 
BRANCH  13  14
ATOM     14  C   UNL     1       5.250 -17.886  13.973  1.00  0.00     0.004 C 
BRANCH  14  15
ATOM     15  C   UNL     1       6.750 -17.574  14.129  1.00  0.00     0.000 C 
BRANCH  15  16
ATOM     16  C   UNL     1       7.128 -16.092  13.941  1.00  0.00    -0.000 C 
BRANCH  16  17
ATOM     17  C   UNL     1       7.861 -15.479  15.153  1.00  0.00    -0.003 C 
ATOM     18  C   UNL     1       7.457 -16.130  16.475  1.00  0.00     0.004 C 
ENDBRANCH  16  17
ENDBRANCH  15  16
ENDBRANCH  14  15
ENDBRANCH  13  14
ENDBRANCH  12  13
ENDBRANCH  10  11
ENDBRANCH   1  10
TORSDOF 13
ENDMDL
