MODEL 1
REMARK VINA RESULT:    -6.097      0.000      0.000
REMARK INTER + INTRA:          -6.097
REMARK INTER:                  -6.097
REMARK INTRA:                   0.000
REMARK UNBOUND:                 0.000
REMARK SMILES CC1=CC(=O)[C@@H]2C[C@H]1C2(C)C
REMARK SMILES IDX 1 1 2 2 3 3 4 4 5 5 6 6 7 7 8 8 9 9 10 10 11 11
REMARK H PARENT
REMARK Flexibility Score: inf
ROOT
ATOM      1  C   UNL     1     102.021  46.932  53.254  1.00  0.00     0.040 C 
ATOM      2  C   UNL     1     103.046  47.766  53.955  1.00  0.00    -0.066 C 
ATOM      3  C   UNL     1     103.913  48.555  53.262  1.00  0.00     0.047 C 
ATOM      4  C   UNL     1     104.871  49.366  54.080  1.00  0.00     0.159 C 
ATOM      5  O   UNL     1     105.695  50.163  53.559  1.00  0.00    -0.295 OA
ATOM      6  C   UNL     1     104.777  49.160  55.593  1.00  0.00     0.067 C 
ATOM      7  C   UNL     1     104.700  47.626  55.761  1.00  0.00     0.021 C 
ATOM      8  C   UNL     1     103.185  47.760  55.492  1.00  0.00     0.022 C 
ATOM      9  C   UNL     1     103.280  49.225  56.009  1.00  0.00    -0.019 C 
ATOM     10  C   UNL     1     103.100  49.321  57.545  1.00  0.00     0.012 C 
ATOM     11  C   UNL     1     102.374  50.300  55.343  1.00  0.00     0.012 C 
ENDROOT
TORSDOF 0
ENDMDL
MODEL 2
REMARK VINA RESULT:    -5.968      1.866      3.153
REMARK INTER + INTRA:          -5.968
REMARK INTER:                  -5.968
REMARK INTRA:                   0.000
REMARK UNBOUND:                 0.000
REMARK SMILES CC1=CC(=O)[C@@H]2C[C@H]1C2(C)C
REMARK SMILES IDX 1 1 2 2 3 3 4 4 5 5 6 6 7 7 8 8 9 9 10 10 11 11
REMARK H PARENT
REMARK Flexibility Score: inf
ROOT
ATOM      1  C   UNL     1     103.536  47.891  58.103  1.00  0.00     0.040 C 
ATOM      2  C   UNL     1     103.474  47.928  56.609  1.00  0.00    -0.066 C 
ATOM      3  C   UNL     1     102.460  47.328  55.926  1.00  0.00     0.047 C 
ATOM      4  C   UNL     1     102.494  47.462  54.434  1.00  0.00     0.159 C 
ATOM      5  O   UNL     1     101.593  46.986  53.695  1.00  0.00    -0.295 OA
ATOM      6  C   UNL     1     103.698  48.221  53.873  1.00  0.00     0.067 C 
ATOM      7  C   UNL     1     104.904  47.634  54.638  1.00  0.00     0.021 C 
ATOM      8  C   UNL     1     104.562  48.631  55.768  1.00  0.00     0.022 C 
ATOM      9  C   UNL     1     103.884  49.529  54.692  1.00  0.00    -0.019 C 
ATOM     10  C   UNL     1     104.885  50.505  54.025  1.00  0.00     0.012 C 
ATOM     11  C   UNL     1     102.617  50.334  55.099  1.00  0.00     0.012 C 
ENDROOT
TORSDOF 0
ENDMDL
MODEL 3
REMARK VINA RESULT:    -5.830      8.719     10.403
REMARK INTER + INTRA:          -5.830
REMARK INTER:                  -5.830
REMARK INTRA:                   0.000
REMARK UNBOUND:                 0.000
REMARK SMILES CC1=CC(=O)[C@@H]2C[C@H]1C2(C)C
REMARK SMILES IDX 1 1 2 2 3 3 4 4 5 5 6 6 7 7 8 8 9 9 10 10 11 11
REMARK H PARENT
REMARK Flexibility Score: inf
ROOT
ATOM      1  C   UNL     1     107.644  47.791  61.279  1.00  0.00     0.040 C 
ATOM      2  C   UNL     1     107.662  47.942  62.767  1.00  0.00    -0.066 C 
ATOM      3  C   UNL     1     108.412  47.121  63.554  1.00  0.00     0.047 C 
ATOM      4  C   UNL     1     108.369  47.394  65.027  1.00  0.00     0.159 C 
ATOM      5  O   UNL     1     109.049  46.731  65.853  1.00  0.00    -0.295 OA
ATOM      6  C   UNL     1     107.445  48.534  65.455  1.00  0.00     0.067 C 
ATOM      7  C   UNL     1     106.143  48.282  64.663  1.00  0.00     0.021 C 
ATOM      8  C   UNL     1     106.820  49.018  63.485  1.00  0.00     0.022 C 
ATOM      9  C   UNL     1     107.706  49.757  64.530  1.00  0.00    -0.019 C 
ATOM     10  C   UNL     1     107.038  51.050  65.061  1.00  0.00     0.012 C 
ATOM     11  C   UNL     1     109.175  50.090  64.144  1.00  0.00     0.012 C 
ENDROOT
TORSDOF 0
ENDMDL
MODEL 4
REMARK VINA RESULT:    -5.634      8.823     10.188
REMARK INTER + INTRA:          -5.634
REMARK INTER:                  -5.634
REMARK INTRA:                   0.000
REMARK UNBOUND:                 0.000
REMARK SMILES CC1=CC(=O)[C@@H]2C[C@H]1C2(C)C
REMARK SMILES IDX 1 1 2 2 3 3 4 4 5 5 6 6 7 7 8 8 9 9 10 10 11 11
REMARK H PARENT
REMARK Flexibility Score: inf
ROOT
ATOM      1  C   UNL     1     108.338  45.985  65.112  1.00  0.00     0.040 C 
ATOM      2  C   UNL     1     108.404  47.331  64.464  1.00  0.00    -0.066 C 
ATOM      3  C   UNL     1     108.926  47.493  63.216  1.00  0.00     0.047 C 
ATOM      4  C   UNL     1     108.908  48.887  62.666  1.00  0.00     0.159 C 
ATOM      5  O   UNL     1     109.325  49.158  61.509  1.00  0.00    -0.295 OA
ATOM      6  C   UNL     1     108.345  49.954  63.605  1.00  0.00     0.067 C 
ATOM      7  C   UNL     1     109.016  49.653  64.963  1.00  0.00     0.021 C 
ATOM      8  C   UNL     1     107.904  48.603  65.181  1.00  0.00     0.022 C 
ATOM      9  C   UNL     1     107.012  49.429  64.209  1.00  0.00    -0.019 C 
ATOM     10  C   UNL     1     106.218  50.541  64.938  1.00  0.00     0.012 C 
ATOM     11  C   UNL     1     106.032  48.660  63.278  1.00  0.00     0.012 C 
ENDROOT
TORSDOF 0
ENDMDL
MODEL 5
REMARK VINA RESULT:    -5.540      1.806      3.068
REMARK INTER + INTRA:          -5.540
REMARK INTER:                  -5.540
REMARK INTRA:                   0.000
REMARK UNBOUND:                 0.000
REMARK SMILES CC1=CC(=O)[C@@H]2C[C@H]1C2(C)C
REMARK SMILES IDX 1 1 2 2 3 3 4 4 5 5 6 6 7 7 8 8 9 9 10 10 11 11
REMARK H PARENT
REMARK Flexibility Score: inf
ROOT
ATOM      1  C   UNL     1     102.206  46.454  54.057  1.00  0.00     0.040 C 
ATOM      2  C   UNL     1     102.633  47.754  54.660  1.00  0.00    -0.066 C 
ATOM      3  C   UNL     1     102.258  48.109  55.921  1.00  0.00     0.047 C 
ATOM      4  C   UNL     1     102.776  49.423  56.423  1.00  0.00     0.159 C 
ATOM      5  O   UNL     1     102.533  49.842  57.584  1.00  0.00    -0.295 OA
ATOM      6  C   UNL     1     103.622  50.216  55.425  1.00  0.00     0.067 C 
ATOM      7  C   UNL     1     102.824  50.136  54.106  1.00  0.00     0.021 C 
ATOM      8  C   UNL     1     103.500  48.766  53.880  1.00  0.00     0.022 C 
ATOM      9  C   UNL     1     104.666  49.256  54.788  1.00  0.00    -0.019 C 
ATOM     10  C   UNL     1     105.755  50.016  53.990  1.00  0.00     0.012 C 
ATOM     11  C   UNL     1     105.370  48.216  55.705  1.00  0.00     0.012 C 
ENDROOT
TORSDOF 0
ENDMDL
MODEL 6
REMARK VINA RESULT:    -5.434      1.893      3.028
REMARK INTER + INTRA:          -5.434
REMARK INTER:                  -5.434
REMARK INTRA:                   0.000
REMARK UNBOUND:                 0.000
REMARK SMILES CC1=CC(=O)[C@@H]2C[C@H]1C2(C)C
REMARK SMILES IDX 1 1 2 2 3 3 4 4 5 5 6 6 7 7 8 8 9 9 10 10 11 11
REMARK H PARENT
REMARK Flexibility Score: inf
ROOT
ATOM      1  C   UNL     1     103.987  51.033  54.088  1.00  0.00     0.040 C 
ATOM      2  C   UNL     1     103.447  49.750  54.634  1.00  0.00    -0.066 C 
ATOM      3  C   UNL     1     103.197  48.683  53.825  1.00  0.00     0.047 C 
ATOM      4  C   UNL     1     102.687  47.445  54.497  1.00  0.00     0.159 C 
ATOM      5  O   UNL     1     102.457  46.381  53.863  1.00  0.00    -0.295 OA
ATOM      6  C   UNL     1     102.469  47.562  56.006  1.00  0.00     0.067 C 
ATOM      7  C   UNL     1     101.735  48.910  56.178  1.00  0.00     0.021 C 
ATOM      8  C   UNL     1     103.129  49.575  56.135  1.00  0.00     0.022 C 
ATOM      9  C   UNL     1     103.724  48.228  56.638  1.00  0.00    -0.019 C 
ATOM     10  C   UNL     1     103.730  48.126  58.183  1.00  0.00     0.012 C 
ATOM     11  C   UNL     1     105.127  47.804  56.116  1.00  0.00     0.012 C 
ENDROOT
TORSDOF 0
ENDMDL
MODEL 7
REMARK VINA RESULT:    -5.323      8.600     10.490
REMARK INTER + INTRA:          -5.323
REMARK INTER:                  -5.323
REMARK INTRA:                   0.000
REMARK UNBOUND:                 0.000
REMARK SMILES CC1=CC(=O)[C@@H]2C[C@H]1C2(C)C
REMARK SMILES IDX 1 1 2 2 3 3 4 4 5 5 6 6 7 7 8 8 9 9 10 10 11 11
REMARK H PARENT
REMARK Flexibility Score: inf
ROOT
ATOM      1  C   UNL     1     108.391  51.265  64.862  1.00  0.00     0.040 C 
ATOM      2  C   UNL     1     108.379  49.826  64.458  1.00  0.00    -0.066 C 
ATOM      3  C   UNL     1     108.202  48.833  65.374  1.00  0.00     0.047 C 
ATOM      4  C   UNL     1     108.179  47.433  64.839  1.00  0.00     0.159 C 
ATOM      5  O   UNL     1     107.983  46.434  65.580  1.00  0.00    -0.295 OA
ATOM      6  C   UNL     1     108.405  47.305  63.332  1.00  0.00     0.067 C 
ATOM      7  C   UNL     1     109.606  48.235  63.050  1.00  0.00     0.021 C 
ATOM      8  C   UNL     1     108.584  49.392  62.990  1.00  0.00     0.022 C 
ATOM      9  C   UNL     1     107.502  48.340  62.605  1.00  0.00    -0.019 C 
ATOM     10  C   UNL     1     107.436  48.095  61.077  1.00  0.00     0.012 C 
ATOM     11  C   UNL     1     106.053  48.553  63.128  1.00  0.00     0.012 C 
ENDROOT
TORSDOF 0
ENDMDL
MODEL 8
REMARK VINA RESULT:    -5.163      9.023     10.684
REMARK INTER + INTRA:          -5.163
REMARK INTER:                  -5.163
REMARK INTRA:                   0.000
REMARK UNBOUND:                 0.000
REMARK SMILES CC1=CC(=O)[C@@H]2C[C@H]1C2(C)C
REMARK SMILES IDX 1 1 2 2 3 3 4 4 5 5 6 6 7 7 8 8 9 9 10 10 11 11
REMARK H PARENT
REMARK Flexibility Score: inf
ROOT
ATOM      1  C   UNL     1     108.720  46.513  65.963  1.00  0.00     0.040 C 
ATOM      2  C   UNL     1     108.067  47.601  65.171  1.00  0.00    -0.066 C 
ATOM      3  C   UNL     1     107.385  48.611  65.780  1.00  0.00     0.047 C 
ATOM      4  C   UNL     1     106.802  49.656  64.879  1.00  0.00     0.159 C 
ATOM      5  O   UNL     1     106.185  50.659  65.324  1.00  0.00    -0.295 OA
ATOM      6  C   UNL     1     107.011  49.420  63.383  1.00  0.00     0.067 C 
ATOM      7  C   UNL     1     106.666  47.927  63.184  1.00  0.00     0.021 C 
ATOM      8  C   UNL     1     108.114  47.623  63.628  1.00  0.00     0.022 C 
ATOM      9  C   UNL     1     108.502  49.051  63.143  1.00  0.00    -0.019 C 
ATOM     10  C   UNL     1     108.882  49.080  61.641  1.00  0.00     0.012 C 
ATOM     11  C   UNL     1     109.592  49.826  63.937  1.00  0.00     0.012 C 
ENDROOT
TORSDOF 0
ENDMDL
MODEL 9
REMARK VINA RESULT:    -4.183     17.597     18.563
REMARK INTER + INTRA:          -4.183
REMARK INTER:                  -4.183
REMARK INTRA:                   0.000
REMARK UNBOUND:                 0.000
REMARK SMILES CC1=CC(=O)[C@@H]2C[C@H]1C2(C)C
REMARK SMILES IDX 1 1 2 2 3 3 4 4 5 5 6 6 7 7 8 8 9 9 10 10 11 11
REMARK H PARENT
REMARK Flexibility Score: inf
ROOT
ATOM      1  C   UNL     1      97.140  37.000  63.007  1.00  0.00     0.040 C 
ATOM      2  C   UNL     1      97.295  35.564  63.397  1.00  0.00    -0.066 C 
ATOM      3  C   UNL     1      98.517  34.962  63.413  1.00  0.00     0.047 C 
ATOM      4  C   UNL     1      98.544  33.529  63.851  1.00  0.00     0.159 C 
ATOM      5  O   UNL     1      99.616  32.875  63.946  1.00  0.00    -0.295 OA
ATOM      6  C   UNL     1      97.180  32.919  64.179  1.00  0.00     0.067 C 
ATOM      7  C   UNL     1      96.276  33.367  63.009  1.00  0.00     0.021 C 
ATOM      8  C   UNL     1      96.082  34.691  63.782  1.00  0.00     0.022 C 
ATOM      9  C   UNL     1      96.401  33.909  65.089  1.00  0.00    -0.019 C 
ATOM     10  C   UNL     1      95.138  33.265  65.714  1.00  0.00     0.012 C 
ATOM     11  C   UNL     1      97.179  34.647  66.216  1.00  0.00     0.012 C 
ENDROOT
TORSDOF 0
ENDMDL
