MODEL 1
REMARK VINA RESULT:    -5.199      0.000      0.000
REMARK INTER + INTRA:          -7.116
REMARK INTER:                  -7.023
REMARK INTRA:                  -0.093
REMARK UNBOUND:                -0.093
REMARK SMILES [NH3+]CCCC[C@@H]([NH3+])C(=O)[O-]
REMARK SMILES IDX 4 1 3 2 2 3 1 4 5 8 6 9 7 10 8 14 9 15 10 16
REMARK H PARENT 1 5 1 6 1 7 7 11 7 12 7 13
REMARK Flexibility Score: inf
ROOT
ATOM      1  C   UNL     1      35.333  24.992  33.470  1.00  0.00     0.012 C 
ENDROOT
BRANCH   1   2
ATOM      2  C   UNL     1      33.934  25.511  33.099  1.00  0.00     0.061 C 
BRANCH   2   3
ATOM      3  C   UNL     1      32.860  24.412  33.150  1.00  0.00     0.258 C 
BRANCH   3   4
ATOM      4  N   UNL     1      31.883  24.589  32.076  1.00  0.00    -0.358 N 
ATOM      5  H   UNL     1      31.223  25.365  32.315  1.00  0.00     0.344 HD
ATOM      6  H   UNL     1      32.371  24.803  31.177  1.00  0.00     0.344 HD
ATOM      7  H   UNL     1      31.337  23.704  31.961  1.00  0.00     0.344 HD
ENDBRANCH   3   4
ENDBRANCH   2   3
ENDBRANCH   1   2
BRANCH   1   8
ATOM      8  C   UNL     1      35.899  25.673  34.732  1.00  0.00     0.072 C 
BRANCH   8   9
ATOM      9  C   UNL     1      37.258  26.378  34.513  1.00  0.00     0.227 C 
BRANCH   9  10
ATOM     10  N   UNL     1      37.177  27.423  33.481  1.00  0.00    -0.350 N 
ATOM     11  H   UNL     1      36.369  28.065  33.650  1.00  0.00     0.345 HD
ATOM     12  H   UNL     1      37.075  26.984  32.538  1.00  0.00     0.345 HD
ATOM     13  H   UNL     1      38.059  27.987  33.486  1.00  0.00     0.345 HD
ENDBRANCH   9  10
BRANCH   9  14
ATOM     14  C   UNL     1      37.818  26.915  35.806  1.00  0.00     0.099 C 
ATOM     15  O   UNL     1      39.062  26.959  36.004  1.00  0.00    -0.544 OA
ATOM     16  O   UNL     1      36.956  27.414  36.774  1.00  0.00    -0.544 OA
ENDBRANCH   9  14
ENDBRANCH   8   9
ENDBRANCH   1   8
TORSDOF 7
ENDMDL
MODEL 2
REMARK VINA RESULT:    -4.638     19.243     20.684
REMARK INTER + INTRA:          -6.358
REMARK INTER:                  -6.077
REMARK INTRA:                  -0.281
REMARK UNBOUND:                -0.093
REMARK SMILES [NH3+]CCCC[C@@H]([NH3+])C(=O)[O-]
REMARK SMILES IDX 4 1 3 2 2 3 1 4 5 8 6 9 7 10 8 14 9 15 10 16
REMARK H PARENT 1 5 1 6 1 7 7 11 7 12 7 13
REMARK Flexibility Score: inf
ROOT
ATOM      1  C   UNL     1      19.996  11.146  38.785  1.00  0.00     0.012 C 
ENDROOT
BRANCH   1   2
ATOM      2  C   UNL     1      20.495  12.037  39.934  1.00  0.00     0.061 C 
BRANCH   2   3
ATOM      3  C   UNL     1      19.404  12.975  40.474  1.00  0.00     0.258 C 
BRANCH   3   4
ATOM      4  N   UNL     1      18.876  13.827  39.409  1.00  0.00    -0.358 N 
ATOM      5  H   UNL     1      19.113  13.423  38.474  1.00  0.00     0.344 HD
ATOM      6  H   UNL     1      17.838  13.920  39.503  1.00  0.00     0.344 HD
ATOM      7  H   UNL     1      19.307  14.777  39.485  1.00  0.00     0.344 HD
ENDBRANCH   3   4
ENDBRANCH   2   3
ENDBRANCH   1   2
BRANCH   1   8
ATOM      8  C   UNL     1      20.792  11.362  37.482  1.00  0.00     0.072 C 
BRANCH   8   9
ATOM      9  C   UNL     1      21.641  12.654  37.467  1.00  0.00     0.227 C 
BRANCH   9  10
ATOM     10  N   UNL     1      23.066  12.374  37.233  1.00  0.00    -0.350 N 
ATOM     11  H   UNL     1      23.608  12.381  38.127  1.00  0.00     0.345 HD
ATOM     12  H   UNL     1      23.466  13.088  36.583  1.00  0.00     0.345 HD
ATOM     13  H   UNL     1      23.167  11.432  36.788  1.00  0.00     0.345 HD
ENDBRANCH   9  10
BRANCH   9  14
ATOM     14  C   UNL     1      21.102  13.661  36.483  1.00  0.00     0.099 C 
ATOM     15  O   UNL     1      20.170  13.358  35.690  1.00  0.00    -0.544 OA
ATOM     16  O   UNL     1      21.606  14.956  36.480  1.00  0.00    -0.544 OA
ENDBRANCH   9  14
ENDBRANCH   8   9
ENDBRANCH   1   8
TORSDOF 7
ENDMDL
MODEL 3
REMARK VINA RESULT:    -4.629      2.336      2.492
REMARK INTER + INTRA:          -6.345
REMARK INTER:                  -6.278
REMARK INTRA:                  -0.067
REMARK UNBOUND:                -0.093
REMARK SMILES [NH3+]CCCC[C@@H]([NH3+])C(=O)[O-]
REMARK SMILES IDX 4 1 3 2 2 3 1 4 5 8 6 9 7 10 8 14 9 15 10 16
REMARK H PARENT 1 5 1 6 1 7 7 11 7 12 7 13
REMARK Flexibility Score: inf
ROOT
ATOM      1  C   UNL     1      34.948  25.677  33.138  1.00  0.00     0.012 C 
ENDROOT
BRANCH   1   2
ATOM      2  C   UNL     1      33.831  24.687  33.507  1.00  0.00     0.061 C 
BRANCH   2   3
ATOM      3  C   UNL     1      32.505  24.995  32.793  1.00  0.00     0.258 C 
BRANCH   3   4
ATOM      4  N   UNL     1      31.470  24.037  33.181  1.00  0.00    -0.358 N 
ATOM      5  H   UNL     1      31.227  24.160  34.191  1.00  0.00     0.344 HD
ATOM      6  H   UNL     1      30.616  24.171  32.592  1.00  0.00     0.344 HD
ATOM      7  H   UNL     1      31.830  23.066  33.036  1.00  0.00     0.344 HD
ENDBRANCH   3   4
ENDBRANCH   2   3
ENDBRANCH   1   2
BRANCH   1   8
ATOM      8  C   UNL     1      36.141  25.610  34.111  1.00  0.00     0.072 C 
BRANCH   8   9
ATOM      9  C   UNL     1      37.315  26.544  33.737  1.00  0.00     0.227 C 
BRANCH   9  10
ATOM     10  N   UNL     1      38.060  26.995  34.922  1.00  0.00    -0.350 N 
ATOM     11  H   UNL     1      38.771  26.288  35.218  1.00  0.00     0.345 HD
ATOM     12  H   UNL     1      37.399  27.170  35.712  1.00  0.00     0.345 HD
ATOM     13  H   UNL     1      38.553  27.892  34.703  1.00  0.00     0.345 HD
ENDBRANCH   9  10
BRANCH   9  14
ATOM     14  C   UNL     1      38.225  25.910  32.715  1.00  0.00     0.099 C 
ATOM     15  O   UNL     1      39.125  26.582  32.143  1.00  0.00    -0.544 OA
ATOM     16  O   UNL     1      38.103  24.555  32.434  1.00  0.00    -0.544 OA
ENDBRANCH   9  14
ENDBRANCH   8   9
ENDBRANCH   1   8
TORSDOF 7
ENDMDL
MODEL 4
REMARK VINA RESULT:    -4.483      3.864      4.896
REMARK INTER + INTRA:          -6.148
REMARK INTER:                  -5.964
REMARK INTRA:                  -0.184
REMARK UNBOUND:                -0.093
REMARK SMILES [NH3+]CCCC[C@@H]([NH3+])C(=O)[O-]
REMARK SMILES IDX 4 1 3 2 2 3 1 4 5 8 6 9 7 10 8 14 9 15 10 16
REMARK H PARENT 1 5 1 6 1 7 7 11 7 12 7 13
REMARK Flexibility Score: inf
ROOT
ATOM      1  C   UNL     1      38.819  26.783  36.373  1.00  0.00     0.012 C 
ENDROOT
BRANCH   1   2
ATOM      2  C   UNL     1      38.421  28.180  36.876  1.00  0.00     0.061 C 
BRANCH   2   3
ATOM      3  C   UNL     1      37.062  28.188  37.594  1.00  0.00     0.258 C 
BRANCH   3   4
ATOM      4  N   UNL     1      36.143  27.229  36.980  1.00  0.00    -0.358 N 
ATOM      5  H   UNL     1      35.366  27.002  37.641  1.00  0.00     0.344 HD
ATOM      6  H   UNL     1      35.752  27.623  36.093  1.00  0.00     0.344 HD
ATOM      7  H   UNL     1      36.665  26.350  36.758  1.00  0.00     0.344 HD
ENDBRANCH   3   4
ENDBRANCH   2   3
ENDBRANCH   1   2
BRANCH   1   8
ATOM      8  C   UNL     1      39.122  26.764  34.862  1.00  0.00     0.072 C 
BRANCH   8   9
ATOM      9  C   UNL     1      37.884  26.505  33.973  1.00  0.00     0.227 C 
BRANCH   9  10
ATOM     10  N   UNL     1      37.206  27.754  33.595  1.00  0.00    -0.350 N 
ATOM     11  H   UNL     1      37.318  27.956  32.575  1.00  0.00     0.345 HD
ATOM     12  H   UNL     1      37.594  28.551  34.148  1.00  0.00     0.345 HD
ATOM     13  H   UNL     1      36.184  27.674  33.809  1.00  0.00     0.345 HD
ENDBRANCH   9  10
BRANCH   9  14
ATOM     14  C   UNL     1      38.233  25.673  32.764  1.00  0.00     0.099 C 
ATOM     15  O   UNL     1      37.714  24.539  32.587  1.00  0.00    -0.544 OA
ATOM     16  O   UNL     1      39.102  26.183  31.807  1.00  0.00    -0.544 OA
ENDBRANCH   9  14
ENDBRANCH   8   9
ENDBRANCH   1   8
TORSDOF 7
ENDMDL
MODEL 5
REMARK VINA RESULT:    -4.454      3.203      4.650
REMARK INTER + INTRA:          -6.109
REMARK INTER:                  -6.132
REMARK INTRA:                   0.022
REMARK UNBOUND:                -0.093
REMARK SMILES [NH3+]CCCC[C@@H]([NH3+])C(=O)[O-]
REMARK SMILES IDX 4 1 3 2 2 3 1 4 5 8 6 9 7 10 8 14 9 15 10 16
REMARK H PARENT 1 5 1 6 1 7 7 11 7 12 7 13
REMARK Flexibility Score: inf
ROOT
ATOM      1  C   UNL     1      37.193  26.437  35.380  1.00  0.00     0.012 C 
ENDROOT
BRANCH   1   2
ATOM      2  C   UNL     1      37.906  27.453  36.287  1.00  0.00     0.061 C 
BRANCH   2   3
ATOM      3  C   UNL     1      36.982  28.033  37.370  1.00  0.00     0.258 C 
BRANCH   3   4
ATOM      4  N   UNL     1      35.682  27.361  37.360  1.00  0.00    -0.358 N 
ATOM      5  H   UNL     1      34.926  28.044  37.127  1.00  0.00     0.344 HD
ATOM      6  H   UNL     1      35.685  26.583  36.661  1.00  0.00     0.344 HD
ATOM      7  H   UNL     1      35.496  26.961  38.308  1.00  0.00     0.344 HD
ENDBRANCH   3   4
ENDBRANCH   2   3
ENDBRANCH   1   2
BRANCH   1   8
ATOM      8  C   UNL     1      37.395  26.741  33.882  1.00  0.00     0.072 C 
BRANCH   8   9
ATOM      9  C   UNL     1      36.824  25.660  32.936  1.00  0.00     0.227 C 
BRANCH   9  10
ATOM     10  N   UNL     1      37.752  24.532  32.763  1.00  0.00    -0.350 N 
ATOM     11  H   UNL     1      37.545  23.760  33.437  1.00  0.00     0.345 HD
ATOM     12  H   UNL     1      38.735  24.856  32.904  1.00  0.00     0.345 HD
ATOM     13  H   UNL     1      37.668  24.157  31.789  1.00  0.00     0.345 HD
ENDBRANCH   9  10
BRANCH   9  14
ATOM     14  C   UNL     1      35.461  25.195  33.382  1.00  0.00     0.099 C 
ATOM     15  O   UNL     1      35.332  24.189  34.130  1.00  0.00    -0.544 OA
ATOM     16  O   UNL     1      34.333  25.912  33.004  1.00  0.00    -0.544 OA
ENDBRANCH   9  14
ENDBRANCH   8   9
ENDBRANCH   1   8
TORSDOF 7
ENDMDL
MODEL 6
REMARK VINA RESULT:    -4.449     19.701     20.737
REMARK INTER + INTRA:          -6.103
REMARK INTER:                  -5.619
REMARK INTRA:                  -0.484
REMARK UNBOUND:                -0.093
REMARK SMILES [NH3+]CCCC[C@@H]([NH3+])C(=O)[O-]
REMARK SMILES IDX 4 1 3 2 2 3 1 4 5 8 6 9 7 10 8 14 9 15 10 16
REMARK H PARENT 1 5 1 6 1 7 7 11 7 12 7 13
REMARK Flexibility Score: inf
ROOT
ATOM      1  C   UNL     1      20.449  11.971  39.493  1.00  0.00     0.012 C 
ENDROOT
BRANCH   1   2
ATOM      2  C   UNL     1      19.944  13.158  40.329  1.00  0.00     0.061 C 
BRANCH   2   3
ATOM      3  C   UNL     1      19.177  14.192  39.488  1.00  0.00     0.258 C 
BRANCH   3   4
ATOM      4  N   UNL     1      19.881  15.474  39.472  1.00  0.00    -0.358 N 
ATOM      5  H   UNL     1      19.983  15.840  40.446  1.00  0.00     0.344 HD
ATOM      6  H   UNL     1      20.825  15.361  39.034  1.00  0.00     0.344 HD
ATOM      7  H   UNL     1      19.329  16.161  38.909  1.00  0.00     0.344 HD
ENDBRANCH   3   4
ENDBRANCH   2   3
ENDBRANCH   1   2
BRANCH   1   8
ATOM      8  C   UNL     1      21.524  12.385  38.469  1.00  0.00     0.072 C 
BRANCH   8   9
ATOM      9  C   UNL     1      21.111  12.163  36.995  1.00  0.00     0.227 C 
BRANCH   9  10
ATOM     10  N   UNL     1      20.010  11.197  36.870  1.00  0.00    -0.350 N 
ATOM     11  H   UNL     1      19.379  11.227  37.704  1.00  0.00     0.345 HD
ATOM     12  H   UNL     1      20.394  10.232  36.765  1.00  0.00     0.345 HD
ATOM     13  H   UNL     1      19.445  11.420  36.017  1.00  0.00     0.345 HD
ENDBRANCH   9  10
BRANCH   9  14
ATOM     14  C   UNL     1      20.789  13.467  36.308  1.00  0.00     0.099 C 
ATOM     15  O   UNL     1      20.001  13.503  35.325  1.00  0.00    -0.544 OA
ATOM     16  O   UNL     1      21.331  14.651  36.792  1.00  0.00    -0.544 OA
ENDBRANCH   9  14
ENDBRANCH   8   9
ENDBRANCH   1   8
TORSDOF 7
ENDMDL
MODEL 7
REMARK VINA RESULT:    -4.300      3.445      3.749
REMARK INTER + INTRA:          -5.901
REMARK INTER:                  -5.802
REMARK INTRA:                  -0.099
REMARK UNBOUND:                -0.093
REMARK SMILES [NH3+]CCCC[C@@H]([NH3+])C(=O)[O-]
REMARK SMILES IDX 4 1 3 2 2 3 1 4 5 8 6 9 7 10 8 14 9 15 10 16
REMARK H PARENT 1 5 1 6 1 7 7 11 7 12 7 13
REMARK Flexibility Score: inf
ROOT
ATOM      1  C   UNL     1      37.925  26.737  33.498  1.00  0.00     0.012 C 
ENDROOT
BRANCH   1   2
ATOM      2  C   UNL     1      39.119  26.335  32.618  1.00  0.00     0.061 C 
BRANCH   2   3
ATOM      3  C   UNL     1      38.818  25.117  31.729  1.00  0.00     0.258 C 
BRANCH   3   4
ATOM      4  N   UNL     1      37.896  24.199  32.398  1.00  0.00    -0.358 N 
ATOM      5  H   UNL     1      38.180  24.069  33.395  1.00  0.00     0.344 HD
ATOM      6  H   UNL     1      36.920  24.573  32.352  1.00  0.00     0.344 HD
ATOM      7  H   UNL     1      37.925  23.272  31.914  1.00  0.00     0.344 HD
ENDBRANCH   3   4
ENDBRANCH   2   3
ENDBRANCH   1   2
BRANCH   1   8
ATOM      8  C   UNL     1      38.261  26.702  35.002  1.00  0.00     0.072 C 
BRANCH   8   9
ATOM      9  C   UNL     1      37.166  27.308  35.909  1.00  0.00     0.227 C 
BRANCH   9  10
ATOM     10  N   UNL     1      36.164  26.307  36.308  1.00  0.00    -0.350 N 
ATOM     11  H   UNL     1      36.514  25.334  36.151  1.00  0.00     0.345 HD
ATOM     12  H   UNL     1      35.284  26.449  35.763  1.00  0.00     0.345 HD
ATOM     13  H   UNL     1      35.942  26.422  37.325  1.00  0.00     0.345 HD
ENDBRANCH   9  10
BRANCH   9  14
ATOM     14  C   UNL     1      37.760  28.008  37.106  1.00  0.00     0.099 C 
ATOM     15  O   UNL     1      38.999  28.227  37.178  1.00  0.00    -0.544 OA
ATOM     16  O   UNL     1      36.927  28.460  38.121  1.00  0.00    -0.544 OA
ENDBRANCH   9  14
ENDBRANCH   8   9
ENDBRANCH   1   8
TORSDOF 7
ENDMDL
MODEL 8
REMARK VINA RESULT:    -4.162     19.882     20.929
REMARK INTER + INTRA:          -5.714
REMARK INTER:                  -5.646
REMARK INTRA:                  -0.069
REMARK UNBOUND:                -0.093
REMARK SMILES [NH3+]CCCC[C@@H]([NH3+])C(=O)[O-]
REMARK SMILES IDX 4 1 3 2 2 3 1 4 5 8 6 9 7 10 8 14 9 15 10 16
REMARK H PARENT 1 5 1 6 1 7 7 11 7 12 7 13
REMARK Flexibility Score: inf
ROOT
ATOM      1  C   UNL     1      21.564  12.547  37.773  1.00  0.00     0.012 C 
ENDROOT
BRANCH   1   2
ATOM      2  C   UNL     1      20.762  12.554  36.462  1.00  0.00     0.061 C 
BRANCH   2   3
ATOM      3  C   UNL     1      20.722  13.940  35.798  1.00  0.00     0.258 C 
BRANCH   3   4
ATOM      4  N   UNL     1      20.116  13.863  34.468  1.00  0.00    -0.358 N 
ATOM      5  H   UNL     1      19.340  14.559  34.386  1.00  0.00     0.344 HD
ATOM      6  H   UNL     1      20.837  14.046  33.733  1.00  0.00     0.344 HD
ATOM      7  H   UNL     1      19.725  12.903  34.325  1.00  0.00     0.344 HD
ENDBRANCH   3   4
ENDBRANCH   2   3
ENDBRANCH   1   2
BRANCH   1   8
ATOM      8  C   UNL     1      20.687  12.227  39.000  1.00  0.00     0.072 C 
BRANCH   8   9
ATOM      9  C   UNL     1      20.056  13.472  39.666  1.00  0.00     0.227 C 
BRANCH   9  10
ATOM     10  N   UNL     1      18.876  13.952  38.931  1.00  0.00    -0.350 N 
ATOM     11  H   UNL     1      18.417  14.750  39.426  1.00  0.00     0.345 HD
ATOM     12  H   UNL     1      18.187  13.175  38.819  1.00  0.00     0.345 HD
ATOM     13  H   UNL     1      19.166  14.273  37.978  1.00  0.00     0.345 HD
ENDBRANCH   9  10
BRANCH   9  14
ATOM     14  C   UNL     1      19.743  13.223  41.120  1.00  0.00     0.099 C 
ATOM     15  O   UNL     1      18.875  12.375  41.461  1.00  0.00    -0.544 OA
ATOM     16  O   UNL     1      20.452  13.904  42.102  1.00  0.00    -0.544 OA
ENDBRANCH   9  14
ENDBRANCH   8   9
ENDBRANCH   1   8
TORSDOF 7
ENDMDL
MODEL 9
REMARK VINA RESULT:    -4.124     19.665     20.572
REMARK INTER + INTRA:          -5.663
REMARK INTER:                  -5.416
REMARK INTRA:                  -0.247
REMARK UNBOUND:                -0.093
REMARK SMILES [NH3+]CCCC[C@@H]([NH3+])C(=O)[O-]
REMARK SMILES IDX 4 1 3 2 2 3 1 4 5 8 6 9 7 10 8 14 9 15 10 16
REMARK H PARENT 1 5 1 6 1 7 7 11 7 12 7 13
REMARK Flexibility Score: inf
ROOT
ATOM      1  C   UNL     1      22.250  13.515  36.878  1.00  0.00     0.012 C 
ENDROOT
BRANCH   1   2
ATOM      2  C   UNL     1      21.034  14.202  36.234  1.00  0.00     0.061 C 
BRANCH   2   3
ATOM      3  C   UNL     1      20.889  13.870  34.739  1.00  0.00     0.258 C 
BRANCH   3   4
ATOM      4  N   UNL     1      19.640  13.152  34.485  1.00  0.00    -0.358 N 
ATOM      5  H   UNL     1      19.462  13.094  33.456  1.00  0.00     0.344 HD
ATOM      6  H   UNL     1      19.689  12.189  34.892  1.00  0.00     0.344 HD
ATOM      7  H   UNL     1      18.850  13.669  34.936  1.00  0.00     0.344 HD
ENDBRANCH   3   4
ENDBRANCH   2   3
ENDBRANCH   1   2
BRANCH   1   8
ATOM      8  C   UNL     1      21.871  12.215  37.615  1.00  0.00     0.072 C 
BRANCH   8   9
ATOM      9  C   UNL     1      20.421  12.191  38.150  1.00  0.00     0.227 C 
BRANCH   9  10
ATOM     10  N   UNL     1      19.786  10.878  37.964  1.00  0.00    -0.350 N 
ATOM     11  H   UNL     1      20.432  10.101  38.232  1.00  0.00     0.345 HD
ATOM     12  H   UNL     1      19.502  10.759  36.965  1.00  0.00     0.345 HD
ATOM     13  H   UNL     1      18.927  10.819  38.559  1.00  0.00     0.345 HD
ENDBRANCH   9  10
BRANCH   9  14
ATOM     14  C   UNL     1      20.351  12.645  39.586  1.00  0.00     0.099 C 
ATOM     15  O   UNL     1      21.135  12.173  40.453  1.00  0.00    -0.544 OA
ATOM     16  O   UNL     1      19.444  13.631  39.952  1.00  0.00    -0.544 OA
ENDBRANCH   9  14
ENDBRANCH   8   9
ENDBRANCH   1   8
TORSDOF 7
ENDMDL
