MODEL 1
REMARK VINA RESULT:    -3.921      0.000      0.000
REMARK INTER + INTRA:          -4.166
REMARK INTER:                  -4.150
REMARK INTRA:                  -0.016
REMARK UNBOUND:                -0.016
REMARK SMILES O=C([O-])c1cccnc1
REMARK SMILES IDX 4 1 5 2 9 3 6 4 8 5 7 6 2 7 1 8 3 9
REMARK H PARENT
REMARK Flexibility Score: inf
ROOT
ATOM      1  C   UNL     1       6.980 -17.321 -20.905  1.00  0.00     0.016 A 
ATOM      2  C   UNL     1       7.219 -18.426 -20.070  1.00  0.00     0.013 A 
ATOM      3  C   UNL     1       7.098 -16.033 -20.356  1.00  0.00     0.120 A 
ATOM      4  C   UNL     1       7.564 -18.232 -18.732  1.00  0.00     0.021 A 
ATOM      5  N   UNL     1       7.436 -15.871 -19.049  1.00  0.00    -0.264 NA
ATOM      6  C   UNL     1       7.669 -16.934 -18.233  1.00  0.00     0.111 A 
ENDROOT
BRANCH   1   7
ATOM      7  C   UNL     1       6.612 -17.505 -22.326  1.00  0.00     0.073 C 
ATOM      8  O   UNL     1       5.404 -17.620 -22.664  1.00  0.00    -0.545 OA
ATOM      9  O   UNL     1       7.596 -17.552 -23.306  1.00  0.00    -0.545 OA
ENDBRANCH   1   7
TORSDOF 1
ENDMDL
MODEL 2
REMARK VINA RESULT:    -3.827      3.726      4.570
REMARK INTER + INTRA:          -4.067
REMARK INTER:                  -4.044
REMARK INTRA:                  -0.023
REMARK UNBOUND:                -0.016
REMARK SMILES O=C([O-])c1cccnc1
REMARK SMILES IDX 4 1 5 2 9 3 6 4 8 5 7 6 2 7 1 8 3 9
REMARK H PARENT
REMARK Flexibility Score: inf
ROOT
ATOM      1  C   UNL     1       7.646 -17.655 -16.573  1.00  0.00     0.016 A 
ATOM      2  C   UNL     1       6.559 -18.385 -16.063  1.00  0.00     0.013 A 
ATOM      3  C   UNL     1       8.489 -16.993 -15.665  1.00  0.00     0.120 A 
ATOM      4  C   UNL     1       6.336 -18.441 -14.687  1.00  0.00     0.021 A 
ATOM      5  N   UNL     1       8.251 -17.065 -14.328  1.00  0.00    -0.264 NA
ATOM      6  C   UNL     1       7.202 -17.768 -13.825  1.00  0.00     0.111 A 
ENDROOT
BRANCH   1   7
ATOM      7  C   UNL     1       7.899 -17.582 -18.028  1.00  0.00     0.073 C 
ATOM      8  O   UNL     1       7.464 -18.479 -18.799  1.00  0.00    -0.545 OA
ATOM      9  O   UNL     1       8.621 -16.523 -18.565  1.00  0.00    -0.545 OA
ENDBRANCH   1   7
TORSDOF 1
ENDMDL
MODEL 3
REMARK VINA RESULT:    -3.827      1.028      1.048
REMARK INTER + INTRA:          -4.066
REMARK INTER:                  -4.046
REMARK INTRA:                  -0.020
REMARK UNBOUND:                -0.016
REMARK SMILES O=C([O-])c1cccnc1
REMARK SMILES IDX 4 1 5 2 9 3 6 4 8 5 7 6 2 7 1 8 3 9
REMARK H PARENT
REMARK Flexibility Score: inf
ROOT
ATOM      1  C   UNL     1       7.245 -17.098 -20.079  1.00  0.00     0.016 A 
ATOM      2  C   UNL     1       7.383 -18.322 -19.403  1.00  0.00     0.013 A 
ATOM      3  C   UNL     1       7.478 -15.911 -19.363  1.00  0.00     0.120 A 
ATOM      4  C   UNL     1       7.742 -18.341 -18.054  1.00  0.00     0.021 A 
ATOM      5  N   UNL     1       7.827 -15.958 -18.050  1.00  0.00    -0.264 NA
ATOM      6  C   UNL     1       7.962 -17.136 -17.387  1.00  0.00     0.111 A 
ENDROOT
BRANCH   1   7
ATOM      7  C   UNL     1       6.866 -17.055 -21.508  1.00  0.00     0.073 C 
ATOM      8  O   UNL     1       6.049 -16.192 -21.927  1.00  0.00    -0.545 OA
ATOM      9  O   UNL     1       7.405 -17.967 -22.407  1.00  0.00    -0.545 OA
ENDBRANCH   1   7
TORSDOF 1
ENDMDL
MODEL 4
REMARK VINA RESULT:    -3.812      2.752      3.564
REMARK INTER + INTRA:          -4.051
REMARK INTER:                  -4.033
REMARK INTRA:                  -0.018
REMARK UNBOUND:                -0.016
REMARK SMILES O=C([O-])c1cccnc1
REMARK SMILES IDX 4 1 5 2 9 3 6 4 8 5 7 6 2 7 1 8 3 9
REMARK H PARENT
REMARK Flexibility Score: inf
ROOT
ATOM      1  C   UNL     1       7.239 -17.186 -19.883  1.00  0.00     0.016 A 
ATOM      2  C   UNL     1       7.149 -18.199 -20.853  1.00  0.00     0.013 A 
ATOM      3  C   UNL     1       6.756 -15.907 -20.209  1.00  0.00     0.120 A 
ATOM      4  C   UNL     1       6.592 -17.926 -22.103  1.00  0.00     0.021 A 
ATOM      5  N   UNL     1       6.217 -15.667 -21.434  1.00  0.00    -0.264 NA
ATOM      6  C   UNL     1       6.126 -16.640 -22.378  1.00  0.00     0.111 A 
ENDROOT
BRANCH   1   7
ATOM      7  C   UNL     1       7.827 -17.454 -18.553  1.00  0.00     0.073 C 
ATOM      8  O   UNL     1       7.354 -18.361 -17.816  1.00  0.00    -0.545 OA
ATOM      9  O   UNL     1       8.908 -16.709 -18.098  1.00  0.00    -0.545 OA
ENDBRANCH   1   7
TORSDOF 1
ENDMDL
MODEL 5
REMARK VINA RESULT:    -3.804      2.253      2.931
REMARK INTER + INTRA:          -4.042
REMARK INTER:                  -4.022
REMARK INTRA:                  -0.020
REMARK UNBOUND:                -0.016
REMARK SMILES O=C([O-])c1cccnc1
REMARK SMILES IDX 4 1 5 2 9 3 6 4 8 5 7 6 2 7 1 8 3 9
REMARK H PARENT
REMARK Flexibility Score: inf
ROOT
ATOM      1  C   UNL     1       5.139 -16.367 -22.516  1.00  0.00     0.016 A 
ATOM      2  C   UNL     1       5.877 -17.556 -22.636  1.00  0.00     0.013 A 
ATOM      3  C   UNL     1       5.437 -15.502 -21.450  1.00  0.00     0.120 A 
ATOM      4  C   UNL     1       6.879 -17.856 -21.712  1.00  0.00     0.021 A 
ATOM      5  N   UNL     1       6.419 -15.816 -20.563  1.00  0.00    -0.264 NA
ATOM      6  C   UNL     1       7.138 -16.964 -20.671  1.00  0.00     0.111 A 
ENDROOT
BRANCH   1   7
ATOM      7  C   UNL     1       4.072 -16.032 -23.484  1.00  0.00     0.073 C 
ATOM      8  O   UNL     1       3.236 -16.904 -23.842  1.00  0.00    -0.545 OA
ATOM      9  O   UNL     1       3.979 -14.750 -24.012  1.00  0.00    -0.545 OA
ENDBRANCH   1   7
TORSDOF 1
ENDMDL
MODEL 6
REMARK VINA RESULT:    -3.748      4.249      5.242
REMARK INTER + INTRA:          -3.983
REMARK INTER:                  -3.964
REMARK INTRA:                  -0.019
REMARK UNBOUND:                -0.016
REMARK SMILES O=C([O-])c1cccnc1
REMARK SMILES IDX 4 1 5 2 9 3 6 4 8 5 7 6 2 7 1 8 3 9
REMARK H PARENT
REMARK Flexibility Score: inf
ROOT
ATOM      1  C   UNL     1       6.937 -17.479 -16.448  1.00  0.00     0.016 A 
ATOM      2  C   UNL     1       7.292 -18.379 -17.467  1.00  0.00     0.013 A 
ATOM      3  C   UNL     1       6.890 -16.109 -16.754  1.00  0.00     0.120 A 
ATOM      4  C   UNL     1       7.587 -17.906 -18.747  1.00  0.00     0.021 A 
ATOM      5  N   UNL     1       7.182 -15.675 -18.009  1.00  0.00    -0.264 NA
ATOM      6  C   UNL     1       7.526 -16.536 -19.002  1.00  0.00     0.111 A 
ENDROOT
BRANCH   1   7
ATOM      7  C   UNL     1       6.622 -17.959 -15.085  1.00  0.00     0.073 C 
ATOM      8  O   UNL     1       7.099 -17.375 -14.075  1.00  0.00    -0.545 OA
ATOM      9  O   UNL     1       5.794 -19.060 -14.900  1.00  0.00    -0.545 OA
ENDBRANCH   1   7
TORSDOF 1
ENDMDL
MODEL 7
REMARK VINA RESULT:    -3.686      2.993      3.839
REMARK INTER + INTRA:          -3.917
REMARK INTER:                  -3.899
REMARK INTRA:                  -0.019
REMARK UNBOUND:                -0.016
REMARK SMILES O=C([O-])c1cccnc1
REMARK SMILES IDX 4 1 5 2 9 3 6 4 8 5 7 6 2 7 1 8 3 9
REMARK H PARENT
REMARK Flexibility Score: inf
ROOT
ATOM      1  C   UNL     1       7.601 -17.157 -19.231  1.00  0.00     0.016 A 
ATOM      2  C   UNL     1       7.243 -18.119 -20.190  1.00  0.00     0.013 A 
ATOM      3  C   UNL     1       7.601 -15.804 -19.611  1.00  0.00     0.120 A 
ATOM      4  C   UNL     1       6.899 -17.725 -21.484  1.00  0.00     0.021 A 
ATOM      5  N   UNL     1       7.260 -15.447 -20.878  1.00  0.00    -0.264 NA
ATOM      6  C   UNL     1       6.914 -16.370 -21.813  1.00  0.00     0.111 A 
ENDROOT
BRANCH   1   7
ATOM      7  C   UNL     1       7.970 -17.553 -17.854  1.00  0.00     0.073 C 
ATOM      8  O   UNL     1       9.044 -17.145 -17.337  1.00  0.00    -0.545 OA
ATOM      9  O   UNL     1       7.136 -18.382 -17.113  1.00  0.00    -0.545 OA
ENDBRANCH   1   7
TORSDOF 1
ENDMDL
MODEL 8
REMARK VINA RESULT:    -3.637      3.451      4.308
REMARK INTER + INTRA:          -3.866
REMARK INTER:                  -3.845
REMARK INTRA:                  -0.021
REMARK UNBOUND:                -0.016
REMARK SMILES O=C([O-])c1cccnc1
REMARK SMILES IDX 4 1 5 2 9 3 6 4 8 5 7 6 2 7 1 8 3 9
REMARK H PARENT
REMARK Flexibility Score: inf
ROOT
ATOM      1  C   UNL     1       5.542 -15.946 -22.045  1.00  0.00     0.016 A 
ATOM      2  C   UNL     1       6.731 -16.673 -21.866  1.00  0.00     0.013 A 
ATOM      3  C   UNL     1       4.875 -16.051 -23.278  1.00  0.00     0.120 A 
ATOM      4  C   UNL     1       7.223 -17.476 -22.896  1.00  0.00     0.021 A 
ATOM      5  N   UNL     1       5.376 -16.840 -24.265  1.00  0.00    -0.264 NA
ATOM      6  C   UNL     1       6.525 -17.547 -24.102  1.00  0.00     0.111 A 
ENDROOT
BRANCH   1   7
ATOM      7  C   UNL     1       5.003 -15.089 -20.967  1.00  0.00     0.073 C 
ATOM      8  O   UNL     1       5.781 -14.456 -20.204  1.00  0.00    -0.545 OA
ATOM      9  O   UNL     1       3.631 -14.971 -20.781  1.00  0.00    -0.545 OA
ENDBRANCH   1   7
TORSDOF 1
ENDMDL
MODEL 9
REMARK VINA RESULT:    -3.613      4.652      6.261
REMARK INTER + INTRA:          -3.840
REMARK INTER:                  -3.819
REMARK INTRA:                  -0.021
REMARK UNBOUND:                -0.016
REMARK SMILES O=C([O-])c1cccnc1
REMARK SMILES IDX 4 1 5 2 9 3 6 4 8 5 7 6 2 7 1 8 3 9
REMARK H PARENT
REMARK Flexibility Score: inf
ROOT
ATOM      1  C   UNL     1       4.172 -15.531 -24.244  1.00  0.00     0.016 A 
ATOM      2  C   UNL     1       3.938 -16.347 -25.363  1.00  0.00     0.013 A 
ATOM      3  C   UNL     1       4.216 -14.139 -24.431  1.00  0.00     0.120 A 
ATOM      4  C   UNL     1       3.756 -15.775 -26.623  1.00  0.00     0.021 A 
ATOM      5  N   UNL     1       4.035 -13.606 -25.669  1.00  0.00    -0.264 NA
ATOM      6  C   UNL     1       3.809 -14.387 -26.758  1.00  0.00     0.111 A 
ENDROOT
BRANCH   1   7
ATOM      7  C   UNL     1       4.368 -16.118 -22.900  1.00  0.00     0.073 C 
ATOM      8  O   UNL     1       3.967 -15.510 -21.872  1.00  0.00    -0.545 OA
ATOM      9  O   UNL     1       4.997 -17.348 -22.755  1.00  0.00    -0.545 OA
ENDBRANCH   1   7
TORSDOF 1
ENDMDL
