MODEL 1
REMARK VINA RESULT:    -4.328      0.000      0.000
REMARK INTER + INTRA:         -15.513
REMARK INTER:                 -10.907
REMARK INTRA:                  -4.606
REMARK UNBOUND:                -4.606
REMARK SMILES CCCCCCCCCCCCCCCCCCCCCCCCCCCC(=O)[O-]
REMARK SMILES IDX 15 1 16 2 17 3 18 4 19 5 20 6 21 7 22 8 23 9 24 10 25 11
REMARK SMILES IDX 26 12 27 13 28 14 29 15 30 16 14 17 13 18 12 19 11 20 10 21
REMARK SMILES IDX 9 22 8 23 7 24 6 25 5 26 4 27 3 28 2 29 1 30
REMARK H PARENT
REMARK Flexibility Score: inf
ROOT
ATOM      1  C   UNL     1      50.889  -4.427  78.131  1.00  0.00     0.000 C 
ENDROOT
BRANCH   1   2
ATOM      2  C   UNL     1      51.477  -5.374  77.063  1.00  0.00     0.000 C 
BRANCH   2   3
ATOM      3  C   UNL     1      50.694  -5.371  75.738  1.00  0.00     0.000 C 
BRANCH   3   4
ATOM      4  C   UNL     1      49.768  -6.591  75.589  1.00  0.00     0.000 C 
BRANCH   4   5
ATOM      5  C   UNL     1      48.284  -6.222  75.736  1.00  0.00     0.000 C 
BRANCH   5   6
ATOM      6  C   UNL     1      48.013  -4.742  75.417  1.00  0.00     0.000 C 
BRANCH   6   7
ATOM      7  C   UNL     1      47.244  -4.552  74.100  1.00  0.00     0.000 C 
BRANCH   7   8
ATOM      8  C   UNL     1      48.170  -4.241  72.909  1.00  0.00     0.000 C 
BRANCH   8   9
ATOM      9  C   UNL     1      49.092  -3.039  73.175  1.00  0.00     0.000 C 
BRANCH   9  10
ATOM     10  C   UNL     1      48.554  -1.684  72.669  1.00  0.00     0.000 C 
BRANCH  10  11
ATOM     11  C   UNL     1      49.590  -0.855  71.876  1.00  0.00     0.000 C 
BRANCH  11  12
ATOM     12  C   UNL     1      51.038  -1.205  72.259  1.00  0.00     0.006 C 
BRANCH  12  13
ATOM     13  C   UNL     1      51.951   0.029  72.255  1.00  0.00     0.053 C 
BRANCH  13  14
ATOM     14  C   UNL     1      53.354  -0.317  71.854  1.00  0.00     0.041 C 
ATOM     15  O   UNL     1      53.748  -1.512  71.889  1.00  0.00    -0.550 OA
ATOM     16  O   UNL     1      54.225   0.685  71.444  1.00  0.00    -0.550 OA
ENDBRANCH  13  14
ENDBRANCH  12  13
ENDBRANCH  11  12
ENDBRANCH  10  11
ENDBRANCH   9  10
ENDBRANCH   8   9
ENDBRANCH   7   8
ENDBRANCH   6   7
ENDBRANCH   5   6
ENDBRANCH   4   5
ENDBRANCH   3   4
ENDBRANCH   2   3
ENDBRANCH   1   2
BRANCH   1  17
ATOM     17  C   UNL     1      50.464  -5.175  79.408  1.00  0.00     0.000 C 
BRANCH  17  18
ATOM     18  C   UNL     1      48.998  -5.633  79.363  1.00  0.00     0.000 C 
BRANCH  18  19
ATOM     19  C   UNL     1      48.831  -7.129  79.689  1.00  0.00     0.000 C 
BRANCH  19  20
ATOM     20  C   UNL     1      49.872  -8.010  78.979  1.00  0.00     0.000 C 
BRANCH  20  21
ATOM     21  C   UNL     1      49.352  -9.427  78.692  1.00  0.00     0.000 C 
BRANCH  21  22
ATOM     22  C   UNL     1      47.816  -9.456  78.654  1.00  0.00    -0.000 C 
BRANCH  22  23
ATOM     23  C   UNL     1      47.264  -9.516  77.221  1.00  0.00    -0.000 C 
BRANCH  23  24
ATOM     24  C   UNL     1      48.322  -9.958  76.194  1.00  0.00    -0.000 C 
BRANCH  24  25
ATOM     25  C   UNL     1      47.705 -10.761  75.026  1.00  0.00    -0.000 C 
BRANCH  25  26
ATOM     26  C   UNL     1      46.221 -10.434  74.765  1.00  0.00    -0.000 C 
BRANCH  26  27
ATOM     27  C   UNL     1      45.933  -9.785  73.400  1.00  0.00    -0.000 C 
BRANCH  27  28
ATOM     28  C   UNL     1      46.077  -8.253  73.433  1.00  0.00    -0.000 C 
BRANCH  28  29
ATOM     29  C   UNL     1      46.942  -7.715  72.281  1.00  0.00    -0.003 C 
ATOM     30  C   UNL     1      48.415  -8.111  72.414  1.00  0.00     0.004 C 
ENDBRANCH  28  29
ENDBRANCH  27  28
ENDBRANCH  26  27
ENDBRANCH  25  26
ENDBRANCH  24  25
ENDBRANCH  23  24
ENDBRANCH  22  23
ENDBRANCH  21  22
ENDBRANCH  20  21
ENDBRANCH  19  20
ENDBRANCH  18  19
ENDBRANCH  17  18
ENDBRANCH   1  17
TORSDOF 26
ENDMDL
MODEL 2
REMARK VINA RESULT:    -4.236      2.772      5.960
REMARK INTER + INTRA:         -15.281
REMARK INTER:                 -10.005
REMARK INTRA:                  -5.276
REMARK UNBOUND:                -4.606
REMARK SMILES CCCCCCCCCCCCCCCCCCCCCCCCCCCC(=O)[O-]
REMARK SMILES IDX 15 1 16 2 17 3 18 4 19 5 20 6 21 7 22 8 23 9 24 10 25 11
REMARK SMILES IDX 26 12 27 13 28 14 29 15 30 16 14 17 13 18 12 19 11 20 10 21
REMARK SMILES IDX 9 22 8 23 7 24 6 25 5 26 4 27 3 28 2 29 1 30
REMARK H PARENT
REMARK Flexibility Score: inf
ROOT
ATOM      1  C   UNL     1      49.286  -2.369  72.592  1.00  0.00     0.000 C 
ENDROOT
BRANCH   1   2
ATOM      2  C   UNL     1      50.102  -1.212  71.976  1.00  0.00     0.000 C 
BRANCH   2   3
ATOM      3  C   UNL     1      51.151  -0.618  72.933  1.00  0.00     0.000 C 
BRANCH   3   4
ATOM      4  C   UNL     1      52.595  -0.926  72.500  1.00  0.00     0.000 C 
BRANCH   4   5
ATOM      5  C   UNL     1      53.044  -2.336  72.914  1.00  0.00     0.000 C 
BRANCH   5   6
ATOM      6  C   UNL     1      53.175  -2.485  74.440  1.00  0.00     0.000 C 
BRANCH   6   7
ATOM      7  C   UNL     1      52.120  -3.432  75.033  1.00  0.00     0.000 C 
BRANCH   7   8
ATOM      8  C   UNL     1      51.217  -2.739  76.072  1.00  0.00     0.000 C 
BRANCH   8   9
ATOM      9  C   UNL     1      49.775  -3.274  76.054  1.00  0.00     0.000 C 
BRANCH   9  10
ATOM     10  C   UNL     1      48.748  -2.395  76.798  1.00  0.00     0.000 C 
BRANCH  10  11
ATOM     11  C   UNL     1      47.863  -1.539  75.863  1.00  0.00     0.000 C 
BRANCH  11  12
ATOM     12  C   UNL     1      48.394  -0.104  75.704  1.00  0.00     0.006 C 
BRANCH  12  13
ATOM     13  C   UNL     1      47.851   0.576  74.440  1.00  0.00     0.053 C 
BRANCH  13  14
ATOM     14  C   UNL     1      47.832   2.069  74.576  1.00  0.00     0.041 C 
ATOM     15  O   UNL     1      47.892   2.604  75.714  1.00  0.00    -0.550 OA
ATOM     16  O   UNL     1      47.745   2.868  73.443  1.00  0.00    -0.550 OA
ENDBRANCH  13  14
ENDBRANCH  12  13
ENDBRANCH  11  12
ENDBRANCH  10  11
ENDBRANCH   9  10
ENDBRANCH   8   9
ENDBRANCH   7   8
ENDBRANCH   6   7
ENDBRANCH   5   6
ENDBRANCH   4   5
ENDBRANCH   3   4
ENDBRANCH   2   3
ENDBRANCH   1   2
BRANCH   1  17
ATOM     17  C   UNL     1      49.806  -3.750  72.158  1.00  0.00     0.000 C 
BRANCH  17  18
ATOM     18  C   UNL     1      49.052  -4.905  72.835  1.00  0.00     0.000 C 
BRANCH  18  19
ATOM     19  C   UNL     1      47.611  -4.529  73.225  1.00  0.00     0.000 C 
BRANCH  19  20
ATOM     20  C   UNL     1      46.589  -5.606  72.828  1.00  0.00     0.000 C 
BRANCH  20  21
ATOM     21  C   UNL     1      47.243  -6.970  72.553  1.00  0.00     0.000 C 
BRANCH  21  22
ATOM     22  C   UNL     1      46.605  -8.074  73.410  1.00  0.00    -0.000 C 
BRANCH  22  23
ATOM     23  C   UNL     1      47.503  -8.503  74.581  1.00  0.00    -0.000 C 
BRANCH  23  24
ATOM     24  C   UNL     1      47.183  -7.748  75.884  1.00  0.00    -0.000 C 
BRANCH  24  25
ATOM     25  C   UNL     1      48.183  -6.602  76.157  1.00  0.00    -0.000 C 
BRANCH  25  26
ATOM     26  C   UNL     1      49.633  -6.936  75.752  1.00  0.00    -0.000 C 
BRANCH  26  27
ATOM     27  C   UNL     1      50.684  -6.680  76.847  1.00  0.00    -0.000 C 
BRANCH  27  28
ATOM     28  C   UNL     1      50.062  -6.589  78.252  1.00  0.00    -0.000 C 
BRANCH  28  29
ATOM     29  C   UNL     1      50.109  -7.928  79.007  1.00  0.00    -0.003 C 
ATOM     30  C   UNL     1      48.716  -8.478  79.323  1.00  0.00     0.004 C 
ENDBRANCH  28  29
ENDBRANCH  27  28
ENDBRANCH  26  27
ENDBRANCH  25  26
ENDBRANCH  24  25
ENDBRANCH  23  24
ENDBRANCH  22  23
ENDBRANCH  21  22
ENDBRANCH  20  21
ENDBRANCH  19  20
ENDBRANCH  18  19
ENDBRANCH  17  18
ENDBRANCH   1  17
TORSDOF 26
ENDMDL
MODEL 3
REMARK VINA RESULT:    -4.215      2.815      8.065
REMARK INTER + INTRA:         -15.228
REMARK INTER:                 -10.062
REMARK INTRA:                  -5.166
REMARK UNBOUND:                -4.606
REMARK SMILES CCCCCCCCCCCCCCCCCCCCCCCCCCCC(=O)[O-]
REMARK SMILES IDX 15 1 16 2 17 3 18 4 19 5 20 6 21 7 22 8 23 9 24 10 25 11
REMARK SMILES IDX 26 12 27 13 28 14 29 15 30 16 14 17 13 18 12 19 11 20 10 21
REMARK SMILES IDX 9 22 8 23 7 24 6 25 5 26 4 27 3 28 2 29 1 30
REMARK H PARENT
REMARK Flexibility Score: inf
ROOT
ATOM      1  C   UNL     1      49.586  -4.498  73.309  1.00  0.00     0.000 C 
ENDROOT
BRANCH   1   2
ATOM      2  C   UNL     1      48.155  -5.071  73.391  1.00  0.00     0.000 C 
BRANCH   2   3
ATOM      3  C   UNL     1      47.373  -4.602  74.631  1.00  0.00     0.000 C 
BRANCH   3   4
ATOM      4  C   UNL     1      47.804  -5.328  75.918  1.00  0.00     0.000 C 
BRANCH   4   5
ATOM      5  C   UNL     1      48.108  -6.815  75.679  1.00  0.00     0.000 C 
BRANCH   5   6
ATOM      6  C   UNL     1      49.341  -7.296  76.464  1.00  0.00     0.000 C 
BRANCH   6   7
ATOM      7  C   UNL     1      48.965  -8.076  77.734  1.00  0.00     0.000 C 
BRANCH   7   8
ATOM      8  C   UNL     1      49.842  -7.701  78.944  1.00  0.00     0.000 C 
BRANCH   8   9
ATOM      9  C   UNL     1      50.910  -6.651  78.597  1.00  0.00     0.000 C 
BRANCH   9  10
ATOM     10  C   UNL     1      52.230  -6.783  79.386  1.00  0.00     0.000 C 
BRANCH  10  11
ATOM     11  C   UNL     1      53.306  -7.629  78.668  1.00  0.00     0.000 C 
BRANCH  11  12
ATOM     12  C   UNL     1      52.995  -7.832  77.176  1.00  0.00     0.006 C 
BRANCH  12  13
ATOM     13  C   UNL     1      54.214  -8.341  76.395  1.00  0.00     0.053 C 
BRANCH  13  14
ATOM     14  C   UNL     1      54.603  -7.399  75.295  1.00  0.00     0.041 C 
ATOM     15  O   UNL     1      53.948  -7.373  74.220  1.00  0.00    -0.550 OA
ATOM     16  O   UNL     1      55.692  -6.552  75.459  1.00  0.00    -0.550 OA
ENDBRANCH  13  14
ENDBRANCH  12  13
ENDBRANCH  11  12
ENDBRANCH  10  11
ENDBRANCH   9  10
ENDBRANCH   8   9
ENDBRANCH   7   8
ENDBRANCH   6   7
ENDBRANCH   5   6
ENDBRANCH   4   5
ENDBRANCH   3   4
ENDBRANCH   2   3
ENDBRANCH   1   2
BRANCH   1  17
ATOM     17  C   UNL     1      49.716  -3.393  72.247  1.00  0.00     0.000 C 
BRANCH  17  18
ATOM     18  C   UNL     1      48.929  -2.125  72.615  1.00  0.00     0.000 C 
BRANCH  18  19
ATOM     19  C   UNL     1      49.550  -0.846  72.025  1.00  0.00     0.000 C 
BRANCH  19  20
ATOM     20  C   UNL     1      50.741  -0.330  72.850  1.00  0.00     0.000 C 
BRANCH  20  21
ATOM     21  C   UNL     1      51.834   0.307  71.978  1.00  0.00     0.000 C 
BRANCH  21  22
ATOM     22  C   UNL     1      53.122  -0.529  72.004  1.00  0.00    -0.000 C 
BRANCH  22  23
ATOM     23  C   UNL     1      53.093  -1.622  73.085  1.00  0.00    -0.000 C 
BRANCH  23  24
ATOM     24  C   UNL     1      53.468  -3.011  72.536  1.00  0.00    -0.000 C 
BRANCH  24  25
ATOM     25  C   UNL     1      53.453  -4.097  73.634  1.00  0.00    -0.000 C 
BRANCH  25  26
ATOM     26  C   UNL     1      53.027  -3.572  75.020  1.00  0.00    -0.000 C 
BRANCH  26  27
ATOM     27  C   UNL     1      52.093  -4.509  75.807  1.00  0.00    -0.000 C 
BRANCH  27  28
ATOM     28  C   UNL     1      51.001  -3.744  76.576  1.00  0.00    -0.000 C 
BRANCH  28  29
ATOM     29  C   UNL     1      50.748  -2.340  76.001  1.00  0.00    -0.003 C 
ATOM     30  C   UNL     1      49.321  -1.846  76.255  1.00  0.00     0.004 C 
ENDBRANCH  28  29
ENDBRANCH  27  28
ENDBRANCH  26  27
ENDBRANCH  25  26
ENDBRANCH  24  25
ENDBRANCH  23  24
ENDBRANCH  22  23
ENDBRANCH  21  22
ENDBRANCH  20  21
ENDBRANCH  19  20
ENDBRANCH  18  19
ENDBRANCH  17  18
ENDBRANCH   1  17
TORSDOF 26
ENDMDL
MODEL 4
REMARK VINA RESULT:    -4.214      3.427      8.338
REMARK INTER + INTRA:         -15.225
REMARK INTER:                 -10.265
REMARK INTRA:                  -4.960
REMARK UNBOUND:                -4.606
REMARK SMILES CCCCCCCCCCCCCCCCCCCCCCCCCCCC(=O)[O-]
REMARK SMILES IDX 15 1 16 2 17 3 18 4 19 5 20 6 21 7 22 8 23 9 24 10 25 11
REMARK SMILES IDX 26 12 27 13 28 14 29 15 30 16 14 17 13 18 12 19 11 20 10 21
REMARK SMILES IDX 9 22 8 23 7 24 6 25 5 26 4 27 3 28 2 29 1 30
REMARK H PARENT
REMARK Flexibility Score: inf
ROOT
ATOM      1  C   UNL     1      47.399  -5.714  74.533  1.00  0.00     0.000 C 
ENDROOT
BRANCH   1   2
ATOM      2  C   UNL     1      47.997  -4.834  75.651  1.00  0.00     0.000 C 
BRANCH   2   3
ATOM      3  C   UNL     1      47.271  -3.489  75.832  1.00  0.00     0.000 C 
BRANCH   3   4
ATOM      4  C   UNL     1      48.222  -2.347  76.235  1.00  0.00     0.000 C 
BRANCH   4   5
ATOM      5  C   UNL     1      49.701  -2.739  76.093  1.00  0.00     0.000 C 
BRANCH   5   6
ATOM      6  C   UNL     1      50.488  -2.541  77.400  1.00  0.00     0.000 C 
BRANCH   6   7
ATOM      7  C   UNL     1      50.752  -3.863  78.137  1.00  0.00     0.000 C 
BRANCH   7   8
ATOM      8  C   UNL     1      49.919  -4.002  79.426  1.00  0.00     0.000 C 
BRANCH   8   9
ATOM      9  C   UNL     1      48.771  -5.015  79.283  1.00  0.00     0.000 C 
BRANCH   9  10
ATOM     10  C   UNL     1      49.170  -6.487  79.514  1.00  0.00     0.000 C 
BRANCH  10  11
ATOM     11  C   UNL     1      49.328  -7.305  78.213  1.00  0.00     0.000 C 
BRANCH  11  12
ATOM     12  C   UNL     1      50.802  -7.523  77.831  1.00  0.00     0.006 C 
BRANCH  12  13
ATOM     13  C   UNL     1      51.743  -7.333  79.028  1.00  0.00     0.053 C 
BRANCH  13  14
ATOM     14  C   UNL     1      53.131  -7.815  78.727  1.00  0.00     0.041 C 
ATOM     15  O   UNL     1      53.450  -8.138  77.554  1.00  0.00    -0.550 OA
ATOM     16  O   UNL     1      54.069  -7.908  79.748  1.00  0.00    -0.550 OA
ENDBRANCH  13  14
ENDBRANCH  12  13
ENDBRANCH  11  12
ENDBRANCH  10  11
ENDBRANCH   9  10
ENDBRANCH   8   9
ENDBRANCH   7   8
ENDBRANCH   6   7
ENDBRANCH   5   6
ENDBRANCH   4   5
ENDBRANCH   3   4
ENDBRANCH   2   3
ENDBRANCH   1   2
BRANCH   1  17
ATOM     17  C   UNL     1      47.811  -5.238  73.129  1.00  0.00     0.000 C 
BRANCH  17  18
ATOM     18  C   UNL     1      49.311  -4.918  73.030  1.00  0.00     0.000 C 
BRANCH  18  19
ATOM     19  C   UNL     1      49.593  -3.612  72.266  1.00  0.00     0.000 C 
BRANCH  19  20
ATOM     20  C   UNL     1      48.589  -2.498  72.605  1.00  0.00     0.000 C 
BRANCH  20  21
ATOM     21  C   UNL     1      48.924  -1.168  71.911  1.00  0.00     0.000 C 
BRANCH  21  22
ATOM     22  C   UNL     1      49.228  -0.067  72.940  1.00  0.00    -0.000 C 
BRANCH  22  23
ATOM     23  C   UNL     1      50.675  -0.126  73.455  1.00  0.00    -0.000 C 
BRANCH  23  24
ATOM     24  C   UNL     1      51.698  -0.356  72.329  1.00  0.00    -0.000 C 
BRANCH  24  25
ATOM     25  C   UNL     1      52.909  -1.191  72.800  1.00  0.00    -0.000 C 
BRANCH  25  26
ATOM     26  C   UNL     1      52.520  -2.525  73.469  1.00  0.00    -0.000 C 
BRANCH  26  27
ATOM     27  C   UNL     1      53.306  -2.859  74.749  1.00  0.00    -0.000 C 
BRANCH  27  28
ATOM     28  C   UNL     1      53.062  -4.300  75.231  1.00  0.00    -0.000 C 
BRANCH  28  29
ATOM     29  C   UNL     1      53.910  -5.331  74.466  1.00  0.00    -0.003 C 
ATOM     30  C   UNL     1      55.325  -4.827  74.168  1.00  0.00     0.004 C 
ENDBRANCH  28  29
ENDBRANCH  27  28
ENDBRANCH  26  27
ENDBRANCH  25  26
ENDBRANCH  24  25
ENDBRANCH  23  24
ENDBRANCH  22  23
ENDBRANCH  21  22
ENDBRANCH  20  21
ENDBRANCH  19  20
ENDBRANCH  18  19
ENDBRANCH  17  18
ENDBRANCH   1  17
TORSDOF 26
ENDMDL
MODEL 5
REMARK VINA RESULT:    -4.194      3.146      6.959
REMARK INTER + INTRA:         -15.174
REMARK INTER:                 -10.721
REMARK INTRA:                  -4.453
REMARK UNBOUND:                -4.606
REMARK SMILES CCCCCCCCCCCCCCCCCCCCCCCCCCCC(=O)[O-]
REMARK SMILES IDX 15 1 16 2 17 3 18 4 19 5 20 6 21 7 22 8 23 9 24 10 25 11
REMARK SMILES IDX 26 12 27 13 28 14 29 15 30 16 14 17 13 18 12 19 11 20 10 21
REMARK SMILES IDX 9 22 8 23 7 24 6 25 5 26 4 27 3 28 2 29 1 30
REMARK H PARENT
REMARK Flexibility Score: inf
ROOT
ATOM      1  C   UNL     1      53.080  -1.748  73.497  1.00  0.00     0.000 C 
ENDROOT
BRANCH   1   2
ATOM      2  C   UNL     1      53.145  -0.893  72.213  1.00  0.00     0.000 C 
BRANCH   2   3
ATOM      3  C   UNL     1      51.971   0.093  72.069  1.00  0.00     0.000 C 
BRANCH   3   4
ATOM      4  C   UNL     1      50.773  -0.272  72.963  1.00  0.00     0.000 C 
BRANCH   4   5
ATOM      5  C   UNL     1      49.624  -0.916  72.171  1.00  0.00     0.000 C 
BRANCH   5   6
ATOM      6  C   UNL     1      49.098  -2.198  72.839  1.00  0.00     0.000 C 
BRANCH   6   7
ATOM      7  C   UNL     1      49.738  -3.471  72.262  1.00  0.00     0.000 C 
BRANCH   7   8
ATOM      8  C   UNL     1      48.963  -4.749  72.636  1.00  0.00     0.000 C 
BRANCH   8   9
ATOM      9  C   UNL     1      47.517  -4.458  73.071  1.00  0.00     0.000 C 
BRANCH   9  10
ATOM     10  C   UNL     1      47.103  -5.092  74.415  1.00  0.00     0.000 C 
BRANCH  10  11
ATOM     11  C   UNL     1      47.096  -6.638  74.402  1.00  0.00     0.000 C 
BRANCH  11  12
ATOM     12  C   UNL     1      46.019  -7.211  73.466  1.00  0.00     0.006 C 
BRANCH  12  13
ATOM     13  C   UNL     1      46.628  -7.870  72.220  1.00  0.00     0.053 C 
BRANCH  13  14
ATOM     14  C   UNL     1      47.493  -9.041  72.576  1.00  0.00     0.041 C 
ATOM     15  O   UNL     1      48.712  -9.049  72.261  1.00  0.00    -0.550 OA
ATOM     16  O   UNL     1      46.950 -10.125  73.254  1.00  0.00    -0.550 OA
ENDBRANCH  13  14
ENDBRANCH  12  13
ENDBRANCH  11  12
ENDBRANCH  10  11
ENDBRANCH   9  10
ENDBRANCH   8   9
ENDBRANCH   7   8
ENDBRANCH   6   7
ENDBRANCH   5   6
ENDBRANCH   4   5
ENDBRANCH   3   4
ENDBRANCH   2   3
ENDBRANCH   1   2
BRANCH   1  17
ATOM     17  C   UNL     1      53.307  -3.244  73.218  1.00  0.00     0.000 C 
BRANCH  17  18
ATOM     18  C   UNL     1      52.548  -4.149  74.201  1.00  0.00     0.000 C 
BRANCH  18  19
ATOM     19  C   UNL     1      51.852  -3.359  75.324  1.00  0.00     0.000 C 
BRANCH  19  20
ATOM     20  C   UNL     1      50.728  -4.159  76.003  1.00  0.00     0.000 C 
BRANCH  20  21
ATOM     21  C   UNL     1      49.551  -3.273  76.439  1.00  0.00     0.000 C 
BRANCH  21  22
ATOM     22  C   UNL     1      48.772  -3.915  77.597  1.00  0.00    -0.000 C 
BRANCH  22  23
ATOM     23  C   UNL     1      49.429  -3.656  78.963  1.00  0.00    -0.000 C 
BRANCH  23  24
ATOM     24  C   UNL     1      49.996  -4.936  79.602  1.00  0.00    -0.000 C 
BRANCH  24  25
ATOM     25  C   UNL     1      48.920  -6.031  79.774  1.00  0.00    -0.000 C 
BRANCH  25  26
ATOM     26  C   UNL     1      49.318  -7.392  79.167  1.00  0.00    -0.000 C 
BRANCH  26  27
ATOM     27  C   UNL     1      50.471  -7.333  78.150  1.00  0.00    -0.000 C 
BRANCH  27  28
ATOM     28  C   UNL     1      51.758  -7.990  78.680  1.00  0.00    -0.000 C 
BRANCH  28  29
ATOM     29  C   UNL     1      53.027  -7.226  78.264  1.00  0.00    -0.003 C 
ATOM     30  C   UNL     1      53.069  -6.923  76.764  1.00  0.00     0.004 C 
ENDBRANCH  28  29
ENDBRANCH  27  28
ENDBRANCH  26  27
ENDBRANCH  25  26
ENDBRANCH  24  25
ENDBRANCH  23  24
ENDBRANCH  22  23
ENDBRANCH  21  22
ENDBRANCH  20  21
ENDBRANCH  19  20
ENDBRANCH  18  19
ENDBRANCH  17  18
ENDBRANCH   1  17
TORSDOF 26
ENDMDL
MODEL 6
REMARK VINA RESULT:    -4.184      2.816      6.816
REMARK INTER + INTRA:         -15.149
REMARK INTER:                 -10.097
REMARK INTRA:                  -5.053
REMARK UNBOUND:                -4.606
REMARK SMILES CCCCCCCCCCCCCCCCCCCCCCCCCCCC(=O)[O-]
REMARK SMILES IDX 15 1 16 2 17 3 18 4 19 5 20 6 21 7 22 8 23 9 24 10 25 11
REMARK SMILES IDX 26 12 27 13 28 14 29 15 30 16 14 17 13 18 12 19 11 20 10 21
REMARK SMILES IDX 9 22 8 23 7 24 6 25 5 26 4 27 3 28 2 29 1 30
REMARK H PARENT
REMARK Flexibility Score: inf
ROOT
ATOM      1  C   UNL     1      49.120  -5.901  76.349  1.00  0.00     0.000 C 
ENDROOT
BRANCH   1   2
ATOM      2  C   UNL     1      50.159  -6.942  76.819  1.00  0.00     0.000 C 
BRANCH   2   3
ATOM      3  C   UNL     1      50.560  -6.790  78.297  1.00  0.00     0.000 C 
BRANCH   3   4
ATOM      4  C   UNL     1      49.389  -7.046  79.262  1.00  0.00     0.000 C 
BRANCH   4   5
ATOM      5  C   UNL     1      48.838  -5.748  79.873  1.00  0.00     0.000 C 
BRANCH   5   6
ATOM      6  C   UNL     1      49.834  -4.579  79.764  1.00  0.00     0.000 C 
BRANCH   6   7
ATOM      7  C   UNL     1      49.136  -3.214  79.674  1.00  0.00     0.000 C 
BRANCH   7   8
ATOM      8  C   UNL     1      47.600  -3.333  79.624  1.00  0.00     0.000 C 
BRANCH   8   9
ATOM      9  C   UNL     1      46.991  -2.616  78.408  1.00  0.00     0.000 C 
BRANCH   9  10
ATOM     10  C   UNL     1      47.663  -2.942  77.058  1.00  0.00     0.000 C 
BRANCH  10  11
ATOM     11  C   UNL     1      47.448  -1.862  75.974  1.00  0.00     0.000 C 
BRANCH  11  12
ATOM     12  C   UNL     1      48.701  -1.000  75.746  1.00  0.00     0.006 C 
BRANCH  12  13
ATOM     13  C   UNL     1      48.400   0.500  75.862  1.00  0.00     0.053 C 
BRANCH  13  14
ATOM     14  C   UNL     1      47.638   1.008  74.675  1.00  0.00     0.041 C 
ATOM     15  O   UNL     1      48.224   1.197  73.577  1.00  0.00    -0.550 OA
ATOM     16  O   UNL     1      46.278   1.274  74.785  1.00  0.00    -0.550 OA
ENDBRANCH  13  14
ENDBRANCH  12  13
ENDBRANCH  11  12
ENDBRANCH  10  11
ENDBRANCH   9  10
ENDBRANCH   8   9
ENDBRANCH   7   8
ENDBRANCH   6   7
ENDBRANCH   5   6
ENDBRANCH   4   5
ENDBRANCH   3   4
ENDBRANCH   2   3
ENDBRANCH   1   2
BRANCH   1  17
ATOM     17  C   UNL     1      47.784  -6.548  75.943  1.00  0.00     0.000 C 
BRANCH  17  18
ATOM     18  C   UNL     1      47.618  -6.654  74.419  1.00  0.00     0.000 C 
BRANCH  18  19
ATOM     19  C   UNL     1      46.795  -5.495  73.827  1.00  0.00     0.000 C 
BRANCH  19  20
ATOM     20  C   UNL     1      47.677  -4.369  73.263  1.00  0.00     0.000 C 
BRANCH  20  21
ATOM     21  C   UNL     1      49.057  -4.869  72.808  1.00  0.00     0.000 C 
BRANCH  21  22
ATOM     22  C   UNL     1      49.888  -3.727  72.203  1.00  0.00    -0.000 C 
BRANCH  22  23
ATOM     23  C   UNL     1      49.301  -2.341  72.516  1.00  0.00    -0.000 C 
BRANCH  23  24
ATOM     24  C   UNL     1      50.153  -1.192  71.947  1.00  0.00    -0.000 C 
BRANCH  24  25
ATOM     25  C   UNL     1      51.240  -0.723  72.939  1.00  0.00    -0.000 C 
BRANCH  25  26
ATOM     26  C   UNL     1      52.622  -1.361  72.692  1.00  0.00    -0.000 C 
BRANCH  26  27
ATOM     27  C   UNL     1      53.135  -2.253  73.836  1.00  0.00    -0.000 C 
BRANCH  27  28
ATOM     28  C   UNL     1      52.104  -2.411  74.968  1.00  0.00    -0.000 C 
BRANCH  28  29
ATOM     29  C   UNL     1      51.882  -3.881  75.364  1.00  0.00    -0.003 C 
ATOM     30  C   UNL     1      52.662  -4.856  74.477  1.00  0.00     0.004 C 
ENDBRANCH  28  29
ENDBRANCH  27  28
ENDBRANCH  26  27
ENDBRANCH  25  26
ENDBRANCH  24  25
ENDBRANCH  23  24
ENDBRANCH  22  23
ENDBRANCH  21  22
ENDBRANCH  20  21
ENDBRANCH  19  20
ENDBRANCH  18  19
ENDBRANCH  17  18
ENDBRANCH   1  17
TORSDOF 26
ENDMDL
MODEL 7
REMARK VINA RESULT:    -4.151      3.719      7.469
REMARK INTER + INTRA:         -15.067
REMARK INTER:                 -10.569
REMARK INTRA:                  -4.498
REMARK UNBOUND:                -4.606
REMARK SMILES CCCCCCCCCCCCCCCCCCCCCCCCCCCC(=O)[O-]
REMARK SMILES IDX 15 1 16 2 17 3 18 4 19 5 20 6 21 7 22 8 23 9 24 10 25 11
REMARK SMILES IDX 26 12 27 13 28 14 29 15 30 16 14 17 13 18 12 19 11 20 10 21
REMARK SMILES IDX 9 22 8 23 7 24 6 25 5 26 4 27 3 28 2 29 1 30
REMARK H PARENT
REMARK Flexibility Score: inf
ROOT
ATOM      1  C   UNL     1      47.814  -1.413  75.755  1.00  0.00     0.000 C 
ENDROOT
BRANCH   1   2
ATOM      2  C   UNL     1      48.960  -0.549  75.185  1.00  0.00     0.000 C 
BRANCH   2   3
ATOM      3  C   UNL     1      48.735  -0.110  73.727  1.00  0.00     0.000 C 
BRANCH   3   4
ATOM      4  C   UNL     1      50.005   0.462  73.073  1.00  0.00     0.000 C 
BRANCH   4   5
ATOM      5  C   UNL     1      50.724  -0.569  72.188  1.00  0.00     0.000 C 
BRANCH   5   6
ATOM      6  C   UNL     1      52.165  -0.839  72.655  1.00  0.00     0.000 C 
BRANCH   6   7
ATOM      7  C   UNL     1      52.404  -2.315  73.010  1.00  0.00     0.000 C 
BRANCH   7   8
ATOM      8  C   UNL     1      51.457  -2.822  74.115  1.00  0.00     0.000 C 
BRANCH   8   9
ATOM      9  C   UNL     1      50.767  -4.145  73.743  1.00  0.00     0.000 C 
BRANCH   9  10
ATOM     10  C   UNL     1      49.825  -4.064  72.523  1.00  0.00     0.000 C 
BRANCH  10  11
ATOM     11  C   UNL     1      48.380  -3.645  72.875  1.00  0.00     0.000 C 
BRANCH  11  12
ATOM     12  C   UNL     1      47.612  -4.751  73.619  1.00  0.00     0.006 C 
BRANCH  12  13
ATOM     13  C   UNL     1      46.789  -5.626  72.665  1.00  0.00     0.053 C 
BRANCH  13  14
ATOM     14  C   UNL     1      46.411  -6.933  73.294  1.00  0.00     0.041 C 
ATOM     15  O   UNL     1      46.201  -7.004  74.533  1.00  0.00    -0.550 OA
ATOM     16  O   UNL     1      46.296  -8.074  72.509  1.00  0.00    -0.550 OA
ENDBRANCH  13  14
ENDBRANCH  12  13
ENDBRANCH  11  12
ENDBRANCH  10  11
ENDBRANCH   9  10
ENDBRANCH   8   9
ENDBRANCH   7   8
ENDBRANCH   6   7
ENDBRANCH   5   6
ENDBRANCH   4   5
ENDBRANCH   3   4
ENDBRANCH   2   3
ENDBRANCH   1   2
BRANCH   1  17
ATOM     17  C   UNL     1      48.285  -2.332  76.896  1.00  0.00     0.000 C 
BRANCH  17  18
ATOM     18  C   UNL     1      49.736  -2.054  77.318  1.00  0.00     0.000 C 
BRANCH  18  19
ATOM     19  C   UNL     1      49.835  -1.313  78.663  1.00  0.00     0.000 C 
BRANCH  19  20
ATOM     20  C   UNL     1      51.194  -1.515  79.354  1.00  0.00     0.000 C 
BRANCH  20  21
ATOM     21  C   UNL     1      51.166  -1.127  80.840  1.00  0.00     0.000 C 
BRANCH  21  22
ATOM     22  C   UNL     1      51.776  -2.233  81.714  1.00  0.00    -0.000 C 
BRANCH  22  23
ATOM     23  C   UNL     1      50.804  -2.736  82.793  1.00  0.00    -0.000 C 
BRANCH  23  24
ATOM     24  C   UNL     1      49.476  -1.958  82.805  1.00  0.00    -0.000 C 
BRANCH  24  25
ATOM     25  C   UNL     1      48.259  -2.875  82.550  1.00  0.00    -0.000 C 
BRANCH  25  26
ATOM     26  C   UNL     1      47.964  -3.111  81.054  1.00  0.00    -0.000 C 
BRANCH  26  27
ATOM     27  C   UNL     1      47.806  -4.588  80.652  1.00  0.00    -0.000 C 
BRANCH  27  28
ATOM     28  C   UNL     1      48.684  -4.967  79.446  1.00  0.00    -0.000 C 
BRANCH  28  29
ATOM     29  C   UNL     1      50.186  -4.931  79.775  1.00  0.00    -0.003 C 
ATOM     30  C   UNL     1      50.973  -6.035  79.064  1.00  0.00     0.004 C 
ENDBRANCH  28  29
ENDBRANCH  27  28
ENDBRANCH  26  27
ENDBRANCH  25  26
ENDBRANCH  24  25
ENDBRANCH  23  24
ENDBRANCH  22  23
ENDBRANCH  21  22
ENDBRANCH  20  21
ENDBRANCH  19  20
ENDBRANCH  18  19
ENDBRANCH  17  18
ENDBRANCH   1  17
TORSDOF 26
ENDMDL
MODEL 8
REMARK VINA RESULT:    -4.149      3.006      6.306
REMARK INTER + INTRA:         -15.061
REMARK INTER:                 -10.122
REMARK INTRA:                  -4.939
REMARK UNBOUND:                -4.606
REMARK SMILES CCCCCCCCCCCCCCCCCCCCCCCCCCCC(=O)[O-]
REMARK SMILES IDX 15 1 16 2 17 3 18 4 19 5 20 6 21 7 22 8 23 9 24 10 25 11
REMARK SMILES IDX 26 12 27 13 28 14 29 15 30 16 14 17 13 18 12 19 11 20 10 21
REMARK SMILES IDX 9 22 8 23 7 24 6 25 5 26 4 27 3 28 2 29 1 30
REMARK H PARENT
REMARK Flexibility Score: inf
ROOT
ATOM      1  C   UNL     1      48.870  -2.738  72.999  1.00  0.00     0.000 C 
ENDROOT
BRANCH   1   2
ATOM      2  C   UNL     1      49.456  -1.587  72.152  1.00  0.00     0.000 C 
BRANCH   2   3
ATOM      3  C   UNL     1      49.816  -0.337  72.975  1.00  0.00     0.000 C 
BRANCH   3   4
ATOM      4  C   UNL     1      51.227   0.194  72.667  1.00  0.00     0.000 C 
BRANCH   4   5
ATOM      5  C   UNL     1      52.171  -0.908  72.162  1.00  0.00     0.000 C 
BRANCH   5   6
ATOM      6  C   UNL     1      53.010  -1.527  73.294  1.00  0.00     0.000 C 
BRANCH   6   7
ATOM      7  C   UNL     1      53.168  -3.049  73.148  1.00  0.00     0.000 C 
BRANCH   7   8
ATOM      8  C   UNL     1      52.339  -3.835  74.183  1.00  0.00     0.000 C 
BRANCH   8   9
ATOM      9  C   UNL     1      51.875  -2.958  75.358  1.00  0.00     0.000 C 
BRANCH   9  10
ATOM     10  C   UNL     1      50.753  -3.571  76.222  1.00  0.00     0.000 C 
BRANCH  10  11
ATOM     11  C   UNL     1      49.583  -2.602  76.507  1.00  0.00     0.000 C 
BRANCH  11  12
ATOM     12  C   UNL     1      48.245  -3.336  76.698  1.00  0.00     0.006 C 
BRANCH  12  13
ATOM     13  C   UNL     1      47.047  -2.472  76.284  1.00  0.00     0.053 C 
BRANCH  13  14
ATOM     14  C   UNL     1      46.668  -1.495  77.356  1.00  0.00     0.041 C 
ATOM     15  O   UNL     1      46.298  -1.904  78.487  1.00  0.00    -0.550 OA
ATOM     16  O   UNL     1      46.723  -0.130  77.101  1.00  0.00    -0.550 OA
ENDBRANCH  13  14
ENDBRANCH  12  13
ENDBRANCH  11  12
ENDBRANCH  10  11
ENDBRANCH   9  10
ENDBRANCH   8   9
ENDBRANCH   7   8
ENDBRANCH   6   7
ENDBRANCH   5   6
ENDBRANCH   4   5
ENDBRANCH   3   4
ENDBRANCH   2   3
ENDBRANCH   1   2
BRANCH   1  17
ATOM     17  C   UNL     1      49.329  -4.121  72.506  1.00  0.00     0.000 C 
BRANCH  17  18
ATOM     18  C   UNL     1      48.749  -5.270  73.346  1.00  0.00     0.000 C 
BRANCH  18  19
ATOM     19  C   UNL     1      47.229  -5.145  73.557  1.00  0.00     0.000 C 
BRANCH  19  20
ATOM     20  C   UNL     1      46.426  -6.116  72.677  1.00  0.00     0.000 C 
BRANCH  20  21
ATOM     21  C   UNL     1      47.254  -7.331  72.228  1.00  0.00     0.000 C 
BRANCH  21  22
ATOM     22  C   UNL     1      46.349  -8.448  71.687  1.00  0.00    -0.000 C 
BRANCH  22  23
ATOM     23  C   UNL     1      45.926  -9.445  72.778  1.00  0.00    -0.000 C 
BRANCH  23  24
ATOM     24  C   UNL     1      46.939  -9.528  73.933  1.00  0.00    -0.000 C 
BRANCH  24  25
ATOM     25  C   UNL     1      46.306  -9.166  75.295  1.00  0.00    -0.000 C 
BRANCH  25  26
ATOM     26  C   UNL     1      46.928  -7.919  75.955  1.00  0.00    -0.000 C 
BRANCH  26  27
ATOM     27  C   UNL     1      48.390  -8.088  76.405  1.00  0.00    -0.000 C 
BRANCH  27  28
ATOM     28  C   UNL     1      48.927  -6.849  77.145  1.00  0.00    -0.000 C 
BRANCH  28  29
ATOM     29  C   UNL     1      49.197  -7.121  78.634  1.00  0.00    -0.003 C 
ATOM     30  C   UNL     1      49.796  -5.911  79.356  1.00  0.00     0.004 C 
ENDBRANCH  28  29
ENDBRANCH  27  28
ENDBRANCH  26  27
ENDBRANCH  25  26
ENDBRANCH  24  25
ENDBRANCH  23  24
ENDBRANCH  22  23
ENDBRANCH  21  22
ENDBRANCH  20  21
ENDBRANCH  19  20
ENDBRANCH  18  19
ENDBRANCH  17  18
ENDBRANCH   1  17
TORSDOF 26
ENDMDL
MODEL 9
REMARK VINA RESULT:    -4.121      2.882      7.689
REMARK INTER + INTRA:         -14.990
REMARK INTER:                 -10.038
REMARK INTRA:                  -4.952
REMARK UNBOUND:                -4.606
REMARK SMILES CCCCCCCCCCCCCCCCCCCCCCCCCCCC(=O)[O-]
REMARK SMILES IDX 15 1 16 2 17 3 18 4 19 5 20 6 21 7 22 8 23 9 24 10 25 11
REMARK SMILES IDX 26 12 27 13 28 14 29 15 30 16 14 17 13 18 12 19 11 20 10 21
REMARK SMILES IDX 9 22 8 23 7 24 6 25 5 26 4 27 3 28 2 29 1 30
REMARK H PARENT
REMARK Flexibility Score: inf
ROOT
ATOM      1  C   UNL     1      47.284  -7.877  73.462  1.00  0.00     0.000 C 
ENDROOT
BRANCH   1   2
ATOM      2  C   UNL     1      46.773  -7.406  74.840  1.00  0.00     0.000 C 
BRANCH   2   3
ATOM      3  C   UNL     1      47.809  -7.560  75.968  1.00  0.00     0.000 C 
BRANCH   3   4
ATOM      4  C   UNL     1      48.807  -6.389  76.025  1.00  0.00     0.000 C 
BRANCH   4   5
ATOM      5  C   UNL     1      48.224  -5.156  76.733  1.00  0.00     0.000 C 
BRANCH   5   6
ATOM      6  C   UNL     1      49.227  -4.507  77.703  1.00  0.00     0.000 C 
BRANCH   6   7
ATOM      7  C   UNL     1      49.183  -5.134  79.105  1.00  0.00     0.000 C 
BRANCH   7   8
ATOM      8  C   UNL     1      50.249  -6.229  79.301  1.00  0.00     0.000 C 
BRANCH   8   9
ATOM      9  C   UNL     1      51.654  -5.769  78.880  1.00  0.00     0.000 C 
BRANCH   9  10
ATOM     10  C   UNL     1      52.302  -6.605  77.757  1.00  0.00     0.000 C 
BRANCH  10  11
ATOM     11  C   UNL     1      52.514  -5.825  76.439  1.00  0.00     0.000 C 
BRANCH  11  12
ATOM     12  C   UNL     1      52.424  -6.731  75.200  1.00  0.00     0.006 C 
BRANCH  12  13
ATOM     13  C   UNL     1      53.785  -6.907  74.513  1.00  0.00     0.053 C 
BRANCH  13  14
ATOM     14  C   UNL     1      54.471  -8.167  74.950  1.00  0.00     0.041 C 
ATOM     15  O   UNL     1      53.796  -9.149  75.355  1.00  0.00    -0.550 OA
ATOM     16  O   UNL     1      55.857  -8.252  74.910  1.00  0.00    -0.550 OA
ENDBRANCH  13  14
ENDBRANCH  12  13
ENDBRANCH  11  12
ENDBRANCH  10  11
ENDBRANCH   9  10
ENDBRANCH   8   9
ENDBRANCH   7   8
ENDBRANCH   6   7
ENDBRANCH   5   6
ENDBRANCH   4   5
ENDBRANCH   3   4
ENDBRANCH   2   3
ENDBRANCH   1   2
BRANCH   1  17
ATOM     17  C   UNL     1      47.710  -6.704  72.562  1.00  0.00     0.000 C 
BRANCH  17  18
ATOM     18  C   UNL     1      47.001  -5.390  72.929  1.00  0.00     0.000 C 
BRANCH  18  19
ATOM     19  C   UNL     1      47.937  -4.170  72.866  1.00  0.00     0.000 C 
BRANCH  19  20
ATOM     20  C   UNL     1      49.399  -4.557  72.591  1.00  0.00     0.000 C 
BRANCH  20  21
ATOM     21  C   UNL     1      50.352  -4.102  73.707  1.00  0.00     0.000 C 
BRANCH  21  22
ATOM     22  C   UNL     1      51.664  -3.552  73.126  1.00  0.00    -0.000 C 
BRANCH  22  23
ATOM     23  C   UNL     1      52.012  -2.158  73.671  1.00  0.00    -0.000 C 
BRANCH  23  24
ATOM     24  C   UNL     1      52.330  -1.146  72.556  1.00  0.00    -0.000 C 
BRANCH  24  25
ATOM     25  C   UNL     1      51.163  -0.164  72.307  1.00  0.00    -0.000 C 
BRANCH  25  26
ATOM     26  C   UNL     1      49.887  -0.841  71.768  1.00  0.00    -0.000 C 
BRANCH  26  27
ATOM     27  C   UNL     1      48.606  -0.532  72.564  1.00  0.00    -0.000 C 
BRANCH  27  28
ATOM     28  C   UNL     1      48.798   0.621  73.566  1.00  0.00    -0.000 C 
BRANCH  28  29
ATOM     29  C   UNL     1      48.469   0.210  75.011  1.00  0.00    -0.003 C 
ATOM     30  C   UNL     1      48.539  -1.305  75.224  1.00  0.00     0.004 C 
ENDBRANCH  28  29
ENDBRANCH  27  28
ENDBRANCH  26  27
ENDBRANCH  25  26
ENDBRANCH  24  25
ENDBRANCH  23  24
ENDBRANCH  22  23
ENDBRANCH  21  22
ENDBRANCH  20  21
ENDBRANCH  19  20
ENDBRANCH  18  19
ENDBRANCH  17  18
ENDBRANCH   1  17
TORSDOF 26
ENDMDL
