MODEL 1
REMARK VINA RESULT:    -4.324      0.000      0.000
REMARK INTER + INTRA:          -6.994
REMARK INTER:                  -5.840
REMARK INTRA:                  -1.154
REMARK UNBOUND:                -1.154
REMARK SMILES CC(=O)CCC=C(C)CCC=C(C)C
REMARK SMILES IDX 7 1 6 2 8 3 9 4 10 5 11 6 13 7 12 8 14 9 5 10 4 11 2 12 3 13
REMARK SMILES IDX 1 14
REMARK H PARENT
REMARK Flexibility Score: inf
ROOT
ATOM      1  C   UNL     1      -1.298  -9.845 -42.402  1.00  0.00    -0.077 C 
ATOM      2  C   UNL     1      -0.141  -9.178 -42.623  1.00  0.00    -0.028 C 
ATOM      3  C   UNL     1      -1.351 -11.355 -42.358  1.00  0.00     0.039 C 
ENDROOT
BRANCH   1   4
ATOM      4  C   UNL     1      -2.570  -9.058 -42.179  1.00  0.00     0.034 C 
BRANCH   4   5
ATOM      5  C   UNL     1      -3.014  -9.148 -40.714  1.00  0.00     0.032 C 
BRANCH   5   6
ATOM      6  C   UNL     1      -2.388  -8.045 -39.897  1.00  0.00    -0.028 C 
ATOM      7  C   UNL     1      -0.803  -7.012 -38.329  1.00  0.00     0.039 C 
ATOM      8  C   UNL     1      -1.349  -8.217 -39.051  1.00  0.00    -0.080 C 
ATOM      9  C   UNL     1      -0.738  -9.576 -38.798  1.00  0.00     0.039 C 
ENDBRANCH   5   6
ENDBRANCH   4   5
ENDBRANCH   1   4
BRANCH   2  10
ATOM     10  C   UNL     1       1.183  -9.839 -42.909  1.00  0.00     0.035 C 
BRANCH  10  11
ATOM     11  C   UNL     1       2.020  -9.948 -41.630  1.00  0.00     0.079 C 
BRANCH  11  12
ATOM     12  C   UNL     1       2.929 -11.143 -41.688  1.00  0.00     0.130 C 
ATOM     13  O   UNL     1       4.140 -10.984 -41.750  1.00  0.00    -0.300 OA
ATOM     14  C   UNL     1       2.360 -12.530 -41.697  1.00  0.00     0.087 C 
ENDBRANCH  11  12
ENDBRANCH  10  11
ENDBRANCH   2  10
TORSDOF 6
ENDMDL
MODEL 2
REMARK VINA RESULT:    -4.142      2.823      5.511
REMARK INTER + INTRA:          -6.749
REMARK INTER:                  -6.262
REMARK INTRA:                  -0.487
REMARK UNBOUND:                -1.154
REMARK SMILES CC(=O)CCC=C(C)CCC=C(C)C
REMARK SMILES IDX 7 1 6 2 8 3 9 4 10 5 11 6 13 7 12 8 14 9 5 10 4 11 2 12 3 13
REMARK SMILES IDX 1 14
REMARK H PARENT
REMARK Flexibility Score: inf
ROOT
ATOM      1  C   UNL     1      -1.603  -8.996 -40.637  1.00  0.00    -0.077 C 
ATOM      2  C   UNL     1      -0.888  -8.533 -39.585  1.00  0.00    -0.028 C 
ATOM      3  C   UNL     1      -2.975  -8.456 -40.969  1.00  0.00     0.039 C 
ENDROOT
BRANCH   1   4
ATOM      4  C   UNL     1      -1.004 -10.073 -41.516  1.00  0.00     0.034 C 
BRANCH   4   5
ATOM      5  C   UNL     1       0.101  -9.494 -42.407  1.00  0.00     0.032 C 
BRANCH   5   6
ATOM      6  C   UNL     1       1.463  -9.792 -41.832  1.00  0.00    -0.028 C 
ATOM      7  C   UNL     1       3.644 -10.907 -41.642  1.00  0.00     0.039 C 
ATOM      8  C   UNL     1       2.295 -10.749 -42.295  1.00  0.00    -0.080 C 
ATOM      9  C   UNL     1       1.904 -11.670 -43.428  1.00  0.00     0.039 C 
ENDBRANCH   5   6
ENDBRANCH   4   5
ENDBRANCH   1   4
BRANCH   2  10
ATOM     10  C   UNL     1      -1.386  -7.502 -38.605  1.00  0.00     0.035 C 
BRANCH  10  11
ATOM     11  C   UNL     1      -0.423  -7.373 -37.421  1.00  0.00     0.079 C 
BRANCH  11  12
ATOM     12  C   UNL     1      -0.943  -8.122 -36.226  1.00  0.00     0.130 C 
ATOM     13  O   UNL     1      -1.790  -7.611 -35.509  1.00  0.00    -0.300 OA
ATOM     14  C   UNL     1      -0.410  -9.483 -35.894  1.00  0.00     0.087 C 
ENDBRANCH  11  12
ENDBRANCH  10  11
ENDBRANCH   2  10
TORSDOF 6
ENDMDL
MODEL 3
REMARK VINA RESULT:    -4.074      1.531      2.075
REMARK INTER + INTRA:          -6.657
REMARK INTER:                  -5.909
REMARK INTRA:                  -0.748
REMARK UNBOUND:                -1.154
REMARK SMILES CC(=O)CCC=C(C)CCC=C(C)C
REMARK SMILES IDX 7 1 6 2 8 3 9 4 10 5 11 6 13 7 12 8 14 9 5 10 4 11 2 12 3 13
REMARK SMILES IDX 1 14
REMARK H PARENT
REMARK Flexibility Score: inf
ROOT
ATOM      1  C   UNL     1      -1.041  -9.897 -41.502  1.00  0.00    -0.077 C 
ATOM      2  C   UNL     1       0.123  -9.223 -41.649  1.00  0.00    -0.028 C 
ATOM      3  C   UNL     1      -1.379 -11.098 -42.354  1.00  0.00     0.039 C 
ENDROOT
BRANCH   1   4
ATOM      4  C   UNL     1      -2.024  -9.446 -40.445  1.00  0.00     0.034 C 
BRANCH   4   5
ATOM      5  C   UNL     1      -1.307  -8.666 -39.335  1.00  0.00     0.032 C 
BRANCH   5   6
ATOM      6  C   UNL     1      -1.076  -9.542 -38.130  1.00  0.00    -0.028 C 
ATOM      7  C   UNL     1      -0.532 -10.080 -35.794  1.00  0.00     0.039 C 
ATOM      8  C   UNL     1      -0.687  -9.088 -36.919  1.00  0.00    -0.080 C 
ATOM      9  C   UNL     1      -0.390  -7.627 -36.669  1.00  0.00     0.039 C 
ENDBRANCH   5   6
ENDBRANCH   4   5
ENDBRANCH   1   4
BRANCH   2  10
ATOM     10  C   UNL     1       1.164  -9.536 -42.695  1.00  0.00     0.035 C 
BRANCH  10  11
ATOM     11  C   UNL     1       2.340 -10.298 -42.075  1.00  0.00     0.079 C 
BRANCH  11  12
ATOM     12  C   UNL     1       2.297 -11.750 -42.461  1.00  0.00     0.130 C 
ATOM     13  O   UNL     1       2.401 -12.611 -41.600  1.00  0.00    -0.300 OA
ATOM     14  C   UNL     1       2.152 -12.149 -43.899  1.00  0.00     0.087 C 
ENDBRANCH  11  12
ENDBRANCH  10  11
ENDBRANCH   2  10
TORSDOF 6
ENDMDL
MODEL 4
REMARK VINA RESULT:    -3.930      1.913      3.616
REMARK INTER + INTRA:          -6.462
REMARK INTER:                  -5.666
REMARK INTRA:                  -0.796
REMARK UNBOUND:                -1.154
REMARK SMILES CC(=O)CCC=C(C)CCC=C(C)C
REMARK SMILES IDX 7 1 6 2 8 3 9 4 10 5 11 6 13 7 12 8 14 9 5 10 4 11 2 12 3 13
REMARK SMILES IDX 1 14
REMARK H PARENT
REMARK Flexibility Score: inf
ROOT
ATOM      1  C   UNL     1      -1.685  -8.781 -41.142  1.00  0.00    -0.077 C 
ATOM      2  C   UNL     1      -0.739  -9.423 -41.865  1.00  0.00    -0.028 C 
ATOM      3  C   UNL     1      -1.484  -8.451 -39.681  1.00  0.00     0.039 C 
ENDROOT
BRANCH   1   4
ATOM      4  C   UNL     1      -2.974  -8.369 -41.818  1.00  0.00     0.034 C 
BRANCH   4   5
ATOM      5  C   UNL     1      -3.144  -9.101 -43.155  1.00  0.00     0.032 C 
BRANCH   5   6
ATOM      6  C   UNL     1      -4.419  -9.905 -43.166  1.00  0.00    -0.028 C 
ATOM      7  C   UNL     1      -5.853 -11.878 -42.864  1.00  0.00     0.039 C 
ATOM      8  C   UNL     1      -4.500 -11.214 -42.844  1.00  0.00    -0.080 C 
ATOM      9  C   UNL     1      -3.278 -12.027 -42.484  1.00  0.00     0.039 C 
ENDBRANCH   5   6
ENDBRANCH   4   5
ENDBRANCH   1   4
BRANCH   2  10
ATOM     10  C   UNL     1       0.565  -9.931 -41.303  1.00  0.00     0.035 C 
BRANCH  10  11
ATOM     11  C   UNL     1       1.713  -9.672 -42.283  1.00  0.00     0.079 C 
BRANCH  11  12
ATOM     12  C   UNL     1       2.526 -10.919 -42.493  1.00  0.00     0.130 C 
ATOM     13  O   UNL     1       3.418 -11.203 -41.708  1.00  0.00    -0.300 OA
ATOM     14  C   UNL     1       2.266 -11.803 -43.676  1.00  0.00     0.087 C 
ENDBRANCH  11  12
ENDBRANCH  10  11
ENDBRANCH   2  10
TORSDOF 6
ENDMDL
MODEL 5
REMARK VINA RESULT:    -3.927      3.165      5.488
REMARK INTER + INTRA:          -6.459
REMARK INTER:                  -5.420
REMARK INTRA:                  -1.038
REMARK UNBOUND:                -1.154
REMARK SMILES CC(=O)CCC=C(C)CCC=C(C)C
REMARK SMILES IDX 7 1 6 2 8 3 9 4 10 5 11 6 13 7 12 8 14 9 5 10 4 11 2 12 3 13
REMARK SMILES IDX 1 14
REMARK H PARENT
REMARK Flexibility Score: inf
ROOT
ATOM      1  C   UNL     1      -1.950  -8.946 -39.538  1.00  0.00    -0.077 C 
ATOM      2  C   UNL     1      -1.099  -8.071 -38.955  1.00  0.00    -0.028 C 
ATOM      3  C   UNL     1      -2.256 -10.291 -38.921  1.00  0.00     0.039 C 
ENDROOT
BRANCH   1   4
ATOM      4  C   UNL     1      -2.626  -8.561 -40.836  1.00  0.00     0.034 C 
BRANCH   4   5
ATOM      5  C   UNL     1      -2.234  -9.528 -41.960  1.00  0.00     0.032 C 
BRANCH   5   6
ATOM      6  C   UNL     1      -0.953  -9.087 -42.621  1.00  0.00    -0.028 C 
ATOM      7  C   UNL     1       1.439  -9.142 -43.183  1.00  0.00     0.039 C 
ATOM      8  C   UNL     1       0.250  -9.668 -42.421  1.00  0.00    -0.080 C 
ATOM      9  C   UNL     1       0.435 -10.811 -41.449  1.00  0.00     0.039 C 
ENDBRANCH   5   6
ENDBRANCH   4   5
ENDBRANCH   1   4
BRANCH   2  10
ATOM     10  C   UNL     1      -0.323  -8.349 -37.692  1.00  0.00     0.035 C 
BRANCH  10  11
ATOM     11  C   UNL     1      -0.585  -7.260 -36.647  1.00  0.00     0.079 C 
BRANCH  11  12
ATOM     12  C   UNL     1      -1.440  -7.788 -35.530  1.00  0.00     0.130 C 
ATOM     13  O   UNL     1      -2.174  -7.030 -34.914  1.00  0.00    -0.300 OA
ATOM     14  C   UNL     1      -1.380  -9.237 -35.148  1.00  0.00     0.087 C 
ENDBRANCH  11  12
ENDBRANCH  10  11
ENDBRANCH   2  10
TORSDOF 6
ENDMDL
MODEL 6
REMARK VINA RESULT:    -3.874      2.822      5.020
REMARK INTER + INTRA:          -6.386
REMARK INTER:                  -5.336
REMARK INTRA:                  -1.051
REMARK UNBOUND:                -1.154
REMARK SMILES CC(=O)CCC=C(C)CCC=C(C)C
REMARK SMILES IDX 7 1 6 2 8 3 9 4 10 5 11 6 13 7 12 8 14 9 5 10 4 11 2 12 3 13
REMARK SMILES IDX 1 14
REMARK H PARENT
REMARK Flexibility Score: inf
ROOT
ATOM      1  C   UNL     1      -1.884  -8.712 -41.080  1.00  0.00    -0.077 C 
ATOM      2  C   UNL     1      -0.906  -8.750 -40.146  1.00  0.00    -0.028 C 
ATOM      3  C   UNL     1      -3.254  -8.151 -40.777  1.00  0.00     0.039 C 
ENDROOT
BRANCH   1   4
ATOM      4  C   UNL     1      -1.593  -9.232 -42.471  1.00  0.00     0.034 C 
BRANCH   4   5
ATOM      5  C   UNL     1      -0.999 -10.644 -42.409  1.00  0.00     0.032 C 
BRANCH   5   6
ATOM      6  C   UNL     1      -2.046 -11.647 -41.996  1.00  0.00    -0.028 C 
ATOM      7  C   UNL     1      -3.092 -13.386 -40.609  1.00  0.00     0.039 C 
ATOM      8  C   UNL     1      -1.945 -12.458 -40.920  1.00  0.00    -0.080 C 
ATOM      9  C   UNL     1      -0.717 -12.471 -40.040  1.00  0.00     0.039 C 
ENDBRANCH   5   6
ENDBRANCH   4   5
ENDBRANCH   1   4
BRANCH   2  10
ATOM     10  C   UNL     1      -1.078  -8.312 -38.713  1.00  0.00     0.035 C 
BRANCH  10  11
ATOM     11  C   UNL     1      -0.909  -9.500 -37.761  1.00  0.00     0.079 C 
BRANCH  11  12
ATOM     12  C   UNL     1      -0.491  -9.033 -36.395  1.00  0.00     0.130 C 
ATOM     13  O   UNL     1      -0.071  -9.840 -35.579  1.00  0.00    -0.300 OA
ATOM     14  C   UNL     1      -0.609  -7.587 -36.018  1.00  0.00     0.087 C 
ENDBRANCH  11  12
ENDBRANCH  10  11
ENDBRANCH   2  10
TORSDOF 6
ENDMDL
MODEL 7
REMARK VINA RESULT:    -3.860      2.726      4.519
REMARK INTER + INTRA:          -6.368
REMARK INTER:                  -5.652
REMARK INTRA:                  -0.716
REMARK UNBOUND:                -1.154
REMARK SMILES CC(=O)CCC=C(C)CCC=C(C)C
REMARK SMILES IDX 7 1 6 2 8 3 9 4 10 5 11 6 13 7 12 8 14 9 5 10 4 11 2 12 3 13
REMARK SMILES IDX 1 14
REMARK H PARENT
REMARK Flexibility Score: inf
ROOT
ATOM      1  C   UNL     1      -1.999 -10.173 -42.410  1.00  0.00    -0.077 C 
ATOM      2  C   UNL     1      -1.046  -9.263 -42.101  1.00  0.00    -0.028 C 
ATOM      3  C   UNL     1      -1.709 -11.656 -42.428  1.00  0.00     0.039 C 
ENDROOT
BRANCH   1   4
ATOM      4  C   UNL     1      -3.397  -9.693 -42.733  1.00  0.00     0.034 C 
BRANCH   4   5
ATOM      5  C   UNL     1      -3.352  -8.464 -43.649  1.00  0.00     0.032 C 
BRANCH   5   6
ATOM      6  C   UNL     1      -4.379  -8.579 -44.747  1.00  0.00    -0.028 C 
ATOM      7  C   UNL     1      -5.351  -8.246 -46.980  1.00  0.00     0.039 C 
ATOM      8  C   UNL     1      -4.258  -8.013 -45.968  1.00  0.00    -0.080 C 
ATOM      9  C   UNL     1      -3.075  -7.148 -46.336  1.00  0.00     0.039 C 
ENDBRANCH   5   6
ENDBRANCH   4   5
ENDBRANCH   1   4
BRANCH   2  10
ATOM     10  C   UNL     1       0.394  -9.601 -41.810  1.00  0.00     0.035 C 
BRANCH  10  11
ATOM     11  C   UNL     1       1.280  -9.275 -43.016  1.00  0.00     0.079 C 
BRANCH  11  12
ATOM     12  C   UNL     1       1.902 -10.524 -43.574  1.00  0.00     0.130 C 
ATOM     13  O   UNL     1       2.294 -10.544 -44.732  1.00  0.00    -0.300 OA
ATOM     14  C   UNL     1       2.023 -11.755 -42.727  1.00  0.00     0.087 C 
ENDBRANCH  11  12
ENDBRANCH  10  11
ENDBRANCH   2  10
TORSDOF 6
ENDMDL
MODEL 8
REMARK VINA RESULT:    -3.854      1.884      2.908
REMARK INTER + INTRA:          -6.360
REMARK INTER:                  -5.691
REMARK INTRA:                  -0.669
REMARK UNBOUND:                -1.154
REMARK SMILES CC(=O)CCC=C(C)CCC=C(C)C
REMARK SMILES IDX 7 1 6 2 8 3 9 4 10 5 11 6 13 7 12 8 14 9 5 10 4 11 2 12 3 13
REMARK SMILES IDX 1 14
REMARK H PARENT
REMARK Flexibility Score: inf
ROOT
ATOM      1  C   UNL     1      -1.549  -8.454 -40.248  1.00  0.00    -0.077 C 
ATOM      2  C   UNL     1      -0.450  -9.155 -40.611  1.00  0.00    -0.028 C 
ATOM      3  C   UNL     1      -2.778  -8.386 -41.126  1.00  0.00     0.039 C 
ENDROOT
BRANCH   1   4
ATOM      4  C   UNL     1      -1.554  -7.730 -38.920  1.00  0.00     0.034 C 
BRANCH   4   5
ATOM      5  C   UNL     1      -0.299  -8.075 -38.108  1.00  0.00     0.032 C 
BRANCH   5   6
ATOM      6  C   UNL     1      -0.659  -8.403 -36.681  1.00  0.00    -0.028 C 
ATOM      7  C   UNL     1      -1.402  -9.796 -34.798  1.00  0.00     0.039 C 
ATOM      8  C   UNL     1      -1.120  -9.603 -36.266  1.00  0.00    -0.080 C 
ATOM      9  C   UNL     1      -1.374 -10.740 -37.228  1.00  0.00     0.039 C 
ENDBRANCH   5   6
ENDBRANCH   4   5
ENDBRANCH   1   4
BRANCH   2  10
ATOM     10  C   UNL     1      -0.296  -9.878 -41.925  1.00  0.00     0.035 C 
BRANCH  10  11
ATOM     11  C   UNL     1       1.017  -9.483 -42.608  1.00  0.00     0.079 C 
BRANCH  11  12
ATOM     12  C   UNL     1       1.948 -10.660 -42.693  1.00  0.00     0.130 C 
ATOM     13  O   UNL     1       2.275 -11.253 -41.676  1.00  0.00    -0.300 OA
ATOM     14  C   UNL     1       2.499 -11.097 -44.017  1.00  0.00     0.087 C 
ENDBRANCH  11  12
ENDBRANCH  10  11
ENDBRANCH   2  10
TORSDOF 6
ENDMDL
MODEL 9
REMARK VINA RESULT:    -3.828      2.976      5.227
REMARK INTER + INTRA:          -6.324
REMARK INTER:                  -5.442
REMARK INTRA:                  -0.882
REMARK UNBOUND:                -1.154
REMARK SMILES CC(=O)CCC=C(C)CCC=C(C)C
REMARK SMILES IDX 7 1 6 2 8 3 9 4 10 5 11 6 13 7 12 8 14 9 5 10 4 11 2 12 3 13
REMARK SMILES IDX 1 14
REMARK H PARENT
REMARK Flexibility Score: inf
ROOT
ATOM      1  C   UNL     1      -1.319  -8.622 -39.817  1.00  0.00    -0.077 C 
ATOM      2  C   UNL     1      -1.291  -7.808 -38.736  1.00  0.00    -0.028 C 
ATOM      3  C   UNL     1      -0.387  -9.805 -39.949  1.00  0.00     0.039 C 
ENDROOT
BRANCH   1   4
ATOM      4  C   UNL     1      -2.322  -8.350 -40.916  1.00  0.00     0.034 C 
BRANCH   4   5
ATOM      5  C   UNL     1      -2.010  -9.196 -42.157  1.00  0.00     0.032 C 
BRANCH   5   6
ATOM      6  C   UNL     1      -3.259  -9.860 -42.679  1.00  0.00    -0.028 C 
ATOM      7  C   UNL     1      -4.827 -11.700 -43.121  1.00  0.00     0.039 C 
ATOM      8  C   UNL     1      -3.516 -11.183 -42.586  1.00  0.00    -0.080 C 
ATOM      9  C   UNL     1      -2.525 -12.151 -41.983  1.00  0.00     0.039 C 
ENDBRANCH   5   6
ENDBRANCH   4   5
ENDBRANCH   1   4
BRANCH   2  10
ATOM     10  C   UNL     1      -0.311  -7.937 -37.597  1.00  0.00     0.035 C 
BRANCH  10  11
ATOM     11  C   UNL     1      -1.025  -8.387 -36.319  1.00  0.00     0.079 C 
BRANCH  11  12
ATOM     12  C   UNL     1      -0.702  -9.821 -36.004  1.00  0.00     0.130 C 
ATOM     13  O   UNL     1       0.237 -10.086 -35.269  1.00  0.00    -0.300 OA
ATOM     14  C   UNL     1      -1.510 -10.931 -36.608  1.00  0.00     0.087 C 
ENDBRANCH  11  12
ENDBRANCH  10  11
ENDBRANCH   2  10
TORSDOF 6
ENDMDL
