MODEL 1
REMARK VINA RESULT:    -4.399      0.000      0.000
REMARK INTER + INTRA:          -5.025
REMARK INTER:                  -4.913
REMARK INTRA:                  -0.112
REMARK UNBOUND:                -0.112
REMARK SMILES COc1cc2ccc(=O)oc2cc1OC
REMARK SMILES IDX 3 1 13 2 12 3 11 4 5 5 4 6 6 7 7 8 8 9 9 10 10 11 2 12 1 13
REMARK SMILES IDX 14 14 15 15
REMARK H PARENT
REMARK Flexibility Score: inf
ROOT
ATOM      1  C   UNL     1     -13.231 105.860  23.517  1.00  0.00     0.161 A 
ATOM      2  C   UNL     1     -14.383 106.460  22.979  1.00  0.00     0.164 A 
ATOM      3  C   UNL     1     -15.318 105.674  22.277  1.00  0.00     0.098 A 
ATOM      4  C   UNL     1     -15.109 104.303  22.113  1.00  0.00     0.142 A 
ATOM      5  C   UNL     1     -13.955 103.700  22.652  1.00  0.00     0.022 A 
ATOM      6  C   UNL     1     -13.021 104.476  23.351  1.00  0.00     0.062 A 
ATOM      7  C   UNL     1     -13.774 102.325  22.472  1.00  0.00     0.019 A 
ATOM      8  C   UNL     1     -14.732 101.595  21.768  1.00  0.00     0.094 A 
ATOM      9  C   UNL     1     -15.852 102.260  21.261  1.00  0.00     0.336 A 
ATOM     10  O   UNL     1     -16.729 101.620  20.625  1.00  0.00    -0.246 OA
ATOM     11  O   UNL     1     -16.000 103.569  21.449  1.00  0.00    -0.423 OA
ENDROOT
BRANCH   1  12
ATOM     12  O   UNL     1     -12.320 106.672  24.210  1.00  0.00    -0.493 OA
ATOM     13  C   UNL     1     -10.905 106.528  24.154  1.00  0.00     0.278 C 
ENDBRANCH   1  12
BRANCH   2  14
ATOM     14  O   UNL     1     -14.560 107.841  23.162  1.00  0.00    -0.493 OA
ATOM     15  C   UNL     1     -15.802 108.459  23.483  1.00  0.00     0.278 C 
ENDBRANCH   2  14
TORSDOF 2
ENDMDL
MODEL 2
REMARK VINA RESULT:    -4.380      1.168      2.847
REMARK INTER + INTRA:          -5.004
REMARK INTER:                  -4.877
REMARK INTRA:                  -0.127
REMARK UNBOUND:                -0.112
REMARK SMILES COc1cc2ccc(=O)oc2cc1OC
REMARK SMILES IDX 3 1 13 2 12 3 11 4 5 5 4 6 6 7 7 8 8 9 9 10 10 11 2 12 1 13
REMARK SMILES IDX 14 14 15 15
REMARK H PARENT
REMARK Flexibility Score: inf
ROOT
ATOM      1  C   UNL     1     -14.246 106.782  23.137  1.00  0.00     0.161 A 
ATOM      2  C   UNL     1     -13.195 106.141  23.816  1.00  0.00     0.164 A 
ATOM      3  C   UNL     1     -12.987 104.759  23.636  1.00  0.00     0.098 A 
ATOM      4  C   UNL     1     -13.817 104.023  22.788  1.00  0.00     0.142 A 
ATOM      5  C   UNL     1     -14.870 104.664  22.107  1.00  0.00     0.022 A 
ATOM      6  C   UNL     1     -15.083 106.038  22.282  1.00  0.00     0.062 A 
ATOM      7  C   UNL     1     -15.684 103.899  21.264  1.00  0.00     0.019 A 
ATOM      8  C   UNL     1     -15.432 102.535  21.124  1.00  0.00     0.094 A 
ATOM      9  C   UNL     1     -14.369 101.966  21.832  1.00  0.00     0.336 A 
ATOM     10  O   UNL     1     -14.124 100.736  21.717  1.00  0.00    -0.246 OA
ATOM     11  O   UNL     1     -13.610 102.717  22.625  1.00  0.00    -0.423 OA
ENDROOT
BRANCH   1  12
ATOM     12  O   UNL     1     -14.426 108.159  23.340  1.00  0.00    -0.493 OA
ATOM     13  C   UNL     1     -15.669 108.772  23.665  1.00  0.00     0.278 C 
ENDBRANCH   1  12
BRANCH   2  14
ATOM     14  O   UNL     1     -12.381 106.912  24.661  1.00  0.00    -0.493 OA
ATOM     15  C   UNL     1     -11.015 107.219  24.406  1.00  0.00     0.278 C 
ENDBRANCH   2  14
TORSDOF 2
ENDMDL
MODEL 3
REMARK VINA RESULT:    -4.232      1.557      5.444
REMARK INTER + INTRA:          -4.839
REMARK INTER:                  -4.673
REMARK INTRA:                  -0.166
REMARK UNBOUND:                -0.112
REMARK SMILES COc1cc2ccc(=O)oc2cc1OC
REMARK SMILES IDX 3 1 13 2 12 3 11 4 5 5 4 6 6 7 7 8 8 9 9 10 10 11 2 12 1 13
REMARK SMILES IDX 14 14 15 15
REMARK H PARENT
REMARK Flexibility Score: inf
ROOT
ATOM      1  C   UNL     1     -15.647 105.147  22.287  1.00  0.00     0.161 A 
ATOM      2  C   UNL     1     -14.950 103.960  22.577  1.00  0.00     0.164 A 
ATOM      3  C   UNL     1     -13.664 104.027  23.147  1.00  0.00     0.098 A 
ATOM      4  C   UNL     1     -13.077 105.263  23.427  1.00  0.00     0.142 A 
ATOM      5  C   UNL     1     -13.774 106.453  23.137  1.00  0.00     0.022 A 
ATOM      6  C   UNL     1     -15.054 106.393  22.570  1.00  0.00     0.062 A 
ATOM      7  C   UNL     1     -13.159 107.675  23.430  1.00  0.00     0.019 A 
ATOM      8  C   UNL     1     -11.884 107.682  23.993  1.00  0.00     0.094 A 
ATOM      9  C   UNL     1     -11.252 106.462  24.253  1.00  0.00     0.336 A 
ATOM     10  O   UNL     1     -10.101 106.447  24.763  1.00  0.00    -0.246 OA
ATOM     11  O   UNL     1     -11.860 105.314  23.966  1.00  0.00    -0.423 OA
ENDROOT
BRANCH   1  12
ATOM     12  O   UNL     1     -16.927 105.044  21.719  1.00  0.00    -0.493 OA
ATOM     13  C   UNL     1     -17.223 105.283  20.348  1.00  0.00     0.278 C 
ENDBRANCH   1  12
BRANCH   2  14
ATOM     14  O   UNL     1     -15.571 102.736  22.282  1.00  0.00    -0.493 OA
ATOM     15  C   UNL     1     -15.293 101.947  21.130  1.00  0.00     0.278 C 
ENDBRANCH   2  14
TORSDOF 2
ENDMDL
MODEL 4
REMARK VINA RESULT:    -4.206      1.421      4.942
REMARK INTER + INTRA:          -4.810
REMARK INTER:                  -4.698
REMARK INTRA:                  -0.112
REMARK UNBOUND:                -0.112
REMARK SMILES COc1cc2ccc(=O)oc2cc1OC
REMARK SMILES IDX 3 1 13 2 12 3 11 4 5 5 4 6 6 7 7 8 8 9 9 10 10 11 2 12 1 13
REMARK SMILES IDX 14 14 15 15
REMARK H PARENT
REMARK Flexibility Score: inf
ROOT
ATOM      1  C   UNL     1     -14.404 103.466  22.325  1.00  0.00     0.161 A 
ATOM      2  C   UNL     1     -15.362 104.400  21.895  1.00  0.00     0.164 A 
ATOM      3  C   UNL     1     -15.216 105.759  22.238  1.00  0.00     0.098 A 
ATOM      4  C   UNL     1     -14.127 106.184  23.002  1.00  0.00     0.142 A 
ATOM      5  C   UNL     1     -13.166 105.248  23.433  1.00  0.00     0.022 A 
ATOM      6  C   UNL     1     -13.304 103.895  23.096  1.00  0.00     0.062 A 
ATOM      7  C   UNL     1     -12.085 105.704  24.196  1.00  0.00     0.019 A 
ATOM      8  C   UNL     1     -11.991 107.060  24.507  1.00  0.00     0.094 A 
ATOM      9  C   UNL     1     -12.983 107.931  24.044  1.00  0.00     0.336 A 
ATOM     10  O   UNL     1     -12.915 109.160  24.312  1.00  0.00    -0.246 OA
ATOM     11  O   UNL     1     -13.999 107.471  23.319  1.00  0.00    -0.423 OA
ENDROOT
BRANCH   1  12
ATOM     12  O   UNL     1     -14.579 102.120  21.966  1.00  0.00    -0.493 OA
ATOM     13  C   UNL     1     -14.560 101.031  22.882  1.00  0.00     0.278 C 
ENDBRANCH   1  12
BRANCH   2  14
ATOM     14  O   UNL     1     -16.444 103.938  21.130  1.00  0.00    -0.493 OA
ATOM     15  C   UNL     1     -17.380 104.780  20.463  1.00  0.00     0.278 C 
ENDBRANCH   2  14
TORSDOF 2
ENDMDL
MODEL 5
REMARK VINA RESULT:    -4.131     12.983     15.015
REMARK INTER + INTRA:          -4.725
REMARK INTER:                  -4.573
REMARK INTRA:                  -0.152
REMARK UNBOUND:                -0.112
REMARK SMILES COc1cc2ccc(=O)oc2cc1OC
REMARK SMILES IDX 3 1 13 2 12 3 11 4 5 5 4 6 6 7 7 8 8 9 9 10 10 11 2 12 1 13
REMARK SMILES IDX 14 14 15 15
REMARK H PARENT
REMARK Flexibility Score: inf
ROOT
ATOM      1  C   UNL     1     -23.953  96.023  29.046  1.00  0.00     0.161 A 
ATOM      2  C   UNL     1     -25.268  96.036  29.542  1.00  0.00     0.164 A 
ATOM      3  C   UNL     1     -25.914  97.266  29.779  1.00  0.00     0.098 A 
ATOM      4  C   UNL     1     -25.256  98.471  29.525  1.00  0.00     0.142 A 
ATOM      5  C   UNL     1     -23.937  98.460  29.028  1.00  0.00     0.022 A 
ATOM      6  C   UNL     1     -23.290  97.240  28.790  1.00  0.00     0.062 A 
ATOM      7  C   UNL     1     -23.306  99.684  28.783  1.00  0.00     0.019 A 
ATOM      8  C   UNL     1     -23.992 100.871  29.037  1.00  0.00     0.094 A 
ATOM      9  C   UNL     1     -25.298 100.806  29.530  1.00  0.00     0.336 A 
ATOM     10  O   UNL     1     -25.936 101.866  29.764  1.00  0.00    -0.246 OA
ATOM     11  O   UNL     1     -25.876  99.628  29.753  1.00  0.00    -0.423 OA
ENDROOT
BRANCH   1  12
ATOM     12  O   UNL     1     -23.339  94.781  28.821  1.00  0.00    -0.493 OA
ATOM     13  C   UNL     1     -23.203  94.167  27.544  1.00  0.00     0.278 C 
ENDBRANCH   1  12
BRANCH   2  14
ATOM     14  O   UNL     1     -25.899  94.806  29.786  1.00  0.00    -0.493 OA
ATOM     15  C   UNL     1     -26.751  94.138  28.862  1.00  0.00     0.278 C 
ENDBRANCH   2  14
TORSDOF 2
ENDMDL
MODEL 6
REMARK VINA RESULT:    -4.104     11.952     12.987
REMARK INTER + INTRA:          -4.695
REMARK INTER:                  -4.535
REMARK INTRA:                  -0.160
REMARK UNBOUND:                -0.112
REMARK SMILES COc1cc2ccc(=O)oc2cc1OC
REMARK SMILES IDX 3 1 13 2 12 3 11 4 5 5 4 6 6 7 7 8 8 9 9 10 10 11 2 12 1 13
REMARK SMILES IDX 14 14 15 15
REMARK H PARENT
REMARK Flexibility Score: inf
ROOT
ATOM      1  C   UNL     1     -25.385 102.375  29.354  1.00  0.00     0.161 A 
ATOM      2  C   UNL     1     -24.934 102.379  28.022  1.00  0.00     0.164 A 
ATOM      3  C   UNL     1     -24.700 101.158  27.359  1.00  0.00     0.098 A 
ATOM      4  C   UNL     1     -24.912  99.944  28.016  1.00  0.00     0.142 A 
ATOM      5  C   UNL     1     -25.364  99.938  29.351  1.00  0.00     0.022 A 
ATOM      6  C   UNL     1     -25.599 101.149  30.016  1.00  0.00     0.062 A 
ATOM      7  C   UNL     1     -25.568  98.706  29.981  1.00  0.00     0.019 A 
ATOM      8  C   UNL     1     -25.320  97.528  29.277  1.00  0.00     0.094 A 
ATOM      9  C   UNL     1     -24.872  97.611  27.955  1.00  0.00     0.336 A 
ATOM     10  O   UNL     1     -24.643  96.559  27.302  1.00  0.00    -0.246 OA
ATOM     11  O   UNL     1     -24.688  98.796  27.379  1.00  0.00    -0.423 OA
ENDROOT
BRANCH   1  12
ATOM     12  O   UNL     1     -25.608 103.609  29.984  1.00  0.00    -0.493 OA
ATOM     13  C   UNL     1     -24.673 104.261  30.836  1.00  0.00     0.278 C 
ENDBRANCH   1  12
BRANCH   2  14
ATOM     14  O   UNL     1     -24.731 103.618  27.394  1.00  0.00    -0.493 OA
ATOM     15  C   UNL     1     -23.454 104.195  27.141  1.00  0.00     0.278 C 
ENDBRANCH   2  14
TORSDOF 2
ENDMDL
MODEL 7
REMARK VINA RESULT:    -4.099     12.990     15.208
REMARK INTER + INTRA:          -4.690
REMARK INTER:                  -4.576
REMARK INTRA:                  -0.114
REMARK UNBOUND:                -0.112
REMARK SMILES COc1cc2ccc(=O)oc2cc1OC
REMARK SMILES IDX 3 1 13 2 12 3 11 4 5 5 4 6 6 7 7 8 8 9 9 10 10 11 2 12 1 13
REMARK SMILES IDX 14 14 15 15
REMARK H PARENT
REMARK Flexibility Score: inf
ROOT
ATOM      1  C   UNL     1     -24.871  95.416  29.197  1.00  0.00     0.161 A 
ATOM      2  C   UNL     1     -23.623  95.737  28.635  1.00  0.00     0.164 A 
ATOM      3  C   UNL     1     -23.222  97.085  28.548  1.00  0.00     0.098 A 
ATOM      4  C   UNL     1     -24.055  98.103  29.017  1.00  0.00     0.142 A 
ATOM      5  C   UNL     1     -25.306  97.783  29.580  1.00  0.00     0.022 A 
ATOM      6  C   UNL     1     -25.711  96.445  29.670  1.00  0.00     0.062 A 
ATOM      7  C   UNL     1     -26.117  98.825  30.041  1.00  0.00     0.019 A 
ATOM      8  C   UNL     1     -25.670 100.141  29.930  1.00  0.00     0.094 A 
ATOM      9  C   UNL     1     -24.416 100.384  29.359  1.00  0.00     0.336 A 
ATOM     10  O   UNL     1     -23.994 101.565  29.251  1.00  0.00    -0.246 OA
ATOM     11  O   UNL     1     -23.665  99.374  28.930  1.00  0.00    -0.423 OA
ENDROOT
BRANCH   1  12
ATOM     12  O   UNL     1     -25.240  94.064  29.268  1.00  0.00    -0.493 OA
ATOM     13  C   UNL     1     -26.518  93.596  29.683  1.00  0.00     0.278 C 
ENDBRANCH   1  12
BRANCH   2  14
ATOM     14  O   UNL     1     -22.812  94.689  28.174  1.00  0.00    -0.493 OA
ATOM     15  C   UNL     1     -21.721  94.132  28.900  1.00  0.00     0.278 C 
ENDBRANCH   2  14
TORSDOF 2
ENDMDL
MODEL 8
REMARK VINA RESULT:    -4.090     12.201     13.229
REMARK INTER + INTRA:          -4.679
REMARK INTER:                  -4.533
REMARK INTRA:                  -0.146
REMARK UNBOUND:                -0.112
REMARK SMILES COc1cc2ccc(=O)oc2cc1OC
REMARK SMILES IDX 3 1 13 2 12 3 11 4 5 5 4 6 6 7 7 8 8 9 9 10 10 11 2 12 1 13
REMARK SMILES IDX 14 14 15 15
REMARK H PARENT
REMARK Flexibility Score: inf
ROOT
ATOM      1  C   UNL     1     -24.985 102.227  28.079  1.00  0.00     0.161 A 
ATOM      2  C   UNL     1     -25.442 102.203  29.408  1.00  0.00     0.164 A 
ATOM      3  C   UNL     1     -25.621 100.969  30.064  1.00  0.00     0.098 A 
ATOM      4  C   UNL     1     -25.348  99.770  29.403  1.00  0.00     0.142 A 
ATOM      5  C   UNL     1     -24.890  99.792  28.071  1.00  0.00     0.022 A 
ATOM      6  C   UNL     1     -24.710 101.016  27.412  1.00  0.00     0.062 A 
ATOM      7  C   UNL     1     -24.624  98.574  27.436  1.00  0.00     0.019 A 
ATOM      8  C   UNL     1     -24.819  97.382  28.133  1.00  0.00     0.094 A 
ATOM      9  C   UNL     1     -25.276  97.437  29.453  1.00  0.00     0.336 A 
ATOM     10  O   UNL     1     -25.458  96.372  30.100  1.00  0.00    -0.246 OA
ATOM     11  O   UNL     1     -25.520  98.609  30.033  1.00  0.00    -0.423 OA
ENDROOT
BRANCH   1  12
ATOM     12  O   UNL     1     -24.818 103.473  27.455  1.00  0.00    -0.493 OA
ATOM     13  C   UNL     1     -23.560 104.091  27.209  1.00  0.00     0.278 C 
ENDBRANCH   1  12
BRANCH   2  14
ATOM     14  O   UNL     1     -25.707 103.428  30.042  1.00  0.00    -0.493 OA
ATOM     15  C   UNL     1     -24.767 104.148  30.833  1.00  0.00     0.278 C 
ENDBRANCH   2  14
TORSDOF 2
ENDMDL
MODEL 9
REMARK VINA RESULT:    -4.030     11.649     13.377
REMARK INTER + INTRA:          -4.612
REMARK INTER:                  -4.487
REMARK INTRA:                  -0.126
REMARK UNBOUND:                -0.112
REMARK SMILES COc1cc2ccc(=O)oc2cc1OC
REMARK SMILES IDX 3 1 13 2 12 3 11 4 5 5 4 6 6 7 7 8 8 9 9 10 10 11 2 12 1 13
REMARK SMILES IDX 14 14 15 15
REMARK H PARENT
REMARK Flexibility Score: inf
ROOT
ATOM      1  C   UNL     1     -24.991 100.883  29.058  1.00  0.00     0.161 A 
ATOM      2  C   UNL     1     -24.807 101.257  27.715  1.00  0.00     0.164 A 
ATOM      3  C   UNL     1     -24.732 102.622  27.374  1.00  0.00     0.098 A 
ATOM      4  C   UNL     1     -24.838 103.605  28.361  1.00  0.00     0.142 A 
ATOM      5  C   UNL     1     -25.023 103.231  29.707  1.00  0.00     0.022 A 
ATOM      6  C   UNL     1     -25.099 101.875  30.053  1.00  0.00     0.062 A 
ATOM      7  C   UNL     1     -25.125 104.239  30.672  1.00  0.00     0.019 A 
ATOM      8  C   UNL     1     -25.043 105.574  30.278  1.00  0.00     0.094 A 
ATOM      9  C   UNL     1     -24.860 105.871  28.924  1.00  0.00     0.336 A 
ATOM     10  O   UNL     1     -24.782 107.070  28.548  1.00  0.00    -0.246 OA
ATOM     11  O   UNL     1     -24.764 104.892  28.027  1.00  0.00    -0.423 OA
ENDROOT
BRANCH   1  12
ATOM     12  O   UNL     1     -25.063  99.514  29.362  1.00  0.00    -0.493 OA
ATOM     13  C   UNL     1     -26.022  98.931  30.237  1.00  0.00     0.278 C 
ENDBRANCH   1  12
BRANCH   2  14
ATOM     14  O   UNL     1     -24.705 100.243  26.750  1.00  0.00    -0.493 OA
ATOM     15  C   UNL     1     -23.486  99.820  26.149  1.00  0.00     0.278 C 
ENDBRANCH   2  14
TORSDOF 2
ENDMDL
