MODEL 1
REMARK VINA RESULT:    -4.305      0.000      0.000
REMARK INTER + INTRA:          -7.414
REMARK INTER:                  -6.570
REMARK INTRA:                  -0.844
REMARK UNBOUND:                -0.844
REMARK SMILES O=C([O-])CCCCCCCCC(=O)[O-]
REMARK SMILES IDX 7 1 6 2 5 3 4 4 2 5 1 6 3 7 8 8 9 9 10 10 11 11 12 12 13 13
REMARK SMILES IDX 14 14
REMARK H PARENT
REMARK Flexibility Score: inf
ROOT
ATOM      1  C   UNL     1       3.019  50.668   1.386  1.00  0.00     0.000 C 
ENDROOT
BRANCH   1   2
ATOM      2  C   UNL     1       1.890  50.390   0.379  1.00  0.00     0.000 C 
BRANCH   2   3
ATOM      3  C   UNL     1       1.899  51.355  -0.820  1.00  0.00     0.006 C 
BRANCH   3   4
ATOM      4  C   UNL     1       2.271  50.687  -2.155  1.00  0.00     0.053 C 
BRANCH   4   5
ATOM      5  C   UNL     1       2.541  51.684  -3.242  1.00  0.00     0.041 C 
ATOM      6  O   UNL     1       2.854  51.291  -4.396  1.00  0.00    -0.550 OA
ATOM      7  O   UNL     1       2.479  53.045  -2.972  1.00  0.00    -0.550 OA
ENDBRANCH   4   5
ENDBRANCH   3   4
ENDBRANCH   2   3
ENDBRANCH   1   2
BRANCH   1   8
ATOM      8  C   UNL     1       3.754  51.987   1.097  1.00  0.00     0.000 C 
BRANCH   8   9
ATOM      9  C   UNL     1       5.243  51.926   1.476  1.00  0.00     0.000 C 
BRANCH   9  10
ATOM     10  C   UNL     1       6.168  52.368   0.327  1.00  0.00     0.006 C 
BRANCH  10  11
ATOM     11  C   UNL     1       5.483  52.419  -1.049  1.00  0.00     0.053 C 
BRANCH  11  12
ATOM     12  C   UNL     1       6.437  52.116  -2.163  1.00  0.00     0.041 C 
ATOM     13  O   UNL     1       6.023  52.055  -3.351  1.00  0.00    -0.550 OA
ATOM     14  O   UNL     1       7.788  51.938  -1.895  1.00  0.00    -0.550 OA
ENDBRANCH  11  12
ENDBRANCH  10  11
ENDBRANCH   9  10
ENDBRANCH   8   9
ENDBRANCH   1   8
TORSDOF 9
ENDMDL
MODEL 2
REMARK VINA RESULT:    -4.293      0.359      4.043
REMARK INTER + INTRA:          -7.395
REMARK INTER:                  -6.564
REMARK INTRA:                  -0.831
REMARK UNBOUND:                -0.844
REMARK SMILES O=C([O-])CCCCCCCCC(=O)[O-]
REMARK SMILES IDX 7 1 6 2 5 3 4 4 2 5 1 6 3 7 8 8 9 9 10 10 11 11 12 12 13 13
REMARK SMILES IDX 14 14
REMARK H PARENT
REMARK Flexibility Score: inf
ROOT
ATOM      1  C   UNL     1       3.982  52.061   1.289  1.00  0.00     0.000 C 
ENDROOT
BRANCH   1   2
ATOM      2  C   UNL     1       5.504  52.017   1.509  1.00  0.00     0.000 C 
BRANCH   2   3
ATOM      3  C   UNL     1       6.304  52.550   0.306  1.00  0.00     0.006 C 
BRANCH   3   4
ATOM      4  C   UNL     1       5.549  52.462  -1.031  1.00  0.00     0.053 C 
BRANCH   4   5
ATOM      5  C   UNL     1       6.446  52.101  -2.177  1.00  0.00     0.041 C 
ATOM      6  O   UNL     1       7.665  51.862  -1.974  1.00  0.00    -0.550 OA
ATOM      7  O   UNL     1       5.944  52.062  -3.472  1.00  0.00    -0.550 OA
ENDBRANCH   4   5
ENDBRANCH   3   4
ENDBRANCH   2   3
ENDBRANCH   1   2
BRANCH   1   8
ATOM      8  C   UNL     1       3.279  50.786   1.780  1.00  0.00     0.000 C 
BRANCH   8   9
ATOM      9  C   UNL     1       2.199  50.295   0.801  1.00  0.00     0.000 C 
BRANCH   9  10
ATOM     10  C   UNL     1       1.991  51.255  -0.385  1.00  0.00     0.006 C 
BRANCH  10  11
ATOM     11  C   UNL     1       2.369  50.662  -1.751  1.00  0.00     0.053 C 
BRANCH  11  12
ATOM     12  C   UNL     1       2.392  51.701  -2.829  1.00  0.00     0.041 C 
ATOM     13  O   UNL     1       2.390  52.925  -2.529  1.00  0.00    -0.550 OA
ATOM     14  O   UNL     1       2.455  51.320  -4.163  1.00  0.00    -0.550 OA
ENDBRANCH  11  12
ENDBRANCH  10  11
ENDBRANCH   9  10
ENDBRANCH   8   9
ENDBRANCH   1   8
TORSDOF 9
ENDMDL
MODEL 3
REMARK VINA RESULT:    -4.193      1.171      1.724
REMARK INTER + INTRA:          -7.244
REMARK INTER:                  -6.457
REMARK INTRA:                  -0.786
REMARK UNBOUND:                -0.844
REMARK SMILES O=C([O-])CCCCCCCCC(=O)[O-]
REMARK SMILES IDX 7 1 6 2 5 3 4 4 2 5 1 6 3 7 8 8 9 9 10 10 11 11 12 12 13 13
REMARK SMILES IDX 14 14
REMARK H PARENT
REMARK Flexibility Score: inf
ROOT
ATOM      1  C   UNL     1       3.750  52.066   1.385  1.00  0.00     0.000 C 
ENDROOT
BRANCH   1   2
ATOM      2  C   UNL     1       2.994  50.727   1.334  1.00  0.00     0.000 C 
BRANCH   2   3
ATOM      3  C   UNL     1       2.191  50.536   0.034  1.00  0.00     0.006 C 
BRANCH   3   4
ATOM      4  C   UNL     1       1.876  51.850  -0.701  1.00  0.00     0.053 C 
BRANCH   4   5
ATOM      5  C   UNL     1       2.083  51.745  -2.183  1.00  0.00     0.041 C 
ATOM      6  O   UNL     1       2.243  50.619  -2.721  1.00  0.00    -0.550 OA
ATOM      7  O   UNL     1       2.131  52.894  -2.964  1.00  0.00    -0.550 OA
ENDBRANCH   4   5
ENDBRANCH   3   4
ENDBRANCH   2   3
ENDBRANCH   1   2
BRANCH   1   8
ATOM      8  C   UNL     1       5.270  51.879   1.506  1.00  0.00     0.000 C 
BRANCH   8   9
ATOM      9  C   UNL     1       6.041  52.571   0.368  1.00  0.00     0.000 C 
BRANCH   9  10
ATOM     10  C   UNL     1       5.546  52.150  -1.027  1.00  0.00     0.006 C 
BRANCH  10  11
ATOM     11  C   UNL     1       6.583  52.335  -2.147  1.00  0.00     0.053 C 
BRANCH  11  12
ATOM     12  C   UNL     1       5.940  52.640  -3.464  1.00  0.00     0.041 C 
ATOM     13  O   UNL     1       6.062  53.783  -3.979  1.00  0.00    -0.550 OA
ATOM     14  O   UNL     1       5.238  51.652  -4.142  1.00  0.00    -0.550 OA
ENDBRANCH  11  12
ENDBRANCH  10  11
ENDBRANCH   9  10
ENDBRANCH   8   9
ENDBRANCH   1   8
TORSDOF 9
ENDMDL
MODEL 4
REMARK VINA RESULT:    -4.031      1.127      2.014
REMARK INTER + INTRA:          -6.995
REMARK INTER:                  -6.250
REMARK INTRA:                  -0.745
REMARK UNBOUND:                -0.844
REMARK SMILES O=C([O-])CCCCCCCCC(=O)[O-]
REMARK SMILES IDX 7 1 6 2 5 3 4 4 2 5 1 6 3 7 8 8 9 9 10 10 11 11 12 12 13 13
REMARK SMILES IDX 14 14
REMARK H PARENT
REMARK Flexibility Score: inf
ROOT
ATOM      1  C   UNL     1       2.229  50.355   0.691  1.00  0.00     0.000 C 
ENDROOT
BRANCH   1   2
ATOM      2  C   UNL     1       2.019  51.421  -0.398  1.00  0.00     0.000 C 
BRANCH   2   3
ATOM      3  C   UNL     1       2.602  51.012  -1.763  1.00  0.00     0.006 C 
BRANCH   3   4
ATOM      4  C   UNL     1       3.362  52.142  -2.479  1.00  0.00     0.053 C 
BRANCH   4   5
ATOM      5  C   UNL     1       4.098  51.662  -3.694  1.00  0.00     0.041 C 
ATOM      6  O   UNL     1       3.462  51.311  -4.721  1.00  0.00    -0.550 OA
ATOM      7  O   UNL     1       5.485  51.570  -3.679  1.00  0.00    -0.550 OA
ENDBRANCH   4   5
ENDBRANCH   3   4
ENDBRANCH   2   3
ENDBRANCH   1   2
BRANCH   1   8
ATOM      8  C   UNL     1       3.342  50.735   1.680  1.00  0.00     0.000 C 
BRANCH   8   9
ATOM      9  C   UNL     1       3.948  52.118   1.381  1.00  0.00     0.000 C 
BRANCH   9  10
ATOM     10  C   UNL     1       5.480  52.078   1.240  1.00  0.00     0.006 C 
BRANCH  10  11
ATOM     11  C   UNL     1       6.011  52.715  -0.054  1.00  0.00     0.053 C 
BRANCH  11  12
ATOM     12  C   UNL     1       7.485  52.506  -0.220  1.00  0.00     0.041 C 
ATOM     13  O   UNL     1       8.255  52.614   0.771  1.00  0.00    -0.550 OA
ATOM     14  O   UNL     1       8.004  52.156  -1.460  1.00  0.00    -0.550 OA
ENDBRANCH  11  12
ENDBRANCH  10  11
ENDBRANCH   9  10
ENDBRANCH   8   9
ENDBRANCH   1   8
TORSDOF 9
ENDMDL
MODEL 5
REMARK VINA RESULT:    -3.981      1.254      1.836
REMARK INTER + INTRA:          -6.920
REMARK INTER:                  -6.154
REMARK INTRA:                  -0.765
REMARK UNBOUND:                -0.844
REMARK SMILES O=C([O-])CCCCCCCCC(=O)[O-]
REMARK SMILES IDX 7 1 6 2 5 3 4 4 2 5 1 6 3 7 8 8 9 9 10 10 11 11 12 12 13 13
REMARK SMILES IDX 14 14
REMARK H PARENT
REMARK Flexibility Score: inf
ROOT
ATOM      1  C   UNL     1       3.704  51.933   1.512  1.00  0.00     0.000 C 
ENDROOT
BRANCH   1   2
ATOM      2  C   UNL     1       3.020  50.564   1.359  1.00  0.00     0.000 C 
BRANCH   2   3
ATOM      3  C   UNL     1       2.146  50.464   0.096  1.00  0.00     0.006 C 
BRANCH   3   4
ATOM      4  C   UNL     1       1.956  51.802  -0.638  1.00  0.00     0.053 C 
BRANCH   4   5
ATOM      5  C   UNL     1       2.247  51.701  -2.106  1.00  0.00     0.041 C 
ATOM      6  O   UNL     1       2.245  50.578  -2.675  1.00  0.00    -0.550 OA
ATOM      7  O   UNL     1       2.552  52.842  -2.837  1.00  0.00    -0.550 OA
ENDBRANCH   4   5
ENDBRANCH   3   4
ENDBRANCH   2   3
ENDBRANCH   1   2
BRANCH   1   8
ATOM      8  C   UNL     1       5.210  51.876   1.210  1.00  0.00     0.000 C 
BRANCH   8   9
ATOM      9  C   UNL     1       5.624  52.852   0.095  1.00  0.00     0.000 C 
BRANCH   9  10
ATOM     10  C   UNL     1       5.813  52.156  -1.265  1.00  0.00     0.006 C 
BRANCH  10  11
ATOM     11  C   UNL     1       6.876  52.806  -2.164  1.00  0.00     0.053 C 
BRANCH  11  12
ATOM     12  C   UNL     1       8.249  52.706  -1.575  1.00  0.00     0.041 C 
ATOM     13  O   UNL     1       8.826  53.736  -1.137  1.00  0.00    -0.550 OA
ATOM     14  O   UNL     1       8.876  51.471  -1.475  1.00  0.00    -0.550 OA
ENDBRANCH  11  12
ENDBRANCH  10  11
ENDBRANCH   9  10
ENDBRANCH   8   9
ENDBRANCH   1   8
TORSDOF 9
ENDMDL
MODEL 6
REMARK VINA RESULT:    -3.960      2.852      3.727
REMARK INTER + INTRA:          -6.888
REMARK INTER:                  -6.127
REMARK INTRA:                  -0.761
REMARK UNBOUND:                -0.844
REMARK SMILES O=C([O-])CCCCCCCCC(=O)[O-]
REMARK SMILES IDX 7 1 6 2 5 3 4 4 2 5 1 6 3 7 8 8 9 9 10 10 11 11 12 12 13 13
REMARK SMILES IDX 14 14
REMARK H PARENT
REMARK Flexibility Score: inf
ROOT
ATOM      1  C   UNL     1       4.903  51.507   1.545  1.00  0.00     0.000 C 
ENDROOT
BRANCH   1   2
ATOM      2  C   UNL     1       3.466  50.960   1.496  1.00  0.00     0.000 C 
BRANCH   2   3
ATOM      3  C   UNL     1       2.608  51.615   0.398  1.00  0.00     0.006 C 
BRANCH   3   4
ATOM      4  C   UNL     1       2.197  50.653  -0.729  1.00  0.00     0.053 C 
BRANCH   4   5
ATOM      5  C   UNL     1       2.308  51.276  -2.088  1.00  0.00     0.041 C 
ATOM      6  O   UNL     1       2.177  50.569  -3.121  1.00  0.00    -0.550 OA
ATOM      7  O   UNL     1       2.590  52.631  -2.214  1.00  0.00    -0.550 OA
ENDBRANCH   4   5
ENDBRANCH   3   4
ENDBRANCH   2   3
ENDBRANCH   1   2
BRANCH   1   8
ATOM      8  C   UNL     1       5.199  52.487   0.399  1.00  0.00     0.000 C 
BRANCH   8   9
ATOM      9  C   UNL     1       5.674  53.860   0.908  1.00  0.00     0.000 C 
BRANCH   9  10
ATOM     10  C   UNL     1       4.516  54.744   1.404  1.00  0.00     0.006 C 
BRANCH  10  11
ATOM     11  C   UNL     1       3.545  55.190   0.299  1.00  0.00     0.053 C 
BRANCH  11  12
ATOM     12  C   UNL     1       3.340  56.674   0.297  1.00  0.00     0.041 C 
ATOM     13  O   UNL     1       4.312  57.448   0.498  1.00  0.00    -0.550 OA
ATOM     14  O   UNL     1       2.082  57.202   0.036  1.00  0.00    -0.550 OA
ENDBRANCH  11  12
ENDBRANCH  10  11
ENDBRANCH   9  10
ENDBRANCH   8   9
ENDBRANCH   1   8
TORSDOF 9
ENDMDL
MODEL 7
REMARK VINA RESULT:    -3.943      3.088      3.806
REMARK INTER + INTRA:          -6.861
REMARK INTER:                  -6.066
REMARK INTRA:                  -0.795
REMARK UNBOUND:                -0.844
REMARK SMILES O=C([O-])CCCCCCCCC(=O)[O-]
REMARK SMILES IDX 7 1 6 2 5 3 4 4 2 5 1 6 3 7 8 8 9 9 10 10 11 11 12 12 13 13
REMARK SMILES IDX 14 14
REMARK H PARENT
REMARK Flexibility Score: inf
ROOT
ATOM      1  C   UNL     1       2.947  51.469  -0.841  1.00  0.00     0.000 C 
ENDROOT
BRANCH   1   2
ATOM      2  C   UNL     1       1.876  52.526  -1.159  1.00  0.00     0.000 C 
BRANCH   2   3
ATOM      3  C   UNL     1       2.015  53.802  -0.309  1.00  0.00     0.006 C 
BRANCH   3   4
ATOM      4  C   UNL     1       3.192  54.701  -0.724  1.00  0.00     0.053 C 
BRANCH   4   5
ATOM      5  C   UNL     1       3.591  55.662   0.356  1.00  0.00     0.041 C 
ATOM      6  O   UNL     1       4.249  55.260   1.350  1.00  0.00    -0.550 OA
ATOM      7  O   UNL     1       3.208  56.996   0.279  1.00  0.00    -0.550 OA
ENDBRANCH   4   5
ENDBRANCH   3   4
ENDBRANCH   2   3
ENDBRANCH   1   2
BRANCH   1   8
ATOM      8  C   UNL     1       2.726  50.800   0.525  1.00  0.00     0.000 C 
BRANCH   8   9
ATOM      9  C   UNL     1       3.853  51.115   1.524  1.00  0.00     0.000 C 
BRANCH   9  10
ATOM     10  C   UNL     1       5.035  51.856   0.872  1.00  0.00     0.006 C 
BRANCH  10  11
ATOM     11  C   UNL     1       6.189  52.174   1.836  1.00  0.00     0.053 C 
BRANCH  11  12
ATOM     12  C   UNL     1       7.374  52.751   1.124  1.00  0.00     0.041 C 
ATOM     13  O   UNL     1       7.250  53.798   0.436  1.00  0.00    -0.550 OA
ATOM     14  O   UNL     1       8.622  52.156   1.252  1.00  0.00    -0.550 OA
ENDBRANCH  11  12
ENDBRANCH  10  11
ENDBRANCH   9  10
ENDBRANCH   8   9
ENDBRANCH   1   8
TORSDOF 9
ENDMDL
MODEL 8
REMARK VINA RESULT:    -3.925      1.788      2.551
REMARK INTER + INTRA:          -6.835
REMARK INTER:                  -6.128
REMARK INTRA:                  -0.707
REMARK UNBOUND:                -0.844
REMARK SMILES O=C([O-])CCCCCCCCC(=O)[O-]
REMARK SMILES IDX 7 1 6 2 5 3 4 4 2 5 1 6 3 7 8 8 9 9 10 10 11 11 12 12 13 13
REMARK SMILES IDX 14 14
REMARK H PARENT
REMARK Flexibility Score: inf
ROOT
ATOM      1  C   UNL     1       1.875  51.847  -0.143  1.00  0.00     0.000 C 
ENDROOT
BRANCH   1   2
ATOM      2  C   UNL     1       1.937  52.132  -1.653  1.00  0.00     0.000 C 
BRANCH   2   3
ATOM      3  C   UNL     1       2.254  50.880  -2.491  1.00  0.00     0.006 C 
BRANCH   3   4
ATOM      4  C   UNL     1       2.285  51.137  -4.007  1.00  0.00     0.053 C 
BRANCH   4   5
ATOM      5  C   UNL     1       3.641  51.555  -4.493  1.00  0.00     0.041 C 
ATOM      6  O   UNL     1       3.771  52.085  -5.627  1.00  0.00    -0.550 OA
ATOM      7  O   UNL     1       4.764  51.328  -3.707  1.00  0.00    -0.550 OA
ENDBRANCH   4   5
ENDBRANCH   3   4
ENDBRANCH   2   3
ENDBRANCH   1   2
BRANCH   1   8
ATOM      8  C   UNL     1       2.853  50.742   0.288  1.00  0.00     0.000 C 
BRANCH   8   9
ATOM      9  C   UNL     1       3.692  51.144   1.513  1.00  0.00     0.000 C 
BRANCH   9  10
ATOM     10  C   UNL     1       4.963  51.925   1.133  1.00  0.00     0.006 C 
BRANCH  10  11
ATOM     11  C   UNL     1       4.821  53.452   1.240  1.00  0.00     0.053 C 
BRANCH  11  12
ATOM     12  C   UNL     1       4.787  54.109  -0.105  1.00  0.00     0.041 C 
ATOM     13  O   UNL     1       4.259  55.244  -0.243  1.00  0.00    -0.550 OA
ATOM     14  O   UNL     1       5.372  53.485  -1.201  1.00  0.00    -0.550 OA
ENDBRANCH  11  12
ENDBRANCH  10  11
ENDBRANCH   9  10
ENDBRANCH   8   9
ENDBRANCH   1   8
TORSDOF 9
ENDMDL
MODEL 9
REMARK VINA RESULT:    -3.885      1.593      4.035
REMARK INTER + INTRA:          -6.773
REMARK INTER:                  -6.061
REMARK INTRA:                  -0.712
REMARK UNBOUND:                -0.844
REMARK SMILES O=C([O-])CCCCCCCCC(=O)[O-]
REMARK SMILES IDX 7 1 6 2 5 3 4 4 2 5 1 6 3 7 8 8 9 9 10 10 11 11 12 12 13 13
REMARK SMILES IDX 14 14
REMARK H PARENT
REMARK Flexibility Score: inf
ROOT
ATOM      1  C   UNL     1       2.056  50.281   0.105  1.00  0.00     0.000 C 
ENDROOT
BRANCH   1   2
ATOM      2  C   UNL     1       2.953  50.690   1.286  1.00  0.00     0.000 C 
BRANCH   2   3
ATOM      3  C   UNL     1       3.865  51.888   0.965  1.00  0.00     0.006 C 
BRANCH   3   4
ATOM      4  C   UNL     1       5.273  51.780   1.574  1.00  0.00     0.053 C 
BRANCH   4   5
ATOM      5  C   UNL     1       6.213  52.818   1.039  1.00  0.00     0.041 C 
ATOM      6  O   UNL     1       7.183  52.479   0.313  1.00  0.00    -0.550 OA
ATOM      7  O   UNL     1       6.037  54.156   1.372  1.00  0.00    -0.550 OA
ENDBRANCH   4   5
ENDBRANCH   3   4
ENDBRANCH   2   3
ENDBRANCH   1   2
BRANCH   1   8
ATOM      8  C   UNL     1       2.025  51.343  -1.006  1.00  0.00     0.000 C 
BRANCH   8   9
ATOM      9  C   UNL     1       2.204  50.735  -2.407  1.00  0.00     0.000 C 
BRANCH   9  10
ATOM     10  C   UNL     1       2.760  51.745  -3.428  1.00  0.00     0.006 C 
BRANCH  10  11
ATOM     11  C   UNL     1       4.220  51.490  -3.836  1.00  0.00     0.053 C 
BRANCH  11  12
ATOM     12  C   UNL     1       5.187  52.198  -2.938  1.00  0.00     0.041 C 
ATOM     13  O   UNL     1       6.390  51.828  -2.886  1.00  0.00    -0.550 OA
ATOM     14  O   UNL     1       4.769  53.290  -2.187  1.00  0.00    -0.550 OA
ENDBRANCH  11  12
ENDBRANCH  10  11
ENDBRANCH   9  10
ENDBRANCH   8   9
ENDBRANCH   1   8
TORSDOF 9
ENDMDL
