MODEL 1
REMARK VINA RESULT:    -2.908      0.000      0.000
REMARK INTER + INTRA:          -1.291
REMARK INTER:                  -3.928
REMARK INTRA:                   2.637
REMARK UNBOUND:                 2.637
REMARK SMILES O=c1c(-c2ccc(O)cc2)coc2c([C@@H]3O[C@@H](CO)[C@H](O)[C@@H](O)[C@@H]3O)c(O)ccc12
REMARK SMILES IDX 3 1 11 2 12 3 13 4 30 5 2 6 1 7 29 8 28 9 26 10 14 11 4 12
REMARK SMILES IDX 5 13 6 14 7 15 10 16 9 17 8 18 15 20 24 21 16 22 22 23 17 24
REMARK SMILES IDX 20 25 25 26 23 28 18 30 19 31 21 33 27 35
REMARK H PARENT 8 19 25 27 23 29 19 32 21 34 27 36
REMARK Flexibility Score: inf
ROOT
ATOM      1  C   UNL     1      21.330  19.588  29.854  1.00  0.00     0.065 A 
ATOM      2  C   UNL     1      22.410  20.248  30.455  1.00  0.00     0.208 A 
ATOM      3  O   UNL     1      22.458  21.572  30.512  1.00  0.00    -0.463 OA
ATOM      4  C   UNL     1      21.519  22.363  30.010  1.00  0.00     0.147 A 
ATOM      5  C   UNL     1      20.370  21.779  29.422  1.00  0.00     0.066 A 
ATOM      6  C   UNL     1      20.279  20.377  29.354  1.00  0.00     0.200 A 
ATOM      7  O   UNL     1      19.248  19.832  28.877  1.00  0.00    -0.288 OA
ATOM      8  C   UNL     1      19.343  22.602  28.945  1.00  0.00     0.020 A 
ATOM      9  C   UNL     1      19.428  23.981  29.087  1.00  0.00     0.047 A 
ATOM     10  C   UNL     1      20.546  24.575  29.680  1.00  0.00     0.125 A 
ATOM     11  C   UNL     1      21.658  23.780  30.085  1.00  0.00     0.069 A 
ENDROOT
BRANCH   1  12
ATOM     12  C   UNL     1      21.307  18.100  29.775  1.00  0.00    -0.011 A 
ATOM     13  C   UNL     1      20.398  17.446  28.923  1.00  0.00     0.013 A 
ATOM     14  C   UNL     1      20.353  16.051  28.875  1.00  0.00     0.047 A 
ATOM     15  C   UNL     1      21.219  15.287  29.669  1.00  0.00     0.115 A 
ATOM     16  C   UNL     1      22.169  17.326  30.574  1.00  0.00     0.013 A 
ATOM     17  C   UNL     1      22.127  15.928  30.515  1.00  0.00     0.047 A 
BRANCH  15  18
ATOM     18  O   UNL     1      21.170  13.896  29.632  1.00  0.00    -0.508 OA
ATOM     19  H   UNL     1      21.897  13.334  30.060  1.00  0.00     0.293 HD
ENDBRANCH  15  18
ENDBRANCH   1  12
BRANCH  11  20
ATOM     20  C   UNL     1      22.918  24.425  30.709  1.00  0.00     0.188 C 
ATOM     21  C   UNL     1      23.282  25.820  30.102  1.00  0.00     0.179 C 
ATOM     22  O   UNL     1      22.768  24.570  32.114  1.00  0.00    -0.362 OA
ATOM     23  C   UNL     1      24.394  26.527  30.927  1.00  0.00     0.177 C 
ATOM     24  C   UNL     1      23.957  24.935  32.812  1.00  0.00     0.176 C 
ATOM     25  C   UNL     1      25.061  25.570  31.931  1.00  0.00     0.177 C 
BRANCH  21  26
ATOM     26  O   UNL     1      22.148  26.654  30.061  1.00  0.00    -0.387 OA
ATOM     27  H   UNL     1      22.206  27.264  30.840  1.00  0.00     0.211 HD
ENDBRANCH  21  26
BRANCH  23  28
ATOM     28  O   UNL     1      25.344  27.125  30.083  1.00  0.00    -0.387 OA
ATOM     29  H   UNL     1      26.149  26.548  30.082  1.00  0.00     0.211 HD
ENDBRANCH  23  28
BRANCH  24  30
ATOM     30  C   UNL     1      24.485  23.752  33.641  1.00  0.00     0.191 C 
BRANCH  30  31
ATOM     31  O   UNL     1      25.856  23.563  33.396  1.00  0.00    -0.394 OA
ATOM     32  H   UNL     1      26.231  24.442  33.125  1.00  0.00     0.210 HD
ENDBRANCH  30  31
ENDBRANCH  24  30
BRANCH  25  33
ATOM     33  O   UNL     1      25.961  26.282  32.743  1.00  0.00    -0.388 OA
ATOM     34  H   UNL     1      25.946  25.853  33.640  1.00  0.00     0.211 HD
ENDBRANCH  25  33
ENDBRANCH  11  20
BRANCH  10  35
ATOM     35  O   UNL     1      20.526  25.951  29.883  1.00  0.00    -0.507 OA
ATOM     36  H   UNL     1      20.223  26.361  30.757  1.00  0.00     0.293 HD
ENDBRANCH  10  35
TORSDOF 9
ENDMDL
MODEL 2
REMARK VINA RESULT:    -2.851      1.069      2.127
REMARK INTER + INTRA:          -1.214
REMARK INTER:                  -2.909
REMARK INTRA:                   1.695
REMARK UNBOUND:                 2.637
REMARK SMILES O=c1c(-c2ccc(O)cc2)coc2c([C@@H]3O[C@@H](CO)[C@H](O)[C@@H](O)[C@@H]3O)c(O)ccc12
REMARK SMILES IDX 3 1 11 2 12 3 13 4 30 5 2 6 1 7 29 8 28 9 26 10 14 11 4 12
REMARK SMILES IDX 5 13 6 14 7 15 10 16 9 17 8 18 15 20 24 21 16 22 22 23 17 24
REMARK SMILES IDX 20 25 25 26 23 28 18 30 19 31 21 33 27 35
REMARK H PARENT 8 19 25 27 23 29 19 32 21 34 27 36
REMARK Flexibility Score: inf
ROOT
ATOM      1  C   UNL     1      21.385  19.159  30.184  1.00  0.00     0.065 A 
ATOM      2  C   UNL     1      22.384  19.708  30.999  1.00  0.00     0.208 A 
ATOM      3  O   UNL     1      22.512  21.020  31.136  1.00  0.00    -0.463 OA
ATOM      4  C   UNL     1      21.733  21.902  30.523  1.00  0.00     0.147 A 
ATOM      5  C   UNL     1      20.669  21.434  29.714  1.00  0.00     0.066 A 
ATOM      6  C   UNL     1      20.495  20.048  29.553  1.00  0.00     0.200 A 
ATOM      7  O   UNL     1      19.531  19.605  28.875  1.00  0.00    -0.288 OA
ATOM      8  C   UNL     1      19.802  22.353  29.112  1.00  0.00     0.020 A 
ATOM      9  C   UNL     1      19.955  23.714  29.343  1.00  0.00     0.047 A 
ATOM     10  C   UNL     1      20.988  24.194  30.153  1.00  0.00     0.125 A 
ATOM     11  C   UNL     1      21.954  23.300  30.700  1.00  0.00     0.069 A 
ENDROOT
BRANCH   1  12
ATOM     12  C   UNL     1      21.275  17.682  30.019  1.00  0.00    -0.011 A 
ATOM     13  C   UNL     1      20.343  17.133  29.119  1.00  0.00     0.013 A 
ATOM     14  C   UNL     1      20.216  15.748  28.991  1.00  0.00     0.047 A 
ATOM     15  C   UNL     1      21.020  14.890  29.752  1.00  0.00     0.115 A 
ATOM     16  C   UNL     1      22.074  16.813  30.785  1.00  0.00     0.013 A 
ATOM     17  C   UNL     1      21.949  15.427  30.646  1.00  0.00     0.047 A 
BRANCH  15  18
ATOM     18  O   UNL     1      20.888  13.508  29.636  1.00  0.00    -0.508 OA
ATOM     19  H   UNL     1      21.692  12.919  29.450  1.00  0.00     0.293 HD
ENDBRANCH  15  18
ENDBRANCH   1  12
BRANCH  11  20
ATOM     20  C   UNL     1      23.125  23.818  31.568  1.00  0.00     0.188 C 
ATOM     21  C   UNL     1      24.159  22.711  31.960  1.00  0.00     0.179 C 
ATOM     22  O   UNL     1      23.817  24.868  30.908  1.00  0.00    -0.362 OA
ATOM     23  C   UNL     1      25.429  23.326  32.612  1.00  0.00     0.177 C 
ATOM     24  C   UNL     1      24.760  25.568  31.717  1.00  0.00     0.176 C 
ATOM     25  C   UNL     1      25.228  24.806  32.981  1.00  0.00     0.177 C 
BRANCH  21  26
ATOM     26  O   UNL     1      24.544  21.969  30.828  1.00  0.00    -0.387 OA
ATOM     27  H   UNL     1      24.350  22.527  30.032  1.00  0.00     0.211 HD
ENDBRANCH  21  26
BRANCH  23  28
ATOM     28  O   UNL     1      25.839  22.573  33.725  1.00  0.00    -0.387 OA
ATOM     29  H   UNL     1      25.579  23.075  34.538  1.00  0.00     0.211 HD
ENDBRANCH  23  28
BRANCH  24  30
ATOM     30  C   UNL     1      24.250  26.982  32.047  1.00  0.00     0.191 C 
BRANCH  30  31
ATOM     31  O   UNL     1      24.085  27.125  33.435  1.00  0.00    -0.394 OA
ATOM     32  H   UNL     1      24.277  26.242  33.848  1.00  0.00     0.210 HD
ENDBRANCH  30  31
ENDBRANCH  24  30
BRANCH  25  33
ATOM     33  O   UNL     1      26.438  25.352  33.442  1.00  0.00    -0.388 OA
ATOM     34  H   UNL     1      26.237  25.833  34.289  1.00  0.00     0.211 HD
ENDBRANCH  25  33
ENDBRANCH  11  20
BRANCH  10  35
ATOM     35  O   UNL     1      21.027  25.558  30.425  1.00  0.00    -0.507 OA
ATOM     36  H   UNL     1      21.604  25.943  31.162  1.00  0.00     0.293 HD
ENDBRANCH  10  35
TORSDOF 9
ENDMDL
MODEL 3
REMARK VINA RESULT:    -0.826      1.727      4.051
REMARK INTER + INTRA:           1.522
REMARK INTER:                   2.139
REMARK INTRA:                  -0.617
REMARK UNBOUND:                 2.637
REMARK SMILES O=c1c(-c2ccc(O)cc2)coc2c([C@@H]3O[C@@H](CO)[C@H](O)[C@@H](O)[C@@H]3O)c(O)ccc12
REMARK SMILES IDX 3 1 11 2 12 3 13 4 30 5 2 6 1 7 29 8 28 9 26 10 14 11 4 12
REMARK SMILES IDX 5 13 6 14 7 15 10 16 9 17 8 18 15 20 24 21 16 22 22 23 17 24
REMARK SMILES IDX 20 25 25 26 23 28 18 30 19 31 21 33 27 35
REMARK H PARENT 8 19 25 27 23 29 19 32 21 34 27 36
REMARK Flexibility Score: inf
ROOT
ATOM      1  C   UNL     1      22.079  18.951  30.460  1.00  0.00     0.065 A 
ATOM      2  C   UNL     1      21.309  19.938  29.829  1.00  0.00     0.208 A 
ATOM      3  O   UNL     1      21.546  21.227  30.032  1.00  0.00    -0.463 OA
ATOM      4  C   UNL     1      22.500  21.680  30.835  1.00  0.00     0.147 A 
ATOM      5  C   UNL     1      23.354  20.752  31.480  1.00  0.00     0.066 A 
ATOM      6  C   UNL     1      23.140  19.377  31.279  1.00  0.00     0.200 A 
ATOM      7  O   UNL     1      23.913  18.532  31.805  1.00  0.00    -0.288 OA
ATOM      8  C   UNL     1      24.404  21.219  32.279  1.00  0.00     0.020 A 
ATOM      9  C   UNL     1      24.635  22.582  32.406  1.00  0.00     0.047 A 
ATOM     10  C   UNL     1      23.813  23.513  31.763  1.00  0.00     0.125 A 
ATOM     11  C   UNL     1      22.673  23.083  31.024  1.00  0.00     0.069 A 
ENDROOT
BRANCH   1  12
ATOM     12  C   UNL     1      21.779  17.509  30.241  1.00  0.00    -0.011 A 
ATOM     13  C   UNL     1      22.280  16.840  29.109  1.00  0.00     0.013 A 
ATOM     14  C   UNL     1      21.969  15.496  28.887  1.00  0.00     0.047 A 
ATOM     15  C   UNL     1      21.161  14.797  29.793  1.00  0.00     0.115 A 
ATOM     16  C   UNL     1      20.963  16.801  31.144  1.00  0.00     0.013 A 
ATOM     17  C   UNL     1      20.663  15.452  30.921  1.00  0.00     0.047 A 
BRANCH  15  18
ATOM     18  O   UNL     1      20.840  13.461  29.569  1.00  0.00    -0.508 OA
ATOM     19  H   UNL     1      20.023  13.201  29.028  1.00  0.00     0.293 HD
ENDBRANCH  15  18
ENDBRANCH   1  12
BRANCH  11  20
ATOM     20  C   UNL     1      21.732  24.101  30.337  1.00  0.00     0.188 C 
ATOM     21  C   UNL     1      20.223  23.920  30.711  1.00  0.00     0.179 C 
ATOM     22  O   UNL     1      22.117  25.433  30.647  1.00  0.00    -0.362 OA
ATOM     23  C   UNL     1      19.364  25.109  30.198  1.00  0.00     0.177 C 
ATOM     24  C   UNL     1      21.462  26.441  29.880  1.00  0.00     0.176 C 
ATOM     25  C   UNL     1      20.141  25.995  29.207  1.00  0.00     0.177 C 
BRANCH  21  26
ATOM     26  O   UNL     1      20.067  23.816  32.106  1.00  0.00    -0.387 OA
ATOM     27  H   UNL     1      20.534  22.990  32.392  1.00  0.00     0.211 HD
ENDBRANCH  21  26
BRANCH  23  28
ATOM     28  O   UNL     1      18.158  24.655  29.639  1.00  0.00    -0.387 OA
ATOM     29  H   UNL     1      18.000  25.169  28.809  1.00  0.00     0.211 HD
ENDBRANCH  23  28
BRANCH  24  30
ATOM     30  C   UNL     1      22.438  27.079  28.876  1.00  0.00     0.191 C 
BRANCH  30  31
ATOM     31  O   UNL     1      23.765  26.827  29.264  1.00  0.00    -0.394 OA
ATOM     32  H   UNL     1      24.174  26.252  28.565  1.00  0.00     0.210 HD
ENDBRANCH  30  31
ENDBRANCH  24  30
BRANCH  25  33
ATOM     33  O   UNL     1      19.374  27.125  28.875  1.00  0.00    -0.388 OA
ATOM     34  H   UNL     1      19.614  27.375  27.943  1.00  0.00     0.211 HD
ENDBRANCH  25  33
ENDBRANCH  11  20
BRANCH  10  35
ATOM     35  O   UNL     1      24.157  24.859  31.847  1.00  0.00    -0.507 OA
ATOM     36  H   UNL     1      23.492  25.597  31.655  1.00  0.00     0.293 HD
ENDBRANCH  10  35
TORSDOF 9
ENDMDL
