MODEL 1
REMARK VINA RESULT:    -8.219      0.000      0.000
REMARK INTER + INTRA:          -9.674
REMARK INTER:                  -9.660
REMARK INTRA:                  -0.014
REMARK UNBOUND:                -0.014
REMARK SMILES O=c1c(O)c(-c2ccc(O)c(O)c2)oc2cc(O)ccc12
REMARK SMILES IDX 5 1 3 2 2 3 1 4 21 5 15 6 14 7 16 8 17 9 19 10 20 11 6 12
REMARK SMILES IDX 7 13 8 14 9 15 13 16 11 17 10 18 12 20 4 22 18 24
REMARK H PARENT 10 19 12 21 4 23 18 25
REMARK Flexibility Score: inf
ROOT
ATOM      1  C   UNL     1     -32.500   5.554   1.351  1.00  0.00     0.180 A 
ATOM      2  C   UNL     1     -31.752   4.515   0.761  1.00  0.00     0.208 A 
ATOM      3  C   UNL     1     -30.369   4.687   0.593  1.00  0.00     0.235 A 
ATOM      4  O   UNL     1     -29.680   3.776   0.057  1.00  0.00    -0.285 OA
ATOM      5  C   UNL     1     -29.764   5.876   1.032  1.00  0.00     0.069 A 
ATOM      6  C   UNL     1     -30.578   6.859   1.634  1.00  0.00     0.142 A 
ATOM      7  O   UNL     1     -31.885   6.659   1.767  1.00  0.00    -0.452 OA
ATOM      8  C   UNL     1     -30.010   8.052   2.094  1.00  0.00     0.094 A 
ATOM      9  C   UNL     1     -28.638   8.279   1.957  1.00  0.00     0.119 A 
ATOM     10  C   UNL     1     -27.826   7.305   1.358  1.00  0.00     0.047 A 
ATOM     11  C   UNL     1     -28.384   6.109   0.897  1.00  0.00     0.020 A 
ENDROOT
BRANCH   1  12
ATOM     12  C   UNL     1     -33.965   5.456   1.547  1.00  0.00     0.025 A 
ATOM     13  C   UNL     1     -34.832   6.460   1.086  1.00  0.00     0.016 A 
ATOM     14  C   UNL     1     -36.208   6.356   1.302  1.00  0.00     0.051 A 
ATOM     15  C   UNL     1     -36.742   5.263   1.992  1.00  0.00     0.157 A 
ATOM     16  C   UNL     1     -34.496   4.370   2.257  1.00  0.00     0.062 A 
ATOM     17  C   UNL     1     -35.875   4.258   2.480  1.00  0.00     0.158 A 
BRANCH  15  18
ATOM     18  O   UNL     1     -38.127   5.218   2.172  1.00  0.00    -0.504 OA
ATOM     19  H   UNL     1     -38.589   5.410   3.049  1.00  0.00     0.293 HD
ENDBRANCH  15  18
BRANCH  17  20
ATOM     20  O   UNL     1     -36.333   3.143   3.184  1.00  0.00    -0.504 OA
ATOM     21  H   UNL     1     -36.141   2.188   2.918  1.00  0.00     0.293 HD
ENDBRANCH  17  20
ENDBRANCH   1  12
BRANCH   2  22
ATOM     22  O   UNL     1     -32.374   3.324   0.380  1.00  0.00    -0.502 OA
ATOM     23  H   UNL     1     -32.681   3.152  -0.571  1.00  0.00     0.293 HD
ENDBRANCH   2  22
BRANCH   9  24
ATOM     24  O   UNL     1     -28.089   9.473   2.419  1.00  0.00    -0.508 OA
ATOM     25  H   UNL     1     -27.185   9.499   2.877  1.00  0.00     0.293 HD
ENDBRANCH   9  24
TORSDOF 5
ENDMDL
MODEL 2
REMARK VINA RESULT:    -7.735      2.039      6.483
REMARK INTER + INTRA:          -9.106
REMARK INTER:                  -8.789
REMARK INTRA:                  -0.317
REMARK UNBOUND:                -0.014
REMARK SMILES O=c1c(O)c(-c2ccc(O)c(O)c2)oc2cc(O)ccc12
REMARK SMILES IDX 5 1 3 2 2 3 1 4 21 5 15 6 14 7 16 8 17 9 19 10 20 11 6 12
REMARK SMILES IDX 7 13 8 14 9 15 13 16 11 17 10 18 12 20 4 22 18 24
REMARK H PARENT 10 19 12 21 4 23 18 25
REMARK Flexibility Score: inf
ROOT
ATOM      1  C   UNL     1     -31.599   5.406   0.492  1.00  0.00     0.180 A 
ATOM      2  C   UNL     1     -32.188   4.125   0.494  1.00  0.00     0.208 A 
ATOM      3  C   UNL     1     -33.492   3.979   0.993  1.00  0.00     0.235 A 
ATOM      4  O   UNL     1     -34.035   2.840   1.015  1.00  0.00    -0.285 OA
ATOM      5  C   UNL     1     -34.183   5.109   1.457  1.00  0.00     0.069 A 
ATOM      6  C   UNL     1     -33.533   6.361   1.400  1.00  0.00     0.142 A 
ATOM      7  O   UNL     1     -32.295   6.455   0.928  1.00  0.00    -0.452 OA
ATOM      8  C   UNL     1     -34.193   7.513   1.843  1.00  0.00     0.094 A 
ATOM      9  C   UNL     1     -35.495   7.430   2.347  1.00  0.00     0.119 A 
ATOM     10  C   UNL     1     -36.142   6.188   2.407  1.00  0.00     0.047 A 
ATOM     11  C   UNL     1     -35.492   5.033   1.965  1.00  0.00     0.020 A 
ENDROOT
BRANCH   1  12
ATOM     12  C   UNL     1     -30.222   5.639  -0.000  1.00  0.00     0.025 A 
ATOM     13  C   UNL     1     -29.971   5.956  -1.344  1.00  0.00     0.016 A 
ATOM     14  C   UNL     1     -28.661   6.150  -1.790  1.00  0.00     0.051 A 
ATOM     15  C   UNL     1     -27.581   6.017  -0.912  1.00  0.00     0.157 A 
ATOM     16  C   UNL     1     -29.139   5.484   0.878  1.00  0.00     0.062 A 
ATOM     17  C   UNL     1     -27.822   5.675   0.440  1.00  0.00     0.158 A 
BRANCH  15  18
ATOM     18  O   UNL     1     -26.297   6.226  -1.421  1.00  0.00    -0.504 OA
ATOM     19  H   UNL     1     -25.851   7.131  -1.472  1.00  0.00     0.293 HD
ENDBRANCH  15  18
BRANCH  17  20
ATOM     20  O   UNL     1     -26.795   5.516   1.372  1.00  0.00    -0.504 OA
ATOM     21  H   UNL     1     -26.248   4.672   1.472  1.00  0.00     0.293 HD
ENDBRANCH  17  20
ENDBRANCH   1  12
BRANCH   2  22
ATOM     22  O   UNL     1     -31.493   3.027  -0.020  1.00  0.00    -0.502 OA
ATOM     23  H   UNL     1     -31.341   2.898  -1.013  1.00  0.00     0.293 HD
ENDBRANCH   2  22
BRANCH   9  24
ATOM     24  O   UNL     1     -36.137   8.586   2.785  1.00  0.00    -0.508 OA
ATOM     25  H   UNL     1     -36.182   9.419   2.209  1.00  0.00     0.293 HD
ENDBRANCH   9  24
TORSDOF 5
ENDMDL
MODEL 3
REMARK VINA RESULT:    -7.730      1.629      6.741
REMARK INTER + INTRA:          -9.100
REMARK INTER:                  -9.075
REMARK INTRA:                  -0.025
REMARK UNBOUND:                -0.014
REMARK SMILES O=c1c(O)c(-c2ccc(O)c(O)c2)oc2cc(O)ccc12
REMARK SMILES IDX 5 1 3 2 2 3 1 4 21 5 15 6 14 7 16 8 17 9 19 10 20 11 6 12
REMARK SMILES IDX 7 13 8 14 9 15 13 16 11 17 10 18 12 20 4 22 18 24
REMARK H PARENT 10 19 12 21 4 23 18 25
REMARK Flexibility Score: inf
ROOT
ATOM      1  C   UNL     1     -30.946   6.816   1.185  1.00  0.00     0.180 A 
ATOM      2  C   UNL     1     -31.054   5.471   0.776  1.00  0.00     0.208 A 
ATOM      3  C   UNL     1     -32.305   4.839   0.851  1.00  0.00     0.235 A 
ATOM      4  O   UNL     1     -32.424   3.632   0.501  1.00  0.00    -0.285 OA
ATOM      5  C   UNL     1     -33.417   5.562   1.311  1.00  0.00     0.069 A 
ATOM      6  C   UNL     1     -33.231   6.912   1.680  1.00  0.00     0.142 A 
ATOM      7  O   UNL     1     -32.029   7.471   1.601  1.00  0.00    -0.452 OA
ATOM      8  C   UNL     1     -34.317   7.669   2.132  1.00  0.00     0.094 A 
ATOM      9  C   UNL     1     -35.588   7.094   2.226  1.00  0.00     0.119 A 
ATOM     10  C   UNL     1     -35.776   5.753   1.862  1.00  0.00     0.047 A 
ATOM     11  C   UNL     1     -34.698   4.989   1.407  1.00  0.00     0.020 A 
ENDROOT
BRANCH   1  12
ATOM     12  C   UNL     1     -29.659   7.548   1.153  1.00  0.00     0.025 A 
ATOM     13  C   UNL     1     -28.883   7.610  -0.015  1.00  0.00     0.016 A 
ATOM     14  C   UNL     1     -27.661   8.287  -0.015  1.00  0.00     0.051 A 
ATOM     15  C   UNL     1     -27.185   8.900   1.149  1.00  0.00     0.157 A 
ATOM     16  C   UNL     1     -29.173   8.143   2.326  1.00  0.00     0.062 A 
ATOM     17  C   UNL     1     -27.949   8.824   2.337  1.00  0.00     0.158 A 
BRANCH  15  18
ATOM     18  O   UNL     1     -25.957   9.564   1.081  1.00  0.00    -0.504 OA
ATOM     19  H   UNL     1     -25.656  10.113   0.288  1.00  0.00     0.293 HD
ENDBRANCH  15  18
BRANCH  17  20
ATOM     20  O   UNL     1     -27.534   9.403   3.538  1.00  0.00    -0.504 OA
ATOM     21  H   UNL     1     -27.552   8.928   4.430  1.00  0.00     0.293 HD
ENDBRANCH  17  20
ENDBRANCH   1  12
BRANCH   2  22
ATOM     22  O   UNL     1     -29.940   4.792   0.276  1.00  0.00    -0.502 OA
ATOM     23  H   UNL     1     -29.029   5.229   0.200  1.00  0.00     0.293 HD
ENDBRANCH   2  22
BRANCH   9  24
ATOM     24  O   UNL     1     -36.659   7.861   2.679  1.00  0.00    -0.508 OA
ATOM     25  H   UNL     1     -36.587   8.430   3.515  1.00  0.00     0.293 HD
ENDBRANCH   9  24
TORSDOF 5
ENDMDL
MODEL 4
REMARK VINA RESULT:    -7.699      1.788      2.171
REMARK INTER + INTRA:          -9.063
REMARK INTER:                  -9.045
REMARK INTRA:                  -0.017
REMARK UNBOUND:                -0.014
REMARK SMILES O=c1c(O)c(-c2ccc(O)c(O)c2)oc2cc(O)ccc12
REMARK SMILES IDX 5 1 3 2 2 3 1 4 21 5 15 6 14 7 16 8 17 9 19 10 20 11 6 12
REMARK SMILES IDX 7 13 8 14 9 15 13 16 11 17 10 18 12 20 4 22 18 24
REMARK H PARENT 10 19 12 21 4 23 18 25
REMARK Flexibility Score: inf
ROOT
ATOM      1  C   UNL     1     -31.266   6.783   1.456  1.00  0.00     0.180 A 
ATOM      2  C   UNL     1     -30.667   5.556   1.105  1.00  0.00     0.208 A 
ATOM      3  C   UNL     1     -29.285   5.523   0.862  1.00  0.00     0.235 A 
ATOM      4  O   UNL     1     -28.728   4.439   0.535  1.00  0.00    -0.285 OA
ATOM      5  C   UNL     1     -28.532   6.701   0.994  1.00  0.00     0.069 A 
ATOM      6  C   UNL     1     -29.203   7.884   1.372  1.00  0.00     0.142 A 
ATOM      7  O   UNL     1     -30.514   7.875   1.585  1.00  0.00    -0.452 OA
ATOM      8  C   UNL     1     -28.486   9.076   1.525  1.00  0.00     0.094 A 
ATOM      9  C   UNL     1     -27.106   9.103   1.301  1.00  0.00     0.119 A 
ATOM     10  C   UNL     1     -26.437   7.930   0.923  1.00  0.00     0.047 A 
ATOM     11  C   UNL     1     -27.145   6.734   0.770  1.00  0.00     0.020 A 
ENDROOT
BRANCH   1  12
ATOM     12  C   UNL     1     -32.720   6.905   1.710  1.00  0.00     0.025 A 
ATOM     13  C   UNL     1     -33.210   7.420   2.921  1.00  0.00     0.016 A 
ATOM     14  C   UNL     1     -34.586   7.504   3.146  1.00  0.00     0.051 A 
ATOM     15  C   UNL     1     -35.496   7.065   2.179  1.00  0.00     0.157 A 
ATOM     16  C   UNL     1     -33.631   6.444   0.748  1.00  0.00     0.062 A 
ATOM     17  C   UNL     1     -35.012   6.524   0.965  1.00  0.00     0.158 A 
BRANCH  15  18
ATOM     18  O   UNL     1     -36.859   7.180   2.466  1.00  0.00    -0.504 OA
ATOM     19  H   UNL     1     -37.503   6.403   2.461  1.00  0.00     0.293 HD
ENDBRANCH  15  18
BRANCH  17  20
ATOM     20  O   UNL     1     -35.859   6.057  -0.042  1.00  0.00    -0.504 OA
ATOM     21  H   UNL     1     -35.983   6.515  -0.934  1.00  0.00     0.293 HD
ENDBRANCH  17  20
ENDBRANCH   1  12
BRANCH   2  22
ATOM     22  O   UNL     1     -31.433   4.391   1.029  1.00  0.00    -0.502 OA
ATOM     23  H   UNL     1     -31.062   3.520   0.670  1.00  0.00     0.293 HD
ENDBRANCH   2  22
BRANCH   9  24
ATOM     24  O   UNL     1     -26.408  10.298   1.456  1.00  0.00    -0.508 OA
ATOM     25  H   UNL     1     -25.761  10.439   2.223  1.00  0.00     0.293 HD
ENDBRANCH   9  24
TORSDOF 5
ENDMDL
MODEL 5
REMARK VINA RESULT:    -7.695      1.119      1.626
REMARK INTER + INTRA:          -9.059
REMARK INTER:                  -9.519
REMARK INTRA:                   0.460
REMARK UNBOUND:                -0.014
REMARK SMILES O=c1c(O)c(-c2ccc(O)c(O)c2)oc2cc(O)ccc12
REMARK SMILES IDX 5 1 3 2 2 3 1 4 21 5 15 6 14 7 16 8 17 9 19 10 20 11 6 12
REMARK SMILES IDX 7 13 8 14 9 15 13 16 11 17 10 18 12 20 4 22 18 24
REMARK H PARENT 10 19 12 21 4 23 18 25
REMARK Flexibility Score: inf
ROOT
ATOM      1  C   UNL     1     -32.122   6.030   1.403  1.00  0.00     0.180 A 
ATOM      2  C   UNL     1     -31.439   4.910   0.886  1.00  0.00     0.208 A 
ATOM      3  C   UNL     1     -30.047   4.984   0.717  1.00  0.00     0.235 A 
ATOM      4  O   UNL     1     -29.416   3.998   0.245  1.00  0.00    -0.285 OA
ATOM      5  C   UNL     1     -29.369   6.157   1.084  1.00  0.00     0.069 A 
ATOM      6  C   UNL     1     -30.121   7.226   1.616  1.00  0.00     0.142 A 
ATOM      7  O   UNL     1     -31.439   7.119   1.753  1.00  0.00    -0.452 OA
ATOM      8  C   UNL     1     -29.480   8.408   2.004  1.00  0.00     0.094 A 
ATOM      9  C   UNL     1     -28.095   8.538   1.863  1.00  0.00     0.119 A 
ATOM     10  C   UNL     1     -27.345   7.479   1.333  1.00  0.00     0.047 A 
ATOM     11  C   UNL     1     -27.976   6.294   0.945  1.00  0.00     0.020 A 
ENDROOT
BRANCH   1  12
ATOM     12  C   UNL     1     -33.590   6.038   1.594  1.00  0.00     0.025 A 
ATOM     13  C   UNL     1     -34.383   4.947   1.206  1.00  0.00     0.016 A 
ATOM     14  C   UNL     1     -35.769   4.986   1.376  1.00  0.00     0.051 A 
ATOM     15  C   UNL     1     -36.390   6.116   1.918  1.00  0.00     0.157 A 
ATOM     16  C   UNL     1     -34.213   7.181   2.118  1.00  0.00     0.062 A 
ATOM     17  C   UNL     1     -35.602   7.230   2.291  1.00  0.00     0.158 A 
BRANCH  15  18
ATOM     18  O   UNL     1     -37.779   6.091   2.063  1.00  0.00    -0.504 OA
ATOM     19  H   UNL     1     -38.413   6.666   1.528  1.00  0.00     0.293 HD
ENDBRANCH  15  18
BRANCH  17  20
ATOM     20  O   UNL     1     -36.151   8.396   2.829  1.00  0.00    -0.504 OA
ATOM     21  H   UNL     1     -37.136   8.620   2.805  1.00  0.00     0.293 HD
ENDBRANCH  17  20
ENDBRANCH   1  12
BRANCH   2  22
ATOM     22  O   UNL     1     -32.135   3.739   0.576  1.00  0.00    -0.502 OA
ATOM     23  H   UNL     1     -32.724   3.659  -0.244  1.00  0.00     0.293 HD
ENDBRANCH   2  22
BRANCH   9  24
ATOM     24  O   UNL     1     -27.473   9.722   2.253  1.00  0.00    -0.508 OA
ATOM     25  H   UNL     1     -27.666  10.601   1.787  1.00  0.00     0.293 HD
ENDBRANCH   9  24
TORSDOF 5
ENDMDL
MODEL 6
REMARK VINA RESULT:    -7.676      2.248      7.444
REMARK INTER + INTRA:          -9.036
REMARK INTER:                  -8.927
REMARK INTRA:                  -0.109
REMARK UNBOUND:                -0.014
REMARK SMILES O=c1c(O)c(-c2ccc(O)c(O)c2)oc2cc(O)ccc12
REMARK SMILES IDX 5 1 3 2 2 3 1 4 21 5 15 6 14 7 16 8 17 9 19 10 20 11 6 12
REMARK SMILES IDX 7 13 8 14 9 15 13 16 11 17 10 18 12 20 4 22 18 24
REMARK H PARENT 10 19 12 21 4 23 18 25
REMARK Flexibility Score: inf
ROOT
ATOM      1  C   UNL     1     -30.275   7.325   1.814  1.00  0.00     0.180 A 
ATOM      2  C   UNL     1     -30.536   7.783   3.122  1.00  0.00     0.208 A 
ATOM      3  C   UNL     1     -31.864   7.819   3.574  1.00  0.00     0.235 A 
ATOM      4  O   UNL     1     -32.123   8.236   4.737  1.00  0.00    -0.285 OA
ATOM      5  C   UNL     1     -32.894   7.382   2.727  1.00  0.00     0.069 A 
ATOM      6  C   UNL     1     -32.549   6.916   1.440  1.00  0.00     0.142 A 
ATOM      7  O   UNL     1     -31.279   6.905   1.047  1.00  0.00    -0.452 OA
ATOM      8  C   UNL     1     -33.546   6.461   0.570  1.00  0.00     0.094 A 
ATOM      9  C   UNL     1     -34.886   6.470   0.967  1.00  0.00     0.119 A 
ATOM     10  C   UNL     1     -35.233   6.935   2.243  1.00  0.00     0.047 A 
ATOM     11  C   UNL     1     -34.244   7.389   3.120  1.00  0.00     0.020 A 
ENDROOT
BRANCH   1  12
ATOM     12  C   UNL     1     -28.904   7.273   1.257  1.00  0.00     0.025 A 
ATOM     13  C   UNL     1     -28.314   6.057   0.881  1.00  0.00     0.016 A 
ATOM     14  C   UNL     1     -27.011   6.031   0.378  1.00  0.00     0.051 A 
ATOM     15  C   UNL     1     -26.269   7.211   0.255  1.00  0.00     0.157 A 
ATOM     16  C   UNL     1     -28.155   8.455   1.154  1.00  0.00     0.062 A 
ATOM     17  C   UNL     1     -26.847   8.439   0.652  1.00  0.00     0.158 A 
BRANCH  15  18
ATOM     18  O   UNL     1     -24.973   7.116  -0.258  1.00  0.00    -0.504 OA
ATOM     19  H   UNL     1     -24.520   6.244  -0.487  1.00  0.00     0.293 HD
ENDBRANCH  15  18
BRANCH  17  20
ATOM     20  O   UNL     1     -26.166   9.655   0.568  1.00  0.00    -0.504 OA
ATOM     21  H   UNL     1     -25.739  10.119   1.356  1.00  0.00     0.293 HD
ENDBRANCH  17  20
ENDBRANCH   1  12
BRANCH   2  22
ATOM     22  O   UNL     1     -29.486   8.165   3.960  1.00  0.00    -0.502 OA
ATOM     23  H   UNL     1     -29.642   8.591   4.866  1.00  0.00     0.293 HD
ENDBRANCH   2  22
BRANCH   9  24
ATOM     24  O   UNL     1     -35.867   6.015   0.088  1.00  0.00    -0.508 OA
ATOM     25  H   UNL     1     -35.632   5.666  -0.834  1.00  0.00     0.293 HD
ENDBRANCH   9  24
TORSDOF 5
ENDMDL
MODEL 7
REMARK VINA RESULT:    -7.531      1.861      2.781
REMARK INTER + INTRA:          -8.866
REMARK INTER:                  -8.563
REMARK INTRA:                  -0.303
REMARK UNBOUND:                -0.014
REMARK SMILES O=c1c(O)c(-c2ccc(O)c(O)c2)oc2cc(O)ccc12
REMARK SMILES IDX 5 1 3 2 2 3 1 4 21 5 15 6 14 7 16 8 17 9 19 10 20 11 6 12
REMARK SMILES IDX 7 13 8 14 9 15 13 16 11 17 10 18 12 20 4 22 18 24
REMARK H PARENT 10 19 12 21 4 23 18 25
REMARK Flexibility Score: inf
ROOT
ATOM      1  C   UNL     1     -32.714   6.965   2.272  1.00  0.00     0.180 A 
ATOM      2  C   UNL     1     -32.143   7.462   3.462  1.00  0.00     0.208 A 
ATOM      3  C   UNL     1     -30.798   7.863   3.452  1.00  0.00     0.235 A 
ATOM      4  O   UNL     1     -30.263   8.301   4.508  1.00  0.00    -0.285 OA
ATOM      5  C   UNL     1     -30.062   7.779   2.260  1.00  0.00     0.069 A 
ATOM      6  C   UNL     1     -30.712   7.292   1.105  1.00  0.00     0.142 A 
ATOM      7  O   UNL     1     -31.985   6.915   1.159  1.00  0.00    -0.452 OA
ATOM      8  C   UNL     1     -30.015   7.204  -0.105  1.00  0.00     0.094 A 
ATOM      9  C   UNL     1     -28.674   7.592  -0.177  1.00  0.00     0.119 A 
ATOM     10  C   UNL     1     -28.024   8.074   0.968  1.00  0.00     0.047 A 
ATOM     11  C   UNL     1     -28.713   8.168   2.181  1.00  0.00     0.020 A 
ENDROOT
BRANCH   1  12
ATOM     12  C   UNL     1     -34.119   6.505   2.206  1.00  0.00     0.025 A 
ATOM     13  C   UNL     1     -35.177   7.411   2.022  1.00  0.00     0.016 A 
ATOM     14  C   UNL     1     -36.496   6.955   1.985  1.00  0.00     0.051 A 
ATOM     15  C   UNL     1     -36.788   5.597   2.144  1.00  0.00     0.157 A 
ATOM     16  C   UNL     1     -34.411   5.145   2.387  1.00  0.00     0.062 A 
ATOM     17  C   UNL     1     -35.732   4.679   2.352  1.00  0.00     0.158 A 
BRANCH  15  18
ATOM     18  O   UNL     1     -38.129   5.207   2.094  1.00  0.00    -0.504 OA
ATOM     19  H   UNL     1     -38.601   4.715   2.838  1.00  0.00     0.293 HD
ENDBRANCH  15  18
BRANCH  17  20
ATOM     20  O   UNL     1     -35.946   3.311   2.529  1.00  0.00    -0.504 OA
ATOM     21  H   UNL     1     -35.221   2.653   2.781  1.00  0.00     0.293 HD
ENDBRANCH  17  20
ENDBRANCH   1  12
BRANCH   2  22
ATOM     22  O   UNL     1     -32.915   7.580   4.620  1.00  0.00    -0.502 OA
ATOM     23  H   UNL     1     -32.521   7.875   5.506  1.00  0.00     0.293 HD
ENDBRANCH   2  22
BRANCH   9  24
ATOM     24  O   UNL     1     -27.994   7.496  -1.389  1.00  0.00    -0.508 OA
ATOM     25  H   UNL     1     -27.545   6.636  -1.679  1.00  0.00     0.293 HD
ENDBRANCH   9  24
TORSDOF 5
ENDMDL
MODEL 8
REMARK VINA RESULT:    -7.527      2.420      7.495
REMARK INTER + INTRA:          -8.861
REMARK INTER:                  -8.667
REMARK INTRA:                  -0.194
REMARK UNBOUND:                -0.014
REMARK SMILES O=c1c(O)c(-c2ccc(O)c(O)c2)oc2cc(O)ccc12
REMARK SMILES IDX 5 1 3 2 2 3 1 4 21 5 15 6 14 7 16 8 17 9 19 10 20 11 6 12
REMARK SMILES IDX 7 13 8 14 9 15 13 16 11 17 10 18 12 20 4 22 18 24
REMARK H PARENT 10 19 12 21 4 23 18 25
REMARK Flexibility Score: inf
ROOT
ATOM      1  C   UNL     1     -29.758   7.421   1.686  1.00  0.00     0.180 A 
ATOM      2  C   UNL     1     -30.420   7.641   2.912  1.00  0.00     0.208 A 
ATOM      3  C   UNL     1     -31.756   7.231   3.043  1.00  0.00     0.235 A 
ATOM      4  O   UNL     1     -32.372   7.427   4.126  1.00  0.00    -0.285 OA
ATOM      5  C   UNL     1     -32.393   6.598   1.964  1.00  0.00     0.069 A 
ATOM      6  C   UNL     1     -31.655   6.393   0.778  1.00  0.00     0.142 A 
ATOM      7  O   UNL     1     -30.394   6.803   0.692  1.00  0.00    -0.452 OA
ATOM      8  C   UNL     1     -32.251   5.756  -0.316  1.00  0.00     0.094 A 
ATOM      9  C   UNL     1     -33.578   5.322  -0.243  1.00  0.00     0.119 A 
ATOM     10  C   UNL     1     -34.315   5.526   0.933  1.00  0.00     0.047 A 
ATOM     11  C   UNL     1     -33.727   6.160   2.032  1.00  0.00     0.020 A 
ENDROOT
BRANCH   1  12
ATOM     12  C   UNL     1     -28.356   7.839   1.462  1.00  0.00     0.025 A 
ATOM     13  C   UNL     1     -27.991   9.195   1.454  1.00  0.00     0.016 A 
ATOM     14  C   UNL     1     -26.665   9.567   1.219  1.00  0.00     0.051 A 
ATOM     15  C   UNL     1     -25.685   8.599   0.973  1.00  0.00     0.157 A 
ATOM     16  C   UNL     1     -27.379   6.869   1.195  1.00  0.00     0.062 A 
ATOM     17  C   UNL     1     -26.047   7.232   0.957  1.00  0.00     0.158 A 
BRANCH  15  18
ATOM     18  O   UNL     1     -24.377   9.038   0.748  1.00  0.00    -0.504 OA
ATOM     19  H   UNL     1     -23.590   8.420   0.615  1.00  0.00     0.293 HD
ENDBRANCH  15  18
BRANCH  17  20
ATOM     20  O   UNL     1     -25.127   6.212   0.711  1.00  0.00    -0.504 OA
ATOM     21  H   UNL     1     -25.196   5.282   1.100  1.00  0.00     0.293 HD
ENDBRANCH  17  20
ENDBRANCH   1  12
BRANCH   2  22
ATOM     22  O   UNL     1     -29.745   8.229   3.984  1.00  0.00    -0.502 OA
ATOM     23  H   UNL     1     -28.745   8.132   4.114  1.00  0.00     0.293 HD
ENDBRANCH   2  22
BRANCH   9  24
ATOM     24  O   UNL     1     -34.156   4.691  -1.341  1.00  0.00    -0.508 OA
ATOM     25  H   UNL     1     -34.534   3.753  -1.275  1.00  0.00     0.293 HD
ENDBRANCH   9  24
TORSDOF 5
ENDMDL
MODEL 9
REMARK VINA RESULT:    -7.485      2.119      7.249
REMARK INTER + INTRA:          -8.812
REMARK INTER:                  -8.862
REMARK INTRA:                   0.050
REMARK UNBOUND:                -0.014
REMARK SMILES O=c1c(O)c(-c2ccc(O)c(O)c2)oc2cc(O)ccc12
REMARK SMILES IDX 5 1 3 2 2 3 1 4 21 5 15 6 14 7 16 8 17 9 19 10 20 11 6 12
REMARK SMILES IDX 7 13 8 14 9 15 13 16 11 17 10 18 12 20 4 22 18 24
REMARK H PARENT 10 19 12 21 4 23 18 25
REMARK Flexibility Score: inf
ROOT
ATOM      1  C   UNL     1     -29.427   7.090   1.295  1.00  0.00     0.180 A 
ATOM      2  C   UNL     1     -29.489   5.740   0.894  1.00  0.00     0.208 A 
ATOM      3  C   UNL     1     -30.716   5.064   0.982  1.00  0.00     0.235 A 
ATOM      4  O   UNL     1     -30.794   3.852   0.640  1.00  0.00    -0.285 OA
ATOM      5  C   UNL     1     -31.851   5.750   1.444  1.00  0.00     0.069 A 
ATOM      6  C   UNL     1     -31.711   7.107   1.805  1.00  0.00     0.142 A 
ATOM      7  O   UNL     1     -30.529   7.708   1.714  1.00  0.00    -0.452 OA
ATOM      8  C   UNL     1     -32.820   7.828   2.260  1.00  0.00     0.094 A 
ATOM      9  C   UNL     1     -34.069   7.209   2.365  1.00  0.00     0.119 A 
ATOM     10  C   UNL     1     -34.211   5.860   2.010  1.00  0.00     0.047 A 
ATOM     11  C   UNL     1     -33.109   5.132   1.552  1.00  0.00     0.020 A 
ENDROOT
BRANCH   1  12
ATOM     12  C   UNL     1     -28.167   7.867   1.250  1.00  0.00     0.025 A 
ATOM     13  C   UNL     1     -27.747   8.642   2.343  1.00  0.00     0.016 A 
ATOM     14  C   UNL     1     -26.566   9.383   2.269  1.00  0.00     0.051 A 
ATOM     15  C   UNL     1     -25.792   9.380   1.104  1.00  0.00     0.157 A 
ATOM     16  C   UNL     1     -27.404   7.879   0.073  1.00  0.00     0.062 A 
ATOM     17  C   UNL     1     -26.219   8.621  -0.011  1.00  0.00     0.158 A 
BRANCH  15  18
ATOM     18  O   UNL     1     -24.621  10.142   1.096  1.00  0.00    -0.504 OA
ATOM     19  H   UNL     1     -24.155  10.451   0.256  1.00  0.00     0.293 HD
ENDBRANCH  15  18
BRANCH  17  20
ATOM     20  O   UNL     1     -25.505   8.576  -1.210  1.00  0.00    -0.504 OA
ATOM     21  H   UNL     1     -24.946   7.788  -1.506  1.00  0.00     0.293 HD
ENDBRANCH  17  20
ENDBRANCH   1  12
BRANCH   2  22
ATOM     22  O   UNL     1     -28.355   5.098   0.391  1.00  0.00    -0.502 OA
ATOM     23  H   UNL     1     -27.584   5.607  -0.025  1.00  0.00     0.293 HD
ENDBRANCH   2  22
BRANCH   9  24
ATOM     24  O   UNL     1     -35.163   7.940   2.821  1.00  0.00    -0.508 OA
ATOM     25  H   UNL     1     -35.050   8.728   3.448  1.00  0.00     0.293 HD
ENDBRANCH   9  24
TORSDOF 5
ENDMDL
