MODEL 1
REMARK VINA RESULT:    -2.426      0.000      0.000
REMARK INTER + INTRA:          -4.176
REMARK INTER:                  -3.703
REMARK INTRA:                  -0.474
REMARK UNBOUND:                -0.474
REMARK SMILES CCCCCCCCCCC(=O)[O-]
REMARK SMILES IDX 7 1 8 2 9 3 10 4 11 5 12 6 13 7 6 8 5 9 4 10 3 11 2 12 1 13
REMARK H PARENT
REMARK Flexibility Score: inf
ROOT
ATOM      1  C   UNL     1      31.575  24.556  31.868  1.00  0.00     0.000 C 
ENDROOT
BRANCH   1   2
ATOM      2  C   UNL     1      30.254  24.081  31.252  1.00  0.00     0.000 C 
BRANCH   2   3
ATOM      3  C   UNL     1      30.278  24.222  29.722  1.00  0.00     0.006 C 
BRANCH   3   4
ATOM      4  C   UNL     1      31.648  24.676  29.202  1.00  0.00     0.053 C 
BRANCH   4   5
ATOM      5  C   UNL     1      32.148  23.786  28.105  1.00  0.00     0.041 C 
ATOM      6  O   UNL     1      33.249  23.188  28.225  1.00  0.00    -0.550 OA
ATOM      7  O   UNL     1      31.380  23.593  26.964  1.00  0.00    -0.550 OA
ENDBRANCH   4   5
ENDBRANCH   3   4
ENDBRANCH   2   3
ENDBRANCH   1   2
BRANCH   1   8
ATOM      8  C   UNL     1      31.371  25.027  33.313  1.00  0.00     0.000 C 
BRANCH   8   9
ATOM      9  C   UNL     1      32.713  25.124  34.054  1.00  0.00    -0.000 C 
BRANCH   9  10
ATOM     10  C   UNL     1      33.917  25.124  33.098  1.00  0.00    -0.000 C 
BRANCH  10  11
ATOM     11  C   UNL     1      35.136  24.388  33.683  1.00  0.00    -0.000 C 
BRANCH  11  12
ATOM     12  C   UNL     1      36.467  25.031  33.263  1.00  0.00    -0.003 C 
ATOM     13  C   UNL     1      36.719  24.937  31.758  1.00  0.00     0.004 C 
ENDBRANCH  11  12
ENDBRANCH  10  11
ENDBRANCH   9  10
ENDBRANCH   8   9
ENDBRANCH   1   8
TORSDOF 9
ENDMDL
MODEL 2
REMARK VINA RESULT:    -2.086      3.063      5.056
REMARK INTER + INTRA:          -3.657
REMARK INTER:                  -3.182
REMARK INTRA:                  -0.474
REMARK UNBOUND:                -0.474
REMARK SMILES CCCCCCCCCCC(=O)[O-]
REMARK SMILES IDX 7 1 8 2 9 3 10 4 11 5 12 6 13 7 6 8 5 9 4 10 3 11 2 12 1 13
REMARK H PARENT
REMARK Flexibility Score: inf
ROOT
ATOM      1  C   UNL     1      30.770  24.140  29.116  1.00  0.00     0.000 C 
ENDROOT
BRANCH   1   2
ATOM      2  C   UNL     1      30.227  24.319  30.539  1.00  0.00     0.000 C 
BRANCH   2   3
ATOM      3  C   UNL     1      31.287  24.947  31.457  1.00  0.00     0.006 C 
BRANCH   3   4
ATOM      4  C   UNL     1      30.913  24.830  32.940  1.00  0.00     0.053 C 
BRANCH   4   5
ATOM      5  C   UNL     1      32.098  25.046  33.831  1.00  0.00     0.041 C 
ATOM      6  O   UNL     1      31.949  25.125  35.078  1.00  0.00    -0.550 OA
ATOM      7  O   UNL     1      33.373  25.125  33.282  1.00  0.00    -0.550 OA
ENDBRANCH   4   5
ENDBRANCH   3   4
ENDBRANCH   2   3
ENDBRANCH   1   2
BRANCH   1   8
ATOM      8  C   UNL     1      32.166  23.508  29.134  1.00  0.00     0.000 C 
BRANCH   8   9
ATOM      9  C   UNL     1      32.664  23.234  27.707  1.00  0.00    -0.000 C 
BRANCH   9  10
ATOM     10  C   UNL     1      33.355  24.454  27.077  1.00  0.00    -0.000 C 
BRANCH  10  11
ATOM     11  C   UNL     1      34.466  25.031  27.972  1.00  0.00    -0.000 C 
BRANCH  11  12
ATOM     12  C   UNL     1      35.605  24.028  28.214  1.00  0.00    -0.003 C 
ATOM     13  C   UNL     1      36.882  24.697  28.723  1.00  0.00     0.004 C 
ENDBRANCH  11  12
ENDBRANCH  10  11
ENDBRANCH   9  10
ENDBRANCH   8   9
ENDBRANCH   1   8
TORSDOF 9
ENDMDL
MODEL 3
REMARK VINA RESULT:    -1.933      2.453      4.912
REMARK INTER + INTRA:          -3.423
REMARK INTER:                  -2.639
REMARK INTRA:                  -0.784
REMARK UNBOUND:                -0.474
REMARK SMILES CCCCCCCCCCC(=O)[O-]
REMARK SMILES IDX 7 1 8 2 9 3 10 4 11 5 12 6 13 7 6 8 5 9 4 10 3 11 2 12 1 13
REMARK H PARENT
REMARK Flexibility Score: inf
ROOT
ATOM      1  C   UNL     1      30.995  24.218  32.339  1.00  0.00     0.000 C 
ENDROOT
BRANCH   1   2
ATOM      2  C   UNL     1      31.277  24.956  33.653  1.00  0.00     0.000 C 
BRANCH   2   3
ATOM      3  C   UNL     1      32.787  25.120  33.880  1.00  0.00     0.006 C 
BRANCH   3   4
ATOM      4  C   UNL     1      33.575  25.123  32.564  1.00  0.00     0.053 C 
BRANCH   4   5
ATOM      5  C   UNL     1      35.030  24.841  32.787  1.00  0.00     0.041 C 
ATOM      6  O   UNL     1      35.822  24.783  31.810  1.00  0.00    -0.550 OA
ATOM      7  O   UNL     1      35.515  24.676  34.079  1.00  0.00    -0.550 OA
ENDBRANCH   4   5
ENDBRANCH   3   4
ENDBRANCH   2   3
ENDBRANCH   1   2
BRANCH   1   8
ATOM      8  C   UNL     1      30.071  25.040  31.432  1.00  0.00     0.000 C 
BRANCH   8   9
ATOM      9  C   UNL     1      30.503  24.928  29.962  1.00  0.00    -0.000 C 
BRANCH   9  10
ATOM     10  C   UNL     1      31.341  23.669  29.686  1.00  0.00    -0.000 C 
BRANCH  10  11
ATOM     11  C   UNL     1      31.911  23.640  28.257  1.00  0.00    -0.000 C 
BRANCH  11  12
ATOM     12  C   UNL     1      32.951  24.745  28.017  1.00  0.00    -0.003 C 
ATOM     13  C   UNL     1      34.317  24.410  28.617  1.00  0.00     0.004 C 
ENDBRANCH  11  12
ENDBRANCH  10  11
ENDBRANCH   9  10
ENDBRANCH   8   9
ENDBRANCH   1   8
TORSDOF 9
ENDMDL
MODEL 4
REMARK VINA RESULT:    -1.703      2.491      4.173
REMARK INTER + INTRA:          -3.073
REMARK INTER:                  -2.706
REMARK INTRA:                  -0.367
REMARK UNBOUND:                -0.474
REMARK SMILES CCCCCCCCCCC(=O)[O-]
REMARK SMILES IDX 7 1 8 2 9 3 10 4 11 5 12 6 13 7 6 8 5 9 4 10 3 11 2 12 1 13
REMARK H PARENT
REMARK Flexibility Score: inf
ROOT
ATOM      1  C   UNL     1      34.738  24.781  33.354  1.00  0.00     0.000 C 
ENDROOT
BRANCH   1   2
ATOM      2  C   UNL     1      33.487  24.444  34.174  1.00  0.00     0.000 C 
BRANCH   2   3
ATOM      3  C   UNL     1      32.242  25.124  33.585  1.00  0.00     0.006 C 
BRANCH   3   4
ATOM      4  C   UNL     1      32.121  24.904  32.072  1.00  0.00     0.053 C 
BRANCH   4   5
ATOM      5  C   UNL     1      30.691  24.780  31.642  1.00  0.00     0.041 C 
ATOM      6  O   UNL     1      30.408  24.345  30.495  1.00  0.00    -0.550 OA
ATOM      7  O   UNL     1      29.670  25.112  32.524  1.00  0.00    -0.550 OA
ENDBRANCH   4   5
ENDBRANCH   3   4
ENDBRANCH   2   3
ENDBRANCH   1   2
BRANCH   1   8
ATOM      8  C   UNL     1      35.815  23.702  33.523  1.00  0.00     0.000 C 
BRANCH   8   9
ATOM      9  C   UNL     1      37.059  24.033  32.685  1.00  0.00    -0.000 C 
BRANCH   9  10
ATOM     10  C   UNL     1      36.793  25.125  31.637  1.00  0.00    -0.000 C 
BRANCH  10  11
ATOM     11  C   UNL     1      36.295  24.551  30.298  1.00  0.00    -0.000 C 
BRANCH  11  12
ATOM     12  C   UNL     1      37.124  25.046  29.103  1.00  0.00    -0.003 C 
ATOM     13  C   UNL     1      36.682  24.421  27.779  1.00  0.00     0.004 C 
ENDBRANCH  11  12
ENDBRANCH  10  11
ENDBRANCH   9  10
ENDBRANCH   8   9
ENDBRANCH   1   8
TORSDOF 9
ENDMDL
MODEL 5
REMARK VINA RESULT:    -1.589      2.426      5.460
REMARK INTER + INTRA:          -2.898
REMARK INTER:                  -2.820
REMARK INTRA:                  -0.078
REMARK UNBOUND:                -0.474
REMARK SMILES CCCCCCCCCCC(=O)[O-]
REMARK SMILES IDX 7 1 8 2 9 3 10 4 11 5 12 6 13 7 6 8 5 9 4 10 3 11 2 12 1 13
REMARK H PARENT
REMARK Flexibility Score: inf
ROOT
ATOM      1  C   UNL     1      30.445  24.782  33.242  1.00  0.00     0.000 C 
ENDROOT
BRANCH   1   2
ATOM      2  C   UNL     1      31.679  25.064  34.107  1.00  0.00     0.000 C 
BRANCH   2   3
ATOM      3  C   UNL     1      32.951  25.124  33.249  1.00  0.00     0.006 C 
BRANCH   3   4
ATOM      4  C   UNL     1      34.187  24.619  34.004  1.00  0.00     0.053 C 
BRANCH   4   5
ATOM      5  C   UNL     1      35.424  24.698  33.162  1.00  0.00     0.041 C 
ATOM      6  O   UNL     1      36.537  24.349  33.635  1.00  0.00    -0.550 OA
ATOM      7  O   UNL     1      35.339  25.125  31.843  1.00  0.00    -0.550 OA
ENDBRANCH   4   5
ENDBRANCH   3   4
ENDBRANCH   2   3
ENDBRANCH   1   2
BRANCH   1   8
ATOM      8  C   UNL     1      30.838  24.091  31.931  1.00  0.00     0.000 C 
BRANCH   8   9
ATOM      9  C   UNL     1      31.121  25.124  30.830  1.00  0.00    -0.000 C 
BRANCH   9  10
ATOM     10  C   UNL     1      32.127  24.613  29.785  1.00  0.00    -0.000 C 
BRANCH  10  11
ATOM     11  C   UNL     1      31.604  24.748  28.345  1.00  0.00    -0.000 C 
BRANCH  11  12
ATOM     12  C   UNL     1      30.079  24.581  28.256  1.00  0.00    -0.003 C 
ATOM     13  C   UNL     1      29.641  23.118  28.319  1.00  0.00     0.004 C 
ENDBRANCH  11  12
ENDBRANCH  10  11
ENDBRANCH   9  10
ENDBRANCH   8   9
ENDBRANCH   1   8
TORSDOF 9
ENDMDL
MODEL 6
REMARK VINA RESULT:    -0.685      2.748      5.204
REMARK INTER + INTRA:          -1.519
REMARK INTER:                  -1.016
REMARK INTRA:                  -0.503
REMARK UNBOUND:                -0.474
REMARK SMILES CCCCCCCCCCC(=O)[O-]
REMARK SMILES IDX 7 1 8 2 9 3 10 4 11 5 12 6 13 7 6 8 5 9 4 10 3 11 2 12 1 13
REMARK H PARENT
REMARK Flexibility Score: inf
ROOT
ATOM      1  C   UNL     1      36.052  23.888  32.024  1.00  0.00     0.000 C 
ENDROOT
BRANCH   1   2
ATOM      2  C   UNL     1      35.060  24.632  32.927  1.00  0.00     0.000 C 
BRANCH   2   3
ATOM      3  C   UNL     1      33.847  25.125  32.124  1.00  0.00     0.006 C 
BRANCH   3   4
ATOM      4  C   UNL     1      32.554  25.094  32.947  1.00  0.00     0.053 C 
BRANCH   4   5
ATOM      5  C   UNL     1      31.340  25.016  32.072  1.00  0.00     0.041 C 
ATOM      6  O   UNL     1      31.463  24.883  30.826  1.00  0.00    -0.550 OA
ATOM      7  O   UNL     1      30.072  25.058  32.639  1.00  0.00    -0.550 OA
ENDBRANCH   4   5
ENDBRANCH   3   4
ENDBRANCH   2   3
ENDBRANCH   1   2
BRANCH   1   8
ATOM      8  C   UNL     1      37.050  24.860  31.384  1.00  0.00     0.000 C 
BRANCH   8   9
ATOM      9  C   UNL     1      36.912  24.859  29.854  1.00  0.00    -0.000 C 
BRANCH   9  10
ATOM     10  C   UNL     1      36.594  23.465  29.290  1.00  0.00    -0.000 C 
BRANCH  10  11
ATOM     11  C   UNL     1      36.539  23.448  27.752  1.00  0.00    -0.000 C 
BRANCH  11  12
ATOM     12  C   UNL     1      35.110  23.260  27.218  1.00  0.00    -0.003 C 
ATOM     13  C   UNL     1      34.412  24.587  26.920  1.00  0.00     0.004 C 
ENDBRANCH  11  12
ENDBRANCH  10  11
ENDBRANCH   9  10
ENDBRANCH   8   9
ENDBRANCH   1   8
TORSDOF 9
ENDMDL
MODEL 7
REMARK VINA RESULT:     0.313      2.714      4.437
REMARK INTER + INTRA:           0.004
REMARK INTER:                   0.537
REMARK INTRA:                  -0.533
REMARK UNBOUND:                -0.474
REMARK SMILES CCCCCCCCCCC(=O)[O-]
REMARK SMILES IDX 7 1 8 2 9 3 10 4 11 5 12 6 13 7 6 8 5 9 4 10 3 11 2 12 1 13
REMARK H PARENT
REMARK Flexibility Score: inf
ROOT
ATOM      1  C   UNL     1      31.915  23.669  29.430  1.00  0.00     0.000 C 
ENDROOT
BRANCH   1   2
ATOM      2  C   UNL     1      32.763  23.211  28.237  1.00  0.00     0.000 C 
BRANCH   2   3
ATOM      3  C   UNL     1      33.491  24.399  27.590  1.00  0.00     0.006 C 
BRANCH   3   4
ATOM      4  C   UNL     1      34.537  25.018  28.526  1.00  0.00     0.053 C 
BRANCH   4   5
ATOM      5  C   UNL     1      35.892  24.414  28.321  1.00  0.00     0.041 C 
ATOM      6  O   UNL     1      36.198  23.900  27.212  1.00  0.00    -0.550 OA
ATOM      7  O   UNL     1      36.830  24.448  29.346  1.00  0.00    -0.550 OA
ENDBRANCH   4   5
ENDBRANCH   3   4
ENDBRANCH   2   3
ENDBRANCH   1   2
BRANCH   1   8
ATOM      8  C   UNL     1      30.610  24.323  28.958  1.00  0.00     0.000 C 
BRANCH   8   9
ATOM      9  C   UNL     1      29.865  24.972  30.135  1.00  0.00    -0.000 C 
BRANCH   9  10
ATOM     10  C   UNL     1      30.047  24.197  31.450  1.00  0.00    -0.000 C 
BRANCH  10  11
ATOM     11  C   UNL     1      30.189  25.125  32.669  1.00  0.00    -0.000 C 
BRANCH  11  12
ATOM     12  C   UNL     1      31.584  25.044  33.309  1.00  0.00    -0.003 C 
ATOM     13  C   UNL     1      31.538  25.118  34.835  1.00  0.00     0.004 C 
ENDBRANCH  11  12
ENDBRANCH  10  11
ENDBRANCH   9  10
ENDBRANCH   8   9
ENDBRANCH   1   8
TORSDOF 9
ENDMDL
