MODEL 1
REMARK VINA RESULT:    -6.953      0.000      0.000
REMARK INTER + INTRA:         -13.083
REMARK INTER:                 -11.425
REMARK INTRA:                  -1.658
REMARK UNBOUND:                -1.658
REMARK SMILES COc1ccc([C@@H]2CC(=O)c3c(O)cc(O[C@H]4O[C@@H](CO[C@H]5O[C@H](C)[C@H](O)[C@@H](O)[C@@H]5O)[C@@H](O)[C@@H](O)[C@H]4O)cc3O2)cc1O
REMARK SMILES IDX 19 1 32 2 34 3 36 4 17 5 18 6 20 7 21 8 22 9 25 10 24 11
REMARK SMILES IDX 26 12 23 13 28 14 30 15 27 16 29 18 31 20 33 22 35 24 16 26
REMARK SMILES IDX 15 27 14 28 38 29 12 30 39 31 11 32 40 33 9 34 7 35 10 36
REMARK SMILES IDX 8 37 13 38 6 40 41 41 5 42 42 43 4 44 3 45 43 46 2 48 1 49
REMARK SMILES IDX 37 50
REMARK H PARENT 27 17 29 19 31 21 33 23 35 25 13 39 43 47 37 51
REMARK Flexibility Score: inf
ROOT
ATOM      1  C   UNL     1      -4.000  93.317 -11.315  1.00  0.00     0.180 C 
ATOM      2  C   UNL     1      -3.494  94.634 -10.646  1.00  0.00     0.177 C 
ATOM      3  C   UNL     1      -4.563  95.278  -9.740  1.00  0.00     0.180 C 
ATOM      4  C   UNL     1      -5.424  94.208  -9.020  1.00  0.00     0.214 C 
ATOM      5  C   UNL     1      -4.743  92.825  -9.086  1.00  0.00     0.339 C 
ATOM      6  O   UNL     1      -4.602  92.373 -10.421  1.00  0.00    -0.332 OA
ENDROOT
BRANCH   1   7
ATOM      7  C   UNL     1      -4.971  93.601 -12.474  1.00  0.00     0.198 C 
BRANCH   7   8
ATOM      8  O   UNL     1      -4.456  93.029 -13.655  1.00  0.00    -0.347 OA
BRANCH   8   9
ATOM      9  C   UNL     1      -4.444  91.600 -13.665  1.00  0.00     0.281 C 
ATOM     10  C   UNL     1      -7.701  89.809 -13.536  1.00  0.00     0.041 C 
ATOM     11  C   UNL     1      -6.545  90.539 -14.213  1.00  0.00     0.150 C 
ATOM     12  C   UNL     1      -5.862  89.637 -15.253  1.00  0.00     0.174 C 
ATOM     13  O   UNL     1      -5.646  90.981 -13.204  1.00  0.00    -0.344 OA
ATOM     14  C   UNL     1      -4.783  90.450 -15.974  1.00  0.00     0.179 C 
ATOM     15  C   UNL     1      -3.784  91.022 -14.960  1.00  0.00     0.202 C 
BRANCH  12  16
ATOM     16  O   UNL     1      -5.305  88.515 -14.618  1.00  0.00    -0.388 OA
ATOM     17  H   UNL     1      -5.644  87.722 -15.106  1.00  0.00     0.211 HD
ENDBRANCH  12  16
BRANCH  14  18
ATOM     18  O   UNL     1      -5.372  91.495 -16.696  1.00  0.00    -0.387 OA
ATOM     19  H   UNL     1      -6.341  91.293 -16.768  1.00  0.00     0.211 HD
ENDBRANCH  14  18
BRANCH  15  20
ATOM     20  O   UNL     1      -2.875  90.002 -14.624  1.00  0.00    -0.385 OA
ATOM     21  H   UNL     1      -2.360  90.325 -13.832  1.00  0.00     0.211 HD
ENDBRANCH  15  20
ENDBRANCH   8   9
ENDBRANCH   7   8
ENDBRANCH   1   7
BRANCH   2  22
ATOM     22  O   UNL     1      -3.051  95.545 -11.617  1.00  0.00    -0.387 OA
ATOM     23  H   UNL     1      -2.372  96.123 -11.174  1.00  0.00     0.211 HD
ENDBRANCH   2  22
BRANCH   3  24
ATOM     24  O   UNL     1      -5.391  96.147 -10.479  1.00  0.00    -0.387 OA
ATOM     25  H   UNL     1      -5.110  96.083 -11.429  1.00  0.00     0.211 HD
ENDBRANCH   3  24
BRANCH   5  26
ATOM     26  O   UNL     1      -5.463  91.865  -8.315  1.00  0.00    -0.462 OA
BRANCH  26  27
ATOM     27  C   UNL     1      -5.208  90.485  -8.310  1.00  0.00     0.130 A 
ATOM     28  C   UNL     1      -4.448  89.944  -7.265  1.00  0.00     0.093 A 
ATOM     29  C   UNL     1      -5.692  89.638  -9.319  1.00  0.00     0.094 A 
ATOM     30  C   UNL     1      -4.224  88.563  -7.183  1.00  0.00     0.133 A 
ATOM     31  C   UNL     1      -5.475  88.261  -9.246  1.00  0.00     0.138 A 
ATOM     32  C   UNL     1      -4.758  87.708  -8.169  1.00  0.00     0.102 A 
ATOM     33  O   UNL     1      -5.973  87.449 -10.271  1.00  0.00    -0.484 OA
ATOM     34  C   UNL     1      -4.573  86.243  -8.143  1.00  0.00     0.174 C 
ATOM     35  C   UNL     1      -5.976  86.015 -10.225  1.00  0.00     0.211 C 
ATOM     36  O   UNL     1      -4.178  85.657  -7.104  1.00  0.00    -0.294 OA
ATOM     37  C   UNL     1      -4.800  85.451  -9.396  1.00  0.00     0.131 C 
BRANCH  30  38
ATOM     38  O   UNL     1      -3.467  88.049  -6.126  1.00  0.00    -0.507 OA
ATOM     39  H   UNL     1      -2.652  87.473  -6.290  1.00  0.00     0.293 HD
ENDBRANCH  30  38
BRANCH  35  40
ATOM     40  C   UNL     1      -7.317  85.486  -9.745  1.00  0.00    -0.003 A 
ATOM     41  C   UNL     1      -7.610  84.118  -9.893  1.00  0.00     0.057 A 
ATOM     42  C   UNL     1      -8.255  86.316  -9.102  1.00  0.00     0.011 A 
ATOM     43  C   UNL     1      -8.816  83.588  -9.424  1.00  0.00     0.158 A 
ATOM     44  C   UNL     1      -9.467  85.795  -8.641  1.00  0.00     0.051 A 
ATOM     45  C   UNL     1      -9.759  84.427  -8.795  1.00  0.00     0.160 A 
BRANCH  43  46
ATOM     46  O   UNL     1      -9.055  82.220  -9.576  1.00  0.00    -0.504 OA
ATOM     47  H   UNL     1      -9.920  81.779  -9.279  1.00  0.00     0.293 HD
ENDBRANCH  43  46
BRANCH  45  48
ATOM     48  O   UNL     1     -10.959  83.868  -8.330  1.00  0.00    -0.493 OA
ATOM     49  C   UNL     1     -12.171  83.828  -9.067  1.00  0.00     0.278 C 
ENDBRANCH  45  48
ENDBRANCH  35  40
ENDBRANCH  26  27
ENDBRANCH   5  26
BRANCH   4  50
ATOM     50  O   UNL     1      -6.704  94.120  -9.604  1.00  0.00    -0.384 OA
ATOM     51  H   UNL     1      -6.957  95.029  -9.909  1.00  0.00     0.211 HD
ENDBRANCH   4  50
TORSDOF 15
ENDMDL
MODEL 2
REMARK VINA RESULT:    -6.940      4.316      7.393
REMARK INTER + INTRA:         -13.062
REMARK INTER:                 -10.089
REMARK INTRA:                  -2.973
REMARK UNBOUND:                -1.658
REMARK SMILES COc1ccc([C@@H]2CC(=O)c3c(O)cc(O[C@H]4O[C@@H](CO[C@H]5O[C@H](C)[C@H](O)[C@@H](O)[C@@H]5O)[C@@H](O)[C@@H](O)[C@H]4O)cc3O2)cc1O
REMARK SMILES IDX 19 1 32 2 34 3 36 4 17 5 18 6 20 7 21 8 22 9 25 10 24 11
REMARK SMILES IDX 26 12 23 13 28 14 30 15 27 16 29 18 31 20 33 22 35 24 16 26
REMARK SMILES IDX 15 27 14 28 38 29 12 30 39 31 11 32 40 33 9 34 7 35 10 36
REMARK SMILES IDX 8 37 13 38 6 40 41 41 5 42 42 43 4 44 3 45 43 46 2 48 1 49
REMARK SMILES IDX 37 50
REMARK H PARENT 27 17 29 19 31 21 33 23 35 25 13 39 43 47 37 51
REMARK Flexibility Score: inf
ROOT
ATOM      1  C   UNL     1      -5.976  92.313 -19.247  1.00  0.00     0.180 C 
ATOM      2  C   UNL     1      -5.007  93.000 -20.261  1.00  0.00     0.177 C 
ATOM      3  C   UNL     1      -3.833  93.711 -19.557  1.00  0.00     0.180 C 
ATOM      4  C   UNL     1      -3.371  92.942 -18.292  1.00  0.00     0.214 C 
ATOM      5  C   UNL     1      -3.926  91.501 -18.297  1.00  0.00     0.339 C 
ATOM      6  O   UNL     1      -5.341  91.485 -18.265  1.00  0.00    -0.332 OA
ENDROOT
BRANCH   1   7
ATOM      7  C   UNL     1      -6.878  93.336 -18.534  1.00  0.00     0.198 C 
BRANCH   7   8
ATOM      8  O   UNL     1      -6.821  93.110 -17.144  1.00  0.00    -0.347 OA
BRANCH   8   9
ATOM      9  C   UNL     1      -7.435  94.128 -16.353  1.00  0.00     0.281 C 
ATOM     10  C   UNL     1      -6.302  94.550 -12.835  1.00  0.00     0.041 C 
ATOM     11  C   UNL     1      -6.243  94.756 -14.346  1.00  0.00     0.150 C 
ATOM     12  C   UNL     1      -6.354  96.246 -14.700  1.00  0.00     0.174 C 
ATOM     13  O   UNL     1      -7.275  93.978 -14.941  1.00  0.00    -0.344 OA
ATOM     14  C   UNL     1      -6.184  96.405 -16.213  1.00  0.00     0.179 C 
ATOM     15  C   UNL     1      -7.223  95.555 -16.956  1.00  0.00     0.202 C 
BRANCH  12  16
ATOM     16  O   UNL     1      -7.598  96.745 -14.280  1.00  0.00    -0.388 OA
ATOM     17  H   UNL     1      -7.591  97.715 -14.479  1.00  0.00     0.211 HD
ENDBRANCH  12  16
BRANCH  14  18
ATOM     18  O   UNL     1      -4.895  96.012 -16.594  1.00  0.00    -0.387 OA
ATOM     19  H   UNL     1      -4.411  95.748 -15.769  1.00  0.00     0.211 HD
ENDBRANCH  14  18
BRANCH  15  20
ATOM     20  O   UNL     1      -8.439  96.263 -16.959  1.00  0.00    -0.385 OA
ATOM     21  H   UNL     1      -8.449  96.822 -16.132  1.00  0.00     0.211 HD
ENDBRANCH  15  20
ENDBRANCH   8   9
ENDBRANCH   7   8
ENDBRANCH   1   7
BRANCH   2  22
ATOM     22  O   UNL     1      -5.705  93.893 -21.088  1.00  0.00    -0.387 OA
ATOM     23  H   UNL     1      -5.847  94.721 -20.554  1.00  0.00     0.211 HD
ENDBRANCH   2  22
BRANCH   3  24
ATOM     24  O   UNL     1      -4.178  95.035 -19.218  1.00  0.00    -0.387 OA
ATOM     25  H   UNL     1      -3.877  95.617 -19.964  1.00  0.00     0.211 HD
ENDBRANCH   3  24
BRANCH   5  26
ATOM     26  O   UNL     1      -3.399  90.749 -17.206  1.00  0.00    -0.462 OA
BRANCH  26  27
ATOM     27  C   UNL     1      -4.019  90.608 -15.956  1.00  0.00     0.130 A 
ATOM     28  C   UNL     1      -3.522  91.342 -14.871  1.00  0.00     0.093 A 
ATOM     29  C   UNL     1      -5.118  89.757 -15.764  1.00  0.00     0.094 A 
ATOM     30  C   UNL     1      -4.149  91.284 -13.619  1.00  0.00     0.133 A 
ATOM     31  C   UNL     1      -5.751  89.691 -14.522  1.00  0.00     0.138 A 
ATOM     32  C   UNL     1      -5.287  90.469 -13.444  1.00  0.00     0.102 A 
ATOM     33  O   UNL     1      -6.844  88.831 -14.369  1.00  0.00    -0.484 OA
ATOM     34  C   UNL     1      -6.007  90.365 -12.159  1.00  0.00     0.174 C 
ATOM     35  C   UNL     1      -7.686  88.805 -13.209  1.00  0.00     0.211 C 
ATOM     36  O   UNL     1      -5.820  91.203 -11.241  1.00  0.00    -0.294 OA
ATOM     37  C   UNL     1      -6.928  89.205 -11.923  1.00  0.00     0.131 C 
BRANCH  30  38
ATOM     38  O   UNL     1      -3.636  92.031 -12.555  1.00  0.00    -0.507 OA
ATOM     39  H   UNL     1      -3.962  91.895 -11.607  1.00  0.00     0.293 HD
ENDBRANCH  30  38
BRANCH  35  40
ATOM     40  C   UNL     1      -8.933  89.648 -13.420  1.00  0.00    -0.003 A 
ATOM     41  C   UNL     1     -10.169  89.008 -13.623  1.00  0.00     0.057 A 
ATOM     42  C   UNL     1      -8.896  91.054 -13.361  1.00  0.00     0.011 A 
ATOM     43  C   UNL     1     -11.344  89.751 -13.777  1.00  0.00     0.158 A 
ATOM     44  C   UNL     1     -10.065  91.802 -13.526  1.00  0.00     0.051 A 
ATOM     45  C   UNL     1     -11.300  91.160 -13.733  1.00  0.00     0.160 A 
BRANCH  43  46
ATOM     46  O   UNL     1     -12.552  89.072 -13.957  1.00  0.00    -0.504 OA
ATOM     47  H   UNL     1     -13.440  89.552 -14.065  1.00  0.00     0.293 HD
ENDBRANCH  43  46
BRANCH  45  48
ATOM     48  O   UNL     1     -12.494  91.880 -13.887  1.00  0.00    -0.493 OA
ATOM     49  C   UNL     1     -12.570  93.257 -14.220  1.00  0.00     0.278 C 
ENDBRANCH  45  48
ENDBRANCH  35  40
ENDBRANCH  26  27
ENDBRANCH   5  26
BRANCH   4  50
ATOM     50  O   UNL     1      -3.804  93.598 -17.122  1.00  0.00    -0.384 OA
ATOM     51  H   UNL     1      -4.789  93.489 -17.065  1.00  0.00     0.211 HD
ENDBRANCH   4  50
TORSDOF 15
ENDMDL
MODEL 3
REMARK VINA RESULT:    -6.873      2.106      9.596
REMARK INTER + INTRA:         -12.951
REMARK INTER:                 -11.314
REMARK INTRA:                  -1.636
REMARK UNBOUND:                -1.658
REMARK SMILES COc1ccc([C@@H]2CC(=O)c3c(O)cc(O[C@H]4O[C@@H](CO[C@H]5O[C@H](C)[C@H](O)[C@@H](O)[C@@H]5O)[C@@H](O)[C@@H](O)[C@H]4O)cc3O2)cc1O
REMARK SMILES IDX 19 1 32 2 34 3 36 4 17 5 18 6 20 7 21 8 22 9 25 10 24 11
REMARK SMILES IDX 26 12 23 13 28 14 30 15 27 16 29 18 31 20 33 22 35 24 16 26
REMARK SMILES IDX 15 27 14 28 38 29 12 30 39 31 11 32 40 33 9 34 7 35 10 36
REMARK SMILES IDX 8 37 13 38 6 40 41 41 5 42 42 43 4 44 3 45 43 46 2 48 1 49
REMARK SMILES IDX 37 50
REMARK H PARENT 27 17 29 19 31 21 33 23 35 25 13 39 43 47 37 51
REMARK Flexibility Score: inf
ROOT
ATOM      1  C   UNL     1      -8.695  84.960  -7.576  1.00  0.00     0.180 C 
ATOM      2  C   UNL     1      -8.691  83.405  -7.721  1.00  0.00     0.177 C 
ATOM      3  C   UNL     1      -7.953  82.940  -8.994  1.00  0.00     0.180 C 
ATOM      4  C   UNL     1      -6.742  83.852  -9.321  1.00  0.00     0.214 C 
ATOM      5  C   UNL     1      -6.365  84.716  -8.099  1.00  0.00     0.339 C 
ATOM      6  O   UNL     1      -7.417  85.589  -7.730  1.00  0.00    -0.332 OA
ENDROOT
BRANCH   1   7
ATOM      7  C   UNL     1      -9.701  85.622  -8.534  1.00  0.00     0.198 C 
BRANCH   7   8
ATOM      8  O   UNL     1     -11.004  85.215  -8.185  1.00  0.00    -0.347 OA
BRANCH   8   9
ATOM      9  C   UNL     1     -11.835  84.873  -9.296  1.00  0.00     0.281 C 
ATOM     10  C   UNL     1     -12.946  81.340  -9.642  1.00  0.00     0.041 C 
ATOM     11  C   UNL     1     -13.012  82.769  -9.113  1.00  0.00     0.150 C 
ATOM     12  C   UNL     1     -14.341  83.436  -9.501  1.00  0.00     0.174 C 
ATOM     13  O   UNL     1     -11.883  83.479  -9.609  1.00  0.00    -0.344 OA
ATOM     14  C   UNL     1     -14.399  84.824  -8.858  1.00  0.00     0.179 C 
ATOM     15  C   UNL     1     -13.187  85.659  -9.289  1.00  0.00     0.202 C 
BRANCH  12  16
ATOM     16  O   UNL     1     -14.439  83.525 -10.899  1.00  0.00    -0.388 OA
ATOM     17  H   UNL     1     -14.093  84.419 -11.146  1.00  0.00     0.211 HD
ENDBRANCH  12  16
BRANCH  14  18
ATOM     18  O   UNL     1     -14.418  84.706  -7.463  1.00  0.00    -0.387 OA
ATOM     19  H   UNL     1     -15.187  85.241  -7.133  1.00  0.00     0.211 HD
ENDBRANCH  14  18
BRANCH  15  20
ATOM     20  O   UNL     1     -13.450  86.176 -10.571  1.00  0.00    -0.385 OA
ATOM     21  H   UNL     1     -14.433  86.347 -10.616  1.00  0.00     0.211 HD
ENDBRANCH  15  20
ENDBRANCH   8   9
ENDBRANCH   7   8
ENDBRANCH   1   7
BRANCH   2  22
ATOM     22  O   UNL     1      -9.999  82.900  -7.693  1.00  0.00    -0.387 OA
ATOM     23  H   UNL     1     -10.434  83.192  -8.539  1.00  0.00     0.211 HD
ENDBRANCH   2  22
BRANCH   3  24
ATOM     24  O   UNL     1      -8.832  82.892 -10.095  1.00  0.00    -0.387 OA
ATOM     25  H   UNL     1      -9.519  82.204  -9.893  1.00  0.00     0.211 HD
ENDBRANCH   3  24
BRANCH   5  26
ATOM     26  O   UNL     1      -5.173  85.459  -8.349  1.00  0.00    -0.462 OA
BRANCH  26  27
ATOM     27  C   UNL     1      -5.099  86.858  -8.417  1.00  0.00     0.130 A 
ATOM     28  C   UNL     1      -4.245  87.531  -7.533  1.00  0.00     0.093 A 
ATOM     29  C   UNL     1      -5.854  87.597  -9.340  1.00  0.00     0.094 A 
ATOM     30  C   UNL     1      -4.088  88.922  -7.608  1.00  0.00     0.133 A 
ATOM     31  C   UNL     1      -5.706  88.983  -9.423  1.00  0.00     0.138 A 
ATOM     32  C   UNL     1      -4.808  89.656  -8.574  1.00  0.00     0.102 A 
ATOM     33  O   UNL     1      -6.476  89.685 -10.357  1.00  0.00    -0.484 OA
ATOM     34  C   UNL     1      -4.687  91.120  -8.720  1.00  0.00     0.174 C 
ATOM     35  C   UNL     1      -6.289  91.073 -10.666  1.00  0.00     0.211 C 
ATOM     36  O   UNL     1      -3.737  91.749  -8.189  1.00  0.00    -0.294 OA
ATOM     37  C   UNL     1      -5.750  91.876  -9.460  1.00  0.00     0.131 C 
BRANCH  30  38
ATOM     38  O   UNL     1      -3.225  89.567  -6.718  1.00  0.00    -0.507 OA
ATOM     39  H   UNL     1      -3.378  89.541  -5.719  1.00  0.00     0.293 HD
ENDBRANCH  30  38
BRANCH  35  40
ATOM     40  C   UNL     1      -5.420  91.247 -11.899  1.00  0.00    -0.003 A 
ATOM     41  C   UNL     1      -5.405  90.238 -12.880  1.00  0.00     0.057 A 
ATOM     42  C   UNL     1      -4.669  92.418 -12.118  1.00  0.00     0.011 A 
ATOM     43  C   UNL     1      -4.651  90.384 -14.048  1.00  0.00     0.158 A 
ATOM     44  C   UNL     1      -3.904  92.564 -13.279  1.00  0.00     0.051 A 
ATOM     45  C   UNL     1      -3.889  91.551 -14.256  1.00  0.00     0.160 A 
BRANCH  43  46
ATOM     46  O   UNL     1      -4.684  89.364 -15.003  1.00  0.00    -0.504 OA
ATOM     47  H   UNL     1      -3.865  89.082 -15.531  1.00  0.00     0.293 HD
ENDBRANCH  43  46
BRANCH  45  48
ATOM     48  O   UNL     1      -3.144  91.673 -15.438  1.00  0.00    -0.493 OA
ATOM     49  C   UNL     1      -3.495  92.505 -16.533  1.00  0.00     0.278 C 
ENDBRANCH  45  48
ENDBRANCH  35  40
ENDBRANCH  26  27
ENDBRANCH   5  26
BRANCH   4  50
ATOM     50  O   UNL     1      -7.031  84.696 -10.411  1.00  0.00    -0.384 OA
ATOM     51  H   UNL     1      -7.966  84.516 -10.689  1.00  0.00     0.211 HD
ENDBRANCH   4  50
TORSDOF 15
ENDMDL
MODEL 4
REMARK VINA RESULT:    -6.744      2.108      9.742
REMARK INTER + INTRA:         -12.739
REMARK INTER:                 -10.240
REMARK INTRA:                  -2.499
REMARK UNBOUND:                -1.658
REMARK SMILES COc1ccc([C@@H]2CC(=O)c3c(O)cc(O[C@H]4O[C@@H](CO[C@H]5O[C@H](C)[C@H](O)[C@@H](O)[C@@H]5O)[C@@H](O)[C@@H](O)[C@H]4O)cc3O2)cc1O
REMARK SMILES IDX 19 1 32 2 34 3 36 4 17 5 18 6 20 7 21 8 22 9 25 10 24 11
REMARK SMILES IDX 26 12 23 13 28 14 30 15 27 16 29 18 31 20 33 22 35 24 16 26
REMARK SMILES IDX 15 27 14 28 38 29 12 30 39 31 11 32 40 33 9 34 7 35 10 36
REMARK SMILES IDX 8 37 13 38 6 40 41 41 5 42 42 43 4 44 3 45 43 46 2 48 1 49
REMARK SMILES IDX 37 50
REMARK H PARENT 27 17 29 19 31 21 33 23 35 25 13 39 43 47 37 51
REMARK Flexibility Score: inf
ROOT
ATOM      1  C   UNL     1      -6.618  85.015  -7.297  1.00  0.00     0.180 C 
ATOM      2  C   UNL     1      -5.488  84.358  -8.150  1.00  0.00     0.177 C 
ATOM      3  C   UNL     1      -5.916  84.134  -9.615  1.00  0.00     0.180 C 
ATOM      4  C   UNL     1      -6.846  85.268 -10.120  1.00  0.00     0.214 C 
ATOM      5  C   UNL     1      -6.772  86.492  -9.183  1.00  0.00     0.339 C 
ATOM      6  O   UNL     1      -7.220  86.179  -7.877  1.00  0.00    -0.332 OA
ENDROOT
BRANCH   1   7
ATOM      7  C   UNL     1      -7.722  84.006  -6.935  1.00  0.00     0.198 C 
BRANCH   7   8
ATOM      8  O   UNL     1      -8.969  84.524  -7.338  1.00  0.00    -0.347 OA
BRANCH   8   9
ATOM      9  C   UNL     1     -10.048  83.590  -7.274  1.00  0.00     0.281 C 
ATOM     10  C   UNL     1     -13.077  84.251  -9.328  1.00  0.00     0.041 C 
ATOM     11  C   UNL     1     -11.666  83.735  -9.064  1.00  0.00     0.150 C 
ATOM     12  C   UNL     1     -11.580  82.222  -9.315  1.00  0.00     0.174 C 
ATOM     13  O   UNL     1     -11.307  84.085  -7.733  1.00  0.00    -0.344 OA
ATOM     14  C   UNL     1     -10.126  81.777  -9.139  1.00  0.00     0.179 C 
ATOM     15  C   UNL     1      -9.620  82.160  -7.743  1.00  0.00     0.202 C 
BRANCH  12  16
ATOM     16  O   UNL     1     -12.426  81.541  -8.423  1.00  0.00    -0.388 OA
ATOM     17  H   UNL     1     -11.842  80.954  -7.880  1.00  0.00     0.211 HD
ENDBRANCH  12  16
BRANCH  14  18
ATOM     18  O   UNL     1      -9.320  82.377 -10.113  1.00  0.00    -0.387 OA
ATOM     19  H   UNL     1      -9.700  83.275 -10.298  1.00  0.00     0.211 HD
ENDBRANCH  14  18
BRANCH  15  20
ATOM     20  O   UNL     1     -10.088  81.194  -6.832  1.00  0.00    -0.385 OA
ATOM     21  H   UNL     1      -9.402  80.469  -6.804  1.00  0.00     0.211 HD
ENDBRANCH  15  20
ENDBRANCH   8   9
ENDBRANCH   7   8
ENDBRANCH   1   7
BRANCH   2  22
ATOM     22  O   UNL     1      -5.061  83.155  -7.567  1.00  0.00    -0.387 OA
ATOM     23  H   UNL     1      -4.490  83.404  -6.790  1.00  0.00     0.211 HD
ENDBRANCH   2  22
BRANCH   3  24
ATOM     24  O   UNL     1      -6.552  82.885  -9.766  1.00  0.00    -0.387 OA
ATOM     25  H   UNL     1      -7.523  83.031  -9.623  1.00  0.00     0.211 HD
ENDBRANCH   3  24
BRANCH   5  26
ATOM     26  O   UNL     1      -7.521  87.584  -9.712  1.00  0.00    -0.462 OA
BRANCH  26  27
ATOM     27  C   UNL     1      -6.981  88.828 -10.070  1.00  0.00     0.130 A 
ATOM     28  C   UNL     1      -6.011  89.405  -9.240  1.00  0.00     0.093 A 
ATOM     29  C   UNL     1      -7.384  89.505 -11.231  1.00  0.00     0.094 A 
ATOM     30  C   UNL     1      -5.396  90.615  -9.591  1.00  0.00     0.133 A 
ATOM     31  C   UNL     1      -6.777  90.710 -11.591  1.00  0.00     0.138 A 
ATOM     32  C   UNL     1      -5.764  91.266 -10.788  1.00  0.00     0.102 A 
ATOM     33  O   UNL     1      -7.206  91.356 -12.756  1.00  0.00    -0.484 OA
ATOM     34  C   UNL     1      -5.153  92.535 -11.228  1.00  0.00     0.174 C 
ATOM     35  C   UNL     1      -6.547  92.494 -13.328  1.00  0.00     0.211 C 
ATOM     36  O   UNL     1      -4.085  92.954 -10.715  1.00  0.00    -0.294 OA
ATOM     37  C   UNL     1      -5.852  93.369 -12.260  1.00  0.00     0.131 C 
BRANCH  30  38
ATOM     38  O   UNL     1      -4.427  91.166  -8.748  1.00  0.00    -0.507 OA
ATOM     39  H   UNL     1      -3.538  90.708  -8.593  1.00  0.00     0.293 HD
ENDBRANCH  30  38
BRANCH  35  40
ATOM     40  C   UNL     1      -5.590  92.075 -14.432  1.00  0.00    -0.003 A 
ATOM     41  C   UNL     1      -5.770  90.831 -15.063  1.00  0.00     0.057 A 
ATOM     42  C   UNL     1      -4.560  92.922 -14.881  1.00  0.00     0.011 A 
ATOM     43  C   UNL     1      -4.935  90.431 -16.111  1.00  0.00     0.158 A 
ATOM     44  C   UNL     1      -3.715  92.524 -15.921  1.00  0.00     0.051 A 
ATOM     45  C   UNL     1      -3.895  91.277 -16.548  1.00  0.00     0.160 A 
BRANCH  43  46
ATOM     46  O   UNL     1      -5.164  89.195 -16.722  1.00  0.00    -0.504 OA
ATOM     47  H   UNL     1      -4.477  88.742 -17.316  1.00  0.00     0.293 HD
ENDBRANCH  43  46
BRANCH  45  48
ATOM     48  O   UNL     1      -3.075  90.853 -17.604  1.00  0.00    -0.493 OA
ATOM     49  C   UNL     1      -3.089  91.405 -18.911  1.00  0.00     0.278 C 
ENDBRANCH  45  48
ENDBRANCH  35  40
ENDBRANCH  26  27
ENDBRANCH   5  26
BRANCH   4  50
ATOM     50  O   UNL     1      -8.181  84.824 -10.195  1.00  0.00    -0.384 OA
ATOM     51  H   UNL     1      -8.422  84.450  -9.308  1.00  0.00     0.211 HD
ENDBRANCH   4  50
TORSDOF 15
ENDMDL
MODEL 5
REMARK VINA RESULT:    -6.723      3.220     10.106
REMARK INTER + INTRA:         -12.705
REMARK INTER:                  -9.619
REMARK INTRA:                  -3.086
REMARK UNBOUND:                -1.658
REMARK SMILES COc1ccc([C@@H]2CC(=O)c3c(O)cc(O[C@H]4O[C@@H](CO[C@H]5O[C@H](C)[C@H](O)[C@@H](O)[C@@H]5O)[C@@H](O)[C@@H](O)[C@H]4O)cc3O2)cc1O
REMARK SMILES IDX 19 1 32 2 34 3 36 4 17 5 18 6 20 7 21 8 22 9 25 10 24 11
REMARK SMILES IDX 26 12 23 13 28 14 30 15 27 16 29 18 31 20 33 22 35 24 16 26
REMARK SMILES IDX 15 27 14 28 38 29 12 30 39 31 11 32 40 33 9 34 7 35 10 36
REMARK SMILES IDX 8 37 13 38 6 40 41 41 5 42 42 43 4 44 3 45 43 46 2 48 1 49
REMARK SMILES IDX 37 50
REMARK H PARENT 27 17 29 19 31 21 33 23 35 25 13 39 43 47 37 51
REMARK Flexibility Score: inf
ROOT
ATOM      1  C   UNL     1     -11.719  82.584  -6.929  1.00  0.00     0.180 C 
ATOM      2  C   UNL     1     -12.636  81.385  -7.326  1.00  0.00     0.177 C 
ATOM      3  C   UNL     1     -13.005  81.402  -8.824  1.00  0.00     0.180 C 
ATOM      4  C   UNL     1     -11.838  81.935  -9.696  1.00  0.00     0.214 C 
ATOM      5  C   UNL     1     -10.515  81.928  -8.899  1.00  0.00     0.339 C 
ATOM      6  O   UNL     1     -10.578  82.782  -7.772  1.00  0.00    -0.332 OA
ENDROOT
BRANCH   1   7
ATOM      7  C   UNL     1     -12.508  83.902  -6.833  1.00  0.00     0.198 C 
BRANCH   7   8
ATOM      8  O   UNL     1     -11.902  84.863  -7.667  1.00  0.00    -0.347 OA
BRANCH   8   9
ATOM      9  C   UNL     1     -12.646  86.073  -7.814  1.00  0.00     0.281 C 
ATOM     10  C   UNL     1     -11.927  88.238 -10.752  1.00  0.00     0.041 C 
ATOM     11  C   UNL     1     -12.586  87.078 -10.012  1.00  0.00     0.150 C 
ATOM     12  C   UNL     1     -14.116  87.213 -10.034  1.00  0.00     0.174 C 
ATOM     13  O   UNL     1     -12.063  87.040  -8.689  1.00  0.00    -0.344 OA
ATOM     14  C   UNL     1     -14.728  85.975  -9.372  1.00  0.00     0.179 C 
ATOM     15  C   UNL     1     -14.182  85.811  -7.948  1.00  0.00     0.202 C 
BRANCH  12  16
ATOM     16  O   UNL     1     -14.501  88.384  -9.360  1.00  0.00    -0.388 OA
ATOM     17  H   UNL     1     -13.841  88.517  -8.633  1.00  0.00     0.211 HD
ENDBRANCH  12  16
BRANCH  14  18
ATOM     18  O   UNL     1     -14.429  84.833 -10.126  1.00  0.00    -0.387 OA
ATOM     19  H   UNL     1     -15.273  84.319 -10.228  1.00  0.00     0.211 HD
ENDBRANCH  14  18
BRANCH  15  20
ATOM     20  O   UNL     1     -14.896  86.685  -7.108  1.00  0.00    -0.385 OA
ATOM     21  H   UNL     1     -14.464  86.636  -6.209  1.00  0.00     0.211 HD
ENDBRANCH  15  20
ENDBRANCH   8   9
ENDBRANCH   7   8
ENDBRANCH   1   7
BRANCH   2  22
ATOM     22  O   UNL     1     -13.792  81.359  -6.530  1.00  0.00    -0.387 OA
ATOM     23  H   UNL     1     -14.019  80.399  -6.393  1.00  0.00     0.211 HD
ENDBRANCH   2  22
BRANCH   3  24
ATOM     24  O   UNL     1     -14.165  82.171  -9.047  1.00  0.00    -0.387 OA
ATOM     25  H   UNL     1     -14.053  83.022  -8.549  1.00  0.00     0.211 HD
ENDBRANCH   3  24
BRANCH   5  26
ATOM     26  O   UNL     1      -9.417  82.293  -9.734  1.00  0.00    -0.462 OA
BRANCH  26  27
ATOM     27  C   UNL     1      -8.482  83.295  -9.436  1.00  0.00     0.130 A 
ATOM     28  C   UNL     1      -7.147  82.928  -9.221  1.00  0.00     0.093 A 
ATOM     29  C   UNL     1      -8.846  84.647  -9.350  1.00  0.00     0.094 A 
ATOM     30  C   UNL     1      -6.166  83.900  -8.986  1.00  0.00     0.133 A 
ATOM     31  C   UNL     1      -7.877  85.624  -9.118  1.00  0.00     0.138 A 
ATOM     32  C   UNL     1      -6.526  85.264  -8.954  1.00  0.00     0.102 A 
ATOM     33  O   UNL     1      -8.278  86.962  -9.038  1.00  0.00    -0.484 OA
ATOM     34  C   UNL     1      -5.547  86.345  -8.724  1.00  0.00     0.174 C 
ATOM     35  C   UNL     1      -7.367  88.069  -8.985  1.00  0.00     0.211 C 
ATOM     36  O   UNL     1      -4.312  86.134  -8.825  1.00  0.00    -0.294 OA
ATOM     37  C   UNL     1      -6.032  87.699  -8.300  1.00  0.00     0.131 C 
BRANCH  30  38
ATOM     38  O   UNL     1      -4.840  83.507  -8.780  1.00  0.00    -0.507 OA
ATOM     39  H   UNL     1      -4.593  82.831  -8.069  1.00  0.00     0.293 HD
ENDBRANCH  30  38
BRANCH  35  40
ATOM     40  C   UNL     1      -7.152  88.667 -10.365  1.00  0.00    -0.003 A 
ATOM     41  C   UNL     1      -8.127  88.473 -11.360  1.00  0.00     0.057 A 
ATOM     42  C   UNL     1      -6.028  89.461 -10.661  1.00  0.00     0.011 A 
ATOM     43  C   UNL     1      -7.983  89.045 -12.627  1.00  0.00     0.158 A 
ATOM     44  C   UNL     1      -5.873  90.027 -11.930  1.00  0.00     0.051 A 
ATOM     45  C   UNL     1      -6.848  89.827 -12.924  1.00  0.00     0.160 A 
BRANCH  43  46
ATOM     46  O   UNL     1      -8.988  88.841 -13.577  1.00  0.00    -0.504 OA
ATOM     47  H   UNL     1      -9.919  89.233 -13.482  1.00  0.00     0.293 HD
ENDBRANCH  43  46
BRANCH  45  48
ATOM     48  O   UNL     1      -6.730  90.392 -14.203  1.00  0.00    -0.493 OA
ATOM     49  C   UNL     1      -5.798  89.976 -15.188  1.00  0.00     0.278 C 
ENDBRANCH  45  48
ENDBRANCH  35  40
ENDBRANCH  26  27
ENDBRANCH   5  26
BRANCH   4  50
ATOM     50  O   UNL     1     -12.103  83.247 -10.137  1.00  0.00    -0.384 OA
ATOM     51  H   UNL     1     -11.249  83.630 -10.467  1.00  0.00     0.211 HD
ENDBRANCH   4  50
TORSDOF 15
ENDMDL
MODEL 6
REMARK VINA RESULT:    -6.721      1.002      1.935
REMARK INTER + INTRA:         -12.702
REMARK INTER:                 -10.786
REMARK INTRA:                  -1.916
REMARK UNBOUND:                -1.658
REMARK SMILES COc1ccc([C@@H]2CC(=O)c3c(O)cc(O[C@H]4O[C@@H](CO[C@H]5O[C@H](C)[C@H](O)[C@@H](O)[C@@H]5O)[C@@H](O)[C@@H](O)[C@H]4O)cc3O2)cc1O
REMARK SMILES IDX 19 1 32 2 34 3 36 4 17 5 18 6 20 7 21 8 22 9 25 10 24 11
REMARK SMILES IDX 26 12 23 13 28 14 30 15 27 16 29 18 31 20 33 22 35 24 16 26
REMARK SMILES IDX 15 27 14 28 38 29 12 30 39 31 11 32 40 33 9 34 7 35 10 36
REMARK SMILES IDX 8 37 13 38 6 40 41 41 5 42 42 43 4 44 3 45 43 46 2 48 1 49
REMARK SMILES IDX 37 50
REMARK H PARENT 27 17 29 19 31 21 33 23 35 25 13 39 43 47 37 51
REMARK Flexibility Score: inf
ROOT
ATOM      1  C   UNL     1      -4.000  93.285 -11.652  1.00  0.00     0.180 C 
ATOM      2  C   UNL     1      -3.577  94.539 -10.823  1.00  0.00     0.177 C 
ATOM      3  C   UNL     1      -4.753  95.132 -10.019  1.00  0.00     0.180 C 
ATOM      4  C   UNL     1      -5.711  94.026  -9.504  1.00  0.00     0.214 C 
ATOM      5  C   UNL     1      -5.037  92.639  -9.587  1.00  0.00     0.339 C 
ATOM      6  O   UNL     1      -4.723  92.288 -10.921  1.00  0.00    -0.332 OA
ENDROOT
BRANCH   1   7
ATOM      7  C   UNL     1      -4.806  93.673 -12.905  1.00  0.00     0.198 C 
BRANCH   7   8
ATOM      8  O   UNL     1      -5.933  92.832 -13.006  1.00  0.00    -0.347 OA
BRANCH   8   9
ATOM      9  C   UNL     1      -5.942  91.990 -14.160  1.00  0.00     0.281 C 
ATOM     10  C   UNL     1      -3.512  92.708 -16.883  1.00  0.00     0.041 C 
ATOM     11  C   UNL     1      -3.973  92.109 -15.558  1.00  0.00     0.150 C 
ATOM     12  C   UNL     1      -3.846  90.578 -15.574  1.00  0.00     0.174 C 
ATOM     13  O   UNL     1      -5.307  92.540 -15.316  1.00  0.00    -0.344 OA
ATOM     14  C   UNL     1      -4.220  90.040 -14.190  1.00  0.00     0.179 C 
ATOM     15  C   UNL     1      -5.632  90.498 -13.807  1.00  0.00     0.202 C 
BRANCH  12  16
ATOM     16  O   UNL     1      -4.683  90.041 -16.565  1.00  0.00    -0.388 OA
ATOM     17  H   UNL     1      -4.127  89.408 -17.086  1.00  0.00     0.211 HD
ENDBRANCH  12  16
BRANCH  14  18
ATOM     18  O   UNL     1      -3.302  90.495 -13.235  1.00  0.00    -0.387 OA
ATOM     19  H   UNL     1      -3.280  89.823 -12.505  1.00  0.00     0.211 HD
ENDBRANCH  14  18
BRANCH  15  20
ATOM     20  O   UNL     1      -6.552  89.650 -14.451  1.00  0.00    -0.385 OA
ATOM     21  H   UNL     1      -6.470  89.827 -15.430  1.00  0.00     0.211 HD
ENDBRANCH  15  20
ENDBRANCH   8   9
ENDBRANCH   7   8
ENDBRANCH   1   7
BRANCH   2  22
ATOM     22  O   UNL     1      -3.002  95.513 -11.653  1.00  0.00    -0.387 OA
ATOM     23  H   UNL     1      -3.480  96.364 -11.464  1.00  0.00     0.211 HD
ENDBRANCH   2  22
BRANCH   3  24
ATOM     24  O   UNL     1      -5.468  96.069 -10.792  1.00  0.00    -0.387 OA
ATOM     25  H   UNL     1      -6.053  95.555 -11.408  1.00  0.00     0.211 HD
ENDBRANCH   3  24
BRANCH   5  26
ATOM     26  O   UNL     1      -5.861  91.637  -8.994  1.00  0.00    -0.462 OA
BRANCH  26  27
ATOM     27  C   UNL     1      -5.478  90.304  -8.785  1.00  0.00     0.130 A 
ATOM     28  C   UNL     1      -4.742  89.987  -7.636  1.00  0.00     0.093 A 
ATOM     29  C   UNL     1      -5.812  89.286  -9.691  1.00  0.00     0.094 A 
ATOM     30  C   UNL     1      -4.393  88.660  -7.352  1.00  0.00     0.133 A 
ATOM     31  C   UNL     1      -5.471  87.960  -9.417  1.00  0.00     0.138 A 
ATOM     32  C   UNL     1      -4.778  87.630  -8.237  1.00  0.00     0.102 A 
ATOM     33  O   UNL     1      -5.820  86.972 -10.344  1.00  0.00    -0.484 OA
ATOM     34  C   UNL     1      -4.457  86.209  -7.999  1.00  0.00     0.174 C 
ATOM     35  C   UNL     1      -5.691  85.565 -10.101  1.00  0.00     0.211 C 
ATOM     36  O   UNL     1      -4.078  85.810  -6.870  1.00  0.00    -0.294 OA
ATOM     37  C   UNL     1      -4.524  85.239  -9.141  1.00  0.00     0.131 C 
BRANCH  30  38
ATOM     38  O   UNL     1      -3.663  88.371  -6.195  1.00  0.00    -0.507 OA
ATOM     39  H   UNL     1      -3.529  89.061  -5.468  1.00  0.00     0.293 HD
ENDBRANCH  30  38
BRANCH  35  40
ATOM     40  C   UNL     1      -7.004  84.969  -9.623  1.00  0.00    -0.003 A 
ATOM     41  C   UNL     1      -8.123  85.806  -9.465  1.00  0.00     0.057 A 
ATOM     42  C   UNL     1      -7.149  83.588  -9.388  1.00  0.00     0.011 A 
ATOM     43  C   UNL     1      -9.359  85.285  -9.068  1.00  0.00     0.158 A 
ATOM     44  C   UNL     1      -8.379  83.063  -8.981  1.00  0.00     0.051 A 
ATOM     45  C   UNL     1      -9.496  83.904  -8.819  1.00  0.00     0.160 A 
BRANCH  43  46
ATOM     46  O   UNL     1     -10.447  86.152  -8.944  1.00  0.00    -0.504 OA
ATOM     47  H   UNL     1     -10.872  86.616  -9.740  1.00  0.00     0.293 HD
ENDBRANCH  43  46
BRANCH  45  48
ATOM     48  O   UNL     1     -10.747  83.407  -8.426  1.00  0.00    -0.493 OA
ATOM     49  C   UNL     1     -11.603  82.628  -9.248  1.00  0.00     0.278 C 
ENDBRANCH  45  48
ENDBRANCH  35  40
ENDBRANCH  26  27
ENDBRANCH   5  26
BRANCH   4  50
ATOM     50  O   UNL     1      -6.902  94.005 -10.258  1.00  0.00    -0.384 OA
ATOM     51  H   UNL     1      -7.015  94.904 -10.662  1.00  0.00     0.211 HD
ENDBRANCH   4  50
TORSDOF 15
ENDMDL
MODEL 7
REMARK VINA RESULT:    -6.697      2.481      9.060
REMARK INTER + INTRA:         -12.662
REMARK INTER:                 -10.004
REMARK INTRA:                  -2.658
REMARK UNBOUND:                -1.658
REMARK SMILES COc1ccc([C@@H]2CC(=O)c3c(O)cc(O[C@H]4O[C@@H](CO[C@H]5O[C@H](C)[C@H](O)[C@@H](O)[C@@H]5O)[C@@H](O)[C@@H](O)[C@H]4O)cc3O2)cc1O
REMARK SMILES IDX 19 1 32 2 34 3 36 4 17 5 18 6 20 7 21 8 22 9 25 10 24 11
REMARK SMILES IDX 26 12 23 13 28 14 30 15 27 16 29 18 31 20 33 22 35 24 16 26
REMARK SMILES IDX 15 27 14 28 38 29 12 30 39 31 11 32 40 33 9 34 7 35 10 36
REMARK SMILES IDX 8 37 13 38 6 40 41 41 5 42 42 43 4 44 3 45 43 46 2 48 1 49
REMARK SMILES IDX 37 50
REMARK H PARENT 27 17 29 19 31 21 33 23 35 25 13 39 43 47 37 51
REMARK Flexibility Score: inf
ROOT
ATOM      1  C   UNL     1      -9.302  83.805  -6.959  1.00  0.00     0.180 C 
ATOM      2  C   UNL     1      -9.665  82.366  -7.443  1.00  0.00     0.177 C 
ATOM      3  C   UNL     1      -9.525  82.210  -8.972  1.00  0.00     0.180 C 
ATOM      4  C   UNL     1      -8.343  83.048  -9.527  1.00  0.00     0.214 C 
ATOM      5  C   UNL     1      -7.399  83.483  -8.386  1.00  0.00     0.339 C 
ATOM      6  O   UNL     1      -8.058  84.317  -7.451  1.00  0.00    -0.332 OA
ENDROOT
BRANCH   1   7
ATOM      7  C   UNL     1     -10.421  84.814  -7.275  1.00  0.00     0.198 C 
BRANCH   7   8
ATOM      8  O   UNL     1      -9.849  85.975  -7.833  1.00  0.00    -0.347 OA
BRANCH   8   9
ATOM      9  C   UNL     1     -10.394  86.353  -9.098  1.00  0.00     0.281 C 
ATOM     10  C   UNL     1     -13.867  85.296  -9.907  1.00  0.00     0.041 C 
ATOM     11  C   UNL     1     -12.799  86.193  -9.292  1.00  0.00     0.150 C 
ATOM     12  C   UNL     1     -12.885  87.618  -9.860  1.00  0.00     0.174 C 
ATOM     13  O   UNL     1     -11.529  85.594  -9.520  1.00  0.00    -0.344 OA
ATOM     14  C   UNL     1     -11.865  88.499  -9.135  1.00  0.00     0.179 C 
ATOM     15  C   UNL     1     -10.458  87.906  -9.275  1.00  0.00     0.202 C 
BRANCH  12  16
ATOM     16  O   UNL     1     -12.637  87.596 -11.243  1.00  0.00    -0.388 OA
ATOM     17  H   UNL     1     -12.619  86.641 -11.506  1.00  0.00     0.211 HD
ENDBRANCH  12  16
BRANCH  14  18
ATOM     18  O   UNL     1     -12.199  88.603  -7.779  1.00  0.00    -0.387 OA
ATOM     19  H   UNL     1     -13.181  88.738  -7.727  1.00  0.00     0.211 HD
ENDBRANCH  14  18
BRANCH  15  20
ATOM     20  O   UNL     1      -9.959  88.268 -10.540  1.00  0.00    -0.385 OA
ATOM     21  H   UNL     1      -9.765  89.247 -10.504  1.00  0.00     0.211 HD
ENDBRANCH  15  20
ENDBRANCH   8   9
ENDBRANCH   7   8
ENDBRANCH   1   7
BRANCH   2  22
ATOM     22  O   UNL     1     -10.956  82.011  -7.024  1.00  0.00    -0.387 OA
ATOM     23  H   UNL     1     -11.360  81.486  -7.767  1.00  0.00     0.211 HD
ENDBRANCH   2  22
BRANCH   3  24
ATOM     24  O   UNL     1     -10.721  82.571  -9.624  1.00  0.00    -0.387 OA
ATOM     25  H   UNL     1     -11.366  81.829  -9.486  1.00  0.00     0.211 HD
ENDBRANCH   3  24
BRANCH   5  26
ATOM     26  O   UNL     1      -6.243  84.140  -8.904  1.00  0.00    -0.462 OA
BRANCH  26  27
ATOM     27  C   UNL     1      -5.995  85.517  -8.812  1.00  0.00     0.130 A 
ATOM     28  C   UNL     1      -5.066  85.972  -7.867  1.00  0.00     0.093 A 
ATOM     29  C   UNL     1      -6.647  86.446  -9.636  1.00  0.00     0.094 A 
ATOM     30  C   UNL     1      -4.736  87.331  -7.783  1.00  0.00     0.133 A 
ATOM     31  C   UNL     1      -6.326  87.802  -9.562  1.00  0.00     0.138 A 
ATOM     32  C   UNL     1      -5.354  88.256  -8.651  1.00  0.00     0.102 A 
ATOM     33  O   UNL     1      -6.998  88.698 -10.401  1.00  0.00    -0.484 OA
ATOM     34  C   UNL     1      -5.050  89.700  -8.629  1.00  0.00     0.174 C 
ATOM     35  C   UNL     1      -6.638  90.078 -10.550  1.00  0.00     0.211 C 
ATOM     36  O   UNL     1      -4.031  90.140  -8.040  1.00  0.00    -0.294 OA
ATOM     37  C   UNL     1      -6.007  90.663  -9.266  1.00  0.00     0.131 C 
BRANCH  30  38
ATOM     38  O   UNL     1      -3.801  87.757  -6.835  1.00  0.00    -0.507 OA
ATOM     39  H   UNL     1      -4.089  88.171  -5.957  1.00  0.00     0.293 HD
ENDBRANCH  30  38
BRANCH  35  40
ATOM     40  C   UNL     1      -5.749  90.283 -11.765  1.00  0.00    -0.003 A 
ATOM     41  C   UNL     1      -5.931  89.467 -12.897  1.00  0.00     0.057 A 
ATOM     42  C   UNL     1      -4.783  91.306 -11.814  1.00  0.00     0.011 A 
ATOM     43  C   UNL     1      -5.161  89.655 -14.048  1.00  0.00     0.158 A 
ATOM     44  C   UNL     1      -4.002  91.492 -12.958  1.00  0.00     0.051 A 
ATOM     45  C   UNL     1      -4.184  90.671 -14.087  1.00  0.00     0.160 A 
BRANCH  43  46
ATOM     46  O   UNL     1      -5.391  88.833 -15.155  1.00  0.00    -0.504 OA
ATOM     47  H   UNL     1      -6.003  89.102 -15.919  1.00  0.00     0.293 HD
ENDBRANCH  43  46
BRANCH  45  48
ATOM     48  O   UNL     1      -3.427  90.841 -15.256  1.00  0.00    -0.493 OA
ATOM     49  C   UNL     1      -3.460  91.995 -16.080  1.00  0.00     0.278 C 
ENDBRANCH  45  48
ENDBRANCH  35  40
ENDBRANCH  26  27
ENDBRANCH   5  26
BRANCH   4  50
ATOM     50  O   UNL     1      -8.815  84.194 -10.198  1.00  0.00    -0.384 OA
ATOM     51  H   UNL     1      -8.184  84.935 -10.004  1.00  0.00     0.211 HD
ENDBRANCH   4  50
TORSDOF 15
ENDMDL
MODEL 8
REMARK VINA RESULT:    -6.660      2.608      4.912
REMARK INTER + INTRA:         -12.601
REMARK INTER:                  -9.741
REMARK INTRA:                  -2.860
REMARK UNBOUND:                -1.658
REMARK SMILES COc1ccc([C@@H]2CC(=O)c3c(O)cc(O[C@H]4O[C@@H](CO[C@H]5O[C@H](C)[C@H](O)[C@@H](O)[C@@H]5O)[C@@H](O)[C@@H](O)[C@H]4O)cc3O2)cc1O
REMARK SMILES IDX 19 1 32 2 34 3 36 4 17 5 18 6 20 7 21 8 22 9 25 10 24 11
REMARK SMILES IDX 26 12 23 13 28 14 30 15 27 16 29 18 31 20 33 22 35 24 16 26
REMARK SMILES IDX 15 27 14 28 38 29 12 30 39 31 11 32 40 33 9 34 7 35 10 36
REMARK SMILES IDX 8 37 13 38 6 40 41 41 5 42 42 43 4 44 3 45 43 46 2 48 1 49
REMARK SMILES IDX 37 50
REMARK H PARENT 27 17 29 19 31 21 33 23 35 25 13 39 43 47 37 51
REMARK Flexibility Score: inf
ROOT
ATOM      1  C   UNL     1      -4.929  89.993 -13.613  1.00  0.00     0.180 C 
ATOM      2  C   UNL     1      -3.813  90.728 -14.421  1.00  0.00     0.177 C 
ATOM      3  C   UNL     1      -3.990  92.260 -14.403  1.00  0.00     0.180 C 
ATOM      4  C   UNL     1      -4.557  92.756 -13.047  1.00  0.00     0.214 C 
ATOM      5  C   UNL     1      -4.418  91.662 -11.966  1.00  0.00     0.339 C 
ATOM      6  O   UNL     1      -5.161  90.503 -12.294  1.00  0.00    -0.332 OA
ENDROOT
BRANCH   1   7
ATOM      7  C   UNL     1      -6.263  89.959 -14.380  1.00  0.00     0.198 C 
BRANCH   7   8
ATOM      8  O   UNL     1      -7.269  90.536 -13.579  1.00  0.00    -0.347 OA
BRANCH   8   9
ATOM      9  C   UNL     1      -8.273  89.621 -13.139  1.00  0.00     0.281 C 
ATOM     10  C   UNL     1      -7.669  87.718 -10.000  1.00  0.00     0.041 C 
ATOM     11  C   UNL     1      -8.111  88.919 -10.831  1.00  0.00     0.150 C 
ATOM     12  C   UNL     1      -9.594  89.237 -10.591  1.00  0.00     0.174 C 
ATOM     13  O   UNL     1      -7.830  88.642 -12.198  1.00  0.00    -0.344 OA
ATOM     14  C   UNL     1      -9.956  90.508 -11.363  1.00  0.00     0.179 C 
ATOM     15  C   UNL     1      -9.637  90.331 -12.853  1.00  0.00     0.202 C 
BRANCH  12  16
ATOM     16  O   UNL     1     -10.387  88.154 -11.006  1.00  0.00    -0.388 OA
ATOM     17  H   UNL     1     -10.600  88.315 -11.959  1.00  0.00     0.211 HD
ENDBRANCH  12  16
BRANCH  14  18
ATOM     18  O   UNL     1      -9.239  91.598 -10.854  1.00  0.00    -0.387 OA
ATOM     19  H   UNL     1      -9.738  92.420 -11.103  1.00  0.00     0.211 HD
ENDBRANCH  14  18
BRANCH  15  20
ATOM     20  O   UNL     1     -10.691  89.605 -13.439  1.00  0.00    -0.385 OA
ATOM     21  H   UNL     1     -11.484  89.719 -12.843  1.00  0.00     0.211 HD
ENDBRANCH  15  20
ENDBRANCH   8   9
ENDBRANCH   7   8
ENDBRANCH   1   7
BRANCH   2  22
ATOM     22  O   UNL     1      -3.758  90.250 -15.739  1.00  0.00    -0.387 OA
ATOM     23  H   UNL     1      -3.253  90.927 -16.265  1.00  0.00     0.211 HD
ENDBRANCH   2  22
BRANCH   3  24
ATOM     24  O   UNL     1      -4.825  92.682 -15.458  1.00  0.00    -0.387 OA
ATOM     25  H   UNL     1      -4.739  93.669 -15.524  1.00  0.00     0.211 HD
ENDBRANCH   3  24
BRANCH   5  26
ATOM     26  O   UNL     1      -4.815  92.157 -10.688  1.00  0.00    -0.462 OA
BRANCH  26  27
ATOM     27  C   UNL     1      -5.103  91.356  -9.572  1.00  0.00     0.130 A 
ATOM     28  C   UNL     1      -6.371  91.454  -8.983  1.00  0.00     0.093 A 
ATOM     29  C   UNL     1      -4.162  90.466  -9.035  1.00  0.00     0.094 A 
ATOM     30  C   UNL     1      -6.727  90.627  -7.908  1.00  0.00     0.133 A 
ATOM     31  C   UNL     1      -4.505  89.638  -7.965  1.00  0.00     0.138 A 
ATOM     32  C   UNL     1      -5.795  89.694  -7.405  1.00  0.00     0.102 A 
ATOM     33  O   UNL     1      -3.539  88.763  -7.456  1.00  0.00    -0.484 OA
ATOM     34  C   UNL     1      -6.102  88.784  -6.284  1.00  0.00     0.174 C 
ATOM     35  C   UNL     1      -3.816  87.741  -6.489  1.00  0.00     0.211 C 
ATOM     36  O   UNL     1      -7.285  88.593  -5.907  1.00  0.00    -0.294 OA
ATOM     37  C   UNL     1      -4.976  88.126  -5.543  1.00  0.00     0.131 C 
BRANCH  30  38
ATOM     38  O   UNL     1      -8.000  90.741  -7.343  1.00  0.00    -0.507 OA
ATOM     39  H   UNL     1      -8.804  90.284  -7.753  1.00  0.00     0.293 HD
ENDBRANCH  30  38
BRANCH  35  40
ATOM     40  C   UNL     1      -4.050  86.399  -7.161  1.00  0.00    -0.003 A 
ATOM     41  C   UNL     1      -4.400  86.363  -8.523  1.00  0.00     0.057 A 
ATOM     42  C   UNL     1      -3.872  85.184  -6.473  1.00  0.00     0.011 A 
ATOM     43  C   UNL     1      -4.581  85.146  -9.186  1.00  0.00     0.158 A 
ATOM     44  C   UNL     1      -4.062  83.963  -7.127  1.00  0.00     0.051 A 
ATOM     45  C   UNL     1      -4.416  83.931  -8.489  1.00  0.00     0.160 A 
BRANCH  43  46
ATOM     46  O   UNL     1      -4.909  85.159 -10.544  1.00  0.00    -0.504 OA
ATOM     47  H   UNL     1      -4.941  86.014 -11.091  1.00  0.00     0.293 HD
ENDBRANCH  43  46
BRANCH  45  48
ATOM     48  O   UNL     1      -4.601  82.723  -9.178  1.00  0.00    -0.493 OA
ATOM     49  C   UNL     1      -3.558  81.956  -9.758  1.00  0.00     0.278 C 
ENDBRANCH  45  48
ENDBRANCH  35  40
ENDBRANCH  26  27
ENDBRANCH   5  26
BRANCH   4  50
ATOM     50  O   UNL     1      -5.916  93.110 -13.172  1.00  0.00    -0.384 OA
ATOM     51  H   UNL     1      -6.179  93.582 -12.341  1.00  0.00     0.211 HD
ENDBRANCH   4  50
TORSDOF 15
ENDMDL
MODEL 9
REMARK VINA RESULT:    -6.636      3.763      6.676
REMARK INTER + INTRA:         -12.561
REMARK INTER:                  -8.940
REMARK INTRA:                  -3.621
REMARK UNBOUND:                -1.658
REMARK SMILES COc1ccc([C@@H]2CC(=O)c3c(O)cc(O[C@H]4O[C@@H](CO[C@H]5O[C@H](C)[C@H](O)[C@@H](O)[C@@H]5O)[C@@H](O)[C@@H](O)[C@H]4O)cc3O2)cc1O
REMARK SMILES IDX 19 1 32 2 34 3 36 4 17 5 18 6 20 7 21 8 22 9 25 10 24 11
REMARK SMILES IDX 26 12 23 13 28 14 30 15 27 16 29 18 31 20 33 22 35 24 16 26
REMARK SMILES IDX 15 27 14 28 38 29 12 30 39 31 11 32 40 33 9 34 7 35 10 36
REMARK SMILES IDX 8 37 13 38 6 40 41 41 5 42 42 43 4 44 3 45 43 46 2 48 1 49
REMARK SMILES IDX 37 50
REMARK H PARENT 27 17 29 19 31 21 33 23 35 25 13 39 43 47 37 51
REMARK Flexibility Score: inf
ROOT
ATOM      1  C   UNL     1      -6.053  91.745 -17.910  1.00  0.00     0.180 C 
ATOM      2  C   UNL     1      -5.213  91.627 -19.221  1.00  0.00     0.177 C 
ATOM      3  C   UNL     1      -3.770  92.142 -19.039  1.00  0.00     0.180 C 
ATOM      4  C   UNL     1      -3.225  91.832 -17.620  1.00  0.00     0.214 C 
ATOM      5  C   UNL     1      -4.097  90.766 -16.922  1.00  0.00     0.339 C 
ATOM      6  O   UNL     1      -5.426  91.217 -16.735  1.00  0.00    -0.332 OA
ENDROOT
BRANCH   1   7
ATOM      7  C   UNL     1      -6.488  93.196 -17.638  1.00  0.00     0.198 C 
BRANCH   7   8
ATOM      8  O   UNL     1      -6.113  93.550 -16.326  1.00  0.00    -0.347 OA
BRANCH   8   9
ATOM      9  C   UNL     1      -7.075  94.344 -15.629  1.00  0.00     0.281 C 
ATOM     10  C   UNL     1      -8.665  92.916 -12.584  1.00  0.00     0.041 C 
ATOM     11  C   UNL     1      -7.576  93.639 -13.372  1.00  0.00     0.150 C 
ATOM     12  C   UNL     1      -7.372  95.067 -12.841  1.00  0.00     0.174 C 
ATOM     13  O   UNL     1      -7.935  93.619 -14.748  1.00  0.00    -0.344 OA
ATOM     14  C   UNL     1      -6.202  95.707 -13.593  1.00  0.00     0.179 C 
ATOM     15  C   UNL     1      -6.467  95.685 -15.103  1.00  0.00     0.202 C 
BRANCH  12  16
ATOM     16  O   UNL     1      -8.549  95.813 -13.013  1.00  0.00    -0.388 OA
ATOM     17  H   UNL     1      -8.869  96.042 -12.105  1.00  0.00     0.211 HD
ENDBRANCH  12  16
BRANCH  14  18
ATOM     18  O   UNL     1      -5.016  95.016 -13.312  1.00  0.00    -0.387 OA
ATOM     19  H   UNL     1      -5.203  94.049 -13.435  1.00  0.00     0.211 HD
ENDBRANCH  14  18
BRANCH  15  20
ATOM     20  O   UNL     1      -7.327  96.757 -15.408  1.00  0.00    -0.385 OA
ATOM     21  H   UNL     1      -7.826  96.972 -14.570  1.00  0.00     0.211 HD
ENDBRANCH  15  20
ENDBRANCH   8   9
ENDBRANCH   7   8
ENDBRANCH   1   7
BRANCH   2  22
ATOM     22  O   UNL     1      -5.849  92.292 -20.280  1.00  0.00    -0.387 OA
ATOM     23  H   UNL     1      -5.128  92.714 -20.821  1.00  0.00     0.211 HD
ENDBRANCH   2  22
BRANCH   3  24
ATOM     24  O   UNL     1      -3.696  93.527 -19.292  1.00  0.00    -0.387 OA
ATOM     25  H   UNL     1      -2.770  93.721 -19.592  1.00  0.00     0.211 HD
ENDBRANCH   3  24
BRANCH   5  26
ATOM     26  O   UNL     1      -3.526  90.381 -15.672  1.00  0.00    -0.462 OA
BRANCH  26  27
ATOM     27  C   UNL     1      -4.183  90.454 -14.435  1.00  0.00     0.130 A 
ATOM     28  C   UNL     1      -3.889  91.524 -13.580  1.00  0.00     0.093 A 
ATOM     29  C   UNL     1      -5.119  89.489 -14.034  1.00  0.00     0.094 A 
ATOM     30  C   UNL     1      -4.568  91.675 -12.362  1.00  0.00     0.133 A 
ATOM     31  C   UNL     1      -5.801  89.630 -12.824  1.00  0.00     0.138 A 
ATOM     32  C   UNL     1      -5.549  90.733 -11.987  1.00  0.00     0.102 A 
ATOM     33  O   UNL     1      -6.728  88.648 -12.458  1.00  0.00    -0.484 OA
ATOM     34  C   UNL     1      -6.311  90.831 -10.727  1.00  0.00     0.174 C 
ATOM     35  C   UNL     1      -7.618  88.765 -11.340  1.00  0.00     0.211 C 
ATOM     36  O   UNL     1      -6.332  91.898 -10.062  1.00  0.00    -0.294 OA
ATOM     37  C   UNL     1      -7.020  89.620 -10.200  1.00  0.00     0.131 C 
BRANCH  30  38
ATOM     38  O   UNL     1      -4.260  92.755 -11.530  1.00  0.00    -0.507 OA
ATOM     39  H   UNL     1      -3.581  92.672 -10.785  1.00  0.00     0.293 HD
ENDBRANCH  30  38
BRANCH  35  40
ATOM     40  C   UNL     1      -8.982  89.272 -11.777  1.00  0.00    -0.003 A 
ATOM     41  C   UNL     1      -9.864  89.793 -10.813  1.00  0.00     0.057 A 
ATOM     42  C   UNL     1      -9.368  89.289 -13.131  1.00  0.00     0.011 A 
ATOM     43  C   UNL     1     -11.110  90.308 -11.184  1.00  0.00     0.158 A 
ATOM     44  C   UNL     1     -10.617  89.792 -13.507  1.00  0.00     0.051 A 
ATOM     45  C   UNL     1     -11.498  90.309 -12.540  1.00  0.00     0.160 A 
BRANCH  43  46
ATOM     46  O   UNL     1     -11.944  90.834 -10.194  1.00  0.00    -0.504 OA
ATOM     47  H   UNL     1     -11.932  90.502  -9.235  1.00  0.00     0.293 HD
ENDBRANCH  43  46
BRANCH  45  48
ATOM     48  O   UNL     1     -12.752  90.835 -12.885  1.00  0.00    -0.493 OA
ATOM     49  C   UNL     1     -12.983  92.175 -13.291  1.00  0.00     0.278 C 
ENDBRANCH  45  48
ENDBRANCH  35  40
ENDBRANCH  26  27
ENDBRANCH   5  26
BRANCH   4  50
ATOM     50  O   UNL     1      -3.200  92.998 -16.828  1.00  0.00    -0.384 OA
ATOM     51  H   UNL     1      -3.936  92.926 -16.167  1.00  0.00     0.211 HD
ENDBRANCH   4  50
TORSDOF 15
ENDMDL
