MODEL 1
REMARK VINA RESULT:    -3.522      0.000      0.000
REMARK INTER + INTRA:          -4.719
REMARK INTER:                  -4.551
REMARK INTRA:                  -0.168
REMARK UNBOUND:                -0.168
REMARK SMILES CCCCCCC(=O)[O-]
REMARK SMILES IDX 5 1 6 2 7 3 8 4 9 5 4 6 3 7 2 8 1 9
REMARK H PARENT
REMARK Flexibility Score: inf
ROOT
ATOM      1  C   UNL     1       7.710  33.309  -2.491  1.00  0.00     0.006 C 
ENDROOT
BRANCH   1   2
ATOM      2  C   UNL     1       8.196  33.658  -1.075  1.00  0.00     0.053 C 
BRANCH   2   3
ATOM      3  C   UNL     1       9.538  33.070  -0.772  1.00  0.00     0.041 C 
ATOM      4  O   UNL     1       9.655  31.834  -0.558  1.00  0.00    -0.550 OA
ATOM      5  O   UNL     1      10.657  33.890  -0.699  1.00  0.00    -0.550 OA
ENDBRANCH   2   3
ENDBRANCH   1   2
BRANCH   1   6
ATOM      6  C   UNL     1       6.202  33.555  -2.703  1.00  0.00     0.000 C 
BRANCH   6   7
ATOM      7  C   UNL     1       5.609  34.510  -1.653  1.00  0.00    -0.000 C 
BRANCH   7   8
ATOM      8  C   UNL     1       4.087  34.672  -1.796  1.00  0.00    -0.003 C 
ATOM      9  C   UNL     1       3.399  33.396  -2.280  1.00  0.00     0.004 C 
ENDBRANCH   7   8
ENDBRANCH   6   7
ENDBRANCH   1   6
TORSDOF 5
ENDMDL
MODEL 2
REMARK VINA RESULT:    -3.470      0.869      1.728
REMARK INTER + INTRA:          -4.653
REMARK INTER:                  -4.433
REMARK INTRA:                  -0.219
REMARK UNBOUND:                -0.168
REMARK SMILES CCCCCCC(=O)[O-]
REMARK SMILES IDX 5 1 6 2 7 3 8 4 9 5 4 6 3 7 2 8 1 9
REMARK H PARENT
REMARK Flexibility Score: inf
ROOT
ATOM      1  C   UNL     1       7.999  33.970  -1.149  1.00  0.00     0.006 C 
ENDROOT
BRANCH   1   2
ATOM      2  C   UNL     1       9.127  33.332  -0.323  1.00  0.00     0.053 C 
BRANCH   2   3
ATOM      3  C   UNL     1      10.462  33.460  -0.987  1.00  0.00     0.041 C 
ATOM      4  O   UNL     1      10.953  34.599  -1.208  1.00  0.00    -0.550 OA
ATOM      5  O   UNL     1      11.154  32.323  -1.384  1.00  0.00    -0.550 OA
ENDBRANCH   2   3
ENDBRANCH   1   2
BRANCH   1   6
ATOM      6  C   UNL     1       7.780  33.294  -2.519  1.00  0.00     0.000 C 
BRANCH   6   7
ATOM      7  C   UNL     1       6.293  33.232  -2.912  1.00  0.00    -0.000 C 
BRANCH   7   8
ATOM      8  C   UNL     1       5.444  34.280  -2.175  1.00  0.00    -0.003 C 
ATOM      9  C   UNL     1       3.950  33.958  -2.206  1.00  0.00     0.004 C 
ENDBRANCH   7   8
ENDBRANCH   6   7
ENDBRANCH   1   6
TORSDOF 5
ENDMDL
MODEL 3
REMARK VINA RESULT:    -3.464     14.647     16.088
REMARK INTER + INTRA:          -4.645
REMARK INTER:                  -4.456
REMARK INTRA:                  -0.189
REMARK UNBOUND:                -0.168
REMARK SMILES CCCCCCC(=O)[O-]
REMARK SMILES IDX 5 1 6 2 7 3 8 4 9 5 4 6 3 7 2 8 1 9
REMARK H PARENT
REMARK Flexibility Score: inf
ROOT
ATOM      1  C   UNL     1      20.517  36.322   3.639  1.00  0.00     0.006 C 
ENDROOT
BRANCH   1   2
ATOM      2  C   UNL     1      20.893  36.212   2.153  1.00  0.00     0.053 C 
BRANCH   2   3
ATOM      3  C   UNL     1      21.466  34.874   1.806  1.00  0.00     0.041 C 
ATOM      4  O   UNL     1      21.534  34.507   0.603  1.00  0.00    -0.550 OA
ATOM      5  O   UNL     1      21.901  34.021   2.812  1.00  0.00    -0.550 OA
ENDBRANCH   2   3
ENDBRANCH   1   2
BRANCH   1   6
ATOM      6  C   UNL     1      21.376  37.338   4.419  1.00  0.00     0.000 C 
BRANCH   6   7
ATOM      7  C   UNL     1      22.335  38.120   3.506  1.00  0.00    -0.000 C 
BRANCH   7   8
ATOM      8  C   UNL     1      23.125  39.199   4.265  1.00  0.00    -0.003 C 
ATOM      9  C   UNL     1      22.815  40.613   3.777  1.00  0.00     0.004 C 
ENDBRANCH   7   8
ENDBRANCH   6   7
ENDBRANCH   1   6
TORSDOF 5
ENDMDL
MODEL 4
REMARK VINA RESULT:    -3.443      1.114      1.385
REMARK INTER + INTRA:          -4.618
REMARK INTER:                  -4.528
REMARK INTRA:                  -0.090
REMARK UNBOUND:                -0.168
REMARK SMILES CCCCCCC(=O)[O-]
REMARK SMILES IDX 5 1 6 2 7 3 8 4 9 5 4 6 3 7 2 8 1 9
REMARK H PARENT
REMARK Flexibility Score: inf
ROOT
ATOM      1  C   UNL     1       8.076  33.501  -1.739  1.00  0.00     0.006 C 
ENDROOT
BRANCH   1   2
ATOM      2  C   UNL     1       8.990  33.282  -0.523  1.00  0.00     0.053 C 
BRANCH   2   3
ATOM      3  C   UNL     1      10.198  34.164  -0.550  1.00  0.00     0.041 C 
ATOM      4  O   UNL     1      11.134  33.932  -1.360  1.00  0.00    -0.550 OA
ATOM      5  O   UNL     1      10.303  35.228   0.337  1.00  0.00    -0.550 OA
ENDBRANCH   2   3
ENDBRANCH   1   2
BRANCH   1   6
ATOM      6  C   UNL     1       6.760  34.229  -1.399  1.00  0.00     0.000 C 
BRANCH   6   7
ATOM      7  C   UNL     1       5.694  34.057  -2.495  1.00  0.00    -0.000 C 
BRANCH   7   8
ATOM      8  C   UNL     1       4.300  34.518  -2.040  1.00  0.00    -0.003 C 
ATOM      9  C   UNL     1       3.241  33.424  -2.175  1.00  0.00     0.004 C 
ENDBRANCH   7   8
ENDBRANCH   6   7
ENDBRANCH   1   6
TORSDOF 5
ENDMDL
MODEL 5
REMARK VINA RESULT:    -3.420      3.269      5.099
REMARK INTER + INTRA:          -4.588
REMARK INTER:                  -4.399
REMARK INTRA:                  -0.189
REMARK UNBOUND:                -0.168
REMARK SMILES CCCCCCC(=O)[O-]
REMARK SMILES IDX 5 1 6 2 7 3 8 4 9 5 4 6 3 7 2 8 1 9
REMARK H PARENT
REMARK Flexibility Score: inf
ROOT
ATOM      1  C   UNL     1       6.576  33.376  -2.843  1.00  0.00     0.006 C 
ENDROOT
BRANCH   1   2
ATOM      2  C   UNL     1       5.846  34.286  -1.844  1.00  0.00     0.053 C 
BRANCH   2   3
ATOM      3  C   UNL     1       4.376  34.369  -2.116  1.00  0.00     0.041 C 
ATOM      4  O   UNL     1       3.781  35.477  -2.047  1.00  0.00    -0.550 OA
ATOM      5  O   UNL     1       3.658  33.220  -2.420  1.00  0.00    -0.550 OA
ENDBRANCH   2   3
ENDBRANCH   1   2
BRANCH   1   6
ATOM      6  C   UNL     1       8.055  33.125  -2.483  1.00  0.00     0.000 C 
BRANCH   6   7
ATOM      7  C   UNL     1       8.440  33.738  -1.125  1.00  0.00    -0.000 C 
BRANCH   7   8
ATOM      8  C   UNL     1       9.251  32.769  -0.249  1.00  0.00    -0.003 C 
ATOM      9  C   UNL     1      10.045  31.753  -1.069  1.00  0.00     0.004 C 
ENDBRANCH   7   8
ENDBRANCH   6   7
ENDBRANCH   1   6
TORSDOF 5
ENDMDL
MODEL 6
REMARK VINA RESULT:    -3.396      0.920      1.210
REMARK INTER + INTRA:          -4.557
REMARK INTER:                  -4.449
REMARK INTRA:                  -0.108
REMARK UNBOUND:                -0.168
REMARK SMILES CCCCCCC(=O)[O-]
REMARK SMILES IDX 5 1 6 2 7 3 8 4 9 5 4 6 3 7 2 8 1 9
REMARK H PARENT
REMARK Flexibility Score: inf
ROOT
ATOM      1  C   UNL     1       7.005  33.730  -2.101  1.00  0.00     0.006 C 
ENDROOT
BRANCH   1   2
ATOM      2  C   UNL     1       7.742  34.140  -0.817  1.00  0.00     0.053 C 
BRANCH   2   3
ATOM      3  C   UNL     1       9.112  33.543  -0.730  1.00  0.00     0.041 C 
ATOM      4  O   UNL     1       9.302  32.342  -1.057  1.00  0.00    -0.550 OA
ATOM      5  O   UNL     1      10.176  34.306  -0.264  1.00  0.00    -0.550 OA
ENDBRANCH   2   3
ENDBRANCH   1   2
BRANCH   1   6
ATOM      6  C   UNL     1       5.646  34.436  -2.284  1.00  0.00     0.000 C 
BRANCH   6   7
ATOM      7  C   UNL     1       4.486  33.441  -2.462  1.00  0.00    -0.000 C 
BRANCH   7   8
ATOM      8  C   UNL     1       3.135  34.024  -2.019  1.00  0.00    -0.003 C 
ATOM      9  C   UNL     1       2.918  35.454  -2.510  1.00  0.00     0.004 C 
ENDBRANCH   7   8
ENDBRANCH   6   7
ENDBRANCH   1   6
TORSDOF 5
ENDMDL
MODEL 7
REMARK VINA RESULT:    -3.341     11.485     13.230
REMARK INTER + INTRA:          -4.486
REMARK INTER:                  -4.183
REMARK INTRA:                  -0.303
REMARK UNBOUND:                -0.168
REMARK SMILES CCCCCCC(=O)[O-]
REMARK SMILES IDX 5 1 6 2 7 3 8 4 9 5 4 6 3 7 2 8 1 9
REMARK H PARENT
REMARK Flexibility Score: inf
ROOT
ATOM      1  C   UNL     1      13.714  28.963   8.545  1.00  0.00     0.006 C 
ENDROOT
BRANCH   1   2
ATOM      2  C   UNL     1      12.205  29.070   8.274  1.00  0.00     0.053 C 
BRANCH   2   3
ATOM      3  C   UNL     1      11.737  28.080   7.253  1.00  0.00     0.041 C 
ATOM      4  O   UNL     1      12.324  27.991   6.142  1.00  0.00    -0.550 OA
ATOM      5  O   UNL     1      10.637  27.274   7.518  1.00  0.00    -0.550 OA
ENDBRANCH   2   3
ENDBRANCH   1   2
BRANCH   1   6
ATOM      6  C   UNL     1      14.164  27.554   8.981  1.00  0.00     0.000 C 
BRANCH   6   7
ATOM      7  C   UNL     1      15.090  26.887   7.949  1.00  0.00    -0.000 C 
BRANCH   7   8
ATOM      8  C   UNL     1      15.963  27.904   7.196  1.00  0.00    -0.003 C 
ATOM      9  C   UNL     1      16.078  27.596   5.704  1.00  0.00     0.004 C 
ENDBRANCH   7   8
ENDBRANCH   6   7
ENDBRANCH   1   6
TORSDOF 5
ENDMDL
MODEL 8
REMARK VINA RESULT:    -3.293      2.814      4.836
REMARK INTER + INTRA:          -4.423
REMARK INTER:                  -4.044
REMARK INTRA:                  -0.379
REMARK UNBOUND:                -0.168
REMARK SMILES CCCCCCC(=O)[O-]
REMARK SMILES IDX 5 1 6 2 7 3 8 4 9 5 4 6 3 7 2 8 1 9
REMARK H PARENT
REMARK Flexibility Score: inf
ROOT
ATOM      1  C   UNL     1       9.243  33.330  -0.653  1.00  0.00     0.006 C 
ENDROOT
BRANCH   1   2
ATOM      2  C   UNL     1       8.144  33.370  -1.726  1.00  0.00     0.053 C 
BRANCH   2   3
ATOM      3  C   UNL     1       7.019  34.285  -1.357  1.00  0.00     0.041 C 
ATOM      4  O   UNL     1       7.009  34.856  -0.235  1.00  0.00    -0.550 OA
ATOM      5  O   UNL     1       5.967  34.487  -2.242  1.00  0.00    -0.550 OA
ENDBRANCH   2   3
ENDBRANCH   1   2
BRANCH   1   6
ATOM      6  C   UNL     1      10.671  33.425  -1.228  1.00  0.00     0.000 C 
BRANCH   6   7
ATOM      7  C   UNL     1      11.161  34.878  -1.347  1.00  0.00    -0.000 C 
BRANCH   7   8
ATOM      8  C   UNL     1      10.519  35.805  -0.303  1.00  0.00    -0.003 C 
ATOM      9  C   UNL     1       9.871  37.040  -0.927  1.00  0.00     0.004 C 
ENDBRANCH   7   8
ENDBRANCH   6   7
ENDBRANCH   1   6
TORSDOF 5
ENDMDL
MODEL 9
REMARK VINA RESULT:    -3.243      2.148      3.203
REMARK INTER + INTRA:          -4.359
REMARK INTER:                  -4.140
REMARK INTRA:                  -0.219
REMARK UNBOUND:                -0.168
REMARK SMILES CCCCCCC(=O)[O-]
REMARK SMILES IDX 5 1 6 2 7 3 8 4 9 5 4 6 3 7 2 8 1 9
REMARK H PARENT
REMARK Flexibility Score: inf
ROOT
ATOM      1  C   UNL     1      10.393  33.962  -1.016  1.00  0.00     0.006 C 
ENDROOT
BRANCH   1   2
ATOM      2  C   UNL     1      10.183  35.484  -0.999  1.00  0.00     0.053 C 
BRANCH   2   3
ATOM      3  C   UNL     1      10.775  36.129   0.215  1.00  0.00     0.041 C 
ATOM      4  O   UNL     1      10.437  35.743   1.365  1.00  0.00    -0.550 OA
ATOM      5  O   UNL     1      11.682  37.172   0.077  1.00  0.00    -0.550 OA
ENDBRANCH   2   3
ENDBRANCH   1   2
BRANCH   1   6
ATOM      6  C   UNL     1       9.078  33.157  -0.954  1.00  0.00     0.000 C 
BRANCH   6   7
ATOM      7  C   UNL     1       7.834  34.054  -1.073  1.00  0.00    -0.000 C 
BRANCH   7   8
ATOM      8  C   UNL     1       6.929  33.655  -2.250  1.00  0.00    -0.003 C 
ATOM      9  C   UNL     1       5.503  34.184  -2.106  1.00  0.00     0.004 C 
ENDBRANCH   7   8
ENDBRANCH   6   7
ENDBRANCH   1   6
TORSDOF 5
ENDMDL
