MODEL 1
REMARK VINA RESULT:    -5.693      0.000      0.000
REMARK INTER + INTRA:          -9.734
REMARK INTER:                  -8.689
REMARK INTRA:                  -1.045
REMARK UNBOUND:                -1.045
REMARK SMILES CC(=O)CCC=C(C)CCC=C(C)CCC=C(C)C
REMARK SMILES IDX 10 1 11 2 12 3 13 4 14 5 15 6 16 7 18 8 17 9 19 10 9 11 7 12
REMARK SMILES IDX 6 13 8 14 5 15 4 16 2 17 3 18 1 19
REMARK H PARENT
REMARK Flexibility Score: inf
ROOT
ATOM      1  C   UNL     1      45.272  22.809  20.668  1.00  0.00     0.032 C 
ENDROOT
BRANCH   1   2
ATOM      2  C   UNL     1      44.046  22.054  21.109  1.00  0.00    -0.028 C 
ATOM      3  C   UNL     1      42.848  22.628  21.361  1.00  0.00    -0.077 C 
ATOM      4  C   UNL     1      42.613  24.107  21.153  1.00  0.00     0.039 C 
BRANCH   3   5
ATOM      5  C   UNL     1      41.706  21.764  21.850  1.00  0.00     0.034 C 
BRANCH   5   6
ATOM      6  C   UNL     1      41.018  22.406  23.058  1.00  0.00     0.032 C 
BRANCH   6   7
ATOM      7  C   UNL     1      39.518  22.305  22.937  1.00  0.00    -0.028 C 
ATOM      8  C   UNL     1      37.220  23.096  22.578  1.00  0.00     0.039 C 
ATOM      9  C   UNL     1      38.697  23.355  22.715  1.00  0.00    -0.080 C 
ATOM     10  C   UNL     1      39.216  24.770  22.617  1.00  0.00     0.039 C 
ENDBRANCH   6   7
ENDBRANCH   5   6
ENDBRANCH   3   5
ENDBRANCH   1   2
BRANCH   1  11
ATOM     11  C   UNL     1      46.160  21.930  19.780  1.00  0.00     0.034 C 
BRANCH  11  12
ATOM     12  C   UNL     1      47.528  21.756  20.402  1.00  0.00    -0.077 C 
ATOM     13  C   UNL     1      48.047  22.770  21.130  1.00  0.00    -0.028 C 
ATOM     14  C   UNL     1      48.270  20.456  20.201  1.00  0.00     0.039 C 
BRANCH  13  15
ATOM     15  C   UNL     1      49.434  22.774  21.726  1.00  0.00     0.035 C 
BRANCH  15  16
ATOM     16  C   UNL     1      50.134  24.122  21.509  1.00  0.00     0.079 C 
BRANCH  16  17
ATOM     17  C   UNL     1      50.696  24.235  20.115  1.00  0.00     0.130 C 
ATOM     18  O   UNL     1      50.857  25.340  19.619  1.00  0.00    -0.300 OA
ATOM     19  C   UNL     1      51.063  23.015  19.322  1.00  0.00     0.087 C 
ENDBRANCH  16  17
ENDBRANCH  15  16
ENDBRANCH  13  15
ENDBRANCH  11  12
ENDBRANCH   1  11
TORSDOF 9
ENDMDL
MODEL 2
REMARK VINA RESULT:    -5.648      2.029      3.770
REMARK INTER + INTRA:          -9.665
REMARK INTER:                  -8.091
REMARK INTRA:                  -1.573
REMARK UNBOUND:                -1.045
REMARK SMILES CC(=O)CCC=C(C)CCC=C(C)CCC=C(C)C
REMARK SMILES IDX 10 1 11 2 12 3 13 4 14 5 15 6 16 7 18 8 17 9 19 10 9 11 7 12
REMARK SMILES IDX 6 13 8 14 5 15 4 16 2 17 3 18 1 19
REMARK H PARENT
REMARK Flexibility Score: inf
ROOT
ATOM      1  C   UNL     1      45.118  21.999  20.694  1.00  0.00     0.032 C 
ENDROOT
BRANCH   1   2
ATOM      2  C   UNL     1      44.597  23.411  20.757  1.00  0.00    -0.028 C 
ATOM      3  C   UNL     1      43.340  23.743  21.130  1.00  0.00    -0.077 C 
ATOM      4  C   UNL     1      42.345  22.702  21.591  1.00  0.00     0.039 C 
BRANCH   3   5
ATOM      5  C   UNL     1      42.923  25.197  21.102  1.00  0.00     0.034 C 
BRANCH   5   6
ATOM      6  C   UNL     1      44.075  26.100  21.552  1.00  0.00     0.032 C 
BRANCH   6   7
ATOM      7  C   UNL     1      44.190  26.111  23.056  1.00  0.00    -0.028 C 
ATOM      8  C   UNL     1      45.302  25.943  25.240  1.00  0.00     0.039 C 
ATOM      9  C   UNL     1      45.330  25.858  23.737  1.00  0.00    -0.080 C 
ATOM     10  C   UNL     1      46.614  25.480  23.036  1.00  0.00     0.039 C 
ENDBRANCH   6   7
ENDBRANCH   5   6
ENDBRANCH   3   5
ENDBRANCH   1   2
BRANCH   1  11
ATOM     11  C   UNL     1      46.304  21.902  19.728  1.00  0.00     0.034 C 
BRANCH  11  12
ATOM     12  C   UNL     1      47.597  21.713  20.491  1.00  0.00    -0.077 C 
ATOM     13  C   UNL     1      48.140  22.775  21.126  1.00  0.00    -0.028 C 
ATOM     14  C   UNL     1      48.238  20.345  20.530  1.00  0.00     0.039 C 
BRANCH  13  15
ATOM     15  C   UNL     1      49.470  22.757  21.843  1.00  0.00     0.035 C 
BRANCH  15  16
ATOM     16  C   UNL     1      50.290  24.015  21.534  1.00  0.00     0.079 C 
BRANCH  16  17
ATOM     17  C   UNL     1      50.580  24.139  20.059  1.00  0.00     0.130 C 
ATOM     18  O   UNL     1      50.297  25.173  19.474  1.00  0.00    -0.300 OA
ATOM     19  C   UNL     1      51.211  23.013  19.293  1.00  0.00     0.087 C 
ENDBRANCH  16  17
ENDBRANCH  15  16
ENDBRANCH  13  15
ENDBRANCH  11  12
ENDBRANCH   1  11
TORSDOF 9
ENDMDL
MODEL 3
REMARK VINA RESULT:    -5.648      2.835      8.034
REMARK INTER + INTRA:          -9.664
REMARK INTER:                  -8.139
REMARK INTRA:                  -1.525
REMARK UNBOUND:                -1.045
REMARK SMILES CC(=O)CCC=C(C)CCC=C(C)CCC=C(C)C
REMARK SMILES IDX 10 1 11 2 12 3 13 4 14 5 15 6 16 7 18 8 17 9 19 10 9 11 7 12
REMARK SMILES IDX 6 13 8 14 5 15 4 16 2 17 3 18 1 19
REMARK H PARENT
REMARK Flexibility Score: inf
ROOT
ATOM      1  C   UNL     1      46.051  22.254  20.043  1.00  0.00     0.032 C 
ENDROOT
BRANCH   1   2
ATOM      2  C   UNL     1      47.408  22.092  20.678  1.00  0.00    -0.028 C 
ATOM      3  C   UNL     1      48.021  23.044  21.418  1.00  0.00    -0.077 C 
ATOM      4  C   UNL     1      47.350  24.361  21.735  1.00  0.00     0.039 C 
BRANCH   3   5
ATOM      5  C   UNL     1      49.409  22.777  21.958  1.00  0.00     0.034 C 
BRANCH   5   6
ATOM      6  C   UNL     1      50.386  23.867  21.507  1.00  0.00     0.032 C 
BRANCH   6   7
ATOM      7  C   UNL     1      50.826  23.635  20.083  1.00  0.00    -0.028 C 
ATOM      8  C   UNL     1      51.367  24.220  17.759  1.00  0.00     0.039 C 
ATOM      9  C   UNL     1      50.868  24.592  19.130  1.00  0.00    -0.080 C 
ATOM     10  C   UNL     1      50.415  26.009  19.398  1.00  0.00     0.039 C 
ENDBRANCH   6   7
ENDBRANCH   5   6
ENDBRANCH   3   5
ENDBRANCH   1   2
BRANCH   1  11
ATOM     11  C   UNL     1      44.964  21.619  20.919  1.00  0.00     0.034 C 
BRANCH  11  12
ATOM     12  C   UNL     1      43.775  22.546  21.046  1.00  0.00    -0.077 C 
ATOM     13  C   UNL     1      43.939  23.859  20.770  1.00  0.00    -0.028 C 
ATOM     14  C   UNL     1      42.440  21.979  21.466  1.00  0.00     0.039 C 
BRANCH  13  15
ATOM     15  C   UNL     1      42.871  24.911  20.945  1.00  0.00     0.035 C 
BRANCH  15  16
ATOM     16  C   UNL     1      43.346  26.045  21.862  1.00  0.00     0.079 C 
BRANCH  16  17
ATOM     17  C   UNL     1      43.941  27.183  21.072  1.00  0.00     0.130 C 
ATOM     18  O   UNL     1      43.249  27.781  20.262  1.00  0.00    -0.300 OA
ATOM     19  C   UNL     1      45.371  27.597  21.260  1.00  0.00     0.087 C 
ENDBRANCH  16  17
ENDBRANCH  15  16
ENDBRANCH  13  15
ENDBRANCH  11  12
ENDBRANCH   1  11
TORSDOF 9
ENDMDL
MODEL 4
REMARK VINA RESULT:    -5.631      3.891      7.437
REMARK INTER + INTRA:          -9.639
REMARK INTER:                  -8.539
REMARK INTRA:                  -1.100
REMARK UNBOUND:                -1.045
REMARK SMILES CC(=O)CCC=C(C)CCC=C(C)CCC=C(C)C
REMARK SMILES IDX 10 1 11 2 12 3 13 4 14 5 15 6 16 7 18 8 17 9 19 10 9 11 7 12
REMARK SMILES IDX 6 13 8 14 5 15 4 16 2 17 3 18 1 19
REMARK H PARENT
REMARK Flexibility Score: inf
ROOT
ATOM      1  C   UNL     1      51.107  23.772  18.332  1.00  0.00     0.032 C 
ENDROOT
BRANCH   1   2
ATOM      2  C   UNL     1      50.299  23.209  19.472  1.00  0.00    -0.028 C 
ATOM      3  C   UNL     1      50.398  23.628  20.754  1.00  0.00    -0.077 C 
ATOM      4  C   UNL     1      51.303  24.772  21.151  1.00  0.00     0.039 C 
BRANCH   3   5
ATOM      5  C   UNL     1      49.567  22.945  21.818  1.00  0.00     0.034 C 
BRANCH   5   6
ATOM      6  C   UNL     1      48.362  22.235  21.193  1.00  0.00     0.032 C 
BRANCH   6   7
ATOM      7  C   UNL     1      47.142  23.121  21.227  1.00  0.00    -0.028 C 
ATOM      8  C   UNL     1      44.762  23.701  21.037  1.00  0.00     0.039 C 
ATOM      9  C   UNL     1      45.891  22.711  20.921  1.00  0.00    -0.080 C 
ATOM     10  C   UNL     1      45.602  21.304  20.454  1.00  0.00     0.039 C 
ENDBRANCH   6   7
ENDBRANCH   5   6
ENDBRANCH   3   5
ENDBRANCH   1   2
BRANCH   1  11
ATOM     11  C   UNL     1      50.314  24.853  17.588  1.00  0.00     0.034 C 
BRANCH  11  12
ATOM     12  C   UNL     1      51.191  25.549  16.570  1.00  0.00    -0.077 C 
ATOM     13  C   UNL     1      52.366  24.979  16.223  1.00  0.00    -0.028 C 
ATOM     14  C   UNL     1      50.725  26.852  15.964  1.00  0.00     0.039 C 
BRANCH  13  15
ATOM     15  C   UNL     1      53.382  25.604  15.297  1.00  0.00     0.035 C 
BRANCH  15  16
ATOM     16  C   UNL     1      53.370  24.936  13.917  1.00  0.00     0.079 C 
BRANCH  16  17
ATOM     17  C   UNL     1      52.375  25.591  12.994  1.00  0.00     0.130 C 
ATOM     18  O   UNL     1      52.416  26.800  12.823  1.00  0.00    -0.300 OA
ATOM     19  C   UNL     1      51.330  24.786  12.277  1.00  0.00     0.087 C 
ENDBRANCH  16  17
ENDBRANCH  15  16
ENDBRANCH  13  15
ENDBRANCH  11  12
ENDBRANCH   1  11
TORSDOF 9
ENDMDL
MODEL 5
REMARK VINA RESULT:    -5.607      3.124      6.235
REMARK INTER + INTRA:          -9.602
REMARK INTER:                  -8.233
REMARK INTRA:                  -1.369
REMARK UNBOUND:                -1.045
REMARK SMILES CC(=O)CCC=C(C)CCC=C(C)CCC=C(C)C
REMARK SMILES IDX 10 1 11 2 12 3 13 4 14 5 15 6 16 7 18 8 17 9 19 10 9 11 7 12
REMARK SMILES IDX 6 13 8 14 5 15 4 16 2 17 3 18 1 19
REMARK H PARENT
REMARK Flexibility Score: inf
ROOT
ATOM      1  C   UNL     1      51.078  23.870  19.452  1.00  0.00     0.032 C 
ENDROOT
BRANCH   1   2
ATOM      2  C   UNL     1      49.950  22.879  19.581  1.00  0.00    -0.028 C 
ATOM      3  C   UNL     1      49.323  22.588  20.743  1.00  0.00    -0.077 C 
ATOM      4  C   UNL     1      49.663  23.300  22.033  1.00  0.00     0.039 C 
BRANCH   3   5
ATOM      5  C   UNL     1      48.238  21.533  20.749  1.00  0.00     0.034 C 
BRANCH   5   6
ATOM      6  C   UNL     1      47.206  21.809  19.652  1.00  0.00     0.032 C 
BRANCH   6   7
ATOM      7  C   UNL     1      45.813  21.490  20.134  1.00  0.00    -0.028 C 
ATOM      8  C   UNL     1      43.618  21.918  21.151  1.00  0.00     0.039 C 
ATOM      9  C   UNL     1      45.001  22.370  20.760  1.00  0.00    -0.080 C 
ATOM     10  C   UNL     1      45.445  23.776  21.089  1.00  0.00     0.039 C 
ENDBRANCH   6   7
ENDBRANCH   5   6
ENDBRANCH   3   5
ENDBRANCH   1   2
BRANCH   1  11
ATOM     11  C   UNL     1      50.592  25.159  18.778  1.00  0.00     0.034 C 
BRANCH  11  12
ATOM     12  C   UNL     1      50.554  26.298  19.772  1.00  0.00    -0.077 C 
ATOM     13  C   UNL     1      51.481  26.336  20.755  1.00  0.00    -0.028 C 
ATOM     14  C   UNL     1      49.492  27.363  19.635  1.00  0.00     0.039 C 
BRANCH  13  15
ATOM     15  C   UNL     1      51.508  27.354  21.870  1.00  0.00     0.035 C 
BRANCH  15  16
ATOM     16  C   UNL     1      51.784  26.695  23.226  1.00  0.00     0.079 C 
BRANCH  16  17
ATOM     17  C   UNL     1      51.736  27.699  24.350  1.00  0.00     0.130 C 
ATOM     18  O   UNL     1      51.475  28.867  24.103  1.00  0.00    -0.300 OA
ATOM     19  C   UNL     1      52.003  27.293  25.770  1.00  0.00     0.087 C 
ENDBRANCH  16  17
ENDBRANCH  15  16
ENDBRANCH  13  15
ENDBRANCH  11  12
ENDBRANCH   1  11
TORSDOF 9
ENDMDL
MODEL 6
REMARK VINA RESULT:    -5.589      3.190      5.875
REMARK INTER + INTRA:          -9.575
REMARK INTER:                  -7.652
REMARK INTRA:                  -1.923
REMARK UNBOUND:                -1.045
REMARK SMILES CC(=O)CCC=C(C)CCC=C(C)CCC=C(C)C
REMARK SMILES IDX 10 1 11 2 12 3 13 4 14 5 15 6 16 7 18 8 17 9 19 10 9 11 7 12
REMARK SMILES IDX 6 13 8 14 5 15 4 16 2 17 3 18 1 19
REMARK H PARENT
REMARK Flexibility Score: inf
ROOT
ATOM      1  C   UNL     1      50.968  23.338  19.290  1.00  0.00     0.032 C 
ENDROOT
BRANCH   1   2
ATOM      2  C   UNL     1      49.802  22.411  19.515  1.00  0.00    -0.028 C 
ATOM      3  C   UNL     1      49.150  22.280  20.693  1.00  0.00    -0.077 C 
ATOM      4  C   UNL     1      49.503  23.124  21.897  1.00  0.00     0.039 C 
BRANCH   3   5
ATOM      5  C   UNL     1      48.026  21.274  20.804  1.00  0.00     0.034 C 
BRANCH   5   6
ATOM      6  C   UNL     1      46.920  21.582  19.789  1.00  0.00     0.032 C 
BRANCH   6   7
ATOM      7  C   UNL     1      46.155  22.818  20.190  1.00  0.00    -0.028 C 
ATOM      8  C   UNL     1      44.315  24.122  21.166  1.00  0.00     0.039 C 
ATOM      9  C   UNL     1      44.943  22.806  20.788  1.00  0.00    -0.080 C 
ATOM     10  C   UNL     1      44.202  21.520  21.069  1.00  0.00     0.039 C 
ENDBRANCH   6   7
ENDBRANCH   5   6
ENDBRANCH   3   5
ENDBRANCH   1   2
BRANCH   1  11
ATOM     11  C   UNL     1      50.672  24.313  18.145  1.00  0.00     0.034 C 
BRANCH  11  12
ATOM     12  C   UNL     1      50.699  25.742  18.642  1.00  0.00    -0.077 C 
ATOM     13  C   UNL     1      50.915  25.970  19.957  1.00  0.00    -0.028 C 
ATOM     14  C   UNL     1      50.494  26.870  17.659  1.00  0.00     0.039 C 
BRANCH  13  15
ATOM     15  C   UNL     1      50.874  27.332  20.608  1.00  0.00     0.035 C 
BRANCH  15  16
ATOM     16  C   UNL     1      49.795  27.401  21.695  1.00  0.00     0.079 C 
BRANCH  16  17
ATOM     17  C   UNL     1      48.417  27.188  21.121  1.00  0.00     0.130 C 
ATOM     18  O   UNL     1      48.018  27.917  20.225  1.00  0.00    -0.300 OA
ATOM     19  C   UNL     1      47.521  26.097  21.630  1.00  0.00     0.087 C 
ENDBRANCH  16  17
ENDBRANCH  15  16
ENDBRANCH  13  15
ENDBRANCH  11  12
ENDBRANCH   1  11
TORSDOF 9
ENDMDL
MODEL 7
REMARK VINA RESULT:    -5.583      2.392      4.410
REMARK INTER + INTRA:          -9.565
REMARK INTER:                  -8.101
REMARK INTRA:                  -1.464
REMARK UNBOUND:                -1.045
REMARK SMILES CC(=O)CCC=C(C)CCC=C(C)CCC=C(C)C
REMARK SMILES IDX 10 1 11 2 12 3 13 4 14 5 15 6 16 7 18 8 17 9 19 10 9 11 7 12
REMARK SMILES IDX 6 13 8 14 5 15 4 16 2 17 3 18 1 19
REMARK H PARENT
REMARK Flexibility Score: inf
ROOT
ATOM      1  C   UNL     1      49.116  22.544  21.211  1.00  0.00     0.032 C 
ENDROOT
BRANCH   1   2
ATOM      2  C   UNL     1      47.663  22.483  20.814  1.00  0.00    -0.028 C 
ATOM      3  C   UNL     1      46.987  21.337  20.574  1.00  0.00    -0.077 C 
ATOM      4  C   UNL     1      47.629  19.981  20.752  1.00  0.00     0.039 C 
BRANCH   3   5
ATOM      5  C   UNL     1      45.542  21.415  20.131  1.00  0.00     0.034 C 
BRANCH   5   6
ATOM      6  C   UNL     1      44.607  21.496  21.341  1.00  0.00     0.032 C 
BRANCH   6   7
ATOM      7  C   UNL     1      43.450  22.422  21.062  1.00  0.00    -0.028 C 
ATOM      8  C   UNL     1      42.273  24.568  20.839  1.00  0.00     0.039 C 
ATOM      9  C   UNL     1      43.499  23.766  21.191  1.00  0.00    -0.080 C 
ATOM     10  C   UNL     1      44.735  24.478  21.689  1.00  0.00     0.039 C 
ENDBRANCH   6   7
ENDBRANCH   5   6
ENDBRANCH   3   5
ENDBRANCH   1   2
BRANCH   1  11
ATOM     11  C   UNL     1      50.013  22.634  19.971  1.00  0.00     0.034 C 
BRANCH  11  12
ATOM     12  C   UNL     1      50.675  23.992  19.892  1.00  0.00    -0.077 C 
ATOM     13  C   UNL     1      50.995  24.629  21.040  1.00  0.00    -0.028 C 
ATOM     14  C   UNL     1      50.968  24.592  18.537  1.00  0.00     0.039 C 
BRANCH  13  15
ATOM     15  C   UNL     1      51.570  26.023  21.115  1.00  0.00     0.035 C 
BRANCH  15  16
ATOM     16  C   UNL     1      50.562  27.014  21.711  1.00  0.00     0.079 C 
BRANCH  16  17
ATOM     17  C   UNL     1      49.285  27.053  20.910  1.00  0.00     0.130 C 
ATOM     18  O   UNL     1      49.299  27.505  19.775  1.00  0.00    -0.300 OA
ATOM     19  C   UNL     1      47.992  26.547  21.481  1.00  0.00     0.087 C 
ENDBRANCH  16  17
ENDBRANCH  15  16
ENDBRANCH  13  15
ENDBRANCH  11  12
ENDBRANCH   1  11
TORSDOF 9
ENDMDL
MODEL 8
REMARK VINA RESULT:    -5.543      2.283      4.729
REMARK INTER + INTRA:          -9.505
REMARK INTER:                  -8.566
REMARK INTRA:                  -0.938
REMARK UNBOUND:                -1.045
REMARK SMILES CC(=O)CCC=C(C)CCC=C(C)CCC=C(C)C
REMARK SMILES IDX 10 1 11 2 12 3 13 4 14 5 15 6 16 7 18 8 17 9 19 10 9 11 7 12
REMARK SMILES IDX 6 13 8 14 5 15 4 16 2 17 3 18 1 19
REMARK H PARENT
REMARK Flexibility Score: inf
ROOT
ATOM      1  C   UNL     1      49.444  22.680  21.701  1.00  0.00     0.032 C 
ENDROOT
BRANCH   1   2
ATOM      2  C   UNL     1      48.116  22.761  20.993  1.00  0.00    -0.028 C 
ATOM      3  C   UNL     1      47.471  21.699  20.462  1.00  0.00    -0.077 C 
ATOM      4  C   UNL     1      48.008  20.292  20.595  1.00  0.00     0.039 C 
BRANCH   3   5
ATOM      5  C   UNL     1      46.166  21.921  19.729  1.00  0.00     0.034 C 
BRANCH   5   6
ATOM      6  C   UNL     1      45.259  22.874  20.513  1.00  0.00     0.032 C 
BRANCH   6   7
ATOM      7  C   UNL     1      44.067  22.139  21.073  1.00  0.00    -0.028 C 
ATOM      8  C   UNL     1      41.753  21.837  21.843  1.00  0.00     0.039 C 
ATOM      9  C   UNL     1      42.865  22.707  21.318  1.00  0.00    -0.080 C 
ATOM     10  C   UNL     1      42.615  24.180  21.096  1.00  0.00     0.039 C 
ENDBRANCH   6   7
ENDBRANCH   5   6
ENDBRANCH   3   5
ENDBRANCH   1   2
BRANCH   1  11
ATOM     11  C   UNL     1      50.291  23.923  21.408  1.00  0.00     0.034 C 
BRANCH  11  12
ATOM     12  C   UNL     1      50.630  24.001  19.936  1.00  0.00    -0.077 C 
ATOM     13  C   UNL     1      50.500  25.186  19.298  1.00  0.00    -0.028 C 
ATOM     14  C   UNL     1      51.111  22.759  19.223  1.00  0.00     0.039 C 
BRANCH  13  15
ATOM     15  C   UNL     1      50.709  25.390  17.817  1.00  0.00     0.035 C 
BRANCH  15  16
ATOM     16  C   UNL     1      50.591  26.869  17.432  1.00  0.00     0.079 C 
BRANCH  16  17
ATOM     17  C   UNL     1      51.215  27.143  16.087  1.00  0.00     0.130 C 
ATOM     18  O   UNL     1      51.641  28.260  15.836  1.00  0.00    -0.300 OA
ATOM     19  C   UNL     1      51.324  26.068  15.046  1.00  0.00     0.087 C 
ENDBRANCH  16  17
ENDBRANCH  15  16
ENDBRANCH  13  15
ENDBRANCH  11  12
ENDBRANCH   1  11
TORSDOF 9
ENDMDL
MODEL 9
REMARK VINA RESULT:    -5.477      3.618      8.579
REMARK INTER + INTRA:          -9.403
REMARK INTER:                  -7.952
REMARK INTRA:                  -1.451
REMARK UNBOUND:                -1.045
REMARK SMILES CC(=O)CCC=C(C)CCC=C(C)CCC=C(C)C
REMARK SMILES IDX 10 1 11 2 12 3 13 4 14 5 15 6 16 7 18 8 17 9 19 10 9 11 7 12
REMARK SMILES IDX 6 13 8 14 5 15 4 16 2 17 3 18 1 19
REMARK H PARENT
REMARK Flexibility Score: inf
ROOT
ATOM      1  C   UNL     1      50.776  23.782  18.126  1.00  0.00     0.032 C 
ENDROOT
BRANCH   1   2
ATOM      2  C   UNL     1      50.412  25.155  17.623  1.00  0.00    -0.028 C 
ATOM      3  C   UNL     1      51.131  25.847  16.710  1.00  0.00    -0.077 C 
ATOM      4  C   UNL     1      52.357  25.259  16.051  1.00  0.00     0.039 C 
BRANCH   3   5
ATOM      5  C   UNL     1      50.686  27.241  16.326  1.00  0.00     0.034 C 
BRANCH   5   6
ATOM      6  C   UNL     1      50.811  28.197  17.517  1.00  0.00     0.032 C 
BRANCH   6   7
ATOM      7  C   UNL     1      49.478  28.825  17.840  1.00  0.00    -0.028 C 
ATOM      8  C   UNL     1      47.503  29.367  19.197  1.00  0.00     0.039 C 
ATOM      9  C   UNL     1      48.809  28.643  19.000  1.00  0.00    -0.080 C 
ATOM     10  C   UNL     1      49.324  27.728  20.086  1.00  0.00     0.039 C 
ENDBRANCH   6   7
ENDBRANCH   5   6
ENDBRANCH   3   5
ENDBRANCH   1   2
BRANCH   1  11
ATOM     11  C   UNL     1      51.034  23.810  19.637  1.00  0.00     0.034 C 
BRANCH  11  12
ATOM     12  C   UNL     1      49.841  23.262  20.390  1.00  0.00    -0.077 C 
ATOM     13  C   UNL     1      49.294  22.095  19.984  1.00  0.00    -0.028 C 
ATOM     14  C   UNL     1      49.301  24.028  21.575  1.00  0.00     0.039 C 
BRANCH  13  15
ATOM     15  C   UNL     1      48.048  21.480  20.577  1.00  0.00     0.035 C 
BRANCH  15  16
ATOM     16  C   UNL     1      46.797  21.867  19.778  1.00  0.00     0.079 C 
BRANCH  16  17
ATOM     17  C   UNL     1      45.675  22.304  20.685  1.00  0.00     0.130 C 
ATOM     18  O   UNL     1      45.790  23.334  21.332  1.00  0.00    -0.300 OA
ATOM     19  C   UNL     1      44.416  21.498  20.810  1.00  0.00     0.087 C 
ENDBRANCH  16  17
ENDBRANCH  15  16
ENDBRANCH  13  15
ENDBRANCH  11  12
ENDBRANCH   1  11
TORSDOF 9
ENDMDL
