MODEL 1
REMARK VINA RESULT:    -5.956      0.000      0.000
REMARK INTER + INTRA:         -12.945
REMARK INTER:                 -11.180
REMARK INTRA:                  -1.766
REMARK UNBOUND:                -1.766
REMARK SMILES CCCCCCCCC=CCCCCCCCC(=O)[O-]
REMARK SMILES IDX 10 1 9 2 11 3 12 4 13 5 14 6 15 7 16 8 17 9 18 10 19 11
REMARK SMILES IDX 20 12 8 13 7 14 6 15 5 16 4 17 3 18 2 19 1 20
REMARK H PARENT
REMARK Flexibility Score: inf
ROOT
ATOM      1  C   UNL     1     -21.112  37.671   5.371  1.00  0.00    -0.031 C 
ATOM      2  C   UNL     1     -22.245  38.397   5.436  1.00  0.00    -0.031 C 
ENDROOT
BRANCH   1   3
ATOM      3  C   UNL     1     -19.760  38.147   5.844  1.00  0.00     0.027 C 
BRANCH   3   4
ATOM      4  C   UNL     1     -18.991  37.044   6.586  1.00  0.00     0.004 C 
BRANCH   4   5
ATOM      5  C   UNL     1     -19.934  35.992   7.194  1.00  0.00     0.000 C 
BRANCH   5   6
ATOM      6  C   UNL     1     -19.955  36.033   8.730  1.00  0.00     0.000 C 
BRANCH   6   7
ATOM      7  C   UNL     1     -21.346  35.741   9.313  1.00  0.00     0.000 C 
BRANCH   7   8
ATOM      8  C   UNL     1     -21.969  37.012   9.906  1.00  0.00     0.006 C 
BRANCH   8   9
ATOM      9  C   UNL     1     -22.716  37.841   8.852  1.00  0.00     0.053 C 
BRANCH   9  10
ATOM     10  C   UNL     1     -24.057  37.255   8.534  1.00  0.00     0.041 C 
ATOM     11  O   UNL     1     -25.062  37.554   9.232  1.00  0.00    -0.550 OA
ATOM     12  O   UNL     1     -24.191  36.351   7.487  1.00  0.00    -0.550 OA
ENDBRANCH   9  10
ENDBRANCH   8   9
ENDBRANCH   7   8
ENDBRANCH   6   7
ENDBRANCH   5   6
ENDBRANCH   4   5
ENDBRANCH   3   4
ENDBRANCH   1   3
BRANCH   2  13
ATOM     13  C   UNL     1     -22.318  39.826   5.909  1.00  0.00     0.027 C 
BRANCH  13  14
ATOM     14  C   UNL     1     -22.652  40.766   4.742  1.00  0.00     0.004 C 
BRANCH  14  15
ATOM     15  C   UNL     1     -21.651  40.652   3.582  1.00  0.00     0.000 C 
BRANCH  15  16
ATOM     16  C   UNL     1     -20.629  41.802   3.569  1.00  0.00     0.000 C 
BRANCH  16  17
ATOM     17  C   UNL     1     -19.357  41.471   4.366  1.00  0.00    -0.000 C 
BRANCH  17  18
ATOM     18  C   UNL     1     -18.302  42.585   4.290  1.00  0.00    -0.000 C 
BRANCH  18  19
ATOM     19  C   UNL     1     -18.941  43.961   4.502  1.00  0.00    -0.003 C 
ATOM     20  C   UNL     1     -18.143  44.794   5.501  1.00  0.00     0.004 C 
ENDBRANCH  18  19
ENDBRANCH  17  18
ENDBRANCH  16  17
ENDBRANCH  15  16
ENDBRANCH  14  15
ENDBRANCH  13  14
ENDBRANCH   2  13
TORSDOF 15
ENDMDL
MODEL 2
REMARK VINA RESULT:    -5.788     11.854     13.586
REMARK INTER + INTRA:         -12.630
REMARK INTER:                 -10.200
REMARK INTRA:                  -2.430
REMARK UNBOUND:                -1.766
REMARK SMILES CCCCCCCCC=CCCCCCCCC(=O)[O-]
REMARK SMILES IDX 10 1 9 2 11 3 12 4 13 5 14 6 15 7 16 8 17 9 18 10 19 11
REMARK SMILES IDX 20 12 8 13 7 14 6 15 5 16 4 17 3 18 2 19 1 20
REMARK H PARENT
REMARK Flexibility Score: inf
ROOT
ATOM      1  C   UNL     1     -17.354  42.666  -3.480  1.00  0.00    -0.031 C 
ATOM      2  C   UNL     1     -18.167  43.418  -4.246  1.00  0.00    -0.031 C 
ENDROOT
BRANCH   1   3
ATOM      3  C   UNL     1     -15.971  42.215  -3.882  1.00  0.00     0.027 C 
BRANCH   3   4
ATOM      4  C   UNL     1     -15.915  40.703  -4.147  1.00  0.00     0.004 C 
BRANCH   4   5
ATOM      5  C   UNL     1     -17.264  40.152  -4.639  1.00  0.00     0.000 C 
BRANCH   5   6
ATOM      6  C   UNL     1     -17.407  40.218  -6.168  1.00  0.00     0.000 C 
BRANCH   6   7
ATOM      7  C   UNL     1     -18.848  40.505  -6.618  1.00  0.00     0.000 C 
BRANCH   7   8
ATOM      8  C   UNL     1     -19.792  40.586  -5.410  1.00  0.00     0.006 C 
BRANCH   8   9
ATOM      9  C   UNL     1     -21.109  41.299  -5.748  1.00  0.00     0.053 C 
BRANCH   9  10
ATOM     10  C   UNL     1     -22.012  40.434  -6.572  1.00  0.00     0.041 C 
ATOM     11  O   UNL     1     -22.528  39.399  -6.073  1.00  0.00    -0.550 OA
ATOM     12  O   UNL     1     -22.258  40.753  -7.902  1.00  0.00    -0.550 OA
ENDBRANCH   9  10
ENDBRANCH   8   9
ENDBRANCH   7   8
ENDBRANCH   6   7
ENDBRANCH   5   6
ENDBRANCH   4   5
ENDBRANCH   3   4
ENDBRANCH   1   3
BRANCH   2  13
ATOM     13  C   UNL     1     -17.855  43.849  -5.657  1.00  0.00     0.027 C 
BRANCH  13  14
ATOM     14  C   UNL     1     -19.068  44.544  -6.292  1.00  0.00     0.004 C 
BRANCH  14  15
ATOM     15  C   UNL     1     -19.389  44.013  -7.697  1.00  0.00     0.000 C 
BRANCH  15  16
ATOM     16  C   UNL     1     -20.296  44.964  -8.496  1.00  0.00     0.000 C 
BRANCH  16  17
ATOM     17  C   UNL     1     -21.047  45.958  -7.595  1.00  0.00    -0.000 C 
BRANCH  17  18
ATOM     18  C   UNL     1     -22.545  45.638  -7.476  1.00  0.00    -0.000 C 
BRANCH  18  19
ATOM     19  C   UNL     1     -22.840  44.873  -6.181  1.00  0.00    -0.003 C 
ATOM     20  C   UNL     1     -23.820  43.729  -6.426  1.00  0.00     0.004 C 
ENDBRANCH  18  19
ENDBRANCH  17  18
ENDBRANCH  16  17
ENDBRANCH  15  16
ENDBRANCH  14  15
ENDBRANCH  13  14
ENDBRANCH   2  13
TORSDOF 15
ENDMDL
MODEL 3
REMARK VINA RESULT:    -5.733     11.890     14.164
REMARK INTER + INTRA:         -12.527
REMARK INTER:                 -10.505
REMARK INTRA:                  -2.021
REMARK UNBOUND:                -1.766
REMARK SMILES CCCCCCCCC=CCCCCCCCC(=O)[O-]
REMARK SMILES IDX 10 1 9 2 11 3 12 4 13 5 14 6 15 7 16 8 17 9 18 10 19 11
REMARK SMILES IDX 20 12 8 13 7 14 6 15 5 16 4 17 3 18 2 19 1 20
REMARK H PARENT
REMARK Flexibility Score: inf
ROOT
ATOM      1  C   UNL     1     -18.968  43.060  -7.630  1.00  0.00    -0.031 C 
ATOM      2  C   UNL     1     -19.486  44.303  -7.628  1.00  0.00    -0.031 C 
ENDROOT
BRANCH   1   3
ATOM      3  C   UNL     1     -19.093  42.080  -8.771  1.00  0.00     0.027 C 
BRANCH   3   4
ATOM      4  C   UNL     1     -18.557  40.691  -8.396  1.00  0.00     0.004 C 
BRANCH   4   5
ATOM      5  C   UNL     1     -18.636  40.431  -6.882  1.00  0.00     0.000 C 
BRANCH   5   6
ATOM      6  C   UNL     1     -17.330  39.857  -6.311  1.00  0.00     0.000 C 
BRANCH   6   7
ATOM      7  C   UNL     1     -17.213  40.046  -4.791  1.00  0.00     0.000 C 
BRANCH   7   8
ATOM      8  C   UNL     1     -15.939  40.825  -4.432  1.00  0.00     0.006 C 
BRANCH   8   9
ATOM      9  C   UNL     1     -16.203  41.923  -3.391  1.00  0.00     0.053 C 
BRANCH   9  10
ATOM     10  C   UNL     1     -17.345  42.805  -3.793  1.00  0.00     0.041 C 
ATOM     11  O   UNL     1     -18.426  42.776  -3.148  1.00  0.00    -0.550 OA
ATOM     12  O   UNL     1     -17.226  43.635  -4.901  1.00  0.00    -0.550 OA
ENDBRANCH   9  10
ENDBRANCH   8   9
ENDBRANCH   7   8
ENDBRANCH   6   7
ENDBRANCH   5   6
ENDBRANCH   4   5
ENDBRANCH   3   4
ENDBRANCH   1   3
BRANCH   2  13
ATOM     13  C   UNL     1     -20.346  44.873  -8.728  1.00  0.00     0.027 C 
BRANCH  13  14
ATOM     14  C   UNL     1     -21.602  45.535  -8.145  1.00  0.00     0.004 C 
BRANCH  14  15
ATOM     15  C   UNL     1     -21.817  45.199  -6.661  1.00  0.00     0.000 C 
BRANCH  15  16
ATOM     16  C   UNL     1     -23.282  44.863  -6.338  1.00  0.00     0.000 C 
BRANCH  16  17
ATOM     17  C   UNL     1     -23.452  43.443  -5.775  1.00  0.00    -0.000 C 
BRANCH  17  18
ATOM     18  C   UNL     1     -23.013  42.354  -6.766  1.00  0.00    -0.000 C 
BRANCH  18  19
ATOM     19  C   UNL     1     -22.006  41.397  -6.119  1.00  0.00    -0.003 C 
ATOM     20  C   UNL     1     -22.343  39.943  -6.438  1.00  0.00     0.004 C 
ENDBRANCH  18  19
ENDBRANCH  17  18
ENDBRANCH  16  17
ENDBRANCH  15  16
ENDBRANCH  14  15
ENDBRANCH  13  14
ENDBRANCH   2  13
TORSDOF 15
ENDMDL
MODEL 4
REMARK VINA RESULT:    -5.713     12.315     14.581
REMARK INTER + INTRA:         -12.489
REMARK INTER:                  -9.922
REMARK INTRA:                  -2.567
REMARK UNBOUND:                -1.766
REMARK SMILES CCCCCCCCC=CCCCCCCCC(=O)[O-]
REMARK SMILES IDX 10 1 9 2 11 3 12 4 13 5 14 6 15 7 16 8 17 9 18 10 19 11
REMARK SMILES IDX 20 12 8 13 7 14 6 15 5 16 4 17 3 18 2 19 1 20
REMARK H PARENT
REMARK Flexibility Score: inf
ROOT
ATOM      1  C   UNL     1     -21.139  42.121  -5.580  1.00  0.00    -0.031 C 
ATOM      2  C   UNL     1     -20.122  42.795  -6.150  1.00  0.00    -0.031 C 
ENDROOT
BRANCH   1   3
ATOM      3  C   UNL     1     -21.883  40.979  -6.229  1.00  0.00     0.027 C 
BRANCH   3   4
ATOM      4  C   UNL     1     -23.349  41.339  -6.515  1.00  0.00     0.004 C 
BRANCH   4   5
ATOM      5  C   UNL     1     -23.705  42.749  -6.017  1.00  0.00     0.000 C 
BRANCH   5   6
ATOM      6  C   UNL     1     -24.224  43.660  -7.140  1.00  0.00     0.000 C 
BRANCH   6   7
ATOM      7  C   UNL     1     -23.158  43.952  -8.207  1.00  0.00     0.000 C 
BRANCH   7   8
ATOM      8  C   UNL     1     -22.894  45.460  -8.319  1.00  0.00     0.006 C 
BRANCH   8   9
ATOM      9  C   UNL     1     -21.428  45.816  -8.034  1.00  0.00     0.053 C 
BRANCH   9  10
ATOM     10  C   UNL     1     -21.219  46.197  -6.600  1.00  0.00     0.041 C 
ATOM     11  O   UNL     1     -20.054  46.343  -6.146  1.00  0.00    -0.550 OA
ATOM     12  O   UNL     1     -22.312  46.360  -5.758  1.00  0.00    -0.550 OA
ENDBRANCH   9  10
ENDBRANCH   8   9
ENDBRANCH   7   8
ENDBRANCH   6   7
ENDBRANCH   5   6
ENDBRANCH   4   5
ENDBRANCH   3   4
ENDBRANCH   1   3
BRANCH   2  13
ATOM     13  C   UNL     1     -19.631  42.571  -7.558  1.00  0.00     0.027 C 
BRANCH  13  14
ATOM     14  C   UNL     1     -18.257  41.885  -7.549  1.00  0.00     0.004 C 
BRANCH  14  15
ATOM     15  C   UNL     1     -18.353  40.365  -7.346  1.00  0.00     0.000 C 
BRANCH  15  16
ATOM     16  C   UNL     1     -17.375  39.849  -6.276  1.00  0.00     0.000 C 
BRANCH  16  17
ATOM     17  C   UNL     1     -17.730  40.343  -4.865  1.00  0.00    -0.000 C 
BRANCH  17  18
ATOM     18  C   UNL     1     -16.504  40.442  -3.944  1.00  0.00    -0.000 C 
BRANCH  18  19
ATOM     19  C   UNL     1     -15.957  41.873  -3.911  1.00  0.00    -0.003 C 
ATOM     20  C   UNL     1     -17.062  42.893  -4.176  1.00  0.00     0.004 C 
ENDBRANCH  18  19
ENDBRANCH  17  18
ENDBRANCH  16  17
ENDBRANCH  15  16
ENDBRANCH  14  15
ENDBRANCH  13  14
ENDBRANCH   2  13
TORSDOF 15
ENDMDL
MODEL 5
REMARK VINA RESULT:    -5.713     12.025     14.041
REMARK INTER + INTRA:         -12.488
REMARK INTER:                 -10.020
REMARK INTRA:                  -2.467
REMARK UNBOUND:                -1.766
REMARK SMILES CCCCCCCCC=CCCCCCCCC(=O)[O-]
REMARK SMILES IDX 10 1 9 2 11 3 12 4 13 5 14 6 15 7 16 8 17 9 18 10 19 11
REMARK SMILES IDX 20 12 8 13 7 14 6 15 5 16 4 17 3 18 2 19 1 20
REMARK H PARENT
REMARK Flexibility Score: inf
ROOT
ATOM      1  C   UNL     1     -17.434  40.037  -6.500  1.00  0.00    -0.031 C 
ATOM      2  C   UNL     1     -17.727  40.091  -5.186  1.00  0.00    -0.031 C 
ENDROOT
BRANCH   1   3
ATOM      3  C   UNL     1     -18.354  40.499  -7.604  1.00  0.00     0.027 C 
BRANCH   3   4
ATOM      4  C   UNL     1     -18.893  39.322  -8.431  1.00  0.00     0.004 C 
BRANCH   4   5
ATOM      5  C   UNL     1     -20.430  39.291  -8.458  1.00  0.00     0.000 C 
BRANCH   5   6
ATOM      6  C   UNL     1     -21.057  40.629  -8.033  1.00  0.00     0.000 C 
BRANCH   6   7
ATOM      7  C   UNL     1     -21.973  40.492  -6.807  1.00  0.00     0.000 C 
BRANCH   7   8
ATOM      8  C   UNL     1     -22.125  41.838  -6.084  1.00  0.00     0.006 C 
BRANCH   8   9
ATOM      9  C   UNL     1     -23.568  42.360  -6.125  1.00  0.00     0.053 C 
BRANCH   9  10
ATOM     10  C   UNL     1     -23.712  43.519  -7.063  1.00  0.00     0.041 C 
ATOM     11  O   UNL     1     -23.414  43.391  -8.280  1.00  0.00    -0.550 OA
ATOM     12  O   UNL     1     -24.145  44.749  -6.586  1.00  0.00    -0.550 OA
ENDBRANCH   9  10
ENDBRANCH   8   9
ENDBRANCH   7   8
ENDBRANCH   6   7
ENDBRANCH   5   6
ENDBRANCH   4   5
ENDBRANCH   3   4
ENDBRANCH   1   3
BRANCH   2  13
ATOM     13  C   UNL     1     -19.053  40.537  -4.624  1.00  0.00     0.027 C 
BRANCH  13  14
ATOM     14  C   UNL     1     -18.930  41.927  -3.984  1.00  0.00     0.004 C 
BRANCH  14  15
ATOM     15  C   UNL     1     -17.511  42.507  -4.092  1.00  0.00     0.000 C 
BRANCH  15  16
ATOM     16  C   UNL     1     -17.431  43.696  -5.064  1.00  0.00     0.000 C 
BRANCH  16  17
ATOM     17  C   UNL     1     -18.576  43.698  -6.090  1.00  0.00    -0.000 C 
BRANCH  17  18
ATOM     18  C   UNL     1     -19.161  45.099  -6.326  1.00  0.00    -0.000 C 
BRANCH  18  19
ATOM     19  C   UNL     1     -19.742  45.220  -7.738  1.00  0.00    -0.003 C 
ATOM     20  C   UNL     1     -19.669  43.889  -8.481  1.00  0.00     0.004 C 
ENDBRANCH  18  19
ENDBRANCH  17  18
ENDBRANCH  16  17
ENDBRANCH  15  16
ENDBRANCH  14  15
ENDBRANCH  13  14
ENDBRANCH   2  13
TORSDOF 15
ENDMDL
MODEL 6
REMARK VINA RESULT:    -5.712     12.009     14.394
REMARK INTER + INTRA:         -12.487
REMARK INTER:                 -10.272
REMARK INTRA:                  -2.215
REMARK UNBOUND:                -1.766
REMARK SMILES CCCCCCCCC=CCCCCCCCC(=O)[O-]
REMARK SMILES IDX 10 1 9 2 11 3 12 4 13 5 14 6 15 7 16 8 17 9 18 10 19 11
REMARK SMILES IDX 20 12 8 13 7 14 6 15 5 16 4 17 3 18 2 19 1 20
REMARK H PARENT
REMARK Flexibility Score: inf
ROOT
ATOM      1  C   UNL     1     -16.048  41.281  -3.595  1.00  0.00    -0.031 C 
ATOM      2  C   UNL     1     -16.391  40.173  -4.279  1.00  0.00    -0.031 C 
ENDROOT
BRANCH   1   3
ATOM      3  C   UNL     1     -16.951  42.471  -3.380  1.00  0.00     0.027 C 
BRANCH   3   4
ATOM      4  C   UNL     1     -17.029  43.364  -4.627  1.00  0.00     0.004 C 
BRANCH   4   5
ATOM      5  C   UNL     1     -18.443  43.392  -5.231  1.00  0.00     0.000 C 
BRANCH   5   6
ATOM      6  C   UNL     1     -18.671  44.603  -6.150  1.00  0.00     0.000 C 
BRANCH   6   7
ATOM      7  C   UNL     1     -19.385  44.229  -7.457  1.00  0.00     0.000 C 
BRANCH   7   8
ATOM      8  C   UNL     1     -20.350  45.343  -7.892  1.00  0.00     0.006 C 
BRANCH   8   9
ATOM      9  C   UNL     1     -21.090  45.967  -6.701  1.00  0.00     0.053 C 
BRANCH   9  10
ATOM     10  C   UNL     1     -22.515  45.510  -6.633  1.00  0.00     0.041 C 
ATOM     11  O   UNL     1     -23.164  45.295  -7.691  1.00  0.00    -0.550 OA
ATOM     12  O   UNL     1     -23.137  45.354  -5.401  1.00  0.00    -0.550 OA
ENDBRANCH   9  10
ENDBRANCH   8   9
ENDBRANCH   7   8
ENDBRANCH   6   7
ENDBRANCH   5   6
ENDBRANCH   4   5
ENDBRANCH   3   4
ENDBRANCH   1   3
BRANCH   2  13
ATOM     13  C   UNL     1     -17.696  39.990  -5.011  1.00  0.00     0.027 C 
BRANCH  13  14
ATOM     14  C   UNL     1     -17.448  39.727  -6.504  1.00  0.00     0.004 C 
BRANCH  14  15
ATOM     15  C   UNL     1     -18.208  40.704  -7.413  1.00  0.00     0.000 C 
BRANCH  15  16
ATOM     16  C   UNL     1     -19.410  40.047  -8.113  1.00  0.00     0.000 C 
BRANCH  16  17
ATOM     17  C   UNL     1     -20.728  40.790  -7.843  1.00  0.00    -0.000 C 
BRANCH  17  18
ATOM     18  C   UNL     1     -21.167  40.707  -6.373  1.00  0.00    -0.000 C 
BRANCH  18  19
ATOM     19  C   UNL     1     -21.988  41.939  -5.976  1.00  0.00    -0.003 C 
ATOM     20  C   UNL     1     -23.433  41.817  -6.451  1.00  0.00     0.004 C 
ENDBRANCH  18  19
ENDBRANCH  17  18
ENDBRANCH  16  17
ENDBRANCH  15  16
ENDBRANCH  14  15
ENDBRANCH  13  14
ENDBRANCH   2  13
TORSDOF 15
ENDMDL
MODEL 7
REMARK VINA RESULT:    -5.620     11.967     14.429
REMARK INTER + INTRA:         -12.314
REMARK INTER:                  -9.732
REMARK INTRA:                  -2.582
REMARK UNBOUND:                -1.766
REMARK SMILES CCCCCCCCC=CCCCCCCCC(=O)[O-]
REMARK SMILES IDX 10 1 9 2 11 3 12 4 13 5 14 6 15 7 16 8 17 9 18 10 19 11
REMARK SMILES IDX 20 12 8 13 7 14 6 15 5 16 4 17 3 18 2 19 1 20
REMARK H PARENT
REMARK Flexibility Score: inf
ROOT
ATOM      1  C   UNL     1     -20.632  40.656  -6.932  1.00  0.00    -0.031 C 
ATOM      2  C   UNL     1     -21.679  40.649  -6.086  1.00  0.00    -0.031 C 
ENDROOT
BRANCH   1   3
ATOM      3  C   UNL     1     -20.744  40.702  -8.437  1.00  0.00     0.027 C 
BRANCH   3   4
ATOM      4  C   UNL     1     -20.444  42.103  -8.991  1.00  0.00     0.004 C 
BRANCH   4   5
ATOM      5  C   UNL     1     -19.125  42.672  -8.441  1.00  0.00     0.000 C 
BRANCH   5   6
ATOM      6  C   UNL     1     -19.304  44.047  -7.778  1.00  0.00     0.000 C 
BRANCH   6   7
ATOM      7  C   UNL     1     -18.894  44.049  -6.297  1.00  0.00     0.000 C 
BRANCH   7   8
ATOM      8  C   UNL     1     -18.048  42.813  -5.961  1.00  0.00     0.006 C 
BRANCH   8   9
ATOM      9  C   UNL     1     -17.609  42.791  -4.490  1.00  0.00     0.053 C 
BRANCH   9  10
ATOM     10  C   UNL     1     -17.338  41.397  -4.014  1.00  0.00     0.041 C 
ATOM     11  O   UNL     1     -18.193  40.489  -4.188  1.00  0.00    -0.550 OA
ATOM     12  O   UNL     1     -16.153  41.109  -3.347  1.00  0.00    -0.550 OA
ENDBRANCH   9  10
ENDBRANCH   8   9
ENDBRANCH   7   8
ENDBRANCH   6   7
ENDBRANCH   5   6
ENDBRANCH   4   5
ENDBRANCH   3   4
ENDBRANCH   1   3
BRANCH   2  13
ATOM     13  C   UNL     1     -23.124  40.596  -6.514  1.00  0.00     0.027 C 
BRANCH  13  14
ATOM     14  C   UNL     1     -23.682  42.013  -6.713  1.00  0.00     0.004 C 
BRANCH  14  15
ATOM     15  C   UNL     1     -23.195  42.999  -5.640  1.00  0.00     0.000 C 
BRANCH  15  16
ATOM     16  C   UNL     1     -22.670  44.313  -6.240  1.00  0.00     0.000 C 
BRANCH  16  17
ATOM     17  C   UNL     1     -23.018  44.463  -7.730  1.00  0.00    -0.000 C 
BRANCH  17  18
ATOM     18  C   UNL     1     -23.976  45.633  -8.001  1.00  0.00    -0.000 C 
BRANCH  18  19
ATOM     19  C   UNL     1     -25.429  45.224  -7.734  1.00  0.00    -0.003 C 
ATOM     20  C   UNL     1     -25.951  45.851  -6.444  1.00  0.00     0.004 C 
ENDBRANCH  18  19
ENDBRANCH  17  18
ENDBRANCH  16  17
ENDBRANCH  15  16
ENDBRANCH  14  15
ENDBRANCH  13  14
ENDBRANCH   2  13
TORSDOF 15
ENDMDL
MODEL 8
REMARK VINA RESULT:    -5.619     12.253     14.666
REMARK INTER + INTRA:         -12.312
REMARK INTER:                 -10.168
REMARK INTRA:                  -2.144
REMARK UNBOUND:                -1.766
REMARK SMILES CCCCCCCCC=CCCCCCCCC(=O)[O-]
REMARK SMILES IDX 10 1 9 2 11 3 12 4 13 5 14 6 15 7 16 8 17 9 18 10 19 11
REMARK SMILES IDX 20 12 8 13 7 14 6 15 5 16 4 17 3 18 2 19 1 20
REMARK H PARENT
REMARK Flexibility Score: inf
ROOT
ATOM      1  C   UNL     1     -23.472  40.810  -6.493  1.00  0.00    -0.031 C 
ATOM      2  C   UNL     1     -22.322  40.111  -6.453  1.00  0.00    -0.031 C 
ENDROOT
BRANCH   1   3
ATOM      3  C   UNL     1     -23.561  42.317  -6.468  1.00  0.00     0.027 C 
BRANCH   3   4
ATOM      4  C   UNL     1     -23.316  42.929  -7.855  1.00  0.00     0.004 C 
BRANCH   4   5
ATOM      5  C   UNL     1     -22.354  44.128  -7.795  1.00  0.00     0.000 C 
BRANCH   5   6
ATOM      6  C   UNL     1     -22.015  44.543  -6.355  1.00  0.00     0.000 C 
BRANCH   6   7
ATOM      7  C   UNL     1     -22.277  46.034  -6.090  1.00  0.00     0.000 C 
BRANCH   7   8
ATOM      8  C   UNL     1     -23.498  46.524  -6.881  1.00  0.00     0.006 C 
BRANCH   8   9
ATOM      9  C   UNL     1     -24.821  46.141  -6.204  1.00  0.00     0.053 C 
BRANCH   9  10
ATOM     10  C   UNL     1     -25.928  45.981  -7.201  1.00  0.00     0.041 C 
ATOM     11  O   UNL     1     -27.098  46.347  -6.915  1.00  0.00    -0.550 OA
ATOM     12  O   UNL     1     -25.672  45.396  -8.435  1.00  0.00    -0.550 OA
ENDBRANCH   9  10
ENDBRANCH   8   9
ENDBRANCH   7   8
ENDBRANCH   6   7
ENDBRANCH   5   6
ENDBRANCH   4   5
ENDBRANCH   3   4
ENDBRANCH   1   3
BRANCH   2  13
ATOM     13  C   UNL     1     -20.955  40.723  -6.285  1.00  0.00     0.027 C 
BRANCH  13  14
ATOM     14  C   UNL     1     -20.254  40.862  -7.644  1.00  0.00     0.004 C 
BRANCH  14  15
ATOM     15  C   UNL     1     -19.016  41.770  -7.583  1.00  0.00     0.000 C 
BRANCH  15  16
ATOM     16  C   UNL     1     -18.878  42.491  -6.232  1.00  0.00     0.000 C 
BRANCH  16  17
ATOM     17  C   UNL     1     -17.557  42.160  -5.518  1.00  0.00    -0.000 C 
BRANCH  17  18
ATOM     18  C   UNL     1     -17.292  40.649  -5.431  1.00  0.00    -0.000 C 
BRANCH  18  19
ATOM     19  C   UNL     1     -16.516  40.301  -4.156  1.00  0.00    -0.003 C 
ATOM     20  C   UNL     1     -16.286  41.540  -3.295  1.00  0.00     0.004 C 
ENDBRANCH  18  19
ENDBRANCH  17  18
ENDBRANCH  16  17
ENDBRANCH  15  16
ENDBRANCH  14  15
ENDBRANCH  13  14
ENDBRANCH   2  13
TORSDOF 15
ENDMDL
MODEL 9
REMARK VINA RESULT:    -5.580     12.105     14.502
REMARK INTER + INTRA:         -12.239
REMARK INTER:                  -9.720
REMARK INTRA:                  -2.519
REMARK UNBOUND:                -1.766
REMARK SMILES CCCCCCCCC=CCCCCCCCC(=O)[O-]
REMARK SMILES IDX 10 1 9 2 11 3 12 4 13 5 14 6 15 7 16 8 17 9 18 10 19 11
REMARK SMILES IDX 20 12 8 13 7 14 6 15 5 16 4 17 3 18 2 19 1 20
REMARK H PARENT
REMARK Flexibility Score: inf
ROOT
ATOM      1  C   UNL     1     -17.612  40.128  -5.115  1.00  0.00    -0.031 C 
ATOM      2  C   UNL     1     -17.340  40.170  -6.433  1.00  0.00    -0.031 C 
ENDROOT
BRANCH   1   3
ATOM      3  C   UNL     1     -18.944  40.488  -4.502  1.00  0.00     0.027 C 
BRANCH   3   4
ATOM      4  C   UNL     1     -18.950  41.919  -3.943  1.00  0.00     0.004 C 
BRANCH   4   5
ATOM      5  C   UNL     1     -17.653  42.675  -4.277  1.00  0.00     0.000 C 
BRANCH   5   6
ATOM      6  C   UNL     1     -17.841  43.702  -5.405  1.00  0.00     0.000 C 
BRANCH   6   7
ATOM      7  C   UNL     1     -19.277  43.729  -5.950  1.00  0.00     0.000 C 
BRANCH   7   8
ATOM      8  C   UNL     1     -19.340  44.482  -7.287  1.00  0.00     0.006 C 
BRANCH   8   9
ATOM      9  C   UNL     1     -19.539  45.991  -7.096  1.00  0.00     0.053 C 
BRANCH   9  10
ATOM     10  C   UNL     1     -20.991  46.355  -7.027  1.00  0.00     0.041 C 
ATOM     11  O   UNL     1     -21.473  46.843  -5.971  1.00  0.00    -0.550 OA
ATOM     12  O   UNL     1     -21.818  46.124  -8.119  1.00  0.00    -0.550 OA
ENDBRANCH   9  10
ENDBRANCH   8   9
ENDBRANCH   7   8
ENDBRANCH   6   7
ENDBRANCH   5   6
ENDBRANCH   4   5
ENDBRANCH   3   4
ENDBRANCH   1   3
BRANCH   2  13
ATOM     13  C   UNL     1     -18.295  40.669  -7.488  1.00  0.00     0.027 C 
BRANCH  13  14
ATOM     14  C   UNL     1     -18.935  39.493  -8.238  1.00  0.00     0.004 C 
BRANCH  14  15
ATOM     15  C   UNL     1     -20.456  39.645  -8.392  1.00  0.00     0.000 C 
BRANCH  15  16
ATOM     16  C   UNL     1     -21.012  40.851  -7.615  1.00  0.00     0.000 C 
BRANCH  16  17
ATOM     17  C   UNL     1     -22.057  40.445  -6.563  1.00  0.00    -0.000 C 
BRANCH  17  18
ATOM     18  C   UNL     1     -23.304  41.342  -6.588  1.00  0.00    -0.000 C 
BRANCH  18  19
ATOM     19  C   UNL     1     -22.922  42.803  -6.846  1.00  0.00    -0.003 C 
ATOM     20  C   UNL     1     -22.968  43.623  -5.559  1.00  0.00     0.004 C 
ENDBRANCH  18  19
ENDBRANCH  17  18
ENDBRANCH  16  17
ENDBRANCH  15  16
ENDBRANCH  14  15
ENDBRANCH  13  14
ENDBRANCH   2  13
TORSDOF 15
ENDMDL
