MODEL 1
REMARK VINA RESULT:    -4.412      0.000      0.000
REMARK INTER + INTRA:          -4.670
REMARK INTER:                  -4.670
REMARK INTRA:                   0.000
REMARK UNBOUND:                 0.000
REMARK SMILES Cc1cc(O)c(C)c(C)c1O
REMARK SMILES IDX 1 1 2 2 3 3 4 4 6 5 8 6 10 7 9 8 7 9 11 10 5 12
REMARK H PARENT 11 11 5 13
REMARK Flexibility Score: inf
ROOT
ATOM      1  C   UNL     1      -4.804   2.374  25.293  1.00  0.00     0.048 C 
ATOM      2  C   UNL     1      -3.800   1.839  26.278  1.00  0.00    -0.005 A 
ATOM      3  C   UNL     1      -3.632   2.490  27.505  1.00  0.00     0.053 A 
ATOM      4  C   UNL     1      -2.707   2.035  28.442  1.00  0.00     0.119 A 
ATOM      5  C   UNL     1      -1.899   0.911  28.156  1.00  0.00    -0.003 A 
ATOM      6  C   UNL     1      -2.104   0.202  26.940  1.00  0.00    -0.002 A 
ATOM      7  C   UNL     1      -3.037   0.686  25.994  1.00  0.00     0.121 A 
ATOM      8  C   UNL     1      -1.316  -1.053  26.631  1.00  0.00     0.049 C 
ATOM      9  C   UNL     1      -0.857   0.473  29.163  1.00  0.00     0.049 C 
ENDROOT
BRANCH   7  10
ATOM     10  O   UNL     1      -3.191   0.009  24.778  1.00  0.00    -0.507 OA
ATOM     11  H   UNL     1      -2.810   0.342  23.902  1.00  0.00     0.293 HD
ENDBRANCH   7  10
BRANCH   4  12
ATOM     12  O   UNL     1      -2.623   2.725  29.655  1.00  0.00    -0.508 OA
ATOM     13  H   UNL     1      -2.469   2.273  30.547  1.00  0.00     0.293 HD
ENDBRANCH   4  12
TORSDOF 2
ENDMDL
MODEL 2
REMARK VINA RESULT:    -4.407      0.573      4.368
REMARK INTER + INTRA:          -4.665
REMARK INTER:                  -4.665
REMARK INTRA:                   0.000
REMARK UNBOUND:                 0.000
REMARK SMILES Cc1cc(O)c(C)c(C)c1O
REMARK SMILES IDX 1 1 2 2 3 3 4 4 6 5 8 6 10 7 9 8 7 9 11 10 5 12
REMARK H PARENT 11 11 5 13
REMARK Flexibility Score: inf
ROOT
ATOM      1  C   UNL     1      -0.591   0.393  29.062  1.00  0.00     0.048 C 
ATOM      2  C   UNL     1      -1.692   0.731  28.092  1.00  0.00    -0.005 A 
ATOM      3  C   UNL     1      -1.778   0.029  26.885  1.00  0.00     0.053 A 
ATOM      4  C   UNL     1      -2.774   0.316  25.953  1.00  0.00     0.119 A 
ATOM      5  C   UNL     1      -3.708   1.347  26.206  1.00  0.00    -0.003 A 
ATOM      6  C   UNL     1      -3.670   2.025  27.456  1.00  0.00    -0.002 A 
ATOM      7  C   UNL     1      -2.644   1.731  28.384  1.00  0.00     0.121 A 
ATOM      8  C   UNL     1      -4.701   3.079  27.798  1.00  0.00     0.049 C 
ATOM      9  C   UNL     1      -4.742   1.682  25.153  1.00  0.00     0.049 C 
ENDROOT
BRANCH   7  10
ATOM     10  O   UNL     1      -2.587   2.443  29.587  1.00  0.00    -0.507 OA
ATOM     11  H   UNL     1      -3.162   3.253  29.784  1.00  0.00     0.293 HD
ENDBRANCH   7  10
BRANCH   4  12
ATOM     12  O   UNL     1      -2.808  -0.453  24.787  1.00  0.00    -0.508 OA
ATOM     13  H   UNL     1      -2.639  -1.450  24.767  1.00  0.00     0.293 HD
ENDBRANCH   4  12
TORSDOF 2
ENDMDL
MODEL 3
REMARK VINA RESULT:    -4.386      2.231      3.758
REMARK INTER + INTRA:          -4.643
REMARK INTER:                  -4.643
REMARK INTRA:                   0.000
REMARK UNBOUND:                 0.000
REMARK SMILES Cc1cc(O)c(C)c(C)c1O
REMARK SMILES IDX 1 1 2 2 3 3 4 4 6 5 8 6 10 7 9 8 7 9 11 10 5 12
REMARK H PARENT 11 11 5 13
REMARK Flexibility Score: inf
ROOT
ATOM      1  C   UNL     1      -1.445  -0.971  26.657  1.00  0.00     0.048 C 
ATOM      2  C   UNL     1      -1.458   0.472  27.086  1.00  0.00    -0.005 A 
ATOM      3  C   UNL     1      -2.044   1.428  26.250  1.00  0.00     0.053 A 
ATOM      4  C   UNL     1      -2.070   2.776  26.602  1.00  0.00     0.119 A 
ATOM      5  C   UNL     1      -1.478   3.205  27.812  1.00  0.00    -0.003 A 
ATOM      6  C   UNL     1      -0.937   2.236  28.701  1.00  0.00    -0.002 A 
ATOM      7  C   UNL     1      -0.906   0.874  28.321  1.00  0.00     0.121 A 
ATOM      8  C   UNL     1      -0.367   2.645  30.042  1.00  0.00     0.049 C 
ATOM      9  C   UNL     1      -1.463   4.682  28.145  1.00  0.00     0.049 C 
ENDROOT
BRANCH   7  10
ATOM     10  O   UNL     1      -0.322  -0.062  29.182  1.00  0.00    -0.507 OA
ATOM     11  H   UNL     1      -0.503  -1.056  29.132  1.00  0.00     0.293 HD
ENDBRANCH   7  10
BRANCH   4  12
ATOM     12  O   UNL     1      -2.701   3.662  25.724  1.00  0.00    -0.508 OA
ATOM     13  H   UNL     1      -3.412   3.382  25.061  1.00  0.00     0.293 HD
ENDBRANCH   4  12
TORSDOF 2
ENDMDL
MODEL 4
REMARK VINA RESULT:    -4.297     14.099     15.650
REMARK INTER + INTRA:          -4.548
REMARK INTER:                  -4.548
REMARK INTRA:                   0.000
REMARK UNBOUND:                 0.000
REMARK SMILES Cc1cc(O)c(C)c(C)c1O
REMARK SMILES IDX 1 1 2 2 3 3 4 4 6 5 8 6 10 7 9 8 7 9 11 10 5 12
REMARK H PARENT 11 11 5 13
REMARK Flexibility Score: inf
ROOT
ATOM      1  C   UNL     1     -14.169  12.388  30.071  1.00  0.00     0.048 C 
ATOM      2  C   UNL     1     -14.649  11.086  30.655  1.00  0.00    -0.005 A 
ATOM      3  C   UNL     1     -15.978  10.975  31.077  1.00  0.00     0.053 A 
ATOM      4  C   UNL     1     -16.462   9.792  31.633  1.00  0.00     0.119 A 
ATOM      5  C   UNL     1     -15.602   8.682  31.801  1.00  0.00    -0.003 A 
ATOM      6  C   UNL     1     -14.267   8.760  31.318  1.00  0.00    -0.002 A 
ATOM      7  C   UNL     1     -13.789   9.973  30.770  1.00  0.00     0.121 A 
ATOM      8  C   UNL     1     -13.339   7.568  31.406  1.00  0.00     0.049 C 
ATOM      9  C   UNL     1     -16.134   7.430  32.464  1.00  0.00     0.049 C 
ENDROOT
BRANCH   7  10
ATOM     10  O   UNL     1     -12.457  10.053  30.348  1.00  0.00    -0.507 OA
ATOM     11  H   UNL     1     -11.859  10.848  30.532  1.00  0.00     0.293 HD
ENDBRANCH   7  10
BRANCH   4  12
ATOM     12  O   UNL     1     -17.810   9.755  32.000  1.00  0.00    -0.508 OA
ATOM     13  H   UNL     1     -18.231   8.990  32.510  1.00  0.00     0.293 HD
ENDBRANCH   4  12
TORSDOF 2
ENDMDL
MODEL 5
REMARK VINA RESULT:    -4.294     11.653     12.864
REMARK INTER + INTRA:          -4.545
REMARK INTER:                  -4.545
REMARK INTRA:                   0.000
REMARK UNBOUND:                 0.000
REMARK SMILES Cc1cc(O)c(C)c(C)c1O
REMARK SMILES IDX 1 1 2 2 3 3 4 4 6 5 8 6 10 7 9 8 7 9 11 10 5 12
REMARK H PARENT 11 11 5 13
REMARK Flexibility Score: inf
ROOT
ATOM      1  C   UNL     1     -15.208   5.415  31.612  1.00  0.00     0.048 C 
ATOM      2  C   UNL     1     -14.522   4.126  31.979  1.00  0.00    -0.005 A 
ATOM      3  C   UNL     1     -13.829   3.416  30.992  1.00  0.00     0.053 A 
ATOM      4  C   UNL     1     -13.188   2.214  31.284  1.00  0.00     0.119 A 
ATOM      5  C   UNL     1     -13.247   1.677  32.591  1.00  0.00    -0.003 A 
ATOM      6  C   UNL     1     -13.893   2.420  33.617  1.00  0.00    -0.002 A 
ATOM      7  C   UNL     1     -14.550   3.631  33.300  1.00  0.00     0.121 A 
ATOM      8  C   UNL     1     -13.908   1.919  35.045  1.00  0.00     0.049 C 
ATOM      9  C   UNL     1     -12.596   0.339  32.870  1.00  0.00     0.049 C 
ENDROOT
BRANCH   7  10
ATOM     10  O   UNL     1     -15.228   4.325  34.309  1.00  0.00    -0.507 OA
ATOM     11  H   UNL     1     -15.308   5.333  34.336  1.00  0.00     0.293 HD
ENDBRANCH   7  10
BRANCH   4  12
ATOM     12  O   UNL     1     -12.493   1.584  30.248  1.00  0.00    -0.508 OA
ATOM     13  H   UNL     1     -11.503   1.380  30.280  1.00  0.00     0.293 HD
ENDBRANCH   4  12
TORSDOF 2
ENDMDL
MODEL 6
REMARK VINA RESULT:    -4.280     11.568     12.759
REMARK INTER + INTRA:          -4.530
REMARK INTER:                  -4.530
REMARK INTRA:                   0.000
REMARK UNBOUND:                 0.000
REMARK SMILES Cc1cc(O)c(C)c(C)c1O
REMARK SMILES IDX 1 1 2 2 3 3 4 4 6 5 8 6 10 7 9 8 7 9 11 10 5 12
REMARK H PARENT 11 11 5 13
REMARK Flexibility Score: inf
ROOT
ATOM      1  C   UNL     1     -12.628  -0.007  31.578  1.00  0.00     0.048 C 
ATOM      2  C   UNL     1     -13.248   1.278  32.059  1.00  0.00    -0.005 A 
ATOM      3  C   UNL     1     -13.640   1.389  33.398  1.00  0.00     0.053 A 
ATOM      4  C   UNL     1     -14.227   2.555  33.883  1.00  0.00     0.119 A 
ATOM      5  C   UNL     1     -14.460   3.648  33.017  1.00  0.00    -0.003 A 
ATOM      6  C   UNL     1     -14.008   3.573  31.670  1.00  0.00    -0.002 A 
ATOM      7  C   UNL     1     -13.427   2.376  31.191  1.00  0.00     0.121 A 
ATOM      8  C   UNL     1     -14.165   4.750  30.732  1.00  0.00     0.049 C 
ATOM      9  C   UNL     1     -15.156   4.881  33.552  1.00  0.00     0.049 C 
ENDROOT
BRANCH   7  10
ATOM     10  O   UNL     1     -13.036   2.297  29.849  1.00  0.00    -0.507 OA
ATOM     11  H   UNL     1     -12.451   1.558  29.480  1.00  0.00     0.293 HD
ENDBRANCH   7  10
BRANCH   4  12
ATOM     12  O   UNL     1     -14.562   2.594  35.240  1.00  0.00    -0.508 OA
ATOM     13  H   UNL     1     -13.879   2.659  35.984  1.00  0.00     0.293 HD
ENDBRANCH   4  12
TORSDOF 2
ENDMDL
MODEL 7
REMARK VINA RESULT:    -4.270     14.037     15.865
REMARK INTER + INTRA:          -4.519
REMARK INTER:                  -4.519
REMARK INTRA:                   0.000
REMARK UNBOUND:                 0.000
REMARK SMILES Cc1cc(O)c(C)c(C)c1O
REMARK SMILES IDX 1 1 2 2 3 3 4 4 6 5 8 6 10 7 9 8 7 9 11 10 5 12
REMARK H PARENT 11 11 5 13
REMARK Flexibility Score: inf
ROOT
ATOM      1  C   UNL     1     -14.291   6.708  32.484  1.00  0.00     0.048 C 
ATOM      2  C   UNL     1     -14.576   8.057  31.879  1.00  0.00    -0.005 A 
ATOM      3  C   UNL     1     -13.545   8.747  31.233  1.00  0.00     0.053 A 
ATOM      4  C   UNL     1     -13.760  10.003  30.669  1.00  0.00     0.119 A 
ATOM      5  C   UNL     1     -15.032  10.615  30.761  1.00  0.00    -0.003 A 
ATOM      6  C   UNL     1     -16.104   9.898  31.360  1.00  0.00    -0.002 A 
ATOM      7  C   UNL     1     -15.864   8.630  31.940  1.00  0.00     0.121 A 
ATOM      8  C   UNL     1     -17.499  10.484  31.407  1.00  0.00     0.049 C 
ATOM      9  C   UNL     1     -15.226  12.005  30.196  1.00  0.00     0.049 C 
ENDROOT
BRANCH   7  10
ATOM     10  O   UNL     1     -16.916   7.959  32.572  1.00  0.00    -0.507 OA
ATOM     11  H   UNL     1     -17.893   8.147  32.383  1.00  0.00     0.293 HD
ENDBRANCH   7  10
BRANCH   4  12
ATOM     12  O   UNL     1     -12.685  10.611  30.014  1.00  0.00    -0.508 OA
ATOM     13  H   UNL     1     -12.500  11.605  30.045  1.00  0.00     0.293 HD
ENDBRANCH   4  12
TORSDOF 2
ENDMDL
MODEL 8
REMARK VINA RESULT:    -4.211      2.808      4.135
REMARK INTER + INTRA:          -4.458
REMARK INTER:                  -4.458
REMARK INTRA:                   0.000
REMARK UNBOUND:                 0.000
REMARK SMILES Cc1cc(O)c(C)c(C)c1O
REMARK SMILES IDX 1 1 2 2 3 3 4 4 6 5 8 6 10 7 9 8 7 9 11 10 5 12
REMARK H PARENT 11 11 5 13
REMARK Flexibility Score: inf
ROOT
ATOM      1  C   UNL     1      -1.404  -0.343  26.988  1.00  0.00     0.048 C 
ATOM      2  C   UNL     1      -2.108  -0.011  28.276  1.00  0.00    -0.005 A 
ATOM      3  C   UNL     1      -3.314  -0.651  28.580  1.00  0.00     0.053 A 
ATOM      4  C   UNL     1      -4.006  -0.368  29.756  1.00  0.00     0.119 A 
ATOM      5  C   UNL     1      -3.505   0.598  30.659  1.00  0.00    -0.003 A 
ATOM      6  C   UNL     1      -2.248   1.209  30.393  1.00  0.00    -0.002 A 
ATOM      7  C   UNL     1      -1.567   0.920  29.188  1.00  0.00     0.121 A 
ATOM      8  C   UNL     1      -1.639   2.188  31.374  1.00  0.00     0.049 C 
ATOM      9  C   UNL     1      -4.304   0.935  31.899  1.00  0.00     0.049 C 
ENDROOT
BRANCH   7  10
ATOM     10  O   UNL     1      -0.358   1.569  28.915  1.00  0.00    -0.507 OA
ATOM     11  H   UNL     1       0.139   1.478  28.038  1.00  0.00     0.293 HD
ENDBRANCH   7  10
BRANCH   4  12
ATOM     12  O   UNL     1      -5.188  -1.074  29.997  1.00  0.00    -0.508 OA
ATOM     13  H   UNL     1      -5.215  -1.998  30.408  1.00  0.00     0.293 HD
ENDBRANCH   4  12
TORSDOF 2
ENDMDL
MODEL 9
REMARK VINA RESULT:    -4.180     10.864     11.679
REMARK INTER + INTRA:          -4.424
REMARK INTER:                  -4.424
REMARK INTRA:                   0.000
REMARK UNBOUND:                 0.000
REMARK SMILES Cc1cc(O)c(C)c(C)c1O
REMARK SMILES IDX 1 1 2 2 3 3 4 4 6 5 8 6 10 7 9 8 7 9 11 10 5 12
REMARK H PARENT 11 11 5 13
REMARK Flexibility Score: inf
ROOT
ATOM      1  C   UNL     1     -13.191   0.178  28.499  1.00  0.00     0.048 C 
ATOM      2  C   UNL     1     -13.210   0.852  29.845  1.00  0.00    -0.005 A 
ATOM      3  C   UNL     1     -12.722   0.164  30.961  1.00  0.00     0.053 A 
ATOM      4  C   UNL     1     -12.729   0.745  32.227  1.00  0.00     0.119 A 
ATOM      5  C   UNL     1     -13.258   2.044  32.410  1.00  0.00    -0.003 A 
ATOM      6  C   UNL     1     -13.699   2.779  31.274  1.00  0.00    -0.002 A 
ATOM      7  C   UNL     1     -13.697   2.168  29.999  1.00  0.00     0.121 A 
ATOM      8  C   UNL     1     -14.196   4.201  31.415  1.00  0.00     0.049 C 
ATOM      9  C   UNL     1     -13.313   2.631  33.804  1.00  0.00     0.049 C 
ENDROOT
BRANCH   7  10
ATOM     10  O   UNL     1     -14.184   2.883  28.899  1.00  0.00    -0.507 OA
ATOM     11  H   UNL     1     -14.701   2.457  28.140  1.00  0.00     0.293 HD
ENDBRANCH   7  10
BRANCH   4  12
ATOM     12  O   UNL     1     -12.195   0.002  33.283  1.00  0.00    -0.508 OA
ATOM     13  H   UNL     1     -12.584  -0.005  34.217  1.00  0.00     0.293 HD
ENDBRANCH   4  12
TORSDOF 2
ENDMDL
