MODEL 1
REMARK VINA RESULT:    -1.849      0.000      0.000
REMARK INTER + INTRA:          -2.023
REMARK INTER:                  -2.227
REMARK INTRA:                   0.204
REMARK UNBOUND:                 0.204
REMARK SMILES Oc1cc(O)c2c(c1)O[C@@H](c1ccc(O)c(O)c1)[C@H](O)C2
REMARK SMILES IDX 21 1 19 2 10 3 9 4 7 5 8 6 2 7 3 8 4 9 6 10 20 11 11 13
REMARK SMILES IDX 18 14 12 15 16 16 13 17 14 18 17 19 15 21 5 23 1 25
REMARK H PARENT 20 12 17 20 15 22 5 24 1 26
REMARK Flexibility Score: inf
ROOT
ATOM      1  C   UNL     1      73.637  39.993  22.418  1.00  0.00     0.079 C 
ATOM      2  C   UNL     1      72.156  39.964  22.003  1.00  0.00     0.164 C 
ATOM      3  C   UNL     1      71.861  41.125  21.034  1.00  0.00     0.232 C 
ATOM      4  O   UNL     1      72.733  41.045  19.906  1.00  0.00    -0.482 OA
ATOM      5  C   UNL     1      74.072  40.659  20.020  1.00  0.00     0.131 A 
ATOM      6  C   UNL     1      74.910  40.781  18.909  1.00  0.00     0.093 A 
ATOM      7  C   UNL     1      76.255  40.417  18.997  1.00  0.00     0.122 A 
ATOM      8  C   UNL     1      76.768  39.939  20.207  1.00  0.00     0.092 A 
ATOM      9  C   UNL     1      75.944  39.811  21.331  1.00  0.00     0.126 A 
ATOM     10  C   UNL     1      74.569  40.136  21.234  1.00  0.00     0.039 A 
ENDROOT
BRANCH   2  11
ATOM     11  O   UNL     1      71.359  40.072  23.156  1.00  0.00    -0.389 OA
ATOM     12  H   UNL     1      70.542  40.574  22.898  1.00  0.00     0.211 HD
ENDBRANCH   2  11
BRANCH   3  13
ATOM     13  C   UNL     1      70.426  41.099  20.563  1.00  0.00    -0.001 A 
ATOM     14  C   UNL     1      69.370  41.109  21.490  1.00  0.00     0.057 A 
ATOM     15  C   UNL     1      70.132  41.116  19.190  1.00  0.00     0.012 A 
ATOM     16  C   UNL     1      68.038  41.115  21.052  1.00  0.00     0.157 A 
ATOM     17  C   UNL     1      68.805  41.122  18.752  1.00  0.00     0.050 A 
ATOM     18  C   UNL     1      67.755  41.120  19.676  1.00  0.00     0.157 A 
BRANCH  16  19
ATOM     19  O   UNL     1      66.996  41.118  21.979  1.00  0.00    -0.504 OA
ATOM     20  H   UNL     1      66.148  40.585  21.826  1.00  0.00     0.293 HD
ENDBRANCH  16  19
BRANCH  18  21
ATOM     21  O   UNL     1      66.442  41.125  19.209  1.00  0.00    -0.504 OA
ATOM     22  H   UNL     1      65.878  41.966  19.197  1.00  0.00     0.293 HD
ENDBRANCH  18  21
ENDBRANCH   3  13
BRANCH   9  23
ATOM     23  O   UNL     1      76.523  39.372  22.524  1.00  0.00    -0.507 OA
ATOM     24  H   UNL     1      77.326  38.758  22.559  1.00  0.00     0.293 HD
ENDBRANCH   9  23
BRANCH   7  25
ATOM     25  O   UNL     1      77.075  40.543  17.878  1.00  0.00    -0.508 OA
ATOM     26  H   UNL     1      76.980  41.321  17.236  1.00  0.00     0.293 HD
ENDBRANCH   7  25
TORSDOF 6
ENDMDL
