MODEL 1
REMARK VINA RESULT:    -3.764      0.000      0.000
REMARK INTER + INTRA:          -7.885
REMARK INTER:                  -6.405
REMARK INTRA:                  -1.480
REMARK UNBOUND:                -1.480
REMARK SMILES CCCCCCCCCCCCCC(=O)[O-]
REMARK SMILES IDX 8 1 9 2 10 3 11 4 12 5 13 6 14 7 15 8 16 9 7 10 6 11 5 12
REMARK SMILES IDX 4 13 3 14 2 15 1 16
REMARK H PARENT
REMARK Flexibility Score: inf
ROOT
ATOM      1  C   UNL     1       9.921 -27.887  41.587  1.00  0.00     0.000 C 
ENDROOT
BRANCH   1   2
ATOM      2  C   UNL     1      11.312 -28.376  41.130  1.00  0.00     0.000 C 
BRANCH   2   3
ATOM      3  C   UNL     1      12.017 -27.412  40.160  1.00  0.00     0.000 C 
BRANCH   3   4
ATOM      4  C   UNL     1      13.326 -26.843  40.730  1.00  0.00     0.000 C 
BRANCH   4   5
ATOM      5  C   UNL     1      13.657 -25.446  40.163  1.00  0.00     0.006 C 
BRANCH   5   6
ATOM      6  C   UNL     1      12.974 -25.152  38.818  1.00  0.00     0.053 C 
BRANCH   6   7
ATOM      7  C   UNL     1      13.944 -25.138  37.678  1.00  0.00     0.041 C 
ATOM      8  O   UNL     1      13.606 -25.592  36.554  1.00  0.00    -0.550 OA
ATOM      9  O   UNL     1      15.231 -24.648  37.865  1.00  0.00    -0.550 OA
ENDBRANCH   6   7
ENDBRANCH   5   6
ENDBRANCH   4   5
ENDBRANCH   3   4
ENDBRANCH   2   3
ENDBRANCH   1   2
BRANCH   1  10
ATOM     10  C   UNL     1       9.869 -26.359  41.752  1.00  0.00     0.000 C 
BRANCH  10  11
ATOM     11  C   UNL     1       8.829 -25.698  40.834  1.00  0.00    -0.000 C 
BRANCH  11  12
ATOM     12  C   UNL     1       9.435 -24.604  39.942  1.00  0.00    -0.000 C 
BRANCH  12  13
ATOM     13  C   UNL     1       9.525 -23.269  40.697  1.00  0.00    -0.000 C 
BRANCH  13  14
ATOM     14  C   UNL     1      10.908 -22.611  40.577  1.00  0.00    -0.000 C 
BRANCH  14  15
ATOM     15  C   UNL     1      11.394 -22.009  41.905  1.00  0.00    -0.003 C 
ATOM     16  C   UNL     1      12.830 -22.428  42.205  1.00  0.00     0.004 C 
ENDBRANCH  14  15
ENDBRANCH  13  14
ENDBRANCH  12  13
ENDBRANCH  11  12
ENDBRANCH  10  11
ENDBRANCH   1  10
TORSDOF 12
ENDMDL
MODEL 2
REMARK VINA RESULT:    -3.709      1.231      1.996
REMARK INTER + INTRA:          -7.791
REMARK INTER:                  -6.083
REMARK INTRA:                  -1.708
REMARK UNBOUND:                -1.480
REMARK SMILES CCCCCCCCCCCCCC(=O)[O-]
REMARK SMILES IDX 8 1 9 2 10 3 11 4 12 5 13 6 14 7 15 8 16 9 7 10 6 11 5 12
REMARK SMILES IDX 4 13 3 14 2 15 1 16
REMARK H PARENT
REMARK Flexibility Score: inf
ROOT
ATOM      1  C   UNL     1       8.191 -27.149  41.089  1.00  0.00     0.000 C 
ENDROOT
BRANCH   1   2
ATOM      2  C   UNL     1       9.120 -27.966  42.012  1.00  0.00     0.000 C 
BRANCH   2   3
ATOM      3  C   UNL     1      10.617 -27.700  41.773  1.00  0.00     0.000 C 
BRANCH   3   4
ATOM      4  C   UNL     1      11.135 -28.332  40.472  1.00  0.00     0.000 C 
BRANCH   4   5
ATOM      5  C   UNL     1      12.088 -27.394  39.700  1.00  0.00     0.006 C 
BRANCH   5   6
ATOM      6  C   UNL     1      12.392 -26.083  40.443  1.00  0.00     0.053 C 
BRANCH   6   7
ATOM      7  C   UNL     1      13.020 -25.057  39.553  1.00  0.00     0.041 C 
ATOM      8  O   UNL     1      13.884 -24.265  40.012  1.00  0.00    -0.550 OA
ATOM      9  O   UNL     1      12.632 -24.958  38.222  1.00  0.00    -0.550 OA
ENDBRANCH   6   7
ENDBRANCH   5   6
ENDBRANCH   4   5
ENDBRANCH   3   4
ENDBRANCH   2   3
ENDBRANCH   1   2
BRANCH   1  10
ATOM     10  C   UNL     1       8.637 -25.682  40.969  1.00  0.00     0.000 C 
BRANCH  10  11
ATOM     11  C   UNL     1       9.022 -25.295  39.532  1.00  0.00    -0.000 C 
BRANCH  11  12
ATOM     12  C   UNL     1       9.515 -23.844  39.421  1.00  0.00    -0.000 C 
BRANCH  12  13
ATOM     13  C   UNL     1       9.476 -23.146  40.789  1.00  0.00    -0.000 C 
BRANCH  13  14
ATOM     14  C   UNL     1      10.750 -22.336  41.079  1.00  0.00    -0.000 C 
BRANCH  14  15
ATOM     15  C   UNL     1      11.499 -22.837  42.323  1.00  0.00    -0.003 C 
ATOM     16  C   UNL     1      12.689 -21.938  42.646  1.00  0.00     0.004 C 
ENDBRANCH  14  15
ENDBRANCH  13  14
ENDBRANCH  12  13
ENDBRANCH  11  12
ENDBRANCH  10  11
ENDBRANCH   1  10
TORSDOF 12
ENDMDL
MODEL 3
REMARK VINA RESULT:    -3.653      1.451      3.689
REMARK INTER + INTRA:          -7.695
REMARK INTER:                  -6.336
REMARK INTRA:                  -1.359
REMARK UNBOUND:                -1.480
REMARK SMILES CCCCCCCCCCCCCC(=O)[O-]
REMARK SMILES IDX 8 1 9 2 10 3 11 4 12 5 13 6 14 7 15 8 16 9 7 10 6 11 5 12
REMARK SMILES IDX 4 13 3 14 2 15 1 16
REMARK H PARENT
REMARK Flexibility Score: inf
ROOT
ATOM      1  C   UNL     1      13.654 -23.487  40.407  1.00  0.00     0.000 C 
ENDROOT
BRANCH   1   2
ATOM      2  C   UNL     1      14.656 -24.296  41.257  1.00  0.00     0.000 C 
BRANCH   2   3
ATOM      3  C   UNL     1      14.724 -25.786  40.878  1.00  0.00     0.000 C 
BRANCH   3   4
ATOM      4  C   UNL     1      13.355 -26.367  40.488  1.00  0.00     0.000 C 
BRANCH   4   5
ATOM      5  C   UNL     1      13.428 -27.254  39.228  1.00  0.00     0.006 C 
BRANCH   5   6
ATOM      6  C   UNL     1      12.791 -26.610  37.986  1.00  0.00     0.053 C 
BRANCH   6   7
ATOM      7  C   UNL     1      13.812 -26.174  36.983  1.00  0.00     0.041 C 
ATOM      8  O   UNL     1      15.027 -26.109  37.303  1.00  0.00    -0.550 OA
ATOM      9  O   UNL     1      13.417 -25.815  35.700  1.00  0.00    -0.550 OA
ENDBRANCH   6   7
ENDBRANCH   5   6
ENDBRANCH   4   5
ENDBRANCH   3   4
ENDBRANCH   2   3
ENDBRANCH   1   2
BRANCH   1  10
ATOM     10  C   UNL     1      13.665 -21.991  40.766  1.00  0.00     0.000 C 
BRANCH  10  11
ATOM     11  C   UNL     1      12.320 -21.506  41.330  1.00  0.00    -0.000 C 
BRANCH  11  12
ATOM     12  C   UNL     1      11.380 -22.664  41.698  1.00  0.00    -0.000 C 
BRANCH  12  13
ATOM     13  C   UNL     1      10.105 -22.629  40.841  1.00  0.00    -0.000 C 
BRANCH  13  14
ATOM     14  C   UNL     1       9.887 -23.926  40.046  1.00  0.00    -0.000 C 
BRANCH  14  15
ATOM     15  C   UNL     1       9.912 -25.177  40.938  1.00  0.00    -0.003 C 
ATOM     16  C   UNL     1       8.545 -25.853  40.974  1.00  0.00     0.004 C 
ENDBRANCH  14  15
ENDBRANCH  13  14
ENDBRANCH  12  13
ENDBRANCH  11  12
ENDBRANCH  10  11
ENDBRANCH   1  10
TORSDOF 12
ENDMDL
MODEL 4
REMARK VINA RESULT:    -3.651      1.467      2.844
REMARK INTER + INTRA:          -7.692
REMARK INTER:                  -6.463
REMARK INTRA:                  -1.229
REMARK UNBOUND:                -1.480
REMARK SMILES CCCCCCCCCCCCCC(=O)[O-]
REMARK SMILES IDX 8 1 9 2 10 3 11 4 12 5 13 6 14 7 15 8 16 9 7 10 6 11 5 12
REMARK SMILES IDX 4 13 3 14 2 15 1 16
REMARK H PARENT
REMARK Flexibility Score: inf
ROOT
ATOM      1  C   UNL     1       9.494 -24.407  40.214  1.00  0.00     0.000 C 
ENDROOT
BRANCH   1   2
ATOM      2  C   UNL     1      10.398 -25.304  41.086  1.00  0.00     0.000 C 
BRANCH   2   3
ATOM      3  C   UNL     1      10.749 -26.650  40.429  1.00  0.00     0.000 C 
BRANCH   3   4
ATOM      4  C   UNL     1      12.255 -26.811  40.164  1.00  0.00     0.000 C 
BRANCH   4   5
ATOM      5  C   UNL     1      13.022 -25.478  40.298  1.00  0.00     0.006 C 
BRANCH   5   6
ATOM      6  C   UNL     1      14.147 -25.311  39.263  1.00  0.00     0.053 C 
BRANCH   6   7
ATOM      7  C   UNL     1      13.656 -24.720  37.979  1.00  0.00     0.041 C 
ATOM      8  O   UNL     1      13.842 -25.325  36.892  1.00  0.00    -0.550 OA
ATOM      9  O   UNL     1      13.018 -23.486  37.981  1.00  0.00    -0.550 OA
ENDBRANCH   6   7
ENDBRANCH   5   6
ENDBRANCH   4   5
ENDBRANCH   3   4
ENDBRANCH   2   3
ENDBRANCH   1   2
BRANCH   1  10
ATOM     10  C   UNL     1       9.646 -22.916  40.563  1.00  0.00     0.000 C 
BRANCH  10  11
ATOM     11  C   UNL     1      10.752 -22.660  41.599  1.00  0.00    -0.000 C 
BRANCH  11  12
ATOM     12  C   UNL     1      11.932 -21.864  41.021  1.00  0.00    -0.000 C 
BRANCH  12  13
ATOM     13  C   UNL     1      12.946 -21.511  42.121  1.00  0.00    -0.000 C 
BRANCH  13  14
ATOM     14  C   UNL     1      12.645 -22.214  43.453  1.00  0.00    -0.000 C 
BRANCH  14  15
ATOM     15  C   UNL     1      13.632 -21.823  44.564  1.00  0.00    -0.003 C 
ATOM     16  C   UNL     1      14.283 -20.475  44.271  1.00  0.00     0.004 C 
ENDBRANCH  14  15
ENDBRANCH  13  14
ENDBRANCH  12  13
ENDBRANCH  11  12
ENDBRANCH  10  11
ENDBRANCH   1  10
TORSDOF 12
ENDMDL
MODEL 5
REMARK VINA RESULT:    -3.617      1.518      4.150
REMARK INTER + INTRA:          -7.635
REMARK INTER:                  -5.852
REMARK INTRA:                  -1.783
REMARK UNBOUND:                -1.480
REMARK SMILES CCCCCCCCCCCCCC(=O)[O-]
REMARK SMILES IDX 8 1 9 2 10 3 11 4 12 5 13 6 14 7 15 8 16 9 7 10 6 11 5 12
REMARK SMILES IDX 4 13 3 14 2 15 1 16
REMARK H PARENT
REMARK Flexibility Score: inf
ROOT
ATOM      1  C   UNL     1      11.004 -22.624  41.982  1.00  0.00     0.000 C 
ENDROOT
BRANCH   1   2
ATOM      2  C   UNL     1      12.349 -21.945  41.649  1.00  0.00     0.000 C 
BRANCH   2   3
ATOM      3  C   UNL     1      12.473 -21.510  40.179  1.00  0.00     0.000 C 
BRANCH   3   4
ATOM      4  C   UNL     1      13.572 -22.273  39.421  1.00  0.00     0.000 C 
BRANCH   4   5
ATOM      5  C   UNL     1      13.024 -23.508  38.675  1.00  0.00     0.006 C 
BRANCH   5   6
ATOM      6  C   UNL     1      13.854 -24.781  38.905  1.00  0.00     0.053 C 
BRANCH   6   7
ATOM      7  C   UNL     1      14.350 -25.377  37.625  1.00  0.00     0.041 C 
ATOM      8  O   UNL     1      13.623 -25.366  36.598  1.00  0.00    -0.550 OA
ATOM      9  O   UNL     1      15.606 -25.969  37.574  1.00  0.00    -0.550 OA
ENDBRANCH   6   7
ENDBRANCH   5   6
ENDBRANCH   4   5
ENDBRANCH   3   4
ENDBRANCH   2   3
ENDBRANCH   1   2
BRANCH   1  10
ATOM     10  C   UNL     1      10.063 -22.673  40.767  1.00  0.00     0.000 C 
BRANCH  10  11
ATOM     11  C   UNL     1       9.592 -24.099  40.438  1.00  0.00    -0.000 C 
BRANCH  11  12
ATOM     12  C   UNL     1      10.238 -25.159  41.343  1.00  0.00    -0.000 C 
BRANCH  12  13
ATOM     13  C   UNL     1      10.974 -26.218  40.508  1.00  0.00    -0.000 C 
BRANCH  13  14
ATOM     14  C   UNL     1      10.189 -26.636  39.254  1.00  0.00    -0.000 C 
BRANCH  14  15
ATOM     15  C   UNL     1      11.086 -27.266  38.178  1.00  0.00    -0.003 C 
ATOM     16  C   UNL     1      12.151 -28.161  38.807  1.00  0.00     0.004 C 
ENDBRANCH  14  15
ENDBRANCH  13  14
ENDBRANCH  12  13
ENDBRANCH  11  12
ENDBRANCH  10  11
ENDBRANCH   1  10
TORSDOF 12
ENDMDL
MODEL 6
REMARK VINA RESULT:    -3.616      2.559      4.471
REMARK INTER + INTRA:          -7.633
REMARK INTER:                  -5.620
REMARK INTRA:                  -2.013
REMARK UNBOUND:                -1.480
REMARK SMILES CCCCCCCCCCCCCC(=O)[O-]
REMARK SMILES IDX 8 1 9 2 10 3 11 4 12 5 13 6 14 7 15 8 16 9 7 10 6 11 5 12
REMARK SMILES IDX 4 13 3 14 2 15 1 16
REMARK H PARENT
REMARK Flexibility Score: inf
ROOT
ATOM      1  C   UNL     1      15.513 -24.248  40.907  1.00  0.00     0.000 C 
ENDROOT
BRANCH   1   2
ATOM      2  C   UNL     1      14.697 -25.388  40.261  1.00  0.00     0.000 C 
BRANCH   2   3
ATOM      3  C   UNL     1      13.363 -24.923  39.651  1.00  0.00     0.000 C 
BRANCH   3   4
ATOM      4  C   UNL     1      13.542 -24.197  38.308  1.00  0.00     0.000 C 
BRANCH   4   5
ATOM      5  C   UNL     1      13.166 -22.702  38.392  1.00  0.00     0.006 C 
BRANCH   5   6
ATOM      6  C   UNL     1      14.347 -21.757  38.114  1.00  0.00     0.053 C 
BRANCH   6   7
ATOM      7  C   UNL     1      14.304 -21.182  36.733  1.00  0.00     0.041 C 
ATOM      8  O   UNL     1      13.883 -21.876  35.772  1.00  0.00    -0.550 OA
ATOM      9  O   UNL     1      14.755 -19.888  36.504  1.00  0.00    -0.550 OA
ENDBRANCH   6   7
ENDBRANCH   5   6
ENDBRANCH   4   5
ENDBRANCH   3   4
ENDBRANCH   2   3
ENDBRANCH   1   2
BRANCH   1  10
ATOM     10  C   UNL     1      14.670 -23.418  41.892  1.00  0.00     0.000 C 
BRANCH  10  11
ATOM     11  C   UNL     1      14.961 -21.912  41.799  1.00  0.00    -0.000 C 
BRANCH  11  12
ATOM     12  C   UNL     1      13.693 -21.055  41.935  1.00  0.00    -0.000 C 
BRANCH  12  13
ATOM     13  C   UNL     1      12.510 -21.900  42.432  1.00  0.00    -0.000 C 
BRANCH  13  14
ATOM     14  C   UNL     1      11.331 -21.907  41.447  1.00  0.00    -0.000 C 
BRANCH  14  15
ATOM     15  C   UNL     1      10.639 -23.277  41.363  1.00  0.00    -0.003 C 
ATOM     16  C   UNL     1       9.679 -23.334  40.178  1.00  0.00     0.004 C 
ENDBRANCH  14  15
ENDBRANCH  13  14
ENDBRANCH  12  13
ENDBRANCH  11  12
ENDBRANCH  10  11
ENDBRANCH   1  10
TORSDOF 12
ENDMDL
MODEL 7
REMARK VINA RESULT:    -3.576      1.075      3.881
REMARK INTER + INTRA:          -7.565
REMARK INTER:                  -6.041
REMARK INTRA:                  -1.524
REMARK UNBOUND:                -1.480
REMARK SMILES CCCCCCCCCCCCCC(=O)[O-]
REMARK SMILES IDX 8 1 9 2 10 3 11 4 12 5 13 6 14 7 15 8 16 9 7 10 6 11 5 12
REMARK SMILES IDX 4 13 3 14 2 15 1 16
REMARK H PARENT
REMARK Flexibility Score: inf
ROOT
ATOM      1  C   UNL     1      10.674 -22.577  40.591  1.00  0.00     0.000 C 
ENDROOT
BRANCH   1   2
ATOM      2  C   UNL     1      11.591 -22.987  41.764  1.00  0.00     0.000 C 
BRANCH   2   3
ATOM      3  C   UNL     1      13.018 -23.363  41.328  1.00  0.00     0.000 C 
BRANCH   3   4
ATOM      4  C   UNL     1      13.071 -23.969  39.916  1.00  0.00     0.000 C 
BRANCH   4   5
ATOM      5  C   UNL     1      13.163 -25.509  39.939  1.00  0.00     0.006 C 
BRANCH   5   6
ATOM      6  C   UNL     1      12.701 -26.171  38.631  1.00  0.00     0.053 C 
BRANCH   6   7
ATOM      7  C   UNL     1      13.785 -26.211  37.599  1.00  0.00     0.041 C 
ATOM      8  O   UNL     1      14.821 -26.897  37.796  1.00  0.00    -0.550 OA
ATOM      9  O   UNL     1      13.661 -25.468  36.431  1.00  0.00    -0.550 OA
ENDBRANCH   6   7
ENDBRANCH   5   6
ENDBRANCH   4   5
ENDBRANCH   3   4
ENDBRANCH   2   3
ENDBRANCH   1   2
BRANCH   1  10
ATOM     10  C   UNL     1       9.334 -23.333  40.611  1.00  0.00     0.000 C 
BRANCH  10  11
ATOM     11  C   UNL     1       9.507 -24.850  40.438  1.00  0.00    -0.000 C 
BRANCH  11  12
ATOM     12  C   UNL     1       8.395 -25.656  41.127  1.00  0.00    -0.000 C 
BRANCH  12  13
ATOM     13  C   UNL     1       8.885 -27.065  41.493  1.00  0.00    -0.000 C 
BRANCH  13  14
ATOM     14  C   UNL     1      10.400 -27.121  41.741  1.00  0.00    -0.000 C 
BRANCH  14  15
ATOM     15  C   UNL     1      11.040 -28.412  41.207  1.00  0.00    -0.003 C 
ATOM     16  C   UNL     1      11.747 -29.175  42.323  1.00  0.00     0.004 C 
ENDBRANCH  14  15
ENDBRANCH  13  14
ENDBRANCH  12  13
ENDBRANCH  11  12
ENDBRANCH  10  11
ENDBRANCH   1  10
TORSDOF 12
ENDMDL
MODEL 8
REMARK VINA RESULT:    -3.554      1.814      2.317
REMARK INTER + INTRA:          -7.526
REMARK INTER:                  -6.108
REMARK INTRA:                  -1.418
REMARK UNBOUND:                -1.480
REMARK SMILES CCCCCCCCCCCCCC(=O)[O-]
REMARK SMILES IDX 8 1 9 2 10 3 11 4 12 5 13 6 14 7 15 8 16 9 7 10 6 11 5 12
REMARK SMILES IDX 4 13 3 14 2 15 1 16
REMARK H PARENT
REMARK Flexibility Score: inf
ROOT
ATOM      1  C   UNL     1       9.028 -28.212  42.081  1.00  0.00     0.000 C 
ENDROOT
BRANCH   1   2
ATOM      2  C   UNL     1       9.514 -29.551  41.487  1.00  0.00     0.000 C 
BRANCH   2   3
ATOM      3  C   UNL     1      10.491 -29.386  40.310  1.00  0.00     0.000 C 
BRANCH   3   4
ATOM      4  C   UNL     1      11.818 -28.728  40.723  1.00  0.00     0.000 C 
BRANCH   4   5
ATOM      5  C   UNL     1      12.297 -27.675  39.701  1.00  0.00     0.006 C 
BRANCH   5   6
ATOM      6  C   UNL     1      11.516 -27.706  38.377  1.00  0.00     0.053 C 
BRANCH   6   7
ATOM      7  C   UNL     1      12.410 -27.898  37.193  1.00  0.00     0.041 C 
ATOM      8  O   UNL     1      12.919 -29.025  36.960  1.00  0.00    -0.550 OA
ATOM      9  O   UNL     1      12.703 -26.824  36.361  1.00  0.00    -0.550 OA
ENDBRANCH   6   7
ENDBRANCH   5   6
ENDBRANCH   4   5
ENDBRANCH   3   4
ENDBRANCH   2   3
ENDBRANCH   1   2
BRANCH   1  10
ATOM     10  C   UNL     1       8.095 -27.456  41.118  1.00  0.00     0.000 C 
BRANCH  10  11
ATOM     11  C   UNL     1       8.391 -25.949  41.067  1.00  0.00    -0.000 C 
BRANCH  11  12
ATOM     12  C   UNL     1       9.850 -25.619  41.418  1.00  0.00    -0.000 C 
BRANCH  12  13
ATOM     13  C   UNL     1      10.398 -24.514  40.502  1.00  0.00    -0.000 C 
BRANCH  13  14
ATOM     14  C   UNL     1       9.859 -23.122  40.865  1.00  0.00    -0.000 C 
BRANCH  14  15
ATOM     15  C   UNL     1      10.931 -22.217  41.492  1.00  0.00    -0.003 C 
ATOM     16  C   UNL     1      12.114 -22.032  40.547  1.00  0.00     0.004 C 
ENDBRANCH  14  15
ENDBRANCH  13  14
ENDBRANCH  12  13
ENDBRANCH  11  12
ENDBRANCH  10  11
ENDBRANCH   1  10
TORSDOF 12
ENDMDL
MODEL 9
REMARK VINA RESULT:    -3.487      2.259      4.283
REMARK INTER + INTRA:          -7.413
REMARK INTER:                  -5.858
REMARK INTRA:                  -1.555
REMARK UNBOUND:                -1.480
REMARK SMILES CCCCCCCCCCCCCC(=O)[O-]
REMARK SMILES IDX 8 1 9 2 10 3 11 4 12 5 13 6 14 7 15 8 16 9 7 10 6 11 5 12
REMARK SMILES IDX 4 13 3 14 2 15 1 16
REMARK H PARENT
REMARK Flexibility Score: inf
ROOT
ATOM      1  C   UNL     1      11.177 -22.809  41.832  1.00  0.00     0.000 C 
ENDROOT
BRANCH   1   2
ATOM      2  C   UNL     1      12.346 -21.800  41.831  1.00  0.00     0.000 C 
BRANCH   2   3
ATOM      3  C   UNL     1      13.712 -22.440  41.529  1.00  0.00     0.000 C 
BRANCH   3   4
ATOM      4  C   UNL     1      14.429 -21.784  40.337  1.00  0.00     0.000 C 
BRANCH   4   5
ATOM      5  C   UNL     1      14.071 -22.453  38.993  1.00  0.00     0.006 C 
BRANCH   5   6
ATOM      6  C   UNL     1      13.529 -21.471  37.943  1.00  0.00     0.053 C 
BRANCH   6   7
ATOM      7  C   UNL     1      14.296 -21.527  36.660  1.00  0.00     0.041 C 
ATOM      8  O   UNL     1      13.745 -21.196  35.578  1.00  0.00    -0.550 OA
ATOM      9  O   UNL     1      15.613 -21.970  36.656  1.00  0.00    -0.550 OA
ENDBRANCH   6   7
ENDBRANCH   5   6
ENDBRANCH   4   5
ENDBRANCH   3   4
ENDBRANCH   2   3
ENDBRANCH   1   2
BRANCH   1  10
ATOM     10  C   UNL     1      10.244 -22.617  40.623  1.00  0.00     0.000 C 
BRANCH  10  11
ATOM     11  C   UNL     1       9.614 -23.934  40.145  1.00  0.00    -0.000 C 
BRANCH  11  12
ATOM     12  C   UNL     1      10.648 -24.909  39.562  1.00  0.00    -0.000 C 
BRANCH  12  13
ATOM     13  C   UNL     1      10.676 -26.221  40.361  1.00  0.00    -0.000 C 
BRANCH  13  14
ATOM     14  C   UNL     1      12.083 -26.834  40.447  1.00  0.00    -0.000 C 
BRANCH  14  15
ATOM     15  C   UNL     1      13.195 -25.792  40.249  1.00  0.00    -0.003 C 
ATOM     16  C   UNL     1      14.129 -26.197  39.112  1.00  0.00     0.004 C 
ENDBRANCH  14  15
ENDBRANCH  13  14
ENDBRANCH  12  13
ENDBRANCH  11  12
ENDBRANCH  10  11
ENDBRANCH   1  10
TORSDOF 12
ENDMDL
