MODEL 1
REMARK VINA RESULT:    -3.381      0.000      0.000
REMARK INTER + INTRA:          -4.380
REMARK INTER:                  -4.172
REMARK INTRA:                  -0.208
REMARK UNBOUND:                -0.208
REMARK SMILES CCCCCC(=O)[O-]
REMARK SMILES IDX 4 1 5 2 6 3 7 4 8 5 3 6 2 7 1 8
REMARK H PARENT
REMARK Flexibility Score: inf
ROOT
ATOM      1  C   UNL     1      35.370  23.759 221.272  1.00  0.00     0.006 C 
ENDROOT
BRANCH   1   2
ATOM      2  C   UNL     1      35.763  24.208 222.688  1.00  0.00     0.053 C 
BRANCH   2   3
ATOM      3  C   UNL     1      36.936  23.441 223.215  1.00  0.00     0.041 C 
ATOM      4  O   UNL     1      36.755  22.428 223.941  1.00  0.00    -0.550 OA
ATOM      5  O   UNL     1      38.228  23.825 222.879  1.00  0.00    -0.550 OA
ENDBRANCH   2   3
ENDBRANCH   1   2
BRANCH   1   6
ATOM      6  C   UNL     1      35.934  24.646 220.146  1.00  0.00     0.000 C 
BRANCH   6   7
ATOM      7  C   UNL     1      36.531  23.831 218.990  1.00  0.00    -0.003 C 
ATOM      8  C   UNL     1      37.661  22.929 219.479  1.00  0.00     0.004 C 
ENDBRANCH   6   7
ENDBRANCH   1   6
TORSDOF 4
ENDMDL
MODEL 2
REMARK VINA RESULT:    -3.272      1.039      1.294
REMARK INTER + INTRA:          -4.245
REMARK INTER:                  -4.160
REMARK INTRA:                  -0.085
REMARK UNBOUND:                -0.208
REMARK SMILES CCCCCC(=O)[O-]
REMARK SMILES IDX 4 1 5 2 6 3 7 4 8 5 3 6 2 7 1 8
REMARK H PARENT
REMARK Flexibility Score: inf
ROOT
ATOM      1  C   UNL     1      36.331  23.642 221.633  1.00  0.00     0.006 C 
ENDROOT
BRANCH   1   2
ATOM      2  C   UNL     1      35.975  24.421 222.910  1.00  0.00     0.053 C 
BRANCH   2   3
ATOM      3  C   UNL     1      36.614  23.826 224.127  1.00  0.00     0.041 C 
ATOM      4  O   UNL     1      36.780  24.525 225.161  1.00  0.00    -0.550 OA
ATOM      5  O   UNL     1      36.998  22.491 224.130  1.00  0.00    -0.550 OA
ENDBRANCH   2   3
ENDBRANCH   1   2
BRANCH   1   6
ATOM      6  C   UNL     1      35.676  24.193 220.353  1.00  0.00     0.000 C 
BRANCH   6   7
ATOM      7  C   UNL     1      36.533  23.960 219.101  1.00  0.00    -0.003 C 
ATOM      8  C   UNL     1      37.671  22.984 219.387  1.00  0.00     0.004 C 
ENDBRANCH   6   7
ENDBRANCH   1   6
TORSDOF 4
ENDMDL
MODEL 3
REMARK VINA RESULT:    -3.234      1.460      1.693
REMARK INTER + INTRA:          -4.199
REMARK INTER:                  -4.096
REMARK INTRA:                  -0.102
REMARK UNBOUND:                -0.208
REMARK SMILES CCCCCC(=O)[O-]
REMARK SMILES IDX 4 1 5 2 6 3 7 4 8 5 3 6 2 7 1 8
REMARK H PARENT
REMARK Flexibility Score: inf
ROOT
ATOM      1  C   UNL     1      36.204  23.660 221.670  1.00  0.00     0.006 C 
ENDROOT
BRANCH   1   2
ATOM      2  C   UNL     1      35.583  24.245 222.949  1.00  0.00     0.053 C 
BRANCH   2   3
ATOM      3  C   UNL     1      36.606  24.914 223.814  1.00  0.00     0.041 C 
ATOM      4  O   UNL     1      37.826  24.866 223.507  1.00  0.00    -0.550 OA
ATOM      5  O   UNL     1      36.208  25.619 224.943  1.00  0.00    -0.550 OA
ENDBRANCH   2   3
ENDBRANCH   1   2
BRANCH   1   6
ATOM      6  C   UNL     1      35.555  24.158 220.366  1.00  0.00     0.000 C 
BRANCH   6   7
ATOM      7  C   UNL     1      36.387  23.820 219.121  1.00  0.00    -0.003 C 
ATOM      8  C   UNL     1      37.663  23.073 219.500  1.00  0.00     0.004 C 
ENDBRANCH   6   7
ENDBRANCH   1   6
TORSDOF 4
ENDMDL
MODEL 4
REMARK VINA RESULT:    -3.203      2.691      4.309
REMARK INTER + INTRA:          -4.160
REMARK INTER:                  -4.065
REMARK INTRA:                  -0.095
REMARK UNBOUND:                -0.208
REMARK SMILES CCCCCC(=O)[O-]
REMARK SMILES IDX 4 1 5 2 6 3 7 4 8 5 3 6 2 7 1 8
REMARK H PARENT
REMARK Flexibility Score: inf
ROOT
ATOM      1  C   UNL     1      35.671  23.901 222.425  1.00  0.00     0.006 C 
ENDROOT
BRANCH   1   2
ATOM      2  C   UNL     1      36.592  23.774 221.202  1.00  0.00     0.053 C 
BRANCH   2   3
ATOM      3  C   UNL     1      35.879  24.096 219.925  1.00  0.00     0.041 C 
ATOM      4  O   UNL     1      36.533  24.355 218.881  1.00  0.00    -0.550 OA
ATOM      5  O   UNL     1      34.490  24.078 219.880  1.00  0.00    -0.550 OA
ENDBRANCH   2   3
ENDBRANCH   1   2
BRANCH   1   6
ATOM      6  C   UNL     1      36.407  23.886 223.777  1.00  0.00     0.000 C 
BRANCH   6   7
ATOM      7  C   UNL     1      36.381  25.249 224.483  1.00  0.00    -0.003 C 
ATOM      8  C   UNL     1      37.729  25.955 224.364  1.00  0.00     0.004 C 
ENDBRANCH   6   7
ENDBRANCH   1   6
TORSDOF 4
ENDMDL
MODEL 5
REMARK VINA RESULT:    -3.163      1.807      2.375
REMARK INTER + INTRA:          -4.110
REMARK INTER:                  -3.997
REMARK INTRA:                  -0.113
REMARK UNBOUND:                -0.208
REMARK SMILES CCCCCC(=O)[O-]
REMARK SMILES IDX 4 1 5 2 6 3 7 4 8 5 3 6 2 7 1 8
REMARK H PARENT
REMARK Flexibility Score: inf
ROOT
ATOM      1  C   UNL     1      36.019  23.647 222.090  1.00  0.00     0.006 C 
ENDROOT
BRANCH   1   2
ATOM      2  C   UNL     1      36.663  23.699 223.484  1.00  0.00     0.053 C 
BRANCH   2   3
ATOM      3  C   UNL     1      36.673  25.086 224.048  1.00  0.00     0.041 C 
ATOM      4  O   UNL     1      37.553  25.911 223.686  1.00  0.00    -0.550 OA
ATOM      5  O   UNL     1      35.692  25.478 224.949  1.00  0.00    -0.550 OA
ENDBRANCH   2   3
ENDBRANCH   1   2
BRANCH   1   6
ATOM      6  C   UNL     1      37.026  23.589 220.927  1.00  0.00     0.000 C 
BRANCH   6   7
ATOM      7  C   UNL     1      36.446  24.124 219.611  1.00  0.00    -0.003 C 
ATOM      8  C   UNL     1      34.923  24.204 219.674  1.00  0.00     0.004 C 
ENDBRANCH   6   7
ENDBRANCH   1   6
TORSDOF 4
ENDMDL
MODEL 6
REMARK VINA RESULT:    -3.055      1.310      1.683
REMARK INTER + INTRA:          -3.978
REMARK INTER:                  -3.881
REMARK INTRA:                  -0.097
REMARK UNBOUND:                -0.208
REMARK SMILES CCCCCC(=O)[O-]
REMARK SMILES IDX 4 1 5 2 6 3 7 4 8 5 3 6 2 7 1 8
REMARK H PARENT
REMARK Flexibility Score: inf
ROOT
ATOM      1  C   UNL     1      36.763  23.347 221.863  1.00  0.00     0.006 C 
ENDROOT
BRANCH   1   2
ATOM      2  C   UNL     1      37.502  24.137 222.955  1.00  0.00     0.053 C 
BRANCH   2   3
ATOM      3  C   UNL     1      38.841  23.544 223.268  1.00  0.00     0.041 C 
ATOM      4  O   UNL     1      38.945  22.635 224.132  1.00  0.00    -0.550 OA
ATOM      5  O   UNL     1      39.970  23.974 222.582  1.00  0.00    -0.550 OA
ENDBRANCH   2   3
ENDBRANCH   1   2
BRANCH   1   6
ATOM      6  C   UNL     1      35.480  24.025 221.349  1.00  0.00     0.000 C 
BRANCH   6   7
ATOM      7  C   UNL     1      35.478  24.216 219.826  1.00  0.00    -0.003 C 
ATOM      8  C   UNL     1      36.766  23.682 219.204  1.00  0.00     0.004 C 
ENDBRANCH   6   7
ENDBRANCH   1   6
TORSDOF 4
ENDMDL
MODEL 7
REMARK VINA RESULT:    -2.997      2.336      3.595
REMARK INTER + INTRA:          -3.905
REMARK INTER:                  -3.683
REMARK INTRA:                  -0.222
REMARK UNBOUND:                -0.208
REMARK SMILES CCCCCC(=O)[O-]
REMARK SMILES IDX 4 1 5 2 6 3 7 4 8 5 3 6 2 7 1 8
REMARK H PARENT
REMARK Flexibility Score: inf
ROOT
ATOM      1  C   UNL     1      36.333  23.195 222.779  1.00  0.00     0.006 C 
ENDROOT
BRANCH   1   2
ATOM      2  C   UNL     1      36.302  24.398 221.824  1.00  0.00     0.053 C 
BRANCH   2   3
ATOM      3  C   UNL     1      36.361  23.978 220.388  1.00  0.00     0.041 C 
ATOM      4  O   UNL     1      35.361  24.135 219.639  1.00  0.00    -0.550 OA
ATOM      5  O   UNL     1      37.532  23.441 219.868  1.00  0.00    -0.550 OA
ENDBRANCH   2   3
ENDBRANCH   1   2
BRANCH   1   6
ATOM      6  C   UNL     1      37.562  23.152 223.705  1.00  0.00     0.000 C 
BRANCH   6   7
ATOM      7  C   UNL     1      38.579  24.258 223.393  1.00  0.00    -0.003 C 
ATOM      8  C   UNL     1      39.828  23.685 222.728  1.00  0.00     0.004 C 
ENDBRANCH   6   7
ENDBRANCH   1   6
TORSDOF 4
ENDMDL
MODEL 8
REMARK VINA RESULT:    -2.906      2.472      4.105
REMARK INTER + INTRA:          -3.794
REMARK INTER:                  -3.674
REMARK INTRA:                  -0.119
REMARK UNBOUND:                -0.208
REMARK SMILES CCCCCC(=O)[O-]
REMARK SMILES IDX 4 1 5 2 6 3 7 4 8 5 3 6 2 7 1 8
REMARK H PARENT
REMARK Flexibility Score: inf
ROOT
ATOM      1  C   UNL     1      36.737  23.090 223.351  1.00  0.00     0.006 C 
ENDROOT
BRANCH   1   2
ATOM      2  C   UNL     1      35.714  24.174 222.980  1.00  0.00     0.053 C 
BRANCH   2   3
ATOM      3  C   UNL     1      35.162  23.977 221.602  1.00  0.00     0.041 C 
ATOM      4  O   UNL     1      35.931  23.981 220.605  1.00  0.00    -0.550 OA
ATOM      5  O   UNL     1      33.802  23.757 221.421  1.00  0.00    -0.550 OA
ENDBRANCH   2   3
ENDBRANCH   1   2
BRANCH   1   6
ATOM      6  C   UNL     1      37.867  23.575 224.278  1.00  0.00     0.000 C 
BRANCH   6   7
ATOM      7  C   UNL     1      38.617  24.790 223.714  1.00  0.00    -0.003 C 
ATOM      8  C   UNL     1      38.459  26.004 224.626  1.00  0.00     0.004 C 
ENDBRANCH   6   7
ENDBRANCH   1   6
TORSDOF 4
ENDMDL
MODEL 9
REMARK VINA RESULT:    -2.716      2.612      3.783
REMARK INTER + INTRA:          -3.559
REMARK INTER:                  -3.423
REMARK INTRA:                  -0.137
REMARK UNBOUND:                -0.208
REMARK SMILES CCCCCC(=O)[O-]
REMARK SMILES IDX 4 1 5 2 6 3 7 4 8 5 3 6 2 7 1 8
REMARK H PARENT
REMARK Flexibility Score: inf
ROOT
ATOM      1  C   UNL     1      37.838  25.185 223.714  1.00  0.00     0.006 C 
ENDROOT
BRANCH   1   2
ATOM      2  C   UNL     1      36.721  24.130 223.746  1.00  0.00     0.053 C 
BRANCH   2   3
ATOM      3  C   UNL     1      36.125  23.901 222.391  1.00  0.00     0.041 C 
ATOM      4  O   UNL     1      34.881  23.993 222.222  1.00  0.00    -0.550 OA
ATOM      5  O   UNL     1      36.948  23.618 221.308  1.00  0.00    -0.550 OA
ENDBRANCH   2   3
ENDBRANCH   1   2
BRANCH   1   6
ATOM      6  C   UNL     1      39.221  24.656 224.136  1.00  0.00     0.000 C 
BRANCH   6   7
ATOM      7  C   UNL     1      40.005  24.042 222.968  1.00  0.00    -0.003 C 
ATOM      8  C   UNL     1      41.276  23.356 223.460  1.00  0.00     0.004 C 
ENDBRANCH   6   7
ENDBRANCH   1   6
TORSDOF 4
ENDMDL
