MODEL 1
REMARK VINA RESULT:    -2.973      0.000      0.000
REMARK INTER + INTRA:          -4.579
REMARK INTER:                  -4.538
REMARK INTRA:                  -0.041
REMARK UNBOUND:                -0.041
REMARK SMILES CC1=CCC[C@H](C)C(=O)C[C@H](C(C)C)C(=O)C1
REMARK SMILES IDX 8 1 9 2 6 3 7 4 5 5 4 6 3 7 2 8 1 9 10 11 11 12 15 13 16 14
REMARK SMILES IDX 17 15 12 17 13 18 14 19
REMARK H PARENT
REMARK Flexibility Score: 70.00
ROOT
ATOM      1  C   UNL     1     -24.335  -9.908  -5.890  1.00  0.00     0.136 C 
ATOM      2  O   UNL     1     -24.474 -11.122  -5.924  1.00  0.00    -0.299 OA
ENDROOT
BRANCH   1   3
ATOM      3  C   UNL     1     -25.165  -9.108  -4.903  1.00  0.00     0.053 C 
ATOM      4  C   UNL     1     -24.925  -9.597  -3.469  1.00  0.00     0.016 C 
BRANCH   3   5
ATOM      5  C   UNL     1     -24.894  -7.597  -5.024  1.00  0.00     0.015 C 
BRANCH   5   6
ATOM      6  C   UNL     1     -25.878  -6.910  -5.989  1.00  0.00     0.028 C 
BRANCH   6   7
ATOM      7  C   UNL     1     -25.156  -5.931  -6.877  1.00  0.00    -0.028 C 
ATOM      8  C   UNL     1     -24.767  -6.190  -8.147  1.00  0.00    -0.070 CG0
ATOM      9  C   UNL     1     -23.992  -5.124  -8.881  1.00  0.00     0.039 C 
ATOM     10  G   UNL     1     -25.092  -7.492  -8.864  1.00  0.00     0.000 G0
ENDBRANCH   6   7
ENDBRANCH   5   6
ENDBRANCH   3   5
ENDBRANCH   1   3
BRANCH   1  11
ATOM     11  C   UNL     1     -23.324  -9.265  -6.812  1.00  0.00     0.087 C 
BRANCH  11  12
ATOM     12  C   UNL     1     -23.591  -9.601  -8.305  1.00  0.00     0.066 C 
BRANCH  12  13
ATOM     13  C   UNL     1     -23.853  -8.342  -9.121  1.00  0.00     0.140 C 
ATOM     14  O   UNL     1     -23.093  -8.036 -10.028  1.00  0.00    -0.299 OA
BRANCH  13  15
ATOM     15  C   UNL     1     -25.078  -7.495  -8.874  1.00  0.00     0.106 CG0
ATOM     16  G   UNL     1     -24.746  -6.205  -8.137  1.00  0.00     0.000 G0
ENDBRANCH  13  15
ENDBRANCH  12  13
BRANCH  12  17
ATOM     17  C   UNL     1     -22.454 -10.477  -8.916  1.00  0.00    -0.006 C 
ATOM     18  C   UNL     1     -21.424 -10.887  -7.852  1.00  0.00     0.008 C 
ATOM     19  C   UNL     1     -22.957 -11.719  -9.673  1.00  0.00     0.008 C 
ENDBRANCH  12  17
ENDBRANCH  11  12
ENDBRANCH   1  11
TORSDOF 1
ENDMDL
MODEL 2
REMARK VINA RESULT:    -2.818     15.654     16.660
REMARK INTER + INTRA:          -4.341
REMARK INTER:                  -3.960
REMARK INTRA:                  -0.381
REMARK UNBOUND:                -0.041
REMARK SMILES CC1=CCC[C@H](C)C(=O)C[C@H](C(C)C)C(=O)C1
REMARK SMILES IDX 8 1 9 2 6 3 7 4 5 5 4 6 3 7 2 8 1 9 10 11 11 12 15 13 16 14
REMARK SMILES IDX 17 15 12 17 13 18 14 19
REMARK H PARENT
REMARK Flexibility Score: 70.00
ROOT
ATOM      1  C   UNL     1      -7.126 -14.048  -4.242  1.00  0.00     0.136 C 
ATOM      2  O   UNL     1      -6.082 -13.522  -3.885  1.00  0.00    -0.299 OA
ENDROOT
BRANCH   1   3
ATOM      3  C   UNL     1      -8.368 -13.856  -3.391  1.00  0.00     0.053 C 
ATOM      4  C   UNL     1      -8.200 -14.531  -2.024  1.00  0.00     0.016 C 
BRANCH   3   5
ATOM      5  C   UNL     1      -8.724 -12.365  -3.233  1.00  0.00     0.015 C 
BRANCH   5   6
ATOM      6  C   UNL     1      -9.609 -11.858  -4.386  1.00  0.00     0.028 C 
BRANCH   6   7
ATOM      7  C   UNL     1      -8.829 -10.935  -5.287  1.00  0.00    -0.028 C 
ATOM      8  C   UNL     1      -8.612 -11.152  -6.605  1.00  0.00    -0.070 CG0
ATOM      9  C   UNL     1      -7.752 -10.164  -7.352  1.00  0.00     0.039 C 
ATOM     10  G   UNL     1      -9.210 -12.330  -7.360  1.00  0.00     0.000 G0
ENDBRANCH   6   7
ENDBRANCH   5   6
ENDBRANCH   3   5
ENDBRANCH   1   3
BRANCH   1  11
ATOM     11  C   UNL     1      -7.137 -14.841  -5.530  1.00  0.00     0.087 C 
BRANCH  11  12
ATOM     12  C   UNL     1      -8.448 -14.637  -6.336  1.00  0.00     0.066 C 
BRANCH  12  13
ATOM     13  C   UNL     1      -8.297 -13.535  -7.377  1.00  0.00     0.140 C 
ATOM     14  O   UNL     1      -7.461 -13.645  -8.262  1.00  0.00    -0.299 OA
BRANCH  13  15
ATOM     15  C   UNL     1      -9.209 -12.332  -7.375  1.00  0.00     0.106 CG0
ATOM     16  G   UNL     1      -8.617 -11.163  -6.601  1.00  0.00     0.000 G0
ENDBRANCH  13  15
ENDBRANCH  12  13
BRANCH  12  17
ATOM     17  C   UNL     1      -8.961 -15.973  -6.959  1.00  0.00    -0.006 C 
ATOM     18  C   UNL     1      -8.843 -17.139  -5.967  1.00  0.00     0.008 C 
ATOM     19  C   UNL     1     -10.394 -15.895  -7.516  1.00  0.00     0.008 C 
ENDBRANCH  12  17
ENDBRANCH  11  12
ENDBRANCH   1  11
TORSDOF 1
ENDMDL
MODEL 3
REMARK VINA RESULT:    -2.807     15.110     17.082
REMARK INTER + INTRA:          -4.324
REMARK INTER:                  -4.128
REMARK INTRA:                  -0.196
REMARK UNBOUND:                -0.041
REMARK SMILES CC1=CCC[C@H](C)C(=O)C[C@H](C(C)C)C(=O)C1
REMARK SMILES IDX 8 1 9 2 6 3 7 4 5 5 4 6 3 7 2 8 1 9 10 11 11 12 15 13 16 14
REMARK SMILES IDX 17 15 12 17 13 18 14 19
REMARK H PARENT
REMARK Flexibility Score: 70.00
ROOT
ATOM      1  C   UNL     1      -8.011 -12.467  -4.776  1.00  0.00     0.136 C 
ATOM      2  O   UNL     1      -7.489 -11.613  -5.478  1.00  0.00    -0.299 OA
ENDROOT
BRANCH   1   3
ATOM      3  C   UNL     1      -9.468 -12.299  -4.385  1.00  0.00     0.053 C 
ATOM      4  C   UNL     1      -9.620 -11.228  -3.298  1.00  0.00     0.016 C 
BRANCH   3   5
ATOM      5  C   UNL     1     -10.351 -11.978  -5.606  1.00  0.00     0.015 C 
BRANCH   5   6
ATOM      6  C   UNL     1     -10.703 -13.241  -6.413  1.00  0.00     0.028 C 
BRANCH   6   7
ATOM      7  C   UNL     1      -9.757 -13.411  -7.573  1.00  0.00    -0.028 C 
ATOM      8  C   UNL     1      -8.935 -14.471  -7.744  1.00  0.00    -0.070 CG0
ATOM      9  C   UNL     1      -7.998 -14.457  -8.926  1.00  0.00     0.039 C 
ATOM     10  G   UNL     1      -8.930 -15.674  -6.812  1.00  0.00     0.000 G0
ENDBRANCH   6   7
ENDBRANCH   5   6
ENDBRANCH   3   5
ENDBRANCH   1   3
BRANCH   1  11
ATOM     11  C   UNL     1      -7.189 -13.664  -4.353  1.00  0.00     0.087 C 
BRANCH  11  12
ATOM     12  C   UNL     1      -7.990 -14.992  -4.447  1.00  0.00     0.066 C 
BRANCH  12  13
ATOM     13  C   UNL     1      -7.813 -15.654  -5.807  1.00  0.00     0.140 C 
ATOM     14  O   UNL     1      -6.763 -16.219  -6.076  1.00  0.00    -0.299 OA
BRANCH  13  15
ATOM     15  C   UNL     1      -8.941 -15.685  -6.810  1.00  0.00     0.106 CG0
ATOM     16  G   UNL     1      -8.909 -14.486  -7.746  1.00  0.00     0.000 G0
ENDBRANCH  13  15
ENDBRANCH  12  13
BRANCH  12  17
ATOM     17  C   UNL     1      -7.652 -15.958  -3.269  1.00  0.00    -0.006 C 
ATOM     18  C   UNL     1      -8.173 -15.417  -1.929  1.00  0.00     0.008 C 
ATOM     19  C   UNL     1      -8.141 -17.402  -3.482  1.00  0.00     0.008 C 
ENDBRANCH  12  17
ENDBRANCH  11  12
ENDBRANCH   1  11
TORSDOF 1
ENDMDL
MODEL 4
REMARK VINA RESULT:    -2.719     15.095     16.708
REMARK INTER + INTRA:          -4.190
REMARK INTER:                  -3.933
REMARK INTRA:                  -0.256
REMARK UNBOUND:                -0.041
REMARK SMILES CC1=CCC[C@H](C)C(=O)C[C@H](C(C)C)C(=O)C1
REMARK SMILES IDX 8 1 9 2 6 3 7 4 5 5 4 6 3 7 2 8 1 9 10 11 11 12 15 13 16 14
REMARK SMILES IDX 17 15 12 17 13 18 14 19
REMARK H PARENT
REMARK Flexibility Score: 70.00
ROOT
ATOM      1  C   UNL     1     -10.343 -13.893  -6.821  1.00  0.00     0.136 C 
ATOM      2  O   UNL     1     -11.438 -14.185  -7.278  1.00  0.00    -0.299 OA
ENDROOT
BRANCH   1   3
ATOM      3  C   UNL     1      -9.167 -14.810  -7.103  1.00  0.00     0.053 C 
ATOM      4  C   UNL     1      -9.564 -16.279  -6.908  1.00  0.00     0.016 C 
BRANCH   3   5
ATOM      5  C   UNL     1      -8.586 -14.575  -8.510  1.00  0.00     0.015 C 
BRANCH   5   6
ATOM      6  C   UNL     1      -7.200 -13.908  -8.458  1.00  0.00     0.028 C 
BRANCH   6   7
ATOM      7  C   UNL     1      -7.235 -12.558  -9.125  1.00  0.00    -0.028 C 
ATOM      8  C   UNL     1      -7.107 -11.377  -8.477  1.00  0.00    -0.070 CG0
ATOM      9  C   UNL     1      -7.233 -10.109  -9.283  1.00  0.00     0.039 C 
ATOM     10  G   UNL     1      -6.825 -11.279  -6.985  1.00  0.00     0.000 G0
ENDBRANCH   6   7
ENDBRANCH   5   6
ENDBRANCH   3   5
ENDBRANCH   1   3
BRANCH   1  11
ATOM     11  C   UNL     1     -10.206 -12.617  -6.020  1.00  0.00     0.087 C 
BRANCH  11  12
ATOM     12  C   UNL     1      -8.751 -12.384  -5.527  1.00  0.00     0.066 C 
BRANCH  12  13
ATOM     13  C   UNL     1      -8.127 -11.163  -6.190  1.00  0.00     0.140 C 
ATOM     14  O   UNL     1      -8.639 -10.063  -6.044  1.00  0.00    -0.299 OA
BRANCH  13  15
ATOM     15  C   UNL     1      -6.843 -11.276  -6.976  1.00  0.00     0.106 CG0
ATOM     16  G   UNL     1      -7.091 -11.360  -8.474  1.00  0.00     0.000 G0
ENDBRANCH  13  15
ENDBRANCH  12  13
BRANCH  12  17
ATOM     17  C   UNL     1      -8.669 -12.320  -3.970  1.00  0.00    -0.006 C 
ATOM     18  C   UNL     1      -9.894 -11.615  -3.369  1.00  0.00     0.008 C 
ATOM     19  C   UNL     1      -8.461 -13.688  -3.296  1.00  0.00     0.008 C 
ENDBRANCH  12  17
ENDBRANCH  11  12
ENDBRANCH   1  11
TORSDOF 1
ENDMDL
MODEL 5
REMARK VINA RESULT:    -2.529     15.208     17.798
REMARK INTER + INTRA:          -3.901
REMARK INTER:                  -4.236
REMARK INTRA:                   0.335
REMARK UNBOUND:                -0.041
REMARK SMILES CC1=CCC[C@H](C)C(=O)C[C@H](C(C)C)C(=O)C1
REMARK SMILES IDX 8 1 9 2 6 3 7 4 5 5 4 6 3 7 2 8 1 9 10 11 11 12 15 13 16 14
REMARK SMILES IDX 17 15 12 17 13 18 14 19
REMARK H PARENT
REMARK Flexibility Score: 70.00
ROOT
ATOM      1  C   UNL     1      -8.878 -12.274  -3.746  1.00  0.00     0.136 C 
ATOM      2  O   UNL     1      -9.472 -11.494  -3.016  1.00  0.00    -0.299 OA
ENDROOT
BRANCH   1   3
ATOM      3  C   UNL     1      -9.282 -12.357  -5.206  1.00  0.00     0.053 C 
ATOM      4  C   UNL     1     -10.744 -11.932  -5.391  1.00  0.00     0.016 C 
BRANCH   3   5
ATOM      5  C   UNL     1      -8.346 -11.525  -6.104  1.00  0.00     0.015 C 
BRANCH   5   6
ATOM      6  C   UNL     1      -7.235 -12.386  -6.734  1.00  0.00     0.028 C 
BRANCH   6   7
ATOM      7  C   UNL     1      -7.772 -13.733  -7.139  1.00  0.00    -0.028 C 
ATOM      8  C   UNL     1      -7.538 -14.886  -6.471  1.00  0.00    -0.070 CG0
ATOM      9  C   UNL     1      -8.094 -16.164  -7.047  1.00  0.00     0.039 C 
ATOM     10  G   UNL     1      -6.761 -14.942  -5.164  1.00  0.00     0.000 G0
ENDBRANCH   6   7
ENDBRANCH   5   6
ENDBRANCH   3   5
ENDBRANCH   1   3
BRANCH   1  11
ATOM     11  C   UNL     1      -7.750 -13.098  -3.165  1.00  0.00     0.087 C 
BRANCH  11  12
ATOM     12  C   UNL     1      -8.158 -14.580  -2.942  1.00  0.00     0.066 C 
BRANCH  12  13
ATOM     13  C   UNL     1      -7.578 -15.486  -4.020  1.00  0.00     0.140 C 
ATOM     14  O   UNL     1      -7.820 -16.684  -4.003  1.00  0.00    -0.299 OA
BRANCH  13  15
ATOM     15  C   UNL     1      -6.759 -14.920  -5.155  1.00  0.00     0.106 CG0
ATOM     16  G   UNL     1      -7.530 -14.900  -6.467  1.00  0.00     0.000 G0
ENDBRANCH  13  15
ENDBRANCH  12  13
BRANCH  12  17
ATOM     17  C   UNL     1      -7.804 -15.069  -1.504  1.00  0.00    -0.006 C 
ATOM     18  C   UNL     1      -7.201 -13.940  -0.656  1.00  0.00     0.008 C 
ATOM     19  C   UNL     1      -8.981 -15.722  -0.756  1.00  0.00     0.008 C 
ENDBRANCH  12  17
ENDBRANCH  11  12
ENDBRANCH   1  11
TORSDOF 1
ENDMDL
MODEL 6
REMARK VINA RESULT:    -2.517     15.625     17.399
REMARK INTER + INTRA:          -3.883
REMARK INTER:                  -3.531
REMARK INTRA:                  -0.352
REMARK UNBOUND:                -0.041
REMARK SMILES CC1=CCC[C@H](C)C(=O)C[C@H](C(C)C)C(=O)C1
REMARK SMILES IDX 8 1 9 2 6 3 7 4 5 5 4 6 3 7 2 8 1 9 10 11 11 12 15 13 16 14
REMARK SMILES IDX 17 15 12 17 13 18 14 19
REMARK H PARENT
REMARK Flexibility Score: 70.00
ROOT
ATOM      1  C   UNL     1      -9.488 -11.777  -5.833  1.00  0.00     0.136 C 
ATOM      2  O   UNL     1     -10.665 -12.079  -5.963  1.00  0.00    -0.299 OA
ENDROOT
BRANCH   1   3
ATOM      3  C   UNL     1      -8.774 -12.157  -4.549  1.00  0.00     0.053 C 
ATOM      4  C   UNL     1      -9.321 -11.351  -3.364  1.00  0.00     0.016 C 
BRANCH   3   5
ATOM      5  C   UNL     1      -8.861 -13.671  -4.276  1.00  0.00     0.015 C 
BRANCH   5   6
ATOM      6  C   UNL     1      -7.638 -14.428  -4.825  1.00  0.00     0.028 C 
BRANCH   6   7
ATOM      7  C   UNL     1      -7.941 -15.019  -6.176  1.00  0.00    -0.028 C 
ATOM      8  C   UNL     1      -7.354 -14.632  -7.333  1.00  0.00    -0.070 CG0
ATOM      9  C   UNL     1      -7.820 -15.278  -8.614  1.00  0.00     0.039 C 
ATOM     10  G   UNL     1      -6.242 -13.595  -7.390  1.00  0.00     0.000 G0
ENDBRANCH   6   7
ENDBRANCH   5   6
ENDBRANCH   3   5
ENDBRANCH   1   3
BRANCH   1  11
ATOM     11  C   UNL     1      -8.791 -11.064  -6.971  1.00  0.00     0.087 C 
BRANCH  11  12
ATOM     12  C   UNL     1      -7.246 -11.207  -6.897  1.00  0.00     0.066 C 
BRANCH  12  13
ATOM     13  C   UNL     1      -6.734 -12.248  -7.883  1.00  0.00     0.140 C 
ATOM     14  O   UNL     1      -6.671 -11.979  -9.074  1.00  0.00    -0.299 OA
BRANCH  13  15
ATOM     15  C   UNL     1      -6.238 -13.592  -7.408  1.00  0.00     0.106 CG0
ATOM     16  G   UNL     1      -7.353 -14.625  -7.338  1.00  0.00     0.000 G0
ENDBRANCH  13  15
ENDBRANCH  12  13
BRANCH  12  17
ATOM     17  C   UNL     1      -6.527  -9.832  -7.061  1.00  0.00    -0.006 C 
ATOM     18  C   UNL     1      -7.270  -8.921  -8.050  1.00  0.00     0.008 C 
ATOM     19  C   UNL     1      -6.285  -9.088  -5.736  1.00  0.00     0.008 C 
ENDBRANCH  12  17
ENDBRANCH  11  12
ENDBRANCH   1  11
TORSDOF 1
ENDMDL
MODEL 7
REMARK VINA RESULT:    -2.493     14.831     16.851
REMARK INTER + INTRA:          -3.846
REMARK INTER:                  -3.484
REMARK INTRA:                  -0.363
REMARK UNBOUND:                -0.041
REMARK SMILES CC1=CCC[C@H](C)C(=O)C[C@H](C(C)C)C(=O)C1
REMARK SMILES IDX 8 1 9 2 6 3 7 4 5 5 4 6 3 7 2 8 1 9 10 11 11 12 15 13 16 14
REMARK SMILES IDX 17 15 12 17 13 18 14 19
REMARK H PARENT
REMARK Flexibility Score: 70.00
ROOT
ATOM      1  C   UNL     1      -8.124 -13.128  -3.703  1.00  0.00     0.136 C 
ATOM      2  O   UNL     1      -8.469 -13.606  -2.631  1.00  0.00    -0.299 OA
ENDROOT
BRANCH   1   3
ATOM      3  C   UNL     1      -8.622 -11.745  -4.078  1.00  0.00     0.053 C 
ATOM      4  C   UNL     1      -7.740 -11.127  -5.170  1.00  0.00     0.016 C 
BRANCH   3   5
ATOM      5  C   UNL     1     -10.101 -11.769  -4.510  1.00  0.00     0.015 C 
BRANCH   5   6
ATOM      6  C   UNL     1     -10.255 -11.769  -6.042  1.00  0.00     0.028 C 
BRANCH   6   7
ATOM      7  C   UNL     1     -10.882 -13.054  -6.513  1.00  0.00    -0.028 C 
ATOM      8  C   UNL     1     -10.211 -14.056  -7.127  1.00  0.00    -0.070 CG0
ATOM      9  C   UNL     1     -11.000 -15.251  -7.599  1.00  0.00     0.039 C 
ATOM     10  G   UNL     1      -8.705 -14.034  -7.342  1.00  0.00     0.000 G0
ENDBRANCH   6   7
ENDBRANCH   5   6
ENDBRANCH   3   5
ENDBRANCH   1   3
BRANCH   1  11
ATOM     11  C   UNL     1      -7.195 -13.927  -4.590  1.00  0.00     0.087 C 
BRANCH  11  12
ATOM     12  C   UNL     1      -7.868 -15.215  -5.139  1.00  0.00     0.066 C 
BRANCH  12  13
ATOM     13  C   UNL     1      -7.982 -15.179  -6.658  1.00  0.00     0.140 C 
ATOM     14  O   UNL     1      -7.537 -16.103  -7.323  1.00  0.00    -0.299 OA
BRANCH  13  15
ATOM     15  C   UNL     1      -8.698 -14.050  -7.358  1.00  0.00     0.106 CG0
ATOM     16  G   UNL     1     -10.198 -14.075  -7.104  1.00  0.00     0.000 G0
ENDBRANCH  13  15
ENDBRANCH  12  13
BRANCH  12  17
ATOM     17  C   UNL     1      -7.156 -16.506  -4.629  1.00  0.00    -0.006 C 
ATOM     18  C   UNL     1      -6.000 -16.172  -3.674  1.00  0.00     0.008 C 
ATOM     19  C   UNL     1      -8.103 -17.529  -3.977  1.00  0.00     0.008 C 
ENDBRANCH  12  17
ENDBRANCH  11  12
ENDBRANCH   1  11
TORSDOF 1
ENDMDL
MODEL 8
REMARK VINA RESULT:    -2.471     15.814     17.714
REMARK INTER + INTRA:          -3.812
REMARK INTER:                  -3.613
REMARK INTRA:                  -0.199
REMARK UNBOUND:                -0.041
REMARK SMILES CC1=CCC[C@H](C)C(=O)C[C@H](C(C)C)C(=O)C1
REMARK SMILES IDX 8 1 9 2 6 3 7 4 5 5 4 6 3 7 2 8 1 9 10 11 11 12 15 13 16 14
REMARK SMILES IDX 17 15 12 17 13 18 14 19
REMARK H PARENT
REMARK Flexibility Score: 70.00
ROOT
ATOM      1  C   UNL     1      -9.721 -12.763  -5.352  1.00  0.00     0.136 C 
ATOM      2  O   UNL     1     -10.709 -12.074  -5.563  1.00  0.00    -0.299 OA
ENDROOT
BRANCH   1   3
ATOM      3  C   UNL     1      -8.651 -12.236  -4.415  1.00  0.00     0.053 C 
ATOM      4  C   UNL     1      -8.573 -10.705  -4.484  1.00  0.00     0.016 C 
BRANCH   3   5
ATOM      5  C   UNL     1      -8.877 -12.713  -2.967  1.00  0.00     0.015 C 
BRANCH   5   6
ATOM      6  C   UNL     1      -7.661 -13.481  -2.417  1.00  0.00     0.028 C 
BRANCH   6   7
ATOM      7  C   UNL     1      -8.043 -14.893  -2.057  1.00  0.00    -0.028 C 
ATOM      8  C   UNL     1      -7.803 -15.974  -2.834  1.00  0.00    -0.070 CG0
ATOM      9  C   UNL     1      -8.311 -17.313  -2.360  1.00  0.00     0.039 C 
ATOM     10  G   UNL     1      -7.033 -15.898  -4.144  1.00  0.00     0.000 G0
ENDBRANCH   6   7
ENDBRANCH   5   6
ENDBRANCH   3   5
ENDBRANCH   1   3
BRANCH   1  11
ATOM     11  C   UNL     1      -9.627 -14.119  -6.015  1.00  0.00     0.087 C 
BRANCH  11  12
ATOM     12  C   UNL     1      -8.159 -14.612  -6.140  1.00  0.00     0.066 C 
BRANCH  12  13
ATOM     13  C   UNL     1      -7.930 -15.889  -5.342  1.00  0.00     0.140 C 
ATOM     14  O   UNL     1      -8.447 -16.935  -5.705  1.00  0.00    -0.299 OA
BRANCH  13  15
ATOM     15  C   UNL     1      -7.016 -15.901  -4.140  1.00  0.00     0.106 CG0
ATOM     16  G   UNL     1      -7.789 -15.985  -2.831  1.00  0.00     0.000 G0
ENDBRANCH  13  15
ENDBRANCH  12  13
BRANCH  12  17
ATOM     17  C   UNL     1      -7.721 -14.759  -7.630  1.00  0.00    -0.006 C 
ATOM     18  C   UNL     1      -8.333 -13.658  -8.510  1.00  0.00     0.008 C 
ATOM     19  C   UNL     1      -6.196 -14.812  -7.834  1.00  0.00     0.008 C 
ENDBRANCH  12  17
ENDBRANCH  11  12
ENDBRANCH   1  11
TORSDOF 1
ENDMDL
MODEL 9
REMARK VINA RESULT:    -2.352     14.802     16.532
REMARK INTER + INTRA:          -3.631
REMARK INTER:                  -3.362
REMARK INTRA:                  -0.269
REMARK UNBOUND:                -0.041
REMARK SMILES CC1=CCC[C@H](C)C(=O)C[C@H](C(C)C)C(=O)C1
REMARK SMILES IDX 8 1 9 2 6 3 7 4 5 5 4 6 3 7 2 8 1 9 10 11 11 12 15 13 16 14
REMARK SMILES IDX 17 15 12 17 13 18 14 19
REMARK H PARENT
REMARK Flexibility Score: 70.00
ROOT
ATOM      1  C   UNL     1      -8.785 -13.311  -4.827  1.00  0.00     0.136 C 
ATOM      2  O   UNL     1      -8.405 -13.366  -3.667  1.00  0.00    -0.299 OA
ENDROOT
BRANCH   1   3
ATOM      3  C   UNL     1      -9.306 -11.990  -5.362  1.00  0.00     0.053 C 
ATOM      4  C   UNL     1     -10.643 -11.626  -4.704  1.00  0.00     0.016 C 
BRANCH   3   5
ATOM      5  C   UNL     1      -8.276 -10.858  -5.186  1.00  0.00     0.015 C 
BRANCH   5   6
ATOM      6  C   UNL     1      -7.120 -10.967  -6.198  1.00  0.00     0.028 C 
BRANCH   6   7
ATOM      7  C   UNL     1      -7.644 -10.914  -7.609  1.00  0.00    -0.028 C 
ATOM      8  C   UNL     1      -7.529 -11.918  -8.509  1.00  0.00    -0.070 CG0
ATOM      9  C   UNL     1      -8.048 -11.680  -9.905  1.00  0.00     0.039 C 
ATOM     10  G   UNL     1      -6.921 -13.270  -8.168  1.00  0.00     0.000 G0
ENDBRANCH   6   7
ENDBRANCH   5   6
ENDBRANCH   3   5
ENDBRANCH   1   3
BRANCH   1  11
ATOM     11  C   UNL     1      -8.692 -14.555  -5.683  1.00  0.00     0.087 C 
BRANCH  11  12
ATOM     12  C   UNL     1      -9.115 -14.292  -7.154  1.00  0.00     0.066 C 
BRANCH  12  13
ATOM     13  C   UNL     1      -7.926 -14.380  -8.101  1.00  0.00     0.140 C 
ATOM     14  O   UNL     1      -7.818 -15.336  -8.855  1.00  0.00    -0.299 OA
BRANCH  13  15
ATOM     15  C   UNL     1      -6.904 -13.270  -8.173  1.00  0.00     0.106 CG0
ATOM     16  G   UNL     1      -7.537 -11.929  -8.513  1.00  0.00     0.000 G0
ENDBRANCH  13  15
ENDBRANCH  12  13
BRANCH  12  17
ATOM     17  C   UNL     1     -10.293 -15.216  -7.594  1.00  0.00    -0.006 C 
ATOM     18  C   UNL     1     -10.195 -16.603  -6.942  1.00  0.00     0.008 C 
ATOM     19  C   UNL     1     -11.688 -14.614  -7.351  1.00  0.00     0.008 C 
ENDBRANCH  12  17
ENDBRANCH  11  12
ENDBRANCH   1  11
TORSDOF 1
ENDMDL
