MODEL 1
REMARK VINA RESULT:     0.769      0.000      0.000
REMARK INTER + INTRA:           7.674
REMARK INTER:                   1.151
REMARK INTRA:                   6.523
REMARK UNBOUND:                 6.523
REMARK SMILES C=C(CC[C@H](C(=O)[O-])[C@H]1[C@@H](O)C[C@@]2(C)C3=C(CC[C@@]12C)[C@]1(C)CC[C@H](OC(C)=O)C(C)(C)[C@@H]1CC3)C(C)C
REMARK SMILES IDX 4 1 5 2 6 3 7 4 8 5 9 6 10 7 19 8 12 9 13 10 18 11 20 12
REMARK SMILES IDX 14 13 15 14 17 15 16 16 35 17 21 18 34 19 33 20 23 21 22 22
REMARK SMILES IDX 30 23 24 24 25 25 31 26 32 27 11 28 26 30 27 31 29 32 28 33
REMARK SMILES IDX 3 34 2 35 1 36 36 37 37 38 38 39
REMARK H PARENT 11 29
REMARK Flexibility Score: inf
ROOT
ATOM      1  C   UNL     1       1.087   4.952   6.553  1.00  0.00     0.014 C 
ENDROOT
BRANCH   1   2
ATOM      2  C   UNL     1       1.585   6.221   7.344  1.00  0.00     0.042 C 
BRANCH   2   3
ATOM      3  C   UNL     1       1.886   5.893   8.785  1.00  0.00     0.045 C 
ATOM      4  O   UNL     1       2.450   4.813   9.125  1.00  0.00    -0.550 OA
ATOM      5  O   UNL     1       1.543   6.812   9.777  1.00  0.00    -0.550 OA
ENDBRANCH   2   3
BRANCH   2   6
ATOM      6  C   UNL     1       0.703   7.518   7.142  1.00  0.00     0.033 C 
ATOM      7  C   UNL     1       0.358   8.007   5.707  1.00  0.00     0.119 C 
ATOM      8  C   UNL     1      -0.676   7.533   7.876  1.00  0.00    -0.017 C 
ATOM      9  C   UNL     1      -0.885   8.931   5.860  1.00  0.00     0.043 C 
ATOM     10  C   UNL     1      -1.317   8.883   7.352  1.00  0.00    -0.003 C 
ATOM     11  C   UNL     1      -1.544   6.272   7.463  1.00  0.00     0.012 C 
ATOM     12  C   UNL     1      -0.506   7.495   9.430  1.00  0.00     0.013 C 
ATOM     13  C   UNL     1      -0.668  10.123   8.047  1.00  0.00     0.017 C 
ATOM     14  C   UNL     1      -2.866   8.874   7.566  1.00  0.00    -0.064 C 
ATOM     15  C   UNL     1      -2.828   6.583   6.705  1.00  0.00     0.032 C 
ATOM     16  C   UNL     1      -3.579   7.727   7.371  1.00  0.00    -0.064 C 
ATOM     17  C   UNL     1      -3.524  10.105   8.144  1.00  0.00     0.032 C 
ATOM     18  C   UNL     1      -5.078   7.553   7.806  1.00  0.00    -0.008 C 
ATOM     19  C   UNL     1      -5.010  10.026   8.426  1.00  0.00     0.009 C 
ATOM     20  C   UNL     1      -5.510   8.623   8.883  1.00  0.00     0.009 C 
ATOM     21  C   UNL     1      -5.985   7.734   6.552  1.00  0.00     0.015 C 
ATOM     22  C   UNL     1      -5.244   6.089   8.359  1.00  0.00     0.016 C 
ATOM     23  C   UNL     1      -7.077   8.667   9.241  1.00  0.00     0.005 C 
ATOM     24  C   UNL     1      -7.481   7.610   6.878  1.00  0.00     0.047 C 
ATOM     25  C   UNL     1      -7.955   8.655   7.925  1.00  0.00     0.182 C 
ATOM     26  C   UNL     1      -7.516   7.458  10.123  1.00  0.00     0.015 C 
ATOM     27  C   UNL     1      -7.395   9.916  10.125  1.00  0.00     0.015 C 
BRANCH   7  28
ATOM     28  O   UNL     1       0.022   6.941   4.854  1.00  0.00    -0.393 OA
ATOM     29  H   UNL     1      -0.413   6.262   5.413  1.00  0.00     0.210 HD
ENDBRANCH   7  28
BRANCH  25  30
ATOM     30  O   UNL     1      -8.012   9.929   7.267  1.00  0.00    -0.462 OA
BRANCH  30  31
ATOM     31  C   UNL     1      -8.618  10.117   6.028  1.00  0.00     0.302 C 
ATOM     32  O   UNL     1      -7.936  10.125   4.975  1.00  0.00    -0.253 OA
ATOM     33  C   UNL     1     -10.125  10.120   5.928  1.00  0.00     0.139 C 
ENDBRANCH  30  31
ENDBRANCH  25  30
ENDBRANCH   2   6
ENDBRANCH   1   2
BRANCH   1  34
ATOM     34  C   UNL     1      -0.235   4.278   7.002  1.00  0.00     0.031 C 
BRANCH  34  35
ATOM     35  C   UNL     1      -0.009   3.433   8.244  1.00  0.00    -0.075 C 
ATOM     36  C   UNL     1       1.104   2.662   8.307  1.00  0.00     0.008 C 
BRANCH  35  37
ATOM     37  C   UNL     1      -0.976   3.529   9.417  1.00  0.00     0.008 C 
ATOM     38  C   UNL     1      -2.429   3.290   8.969  1.00  0.00     0.012 C 
ATOM     39  C   UNL     1      -0.840   4.893  10.125  1.00  0.00     0.012 C 
ENDBRANCH  35  37
ENDBRANCH  34  35
ENDBRANCH   1  34
TORSDOF 9
ENDMDL
MODEL 2
REMARK VINA RESULT:     1.112      1.854      3.965
REMARK INTER + INTRA:           8.188
REMARK INTER:                   3.990
REMARK INTRA:                   4.198
REMARK UNBOUND:                 6.523
REMARK SMILES C=C(CC[C@H](C(=O)[O-])[C@H]1[C@@H](O)C[C@@]2(C)C3=C(CC[C@@]12C)[C@]1(C)CC[C@H](OC(C)=O)C(C)(C)[C@@H]1CC3)C(C)C
REMARK SMILES IDX 4 1 5 2 6 3 7 4 8 5 9 6 10 7 19 8 12 9 13 10 18 11 20 12
REMARK SMILES IDX 14 13 15 14 17 15 16 16 35 17 21 18 34 19 33 20 23 21 22 22
REMARK SMILES IDX 30 23 24 24 25 25 31 26 32 27 11 28 26 30 27 31 29 32 28 33
REMARK SMILES IDX 3 34 2 35 1 36 36 37 37 38 38 39
REMARK H PARENT 11 29
REMARK Flexibility Score: inf
ROOT
ATOM      1  C   UNL     1       0.738   5.338   5.898  1.00  0.00     0.014 C 
ENDROOT
BRANCH   1   2
ATOM      2  C   UNL     1       1.217   5.130   7.386  1.00  0.00     0.042 C 
BRANCH   2   3
ATOM      3  C   UNL     1       2.016   3.859   7.538  1.00  0.00     0.045 C 
ATOM      4  O   UNL     1       3.280   3.858   7.553  1.00  0.00    -0.550 OA
ATOM      5  O   UNL     1       1.342   2.645   7.678  1.00  0.00    -0.550 OA
ENDBRANCH   2   3
BRANCH   2   6
ATOM      6  C   UNL     1       0.092   5.325   8.479  1.00  0.00     0.033 C 
ATOM      7  C   UNL     1       0.253   6.419   9.572  1.00  0.00     0.119 C 
ATOM      8  C   UNL     1      -1.357   5.553   7.942  1.00  0.00    -0.017 C 
ATOM      9  C   UNL     1      -1.178   6.685  10.123  1.00  0.00     0.043 C 
ATOM     10  C   UNL     1      -2.165   5.834   9.275  1.00  0.00    -0.003 C 
ATOM     11  C   UNL     1      -1.401   6.794   6.958  1.00  0.00     0.012 C 
ATOM     12  C   UNL     1      -1.886   4.311   7.153  1.00  0.00     0.013 C 
ATOM     13  C   UNL     1      -2.415   4.513  10.073  1.00  0.00     0.017 C 
ATOM     14  C   UNL     1      -3.516   6.554   8.957  1.00  0.00    -0.064 C 
ATOM     15  C   UNL     1      -2.233   7.978   7.435  1.00  0.00     0.032 C 
ATOM     16  C   UNL     1      -3.573   7.505   7.981  1.00  0.00    -0.064 C 
ATOM     17  C   UNL     1      -4.775   6.065   9.633  1.00  0.00     0.032 C 
ATOM     18  C   UNL     1      -4.916   8.091   7.416  1.00  0.00    -0.008 C 
ATOM     19  C   UNL     1      -6.078   6.723   9.229  1.00  0.00     0.009 C 
ATOM     20  C   UNL     1      -6.148   7.157   7.733  1.00  0.00     0.009 C 
ATOM     21  C   UNL     1      -5.173   9.477   8.081  1.00  0.00     0.015 C 
ATOM     22  C   UNL     1      -4.734   8.286   5.865  1.00  0.00     0.016 C 
ATOM     23  C   UNL     1      -7.597   7.762   7.386  1.00  0.00     0.005 C 
ATOM     24  C   UNL     1      -6.486  10.125   7.614  1.00  0.00     0.047 C 
ATOM     25  C   UNL     1      -7.730   9.245   7.921  1.00  0.00     0.182 C 
ATOM     26  C   UNL     1      -7.879   7.777   5.852  1.00  0.00     0.015 C 
ATOM     27  C   UNL     1      -8.720   6.845   7.969  1.00  0.00     0.015 C 
BRANCH   7  28
ATOM     28  O   UNL     1       0.761   7.619   9.044  1.00  0.00    -0.393 OA
ATOM     29  H   UNL     1       0.238   8.345   9.447  1.00  0.00     0.210 HD
ENDBRANCH   7  28
BRANCH  25  30
ATOM     30  O   UNL     1      -7.975   9.322   9.332  1.00  0.00    -0.462 OA
BRANCH  30  31
ATOM     31  C   UNL     1      -9.229   9.108   9.899  1.00  0.00     0.302 C 
ATOM     32  O   UNL     1     -10.003  10.068  10.123  1.00  0.00    -0.253 OA
ATOM     33  C   UNL     1      -9.739   7.696  10.066  1.00  0.00     0.139 C 
ENDBRANCH  30  31
ENDBRANCH  25  30
ENDBRANCH   2   6
ENDBRANCH   1   2
BRANCH   1  34
ATOM     34  C   UNL     1       1.209   6.609   5.146  1.00  0.00     0.031 C 
BRANCH  34  35
ATOM     35  C   UNL     1       0.030   7.516   4.839  1.00  0.00    -0.075 C 
ATOM     36  C   UNL     1      -1.163   6.946   4.544  1.00  0.00     0.008 C 
BRANCH  35  37
ATOM     37  C   UNL     1       0.183   9.027   4.950  1.00  0.00     0.008 C 
ATOM     38  C   UNL     1       1.008   9.420   6.189  1.00  0.00     0.012 C 
ATOM     39  C   UNL     1      -1.198   9.714   4.973  1.00  0.00     0.012 C 
ENDBRANCH  35  37
ENDBRANCH  34  35
ENDBRANCH   1  34
TORSDOF 9
ENDMDL
