MODEL 1
REMARK VINA RESULT:    -3.945      0.000      0.000
REMARK INTER + INTRA:          -4.921
REMARK INTER:                  -5.098
REMARK INTRA:                   0.176
REMARK UNBOUND:                 0.176
REMARK SMILES CCCCCCC(=O)[O-]
REMARK SMILES IDX 5 1 6 2 7 3 8 4 9 5 4 6 3 7 2 8 1 9
REMARK H PARENT
REMARK Flexibility Score: inf
ROOT
ATOM      1  C   UNL     1      -6.569   2.413  -1.975  1.00  0.00     0.006 C 
ENDROOT
BRANCH   1   2
ATOM      2  C   UNL     1      -6.138   1.606  -3.207  1.00  0.00     0.053 C 
BRANCH   2   3
ATOM      3  C   UNL     1      -4.733   1.116  -3.044  1.00  0.00     0.041 C 
ATOM      4  O   UNL     1      -3.871   1.362  -3.927  1.00  0.00    -0.550 OA
ATOM      5  O   UNL     1      -4.365   0.431  -1.893  1.00  0.00    -0.550 OA
ENDBRANCH   2   3
ENDBRANCH   1   2
BRANCH   1   6
ATOM      6  C   UNL     1      -5.385   3.080  -1.251  1.00  0.00     0.000 C 
BRANCH   6   7
ATOM      7  C   UNL     1      -5.611   3.353   0.247  1.00  0.00    -0.000 C 
BRANCH   7   8
ATOM      8  C   UNL     1      -5.260   2.151   1.134  1.00  0.00    -0.003 C 
ATOM      9  C   UNL     1      -5.092   2.572   2.591  1.00  0.00     0.004 C 
ENDBRANCH   7   8
ENDBRANCH   6   7
ENDBRANCH   1   6
TORSDOF 5
ENDMDL
MODEL 2
REMARK VINA RESULT:    -3.694      2.862      3.271
REMARK INTER + INTRA:          -4.597
REMARK INTER:                  -4.479
REMARK INTRA:                  -0.118
REMARK UNBOUND:                 0.176
REMARK SMILES CCCCCCC(=O)[O-]
REMARK SMILES IDX 5 1 6 2 7 3 8 4 9 5 4 6 3 7 2 8 1 9
REMARK H PARENT
REMARK Flexibility Score: inf
ROOT
ATOM      1  C   UNL     1      -6.561   1.596  -3.411  1.00  0.00     0.006 C 
ENDROOT
BRANCH   1   2
ATOM      2  C   UNL     1      -7.896   2.352  -3.405  1.00  0.00     0.053 C 
BRANCH   2   3
ATOM      3  C   UNL     1      -8.640   2.107  -4.680  1.00  0.00     0.041 C 
ATOM      4  O   UNL     1      -8.573   2.939  -5.622  1.00  0.00    -0.550 OA
ATOM      5  O   UNL     1      -9.366   0.935  -4.846  1.00  0.00    -0.550 OA
ENDBRANCH   2   3
ENDBRANCH   1   2
BRANCH   1   6
ATOM      6  C   UNL     1      -5.609   2.051  -2.289  1.00  0.00     0.000 C 
BRANCH   6   7
ATOM      7  C   UNL     1      -6.296   2.732  -1.091  1.00  0.00    -0.000 C 
BRANCH   7   8
ATOM      8  C   UNL     1      -5.299   3.297  -0.071  1.00  0.00    -0.003 C 
ATOM      9  C   UNL     1      -5.345   2.512   1.237  1.00  0.00     0.004 C 
ENDBRANCH   7   8
ENDBRANCH   6   7
ENDBRANCH   1   6
TORSDOF 5
ENDMDL
MODEL 3
REMARK VINA RESULT:    -3.605      1.950      4.291
REMARK INTER + INTRA:          -4.482
REMARK INTER:                  -4.297
REMARK INTRA:                  -0.184
REMARK UNBOUND:                 0.176
REMARK SMILES CCCCCCC(=O)[O-]
REMARK SMILES IDX 5 1 6 2 7 3 8 4 9 5 4 6 3 7 2 8 1 9
REMARK H PARENT
REMARK Flexibility Score: inf
ROOT
ATOM      1  C   UNL     1      -5.566   3.188  -0.993  1.00  0.00     0.006 C 
ENDROOT
BRANCH   1   2
ATOM      2  C   UNL     1      -6.138   3.065   0.426  1.00  0.00     0.053 C 
BRANCH   2   3
ATOM      3  C   UNL     1      -5.239   2.225   1.279  1.00  0.00     0.041 C 
ATOM      4  O   UNL     1      -5.054   2.525   2.488  1.00  0.00    -0.550 OA
ATOM      5  O   UNL     1      -4.647   1.086   0.753  1.00  0.00    -0.550 OA
ENDBRANCH   2   3
ENDBRANCH   1   2
BRANCH   1   6
ATOM      6  C   UNL     1      -6.532   2.672  -2.075  1.00  0.00     0.000 C 
BRANCH   6   7
ATOM      7  C   UNL     1      -5.942   1.605  -3.016  1.00  0.00    -0.000 C 
BRANCH   7   8
ATOM      8  C   UNL     1      -4.590   1.063  -2.534  1.00  0.00    -0.003 C 
ATOM      9  C   UNL     1      -3.691   0.699  -3.713  1.00  0.00     0.004 C 
ENDBRANCH   7   8
ENDBRANCH   6   7
ENDBRANCH   1   6
TORSDOF 5
ENDMDL
MODEL 4
REMARK VINA RESULT:    -3.471     12.339     13.269
REMARK INTER + INTRA:          -4.309
REMARK INTER:                  -4.124
REMARK INTRA:                  -0.185
REMARK UNBOUND:                 0.176
REMARK SMILES CCCCCCC(=O)[O-]
REMARK SMILES IDX 5 1 6 2 7 3 8 4 9 5 4 6 3 7 2 8 1 9
REMARK H PARENT
REMARK Flexibility Score: inf
ROOT
ATOM      1  C   UNL     1       4.517   8.657  -3.415  1.00  0.00     0.006 C 
ENDROOT
BRANCH   1   2
ATOM      2  C   UNL     1       4.920   7.248  -2.963  1.00  0.00     0.053 C 
BRANCH   2   3
ATOM      3  C   UNL     1       6.400   7.170  -2.755  1.00  0.00     0.041 C 
ATOM      4  O   UNL     1       7.074   6.277  -3.332  1.00  0.00    -0.550 OA
ATOM      5  O   UNL     1       7.041   8.114  -1.963  1.00  0.00    -0.550 OA
ENDBRANCH   2   3
ENDBRANCH   1   2
BRANCH   1   6
ATOM      6  C   UNL     1       4.198   8.736  -4.920  1.00  0.00     0.000 C 
BRANCH   6   7
ATOM      7  C   UNL     1       5.418   8.967  -5.830  1.00  0.00    -0.000 C 
BRANCH   7   8
ATOM      8  C   UNL     1       5.032   9.242  -7.290  1.00  0.00    -0.003 C 
ATOM      9  C   UNL     1       3.553   8.951  -7.531  1.00  0.00     0.004 C 
ENDBRANCH   7   8
ENDBRANCH   6   7
ENDBRANCH   1   6
TORSDOF 5
ENDMDL
MODEL 5
REMARK VINA RESULT:    -3.447     12.741     13.550
REMARK INTER + INTRA:          -4.278
REMARK INTER:                  -3.913
REMARK INTRA:                  -0.365
REMARK UNBOUND:                 0.176
REMARK SMILES CCCCCCC(=O)[O-]
REMARK SMILES IDX 5 1 6 2 7 3 8 4 9 5 4 6 3 7 2 8 1 9
REMARK H PARENT
REMARK Flexibility Score: inf
ROOT
ATOM      1  C   UNL     1       4.959   7.309  -2.994  1.00  0.00     0.006 C 
ENDROOT
BRANCH   1   2
ATOM      2  C   UNL     1       6.163   8.017  -2.359  1.00  0.00     0.053 C 
BRANCH   2   3
ATOM      3  C   UNL     1       7.412   7.221  -2.579  1.00  0.00     0.041 C 
ATOM      4  O   UNL     1       7.393   6.210  -3.327  1.00  0.00    -0.550 OA
ATOM      5  O   UNL     1       8.605   7.627  -1.997  1.00  0.00    -0.550 OA
ENDBRANCH   2   3
ENDBRANCH   1   2
BRANCH   1   6
ATOM      6  C   UNL     1       4.023   8.274  -3.745  1.00  0.00     0.000 C 
BRANCH   6   7
ATOM      7  C   UNL     1       4.736   9.395  -4.523  1.00  0.00    -0.000 C 
BRANCH   7   8
ATOM      8  C   UNL     1       5.180   8.960  -5.926  1.00  0.00    -0.003 C 
ATOM      9  C   UNL     1       6.700   8.842  -6.010  1.00  0.00     0.004 C 
ENDBRANCH   7   8
ENDBRANCH   6   7
ENDBRANCH   1   6
TORSDOF 5
ENDMDL
MODEL 6
REMARK VINA RESULT:    -3.353     12.823     13.484
REMARK INTER + INTRA:          -4.157
REMARK INTER:                  -3.758
REMARK INTRA:                  -0.399
REMARK UNBOUND:                 0.176
REMARK SMILES CCCCCCC(=O)[O-]
REMARK SMILES IDX 5 1 6 2 7 3 8 4 9 5 4 6 3 7 2 8 1 9
REMARK H PARENT
REMARK Flexibility Score: inf
ROOT
ATOM      1  C   UNL     1       7.056   8.521  -4.920  1.00  0.00     0.006 C 
ENDROOT
BRANCH   1   2
ATOM      2  C   UNL     1       7.668   8.352  -3.524  1.00  0.00     0.053 C 
BRANCH   2   3
ATOM      3  C   UNL     1       7.509   6.940  -3.052  1.00  0.00     0.041 C 
ATOM      4  O   UNL     1       6.500   6.269  -3.393  1.00  0.00    -0.550 OA
ATOM      5  O   UNL     1       8.499   6.352  -2.276  1.00  0.00    -0.550 OA
ENDBRANCH   2   3
ENDBRANCH   1   2
BRANCH   1   6
ATOM      6  C   UNL     1       5.892   9.529  -4.947  1.00  0.00     0.000 C 
BRANCH   6   7
ATOM      7  C   UNL     1       4.499   8.907  -5.157  1.00  0.00    -0.000 C 
BRANCH   7   8
ATOM      8  C   UNL     1       3.848   8.442  -3.848  1.00  0.00    -0.003 C 
ATOM      9  C   UNL     1       4.117   9.432  -2.718  1.00  0.00     0.004 C 
ENDBRANCH   7   8
ENDBRANCH   6   7
ENDBRANCH   1   6
TORSDOF 5
ENDMDL
MODEL 7
REMARK VINA RESULT:    -3.351     12.966     13.704
REMARK INTER + INTRA:          -4.155
REMARK INTER:                  -3.701
REMARK INTRA:                  -0.454
REMARK UNBOUND:                 0.176
REMARK SMILES CCCCCCC(=O)[O-]
REMARK SMILES IDX 5 1 6 2 7 3 8 4 9 5 4 6 3 7 2 8 1 9
REMARK H PARENT
REMARK Flexibility Score: inf
ROOT
ATOM      1  C   UNL     1       6.814   8.610  -1.570  1.00  0.00     0.006 C 
ENDROOT
BRANCH   1   2
ATOM      2  C   UNL     1       8.149   8.178  -2.191  1.00  0.00     0.053 C 
BRANCH   2   3
ATOM      3  C   UNL     1       7.912   7.286  -3.370  1.00  0.00     0.041 C 
ATOM      4  O   UNL     1       8.525   7.490  -4.450  1.00  0.00    -0.550 OA
ATOM      5  O   UNL     1       7.051   6.202  -3.258  1.00  0.00    -0.550 OA
ENDBRANCH   2   3
ENDBRANCH   1   2
BRANCH   1   6
ATOM      6  C   UNL     1       5.990   9.523  -2.496  1.00  0.00     0.000 C 
BRANCH   6   7
ATOM      7  C   UNL     1       4.502   9.148  -2.621  1.00  0.00    -0.000 C 
BRANCH   7   8
ATOM      8  C   UNL     1       4.196   8.327  -3.882  1.00  0.00    -0.003 C 
ATOM      9  C   UNL     1       4.999   8.835  -5.077  1.00  0.00     0.004 C 
ENDBRANCH   7   8
ENDBRANCH   6   7
ENDBRANCH   1   6
TORSDOF 5
ENDMDL
MODEL 8
REMARK VINA RESULT:    -3.234     12.395     13.085
REMARK INTER + INTRA:          -4.003
REMARK INTER:                  -3.620
REMARK INTRA:                  -0.383
REMARK UNBOUND:                 0.176
REMARK SMILES CCCCCCC(=O)[O-]
REMARK SMILES IDX 5 1 6 2 7 3 8 4 9 5 4 6 3 7 2 8 1 9
REMARK H PARENT
REMARK Flexibility Score: inf
ROOT
ATOM      1  C   UNL     1       3.964   8.123  -3.513  1.00  0.00     0.006 C 
ENDROOT
BRANCH   1   2
ATOM      2  C   UNL     1       4.659   9.264  -4.267  1.00  0.00     0.053 C 
BRANCH   2   3
ATOM      3  C   UNL     1       4.690   8.976  -5.736  1.00  0.00     0.041 C 
ATOM      4  O   UNL     1       5.747   8.556  -6.275  1.00  0.00    -0.550 OA
ATOM      5  O   UNL     1       3.539   9.125  -6.497  1.00  0.00    -0.550 OA
ENDBRANCH   2   3
ENDBRANCH   1   2
BRANCH   1   6
ATOM      6  C   UNL     1       4.954   7.100  -2.928  1.00  0.00     0.000 C 
BRANCH   6   7
ATOM      7  C   UNL     1       6.312   7.684  -2.497  1.00  0.00    -0.000 C 
BRANCH   7   8
ATOM      8  C   UNL     1       7.504   6.982  -3.163  1.00  0.00    -0.003 C 
ATOM      9  C   UNL     1       8.352   7.972  -3.956  1.00  0.00     0.004 C 
ENDBRANCH   7   8
ENDBRANCH   6   7
ENDBRANCH   1   6
TORSDOF 5
ENDMDL
MODEL 9
REMARK VINA RESULT:    -3.122     13.072     13.544
REMARK INTER + INTRA:          -3.859
REMARK INTER:                  -3.649
REMARK INTRA:                  -0.210
REMARK UNBOUND:                 0.176
REMARK SMILES CCCCCCC(=O)[O-]
REMARK SMILES IDX 5 1 6 2 7 3 8 4 9 5 4 6 3 7 2 8 1 9
REMARK H PARENT
REMARK Flexibility Score: inf
ROOT
ATOM      1  C   UNL     1       6.747   7.078  -3.039  1.00  0.00     0.006 C 
ENDROOT
BRANCH   1   2
ATOM      2  C   UNL     1       5.281   7.457  -2.790  1.00  0.00     0.053 C 
BRANCH   2   3
ATOM      3  C   UNL     1       4.711   8.150  -3.987  1.00  0.00     0.041 C 
ATOM      4  O   UNL     1       5.432   8.368  -4.995  1.00  0.00    -0.550 OA
ATOM      5  O   UNL     1       3.370   8.511  -4.008  1.00  0.00    -0.550 OA
ENDBRANCH   2   3
ENDBRANCH   1   2
BRANCH   1   6
ATOM      6  C   UNL     1       7.716   7.738  -2.041  1.00  0.00     0.000 C 
BRANCH   6   7
ATOM      7  C   UNL     1       7.114   8.894  -1.221  1.00  0.00    -0.000 C 
BRANCH   7   8
ATOM      8  C   UNL     1       7.982   9.290  -0.019  1.00  0.00    -0.003 C 
ATOM      9  C   UNL     1       9.467   9.133  -0.336  1.00  0.00     0.004 C 
ENDBRANCH   7   8
ENDBRANCH   6   7
ENDBRANCH   1   6
TORSDOF 5
ENDMDL
