MODEL 1
REMARK VINA RESULT:    -2.498      0.000      0.000
REMARK INTER + INTRA:         -13.678
REMARK INTER:                  -6.588
REMARK INTRA:                  -7.090
REMARK UNBOUND:                -7.090
REMARK SMILES CCCCCCCCCCCCCCCCCCCCCCCCCCCCCC(=O)[O-]
REMARK SMILES IDX 16 1 17 2 18 3 19 4 20 5 21 6 22 7 23 8 24 9 25 10 26 11
REMARK SMILES IDX 27 12 28 13 29 14 30 15 31 16 32 17 15 18 14 19 13 20 12 21
REMARK SMILES IDX 11 22 10 23 9 24 8 25 7 26 6 27 5 28 4 29 3 30 2 31 1 32
REMARK H PARENT
REMARK Flexibility Score: inf
ROOT
ATOM      1  C   UNL     1      55.307  26.669  50.355  1.00  0.00     0.000 C 
ENDROOT
BRANCH   1   2
ATOM      2  C   UNL     1      53.819  26.909  50.042  1.00  0.00     0.000 C 
BRANCH   2   3
ATOM      3  C   UNL     1      53.369  28.342  50.388  1.00  0.00     0.000 C 
BRANCH   3   4
ATOM      4  C   UNL     1      54.519  29.261  50.844  1.00  0.00     0.000 C 
BRANCH   4   5
ATOM      5  C   UNL     1      54.394  29.668  52.324  1.00  0.00     0.000 C 
BRANCH   5   6
ATOM      6  C   UNL     1      53.115  29.117  52.989  1.00  0.00     0.000 C 
BRANCH   6   7
ATOM      7  C   UNL     1      53.379  28.120  54.133  1.00  0.00     0.000 C 
BRANCH   7   8
ATOM      8  C   UNL     1      53.231  26.633  53.759  1.00  0.00     0.000 C 
BRANCH   8   9
ATOM      9  C   UNL     1      53.818  25.639  54.779  1.00  0.00     0.000 C 
BRANCH   9  10
ATOM     10  C   UNL     1      54.284  26.264  56.108  1.00  0.00     0.000 C 
BRANCH  10  11
ATOM     11  C   UNL     1      55.819  26.335  56.267  1.00  0.00     0.000 C 
BRANCH  11  12
ATOM     12  C   UNL     1      56.266  27.510  57.155  1.00  0.00     0.000 C 
BRANCH  12  13
ATOM     13  C   UNL     1      57.151  28.522  56.401  1.00  0.00     0.006 C 
BRANCH  13  14
ATOM     14  C   UNL     1      56.369  29.549  55.564  1.00  0.00     0.053 C 
BRANCH  14  15
ATOM     15  C   UNL     1      57.194  30.760  55.251  1.00  0.00     0.041 C 
ATOM     16  O   UNL     1      56.885  31.506  54.286  1.00  0.00    -0.550 OA
ATOM     17  O   UNL     1      58.329  31.043  56.004  1.00  0.00    -0.550 OA
ENDBRANCH  14  15
ENDBRANCH  13  14
ENDBRANCH  12  13
ENDBRANCH  11  12
ENDBRANCH  10  11
ENDBRANCH   9  10
ENDBRANCH   8   9
ENDBRANCH   7   8
ENDBRANCH   6   7
ENDBRANCH   5   6
ENDBRANCH   4   5
ENDBRANCH   3   4
ENDBRANCH   2   3
ENDBRANCH   1   2
BRANCH   1  18
ATOM     18  C   UNL     1      55.593  25.224  50.796  1.00  0.00     0.000 C 
BRANCH  18  19
ATOM     19  C   UNL     1      56.341  25.155  52.141  1.00  0.00     0.000 C 
BRANCH  19  20
ATOM     20  C   UNL     1      56.736  26.541  52.679  1.00  0.00     0.000 C 
BRANCH  20  21
ATOM     21  C   UNL     1      58.130  26.611  53.328  1.00  0.00     0.000 C 
BRANCH  21  22
ATOM     22  C   UNL     1      58.822  27.968  53.113  1.00  0.00     0.000 C 
BRANCH  22  23
ATOM     23  C   UNL     1      58.059  28.864  52.122  1.00  0.00     0.000 C 
BRANCH  23  24
ATOM     24  C   UNL     1      58.891  29.187  50.869  1.00  0.00    -0.000 C 
BRANCH  24  25
ATOM     25  C   UNL     1      58.640  28.204  49.713  1.00  0.00    -0.000 C 
BRANCH  25  26
ATOM     26  C   UNL     1      59.704  27.104  49.548  1.00  0.00    -0.000 C 
BRANCH  26  27
ATOM     27  C   UNL     1      59.158  25.696  49.824  1.00  0.00    -0.000 C 
BRANCH  27  28
ATOM     28  C   UNL     1      60.212  24.820  50.521  1.00  0.00    -0.000 C 
BRANCH  28  29
ATOM     29  C   UNL     1      61.615  25.466  50.514  1.00  0.00    -0.000 C 
BRANCH  29  30
ATOM     30  C   UNL     1      62.359  25.358  51.860  1.00  0.00    -0.000 C 
BRANCH  30  31
ATOM     31  C   UNL     1      62.254  26.601  52.760  1.00  0.00    -0.003 C 
ATOM     32  C   UNL     1      62.246  27.908  51.967  1.00  0.00     0.004 C 
ENDBRANCH  30  31
ENDBRANCH  29  30
ENDBRANCH  28  29
ENDBRANCH  27  28
ENDBRANCH  26  27
ENDBRANCH  25  26
ENDBRANCH  24  25
ENDBRANCH  23  24
ENDBRANCH  22  23
ENDBRANCH  21  22
ENDBRANCH  20  21
ENDBRANCH  19  20
ENDBRANCH  18  19
ENDBRANCH   1  18
TORSDOF 28
ENDMDL
MODEL 2
REMARK VINA RESULT:    -2.493      9.962     13.353
REMARK INTER + INTRA:         -13.664
REMARK INTER:                 -10.082
REMARK INTRA:                  -3.582
REMARK UNBOUND:                -7.090
REMARK SMILES CCCCCCCCCCCCCCCCCCCCCCCCCCCCCC(=O)[O-]
REMARK SMILES IDX 16 1 17 2 18 3 19 4 20 5 21 6 22 7 23 8 24 9 25 10 26 11
REMARK SMILES IDX 27 12 28 13 29 14 30 15 31 16 32 17 15 18 14 19 13 20 12 21
REMARK SMILES IDX 11 22 10 23 9 24 8 25 7 26 6 27 5 28 4 29 3 30 2 31 1 32
REMARK H PARENT
REMARK Flexibility Score: inf
ROOT
ATOM      1  C   UNL     1      63.383  34.645  60.882  1.00  0.00     0.000 C 
ENDROOT
BRANCH   1   2
ATOM      2  C   UNL     1      63.904  34.600  59.434  1.00  0.00     0.000 C 
BRANCH   2   3
ATOM      3  C   UNL     1      65.002  33.538  59.236  1.00  0.00     0.000 C 
BRANCH   3   4
ATOM      4  C   UNL     1      64.580  32.120  59.668  1.00  0.00     0.000 C 
BRANCH   4   5
ATOM      5  C   UNL     1      64.256  31.212  58.468  1.00  0.00     0.000 C 
BRANCH   5   6
ATOM      6  C   UNL     1      65.034  29.879  58.499  1.00  0.00     0.000 C 
BRANCH   6   7
ATOM      7  C   UNL     1      66.345  29.935  59.307  1.00  0.00     0.000 C 
BRANCH   7   8
ATOM      8  C   UNL     1      66.346  29.126  60.617  1.00  0.00     0.000 C 
BRANCH   8   9
ATOM      9  C   UNL     1      67.474  28.085  60.744  1.00  0.00     0.000 C 
BRANCH   9  10
ATOM     10  C   UNL     1      68.688  28.533  61.580  1.00  0.00     0.000 C 
BRANCH  10  11
ATOM     11  C   UNL     1      70.043  28.385  60.855  1.00  0.00     0.000 C 
BRANCH  11  12
ATOM     12  C   UNL     1      70.818  29.712  60.774  1.00  0.00     0.000 C 
BRANCH  12  13
ATOM     13  C   UNL     1      70.631  30.429  59.423  1.00  0.00     0.006 C 
BRANCH  13  14
ATOM     14  C   UNL     1      71.764  31.405  59.060  1.00  0.00     0.053 C 
BRANCH  14  15
ATOM     15  C   UNL     1      71.482  32.794  59.545  1.00  0.00     0.041 C 
ATOM     16  O   UNL     1      70.979  33.647  58.769  1.00  0.00    -0.550 OA
ATOM     17  O   UNL     1      71.810  33.157  60.847  1.00  0.00    -0.550 OA
ENDBRANCH  14  15
ENDBRANCH  13  14
ENDBRANCH  12  13
ENDBRANCH  11  12
ENDBRANCH  10  11
ENDBRANCH   9  10
ENDBRANCH   8   9
ENDBRANCH   7   8
ENDBRANCH   6   7
ENDBRANCH   5   6
ENDBRANCH   4   5
ENDBRANCH   3   4
ENDBRANCH   2   3
ENDBRANCH   1   2
BRANCH   1  18
ATOM     18  C   UNL     1      62.144  35.541  61.038  1.00  0.00     0.000 C 
BRANCH  18  19
ATOM     19  C   UNL     1      61.020  35.169  60.053  1.00  0.00     0.000 C 
BRANCH  19  20
ATOM     20  C   UNL     1      60.333  33.837  60.403  1.00  0.00     0.000 C 
BRANCH  20  21
ATOM     21  C   UNL     1      60.372  32.777  59.289  1.00  0.00     0.000 C 
BRANCH  21  22
ATOM     22  C   UNL     1      60.863  31.406  59.786  1.00  0.00     0.000 C 
BRANCH  22  23
ATOM     23  C   UNL     1      61.487  31.481  61.190  1.00  0.00     0.000 C 
BRANCH  23  24
ATOM     24  C   UNL     1      61.487  30.117  61.902  1.00  0.00    -0.000 C 
BRANCH  24  25
ATOM     25  C   UNL     1      62.711  29.255  61.544  1.00  0.00    -0.000 C 
BRANCH  25  26
ATOM     26  C   UNL     1      62.403  27.775  61.253  1.00  0.00    -0.000 C 
BRANCH  26  27
ATOM     27  C   UNL     1      63.529  27.069  60.484  1.00  0.00    -0.000 C 
BRANCH  27  28
ATOM     28  C   UNL     1      63.853  25.702  61.109  1.00  0.00    -0.000 C 
BRANCH  28  29
ATOM     29  C   UNL     1      62.583  24.926  61.524  1.00  0.00    -0.000 C 
BRANCH  29  30
ATOM     30  C   UNL     1      62.390  24.816  63.049  1.00  0.00    -0.000 C 
BRANCH  30  31
ATOM     31  C   UNL     1      60.964  25.109  63.545  1.00  0.00    -0.003 C 
ATOM     32  C   UNL     1      60.071  23.868  63.553  1.00  0.00     0.004 C 
ENDBRANCH  30  31
ENDBRANCH  29  30
ENDBRANCH  28  29
ENDBRANCH  27  28
ENDBRANCH  26  27
ENDBRANCH  25  26
ENDBRANCH  24  25
ENDBRANCH  23  24
ENDBRANCH  22  23
ENDBRANCH  21  22
ENDBRANCH  20  21
ENDBRANCH  19  20
ENDBRANCH  18  19
ENDBRANCH   1  18
TORSDOF 28
ENDMDL
MODEL 3
REMARK VINA RESULT:    -2.483      8.097     10.867
REMARK INTER + INTRA:         -13.638
REMARK INTER:                  -7.273
REMARK INTRA:                  -6.364
REMARK UNBOUND:                -7.090
REMARK SMILES CCCCCCCCCCCCCCCCCCCCCCCCCCCCCC(=O)[O-]
REMARK SMILES IDX 16 1 17 2 18 3 19 4 20 5 21 6 22 7 23 8 24 9 25 10 26 11
REMARK SMILES IDX 27 12 28 13 29 14 30 15 31 16 32 17 15 18 14 19 13 20 12 21
REMARK SMILES IDX 11 22 10 23 9 24 8 25 7 26 6 27 5 28 4 29 3 30 2 31 1 32
REMARK H PARENT
REMARK Flexibility Score: inf
ROOT
ATOM      1  C   UNL     1      62.533  29.566  61.743  1.00  0.00     0.000 C 
ENDROOT
BRANCH   1   2
ATOM      2  C   UNL     1      61.217  30.364  61.715  1.00  0.00     0.000 C 
BRANCH   2   3
ATOM      3  C   UNL     1      61.372  31.729  61.017  1.00  0.00     0.000 C 
BRANCH   3   4
ATOM      4  C   UNL     1      60.675  31.809  59.645  1.00  0.00     0.000 C 
BRANCH   4   5
ATOM      5  C   UNL     1      60.415  33.260  59.201  1.00  0.00     0.000 C 
BRANCH   5   6
ATOM      6  C   UNL     1      59.773  34.118  60.312  1.00  0.00     0.000 C 
BRANCH   6   7
ATOM      7  C   UNL     1      60.561  35.398  60.653  1.00  0.00     0.000 C 
BRANCH   7   8
ATOM      8  C   UNL     1      61.994  35.457  60.091  1.00  0.00     0.000 C 
BRANCH   8   9
ATOM      9  C   UNL     1      63.114  35.420  61.148  1.00  0.00     0.000 C 
BRANCH   9  10
ATOM     10  C   UNL     1      64.017  34.172  61.101  1.00  0.00     0.000 C 
BRANCH  10  11
ATOM     11  C   UNL     1      64.801  34.011  59.781  1.00  0.00     0.000 C 
BRANCH  11  12
ATOM     12  C   UNL     1      64.333  32.796  58.961  1.00  0.00     0.000 C 
BRANCH  12  13
ATOM     13  C   UNL     1      63.698  33.194  57.615  1.00  0.00     0.006 C 
BRANCH  13  14
ATOM     14  C   UNL     1      63.097  32.018  56.824  1.00  0.00     0.053 C 
BRANCH  14  15
ATOM     15  C   UNL     1      64.123  31.340  55.967  1.00  0.00     0.041 C 
ATOM     16  O   UNL     1      63.933  30.163  55.563  1.00  0.00    -0.550 OA
ATOM     17  O   UNL     1      65.306  31.996  55.646  1.00  0.00    -0.550 OA
ENDBRANCH  14  15
ENDBRANCH  13  14
ENDBRANCH  12  13
ENDBRANCH  11  12
ENDBRANCH  10  11
ENDBRANCH   9  10
ENDBRANCH   8   9
ENDBRANCH   7   8
ENDBRANCH   6   7
ENDBRANCH   5   6
ENDBRANCH   4   5
ENDBRANCH   3   4
ENDBRANCH   2   3
ENDBRANCH   1   2
BRANCH   1  18
ATOM     18  C   UNL     1      63.772  30.461  61.581  1.00  0.00     0.000 C 
BRANCH  18  19
ATOM     19  C   UNL     1      64.919  29.753  60.836  1.00  0.00     0.000 C 
BRANCH  19  20
ATOM     20  C   UNL     1      64.482  28.427  60.188  1.00  0.00     0.000 C 
BRANCH  20  21
ATOM     21  C   UNL     1      64.608  28.385  58.654  1.00  0.00     0.000 C 
BRANCH  21  22
ATOM     22  C   UNL     1      63.359  27.804  57.968  1.00  0.00     0.000 C 
BRANCH  22  23
ATOM     23  C   UNL     1      62.091  28.623  58.270  1.00  0.00     0.000 C 
BRANCH  23  24
ATOM     24  C   UNL     1      60.973  27.762  58.880  1.00  0.00    -0.000 C 
BRANCH  24  25
ATOM     25  C   UNL     1      61.303  26.259  58.876  1.00  0.00    -0.000 C 
BRANCH  25  26
ATOM     26  C   UNL     1      60.764  25.468  60.082  1.00  0.00    -0.000 C 
BRANCH  26  27
ATOM     27  C   UNL     1      60.941  26.213  61.413  1.00  0.00    -0.000 C 
BRANCH  27  28
ATOM     28  C   UNL     1      62.354  26.005  61.980  1.00  0.00    -0.000 C 
BRANCH  28  29
ATOM     29  C   UNL     1      62.803  24.529  61.922  1.00  0.00    -0.000 C 
BRANCH  29  30
ATOM     30  C   UNL     1      64.278  24.340  61.514  1.00  0.00    -0.000 C 
BRANCH  30  31
ATOM     31  C   UNL     1      64.619  24.805  60.088  1.00  0.00    -0.003 C 
ATOM     32  C   UNL     1      64.124  23.837  59.013  1.00  0.00     0.004 C 
ENDBRANCH  30  31
ENDBRANCH  29  30
ENDBRANCH  28  29
ENDBRANCH  27  28
ENDBRANCH  26  27
ENDBRANCH  25  26
ENDBRANCH  24  25
ENDBRANCH  23  24
ENDBRANCH  22  23
ENDBRANCH  21  22
ENDBRANCH  20  21
ENDBRANCH  19  20
ENDBRANCH  18  19
ENDBRANCH   1  18
TORSDOF 28
ENDMDL
MODEL 4
REMARK VINA RESULT:    -2.434      3.072      6.807
REMARK INTER + INTRA:         -13.509
REMARK INTER:                  -7.569
REMARK INTRA:                  -5.940
REMARK UNBOUND:                -7.090
REMARK SMILES CCCCCCCCCCCCCCCCCCCCCCCCCCCCCC(=O)[O-]
REMARK SMILES IDX 16 1 17 2 18 3 19 4 20 5 21 6 22 7 23 8 24 9 25 10 26 11
REMARK SMILES IDX 27 12 28 13 29 14 30 15 31 16 32 17 15 18 14 19 13 20 12 21
REMARK SMILES IDX 11 22 10 23 9 24 8 25 7 26 6 27 5 28 4 29 3 30 2 31 1 32
REMARK H PARENT
REMARK Flexibility Score: inf
ROOT
ATOM      1  C   UNL     1      56.746  28.674  50.724  1.00  0.00     0.000 C 
ENDROOT
BRANCH   1   2
ATOM      2  C   UNL     1      58.253  28.397  50.870  1.00  0.00     0.000 C 
BRANCH   2   3
ATOM      3  C   UNL     1      58.882  27.867  49.567  1.00  0.00     0.000 C 
BRANCH   3   4
ATOM      4  C   UNL     1      60.404  27.638  49.660  1.00  0.00     0.000 C 
BRANCH   4   5
ATOM      5  C   UNL     1      60.756  26.213  50.125  1.00  0.00     0.000 C 
BRANCH   5   6
ATOM      6  C   UNL     1      59.575  25.230  49.984  1.00  0.00     0.000 C 
BRANCH   6   7
ATOM      7  C   UNL     1      59.765  23.905  50.748  1.00  0.00     0.000 C 
BRANCH   7   8
ATOM      8  C   UNL     1      60.805  22.941  50.146  1.00  0.00     0.000 C 
BRANCH   8   9
ATOM      9  C   UNL     1      62.038  22.673  51.030  1.00  0.00     0.000 C 
BRANCH   9  10
ATOM     10  C   UNL     1      62.191  23.612  52.242  1.00  0.00     0.000 C 
BRANCH  10  11
ATOM     11  C   UNL     1      63.603  24.218  52.394  1.00  0.00     0.000 C 
BRANCH  11  12
ATOM     12  C   UNL     1      63.758  25.550  51.638  1.00  0.00     0.000 C 
BRANCH  12  13
ATOM     13  C   UNL     1      64.498  25.389  50.295  1.00  0.00     0.006 C 
BRANCH  13  14
ATOM     14  C   UNL     1      64.152  26.461  49.248  1.00  0.00     0.053 C 
BRANCH  14  15
ATOM     15  C   UNL     1      64.592  27.827  49.680  1.00  0.00     0.041 C 
ATOM     16  O   UNL     1      65.753  28.005  50.133  1.00  0.00    -0.550 OA
ATOM     17  O   UNL     1      63.706  28.896  49.617  1.00  0.00    -0.550 OA
ENDBRANCH  14  15
ENDBRANCH  13  14
ENDBRANCH  12  13
ENDBRANCH  11  12
ENDBRANCH  10  11
ENDBRANCH   9  10
ENDBRANCH   8   9
ENDBRANCH   7   8
ENDBRANCH   6   7
ENDBRANCH   5   6
ENDBRANCH   4   5
ENDBRANCH   3   4
ENDBRANCH   2   3
ENDBRANCH   1   2
BRANCH   1  18
ATOM     18  C   UNL     1      56.050  28.892  52.077  1.00  0.00     0.000 C 
BRANCH  18  19
ATOM     19  C   UNL     1      54.554  28.530  52.036  1.00  0.00     0.000 C 
BRANCH  19  20
ATOM     20  C   UNL     1      53.924  28.742  50.648  1.00  0.00     0.000 C 
BRANCH  20  21
ATOM     21  C   UNL     1      53.307  27.480  50.018  1.00  0.00     0.000 C 
BRANCH  21  22
ATOM     22  C   UNL     1      53.734  26.186  50.733  1.00  0.00     0.000 C 
BRANCH  22  23
ATOM     23  C   UNL     1      54.752  25.373  49.915  1.00  0.00     0.000 C 
BRANCH  23  24
ATOM     24  C   UNL     1      56.131  25.314  50.592  1.00  0.00    -0.000 C 
BRANCH  24  25
ATOM     25  C   UNL     1      56.049  24.985  52.093  1.00  0.00    -0.000 C 
BRANCH  25  26
ATOM     26  C   UNL     1      57.132  25.644  52.966  1.00  0.00    -0.000 C 
BRANCH  26  27
ATOM     27  C   UNL     1      57.728  24.685  54.007  1.00  0.00    -0.000 C 
BRANCH  27  28
ATOM     28  C   UNL     1      59.226  24.960  54.218  1.00  0.00    -0.000 C 
BRANCH  28  29
ATOM     29  C   UNL     1      59.678  26.293  53.584  1.00  0.00    -0.000 C 
BRANCH  29  30
ATOM     30  C   UNL     1      61.128  26.688  53.928  1.00  0.00    -0.000 C 
BRANCH  30  31
ATOM     31  C   UNL     1      61.376  28.201  54.047  1.00  0.00    -0.003 C 
ATOM     32  C   UNL     1      61.870  28.826  52.742  1.00  0.00     0.004 C 
ENDBRANCH  30  31
ENDBRANCH  29  30
ENDBRANCH  28  29
ENDBRANCH  27  28
ENDBRANCH  26  27
ENDBRANCH  25  26
ENDBRANCH  24  25
ENDBRANCH  23  24
ENDBRANCH  22  23
ENDBRANCH  21  22
ENDBRANCH  20  21
ENDBRANCH  19  20
ENDBRANCH  18  19
ENDBRANCH   1  18
TORSDOF 28
ENDMDL
MODEL 5
REMARK VINA RESULT:    -2.419      1.365      2.168
REMARK INTER + INTRA:         -13.469
REMARK INTER:                  -6.972
REMARK INTRA:                  -6.497
REMARK UNBOUND:                -7.090
REMARK SMILES CCCCCCCCCCCCCCCCCCCCCCCCCCCCCC(=O)[O-]
REMARK SMILES IDX 16 1 17 2 18 3 19 4 20 5 21 6 22 7 23 8 24 9 25 10 26 11
REMARK SMILES IDX 27 12 28 13 29 14 30 15 31 16 32 17 15 18 14 19 13 20 12 21
REMARK SMILES IDX 11 22 10 23 9 24 8 25 7 26 6 27 5 28 4 29 3 30 2 31 1 32
REMARK H PARENT
REMARK Flexibility Score: inf
ROOT
ATOM      1  C   UNL     1      55.459  26.705  50.407  1.00  0.00     0.000 C 
ENDROOT
BRANCH   1   2
ATOM      2  C   UNL     1      53.986  26.902  50.009  1.00  0.00     0.000 C 
BRANCH   2   3
ATOM      3  C   UNL     1      53.459  28.302  50.378  1.00  0.00     0.000 C 
BRANCH   3   4
ATOM      4  C   UNL     1      54.530  29.229  50.987  1.00  0.00     0.000 C 
BRANCH   4   5
ATOM      5  C   UNL     1      54.345  29.426  52.502  1.00  0.00     0.000 C 
BRANCH   5   6
ATOM      6  C   UNL     1      53.115  28.675  53.056  1.00  0.00     0.000 C 
BRANCH   6   7
ATOM      7  C   UNL     1      53.464  27.472  53.954  1.00  0.00     0.000 C 
BRANCH   7   8
ATOM      8  C   UNL     1      53.037  26.097  53.407  1.00  0.00     0.000 C 
BRANCH   8   9
ATOM      9  C   UNL     1      53.589  24.884  54.181  1.00  0.00     0.000 C 
BRANCH   9  10
ATOM     10  C   UNL     1      54.389  25.228  55.452  1.00  0.00     0.000 C 
BRANCH  10  11
ATOM     11  C   UNL     1      55.619  24.324  55.686  1.00  0.00     0.000 C 
BRANCH  11  12
ATOM     12  C   UNL     1      56.758  25.054  56.419  1.00  0.00     0.000 C 
BRANCH  12  13
ATOM     13  C   UNL     1      56.296  26.366  57.082  1.00  0.00     0.006 C 
BRANCH  13  14
ATOM     14  C   UNL     1      57.324  27.508  57.014  1.00  0.00     0.053 C 
BRANCH  14  15
ATOM     15  C   UNL     1      56.663  28.849  56.899  1.00  0.00     0.041 C 
ATOM     16  O   UNL     1      56.665  29.642  57.876  1.00  0.00    -0.550 OA
ATOM     17  O   UNL     1      56.011  29.206  55.724  1.00  0.00    -0.550 OA
ENDBRANCH  14  15
ENDBRANCH  13  14
ENDBRANCH  12  13
ENDBRANCH  11  12
ENDBRANCH  10  11
ENDBRANCH   9  10
ENDBRANCH   8   9
ENDBRANCH   7   8
ENDBRANCH   6   7
ENDBRANCH   5   6
ENDBRANCH   4   5
ENDBRANCH   3   4
ENDBRANCH   2   3
ENDBRANCH   1   2
BRANCH   1  18
ATOM     18  C   UNL     1      55.796  25.239  50.725  1.00  0.00     0.000 C 
BRANCH  18  19
ATOM     19  C   UNL     1      56.555  25.083  52.056  1.00  0.00     0.000 C 
BRANCH  19  20
ATOM     20  C   UNL     1      56.818  26.427  52.756  1.00  0.00     0.000 C 
BRANCH  20  21
ATOM     21  C   UNL     1      58.192  26.542  53.440  1.00  0.00     0.000 C 
BRANCH  21  22
ATOM     22  C   UNL     1      58.640  28.001  53.640  1.00  0.00     0.000 C 
BRANCH  22  23
ATOM     23  C   UNL     1      57.964  28.962  52.646  1.00  0.00     0.000 C 
BRANCH  23  24
ATOM     24  C   UNL     1      58.867  29.288  51.444  1.00  0.00    -0.000 C 
BRANCH  24  25
ATOM     25  C   UNL     1      58.345  28.693  50.125  1.00  0.00    -0.000 C 
BRANCH  25  26
ATOM     26  C   UNL     1      59.345  27.796  49.373  1.00  0.00    -0.000 C 
BRANCH  26  27
ATOM     27  C   UNL     1      59.241  26.317  49.774  1.00  0.00    -0.000 C 
BRANCH  27  28
ATOM     28  C   UNL     1      60.489  25.866  50.550  1.00  0.00    -0.000 C 
BRANCH  28  29
ATOM     29  C   UNL     1      60.324  24.460  51.169  1.00  0.00    -0.000 C 
BRANCH  29  30
ATOM     30  C   UNL     1      61.292  23.407  50.594  1.00  0.00    -0.000 C 
BRANCH  30  31
ATOM     31  C   UNL     1      60.657  22.039  50.294  1.00  0.00    -0.003 C 
ATOM     32  C   UNL     1      60.010  21.402  51.525  1.00  0.00     0.004 C 
ENDBRANCH  30  31
ENDBRANCH  29  30
ENDBRANCH  28  29
ENDBRANCH  27  28
ENDBRANCH  26  27
ENDBRANCH  25  26
ENDBRANCH  24  25
ENDBRANCH  23  24
ENDBRANCH  22  23
ENDBRANCH  21  22
ENDBRANCH  20  21
ENDBRANCH  19  20
ENDBRANCH  18  19
ENDBRANCH   1  18
TORSDOF 28
ENDMDL
MODEL 6
REMARK VINA RESULT:    -2.408      2.110      3.921
REMARK INTER + INTRA:         -13.441
REMARK INTER:                  -7.415
REMARK INTRA:                  -6.025
REMARK UNBOUND:                -7.090
REMARK SMILES CCCCCCCCCCCCCCCCCCCCCCCCCCCCCC(=O)[O-]
REMARK SMILES IDX 16 1 17 2 18 3 19 4 20 5 21 6 22 7 23 8 24 9 25 10 26 11
REMARK SMILES IDX 27 12 28 13 29 14 30 15 31 16 32 17 15 18 14 19 13 20 12 21
REMARK SMILES IDX 11 22 10 23 9 24 8 25 7 26 6 27 5 28 4 29 3 30 2 31 1 32
REMARK H PARENT
REMARK Flexibility Score: inf
ROOT
ATOM      1  C   UNL     1      54.426  28.265  50.389  1.00  0.00     0.000 C 
ENDROOT
BRANCH   1   2
ATOM      2  C   UNL     1      53.737  29.343  51.246  1.00  0.00     0.000 C 
BRANCH   2   3
ATOM      3  C   UNL     1      53.996  29.151  52.753  1.00  0.00     0.000 C 
BRANCH   3   4
ATOM      4  C   UNL     1      53.259  30.168  53.646  1.00  0.00     0.000 C 
BRANCH   4   5
ATOM      5  C   UNL     1      53.180  31.565  53.003  1.00  0.00     0.000 C 
BRANCH   5   6
ATOM      6  C   UNL     1      54.467  32.392  53.213  1.00  0.00     0.000 C 
BRANCH   6   7
ATOM      7  C   UNL     1      55.084  32.250  54.617  1.00  0.00     0.000 C 
BRANCH   7   8
ATOM      8  C   UNL     1      56.540  31.749  54.649  1.00  0.00     0.000 C 
BRANCH   8   9
ATOM      9  C   UNL     1      56.829  30.639  55.678  1.00  0.00     0.000 C 
BRANCH   9  10
ATOM     10  C   UNL     1      55.595  30.113  56.436  1.00  0.00     0.000 C 
BRANCH  10  11
ATOM     11  C   UNL     1      55.367  28.593  56.292  1.00  0.00     0.000 C 
BRANCH  11  12
ATOM     12  C   UNL     1      56.504  27.763  56.914  1.00  0.00     0.000 C 
BRANCH  12  13
ATOM     13  C   UNL     1      56.724  28.079  58.406  1.00  0.00     0.006 C 
BRANCH  13  14
ATOM     14  C   UNL     1      55.765  27.344  59.358  1.00  0.00     0.053 C 
BRANCH  14  15
ATOM     15  C   UNL     1      54.844  28.292  60.065  1.00  0.00     0.041 C 
ATOM     16  O   UNL     1      53.901  28.843  59.441  1.00  0.00    -0.550 OA
ATOM     17  O   UNL     1      55.053  28.595  61.406  1.00  0.00    -0.550 OA
ENDBRANCH  14  15
ENDBRANCH  13  14
ENDBRANCH  12  13
ENDBRANCH  11  12
ENDBRANCH  10  11
ENDBRANCH   9  10
ENDBRANCH   8   9
ENDBRANCH   7   8
ENDBRANCH   6   7
ENDBRANCH   5   6
ENDBRANCH   4   5
ENDBRANCH   3   4
ENDBRANCH   2   3
ENDBRANCH   1   2
BRANCH   1  18
ATOM     18  C   UNL     1      53.509  27.066  50.098  1.00  0.00     0.000 C 
BRANCH  18  19
ATOM     19  C   UNL     1      54.276  25.730  50.074  1.00  0.00     0.000 C 
BRANCH  19  20
ATOM     20  C   UNL     1      55.803  25.916  50.068  1.00  0.00     0.000 C 
BRANCH  20  21
ATOM     21  C   UNL     1      56.543  25.231  51.230  1.00  0.00     0.000 C 
BRANCH  21  22
ATOM     22  C   UNL     1      55.718  25.203  52.529  1.00  0.00     0.000 C 
BRANCH  22  23
ATOM     23  C   UNL     1      56.168  26.278  53.533  1.00  0.00     0.000 C 
BRANCH  23  24
ATOM     24  C   UNL     1      57.681  26.549  53.457  1.00  0.00    -0.000 C 
BRANCH  24  25
ATOM     25  C   UNL     1      58.026  28.047  53.540  1.00  0.00    -0.000 C 
BRANCH  25  26
ATOM     26  C   UNL     1      57.562  28.891  52.339  1.00  0.00    -0.000 C 
BRANCH  26  27
ATOM     27  C   UNL     1      58.684  29.160  51.327  1.00  0.00    -0.000 C 
BRANCH  27  28
ATOM     28  C   UNL     1      58.358  28.537  49.960  1.00  0.00    -0.000 C 
BRANCH  28  29
ATOM     29  C   UNL     1      59.361  27.435  49.557  1.00  0.00    -0.000 C 
BRANCH  29  30
ATOM     30  C   UNL     1      60.516  27.245  50.561  1.00  0.00    -0.000 C 
BRANCH  30  31
ATOM     31  C   UNL     1      60.615  25.839  51.177  1.00  0.00    -0.003 C 
ATOM     32  C   UNL     1      59.993  24.759  50.292  1.00  0.00     0.004 C 
ENDBRANCH  30  31
ENDBRANCH  29  30
ENDBRANCH  28  29
ENDBRANCH  27  28
ENDBRANCH  26  27
ENDBRANCH  25  26
ENDBRANCH  24  25
ENDBRANCH  23  24
ENDBRANCH  22  23
ENDBRANCH  21  22
ENDBRANCH  20  21
ENDBRANCH  19  20
ENDBRANCH  18  19
ENDBRANCH   1  18
TORSDOF 28
ENDMDL
MODEL 7
REMARK VINA RESULT:    -2.350      2.204      3.753
REMARK INTER + INTRA:         -13.286
REMARK INTER:                  -7.155
REMARK INTRA:                  -6.131
REMARK UNBOUND:                -7.090
REMARK SMILES CCCCCCCCCCCCCCCCCCCCCCCCCCCCCC(=O)[O-]
REMARK SMILES IDX 16 1 17 2 18 3 19 4 20 5 21 6 22 7 23 8 24 9 25 10 26 11
REMARK SMILES IDX 27 12 28 13 29 14 30 15 31 16 32 17 15 18 14 19 13 20 12 21
REMARK SMILES IDX 11 22 10 23 9 24 8 25 7 26 6 27 5 28 4 29 3 30 2 31 1 32
REMARK H PARENT
REMARK Flexibility Score: inf
ROOT
ATOM      1  C   UNL     1      56.206  24.909  51.893  1.00  0.00     0.000 C 
ENDROOT
BRANCH   1   2
ATOM      2  C   UNL     1      54.929  24.912  51.034  1.00  0.00     0.000 C 
BRANCH   2   3
ATOM      3  C   UNL     1      54.889  26.093  50.044  1.00  0.00     0.000 C 
BRANCH   3   4
ATOM      4  C   UNL     1      53.535  26.827  50.005  1.00  0.00     0.000 C 
BRANCH   4   5
ATOM      5  C   UNL     1      53.656  28.306  50.416  1.00  0.00     0.000 C 
BRANCH   5   6
ATOM      6  C   UNL     1      55.096  28.700  50.810  1.00  0.00     0.000 C 
BRANCH   6   7
ATOM      7  C   UNL     1      55.205  29.391  52.182  1.00  0.00     0.000 C 
BRANCH   7   8
ATOM      8  C   UNL     1      54.095  29.036  53.189  1.00  0.00     0.000 C 
BRANCH   8   9
ATOM      9  C   UNL     1      54.345  29.508  54.634  1.00  0.00     0.000 C 
BRANCH   9  10
ATOM     10  C   UNL     1      54.549  28.381  55.665  1.00  0.00     0.000 C 
BRANCH  10  11
ATOM     11  C   UNL     1      56.016  28.192  56.110  1.00  0.00     0.000 C 
BRANCH  11  12
ATOM     12  C   UNL     1      56.606  29.459  56.753  1.00  0.00     0.000 C 
BRANCH  12  13
ATOM     13  C   UNL     1      56.053  29.722  58.167  1.00  0.00     0.006 C 
BRANCH  13  14
ATOM     14  C   UNL     1      56.172  28.526  59.128  1.00  0.00     0.053 C 
BRANCH  14  15
ATOM     15  C   UNL     1      54.863  28.201  59.781  1.00  0.00     0.041 C 
ATOM     16  O   UNL     1      54.401  27.031  59.727  1.00  0.00    -0.550 OA
ATOM     17  O   UNL     1      54.135  29.200  60.417  1.00  0.00    -0.550 OA
ENDBRANCH  14  15
ENDBRANCH  13  14
ENDBRANCH  12  13
ENDBRANCH  11  12
ENDBRANCH  10  11
ENDBRANCH   9  10
ENDBRANCH   8   9
ENDBRANCH   7   8
ENDBRANCH   6   7
ENDBRANCH   5   6
ENDBRANCH   4   5
ENDBRANCH   3   4
ENDBRANCH   2   3
ENDBRANCH   1   2
BRANCH   1  18
ATOM     18  C   UNL     1      56.129  25.894  53.071  1.00  0.00     0.000 C 
BRANCH  18  19
ATOM     19  C   UNL     1      57.460  26.630  53.313  1.00  0.00     0.000 C 
BRANCH  19  20
ATOM     20  C   UNL     1      58.561  25.710  53.869  1.00  0.00     0.000 C 
BRANCH  20  21
ATOM     21  C   UNL     1      59.992  26.259  53.735  1.00  0.00     0.000 C 
BRANCH  21  22
ATOM     22  C   UNL     1      60.765  25.632  52.561  1.00  0.00     0.000 C 
BRANCH  22  23
ATOM     23  C   UNL     1      60.065  24.382  52.001  1.00  0.00     0.000 C 
BRANCH  23  24
ATOM     24  C   UNL     1      59.691  24.539  50.517  1.00  0.00    -0.000 C 
BRANCH  24  25
ATOM     25  C   UNL     1      59.928  25.964  49.987  1.00  0.00    -0.000 C 
BRANCH  25  26
ATOM     26  C   UNL     1      58.652  26.792  49.750  1.00  0.00    -0.000 C 
BRANCH  26  27
ATOM     27  C   UNL     1      58.929  28.298  49.629  1.00  0.00    -0.000 C 
BRANCH  27  28
ATOM     28  C   UNL     1      58.726  29.007  50.978  1.00  0.00    -0.000 C 
BRANCH  28  29
ATOM     29  C   UNL     1      60.060  29.434  51.629  1.00  0.00    -0.000 C 
BRANCH  29  30
ATOM     30  C   UNL     1      59.938  29.798  53.122  1.00  0.00    -0.000 C 
BRANCH  30  31
ATOM     31  C   UNL     1      58.504  30.066  53.608  1.00  0.00    -0.003 C 
ATOM     32  C   UNL     1      58.103  31.537  53.495  1.00  0.00     0.004 C 
ENDBRANCH  30  31
ENDBRANCH  29  30
ENDBRANCH  28  29
ENDBRANCH  27  28
ENDBRANCH  26  27
ENDBRANCH  25  26
ENDBRANCH  24  25
ENDBRANCH  23  24
ENDBRANCH  22  23
ENDBRANCH  21  22
ENDBRANCH  20  21
ENDBRANCH  19  20
ENDBRANCH  18  19
ENDBRANCH   1  18
TORSDOF 28
ENDMDL
MODEL 8
REMARK VINA RESULT:    -2.324      6.944     10.833
REMARK INTER + INTRA:         -13.217
REMARK INTER:                  -7.510
REMARK INTRA:                  -5.707
REMARK UNBOUND:                -7.090
REMARK SMILES CCCCCCCCCCCCCCCCCCCCCCCCCCCCCC(=O)[O-]
REMARK SMILES IDX 16 1 17 2 18 3 19 4 20 5 21 6 22 7 23 8 24 9 25 10 26 11
REMARK SMILES IDX 27 12 28 13 29 14 30 15 31 16 32 17 15 18 14 19 13 20 12 21
REMARK SMILES IDX 11 22 10 23 9 24 8 25 7 26 6 27 5 28 4 29 3 30 2 31 1 32
REMARK H PARENT
REMARK Flexibility Score: inf
ROOT
ATOM      1  C   UNL     1      65.626  35.381  61.159  1.00  0.00     0.000 C 
ENDROOT
BRANCH   1   2
ATOM      2  C   UNL     1      64.201  34.981  61.583  1.00  0.00     0.000 C 
BRANCH   2   3
ATOM      3  C   UNL     1      63.187  36.125  61.390  1.00  0.00     0.000 C 
BRANCH   3   4
ATOM      4  C   UNL     1      61.812  35.657  60.875  1.00  0.00     0.000 C 
BRANCH   4   5
ATOM      5  C   UNL     1      61.785  34.151  60.557  1.00  0.00     0.000 C 
BRANCH   5   6
ATOM      6  C   UNL     1      60.352  33.594  60.422  1.00  0.00     0.000 C 
BRANCH   6   7
ATOM      7  C   UNL     1      59.320  34.625  59.925  1.00  0.00     0.000 C 
BRANCH   7   8
ATOM      8  C   UNL     1      59.364  34.924  58.414  1.00  0.00     0.000 C 
BRANCH   8   9
ATOM      9  C   UNL     1      58.015  34.795  57.682  1.00  0.00     0.000 C 
BRANCH   9  10
ATOM     10  C   UNL     1      57.330  33.420  57.810  1.00  0.00     0.000 C 
BRANCH  10  11
ATOM     11  C   UNL     1      58.134  32.256  57.191  1.00  0.00     0.000 C 
BRANCH  11  12
ATOM     12  C   UNL     1      58.534  32.525  55.730  1.00  0.00     0.000 C 
BRANCH  12  13
ATOM     13  C   UNL     1      57.980  31.468  54.756  1.00  0.00     0.006 C 
BRANCH  13  14
ATOM     14  C   UNL     1      58.665  31.453  53.378  1.00  0.00     0.053 C 
BRANCH  14  15
ATOM     15  C   UNL     1      59.802  30.478  53.330  1.00  0.00     0.041 C 
ATOM     16  O   UNL     1      60.272  29.998  54.394  1.00  0.00    -0.550 OA
ATOM     17  O   UNL     1      60.367  30.127  52.108  1.00  0.00    -0.550 OA
ENDBRANCH  14  15
ENDBRANCH  13  14
ENDBRANCH  12  13
ENDBRANCH  11  12
ENDBRANCH  10  11
ENDBRANCH   9  10
ENDBRANCH   8   9
ENDBRANCH   7   8
ENDBRANCH   6   7
ENDBRANCH   5   6
ENDBRANCH   4   5
ENDBRANCH   3   4
ENDBRANCH   2   3
ENDBRANCH   1   2
BRANCH   1  18
ATOM     18  C   UNL     1      65.725  35.715  59.662  1.00  0.00     0.000 C 
BRANCH  18  19
ATOM     19  C   UNL     1      65.055  34.649  58.774  1.00  0.00     0.000 C 
BRANCH  19  20
ATOM     20  C   UNL     1      64.239  35.258  57.620  1.00  0.00     0.000 C 
BRANCH  20  21
ATOM     21  C   UNL     1      62.972  34.473  57.239  1.00  0.00     0.000 C 
BRANCH  21  22
ATOM     22  C   UNL     1      63.168  32.948  57.319  1.00  0.00     0.000 C 
BRANCH  22  23
ATOM     23  C   UNL     1      61.832  32.185  57.313  1.00  0.00     0.000 C 
BRANCH  23  24
ATOM     24  C   UNL     1      61.969  30.767  57.894  1.00  0.00    -0.000 C 
BRANCH  24  25
ATOM     25  C   UNL     1      60.902  30.449  58.957  1.00  0.00    -0.000 C 
BRANCH  25  26
ATOM     26  C   UNL     1      61.041  29.072  59.630  1.00  0.00    -0.000 C 
BRANCH  26  27
ATOM     27  C   UNL     1      61.128  29.159  61.160  1.00  0.00    -0.000 C 
BRANCH  27  28
ATOM     28  C   UNL     1      61.873  30.430  61.601  1.00  0.00    -0.000 C 
BRANCH  28  29
ATOM     29  C   UNL     1      63.406  30.247  61.600  1.00  0.00    -0.000 C 
BRANCH  29  30
ATOM     30  C   UNL     1      64.169  31.374  60.875  1.00  0.00    -0.000 C 
BRANCH  30  31
ATOM     31  C   UNL     1      65.141  30.899  59.781  1.00  0.00    -0.003 C 
ATOM     32  C   UNL     1      65.058  29.393  59.526  1.00  0.00     0.004 C 
ENDBRANCH  30  31
ENDBRANCH  29  30
ENDBRANCH  28  29
ENDBRANCH  27  28
ENDBRANCH  26  27
ENDBRANCH  25  26
ENDBRANCH  24  25
ENDBRANCH  23  24
ENDBRANCH  22  23
ENDBRANCH  21  22
ENDBRANCH  20  21
ENDBRANCH  19  20
ENDBRANCH  18  19
ENDBRANCH   1  18
TORSDOF 28
ENDMDL
MODEL 9
REMARK VINA RESULT:    -2.310      2.935      7.804
REMARK INTER + INTRA:         -13.182
REMARK INTER:                  -7.704
REMARK INTRA:                  -5.478
REMARK UNBOUND:                -7.090
REMARK SMILES CCCCCCCCCCCCCCCCCCCCCCCCCCCCCC(=O)[O-]
REMARK SMILES IDX 16 1 17 2 18 3 19 4 20 5 21 6 22 7 23 8 24 9 25 10 26 11
REMARK SMILES IDX 27 12 28 13 29 14 30 15 31 16 32 17 15 18 14 19 13 20 12 21
REMARK SMILES IDX 11 22 10 23 9 24 8 25 7 26 6 27 5 28 4 29 3 30 2 31 1 32
REMARK H PARENT
REMARK Flexibility Score: inf
ROOT
ATOM      1  C   UNL     1      59.565  27.502  49.461  1.00  0.00     0.000 C 
ENDROOT
BRANCH   1   2
ATOM      2  C   UNL     1      58.487  28.415  50.072  1.00  0.00     0.000 C 
BRANCH   2   3
ATOM      3  C   UNL     1      58.988  29.162  51.323  1.00  0.00     0.000 C 
BRANCH   3   4
ATOM      4  C   UNL     1      60.514  29.376  51.349  1.00  0.00     0.000 C 
BRANCH   4   5
ATOM      5  C   UNL     1      61.193  28.628  52.511  1.00  0.00     0.000 C 
BRANCH   5   6
ATOM      6  C   UNL     1      62.599  29.178  52.835  1.00  0.00     0.000 C 
BRANCH   6   7
ATOM      7  C   UNL     1      63.752  28.255  52.394  1.00  0.00     0.000 C 
BRANCH   7   8
ATOM      8  C   UNL     1      63.320  26.916  51.768  1.00  0.00     0.000 C 
BRANCH   8   9
ATOM      9  C   UNL     1      63.928  26.614  50.384  1.00  0.00     0.000 C 
BRANCH   9  10
ATOM     10  C   UNL     1      63.201  27.268  49.194  1.00  0.00     0.000 C 
BRANCH  10  11
ATOM     11  C   UNL     1      64.104  28.164  48.319  1.00  0.00     0.000 C 
BRANCH  11  12
ATOM     12  C   UNL     1      65.190  28.885  49.137  1.00  0.00     0.000 C 
BRANCH  12  13
ATOM     13  C   UNL     1      64.963  30.408  49.216  1.00  0.00     0.006 C 
BRANCH  13  14
ATOM     14  C   UNL     1      63.530  30.817  49.597  1.00  0.00     0.053 C 
BRANCH  14  15
ATOM     15  C   UNL     1      63.334  32.301  49.523  1.00  0.00     0.041 C 
ATOM     16  O   UNL     1      62.265  32.821  49.937  1.00  0.00    -0.550 OA
ATOM     17  O   UNL     1      64.318  33.106  48.959  1.00  0.00    -0.550 OA
ENDBRANCH  14  15
ENDBRANCH  13  14
ENDBRANCH  12  13
ENDBRANCH  11  12
ENDBRANCH  10  11
ENDBRANCH   9  10
ENDBRANCH   8   9
ENDBRANCH   7   8
ENDBRANCH   6   7
ENDBRANCH   5   6
ENDBRANCH   4   5
ENDBRANCH   3   4
ENDBRANCH   2   3
ENDBRANCH   1   2
BRANCH   1  18
ATOM     18  C   UNL     1      59.242  26.009  49.633  1.00  0.00     0.000 C 
BRANCH  18  19
ATOM     19  C   UNL     1      60.328  25.258  50.427  1.00  0.00     0.000 C 
BRANCH  19  20
ATOM     20  C   UNL     1      59.779  24.571  51.690  1.00  0.00     0.000 C 
BRANCH  20  21
ATOM     21  C   UNL     1      59.697  25.474  52.933  1.00  0.00     0.000 C 
BRANCH  21  22
ATOM     22  C   UNL     1      58.303  25.466  53.585  1.00  0.00     0.000 C 
BRANCH  22  23
ATOM     23  C   UNL     1      57.296  26.348  52.827  1.00  0.00     0.000 C 
BRANCH  23  24
ATOM     24  C   UNL     1      56.040  25.568  52.405  1.00  0.00    -0.000 C 
BRANCH  24  25
ATOM     25  C   UNL     1      56.024  25.224  50.905  1.00  0.00    -0.000 C 
BRANCH  25  26
ATOM     26  C   UNL     1      54.998  26.008  50.067  1.00  0.00    -0.000 C 
BRANCH  26  27
ATOM     27  C   UNL     1      54.112  26.932  50.915  1.00  0.00    -0.000 C 
BRANCH  27  28
ATOM     28  C   UNL     1      54.247  28.395  50.463  1.00  0.00    -0.000 C 
BRANCH  28  29
ATOM     29  C   UNL     1      54.775  29.315  51.585  1.00  0.00    -0.000 C 
BRANCH  29  30
ATOM     30  C   UNL     1      54.465  28.806  53.007  1.00  0.00    -0.000 C 
BRANCH  30  31
ATOM     31  C   UNL     1      53.206  29.411  53.652  1.00  0.00    -0.003 C 
ATOM     32  C   UNL     1      52.876  30.804  53.116  1.00  0.00     0.004 C 
ENDBRANCH  30  31
ENDBRANCH  29  30
ENDBRANCH  28  29
ENDBRANCH  27  28
ENDBRANCH  26  27
ENDBRANCH  25  26
ENDBRANCH  24  25
ENDBRANCH  23  24
ENDBRANCH  22  23
ENDBRANCH  21  22
ENDBRANCH  20  21
ENDBRANCH  19  20
ENDBRANCH  18  19
ENDBRANCH   1  18
TORSDOF 28
ENDMDL
