MODEL 1
REMARK VINA RESULT:    -4.737      0.000      0.000
REMARK INTER + INTRA:         -11.548
REMARK INTER:                  -8.891
REMARK INTRA:                  -2.657
REMARK UNBOUND:                -2.657
REMARK SMILES CCCCCCCCC=CCCCCCCCC(=O)[O-]
REMARK SMILES IDX 10 1 9 2 11 3 12 4 13 5 14 6 15 7 16 8 17 9 18 10 19 11
REMARK SMILES IDX 20 12 8 13 7 14 6 15 5 16 4 17 3 18 2 19 1 20
REMARK H PARENT
REMARK Flexibility Score: inf
ROOT
ATOM      1  C   UNL     1      -3.648  11.438  -0.883  1.00  0.00    -0.031 C 
ATOM      2  C   UNL     1      -3.457  11.801  -2.165  1.00  0.00    -0.031 C 
ENDROOT
BRANCH   1   3
ATOM      3  C   UNL     1      -3.974  12.391   0.238  1.00  0.00     0.027 C 
BRANCH   3   4
ATOM      4  C   UNL     1      -5.367  12.103   0.806  1.00  0.00     0.004 C 
BRANCH   4   5
ATOM      5  C   UNL     1      -6.462  12.513  -0.189  1.00  0.00     0.000 C 
BRANCH   5   6
ATOM      6  C   UNL     1      -7.550  11.438  -0.353  1.00  0.00     0.000 C 
BRANCH   6   7
ATOM      7  C   UNL     1      -7.182  10.374  -1.398  1.00  0.00     0.000 C 
BRANCH   7   8
ATOM      8  C   UNL     1      -7.005   8.999  -0.741  1.00  0.00     0.006 C 
BRANCH   8   9
ATOM      9  C   UNL     1      -5.571   8.488  -0.910  1.00  0.00     0.053 C 
BRANCH   9  10
ATOM     10  C   UNL     1      -5.519   7.004  -0.728  1.00  0.00     0.041 C 
ATOM     11  O   UNL     1      -5.016   6.273  -1.622  1.00  0.00    -0.550 OA
ATOM     12  O   UNL     1      -6.070   6.423   0.406  1.00  0.00    -0.550 OA
ENDBRANCH   9  10
ENDBRANCH   8   9
ENDBRANCH   7   8
ENDBRANCH   6   7
ENDBRANCH   5   6
ENDBRANCH   4   5
ENDBRANCH   3   4
ENDBRANCH   1   3
BRANCH   2  13
ATOM     13  C   UNL     1      -3.445  13.225  -2.659  1.00  0.00     0.027 C 
BRANCH  13  14
ATOM     14  C   UNL     1      -4.659  13.501  -3.552  1.00  0.00     0.004 C 
BRANCH  14  15
ATOM     15  C   UNL     1      -5.425  12.204  -3.855  1.00  0.00     0.000 C 
BRANCH  15  16
ATOM     16  C   UNL     1      -6.098  12.230  -5.237  1.00  0.00     0.000 C 
BRANCH  16  17
ATOM     17  C   UNL     1      -6.476  10.823  -5.734  1.00  0.00    -0.000 C 
BRANCH  17  18
ATOM     18  C   UNL     1      -5.931   9.715  -4.810  1.00  0.00    -0.000 C 
BRANCH  18  19
ATOM     19  C   UNL     1      -6.846   8.482  -4.723  1.00  0.00    -0.003 C 
ATOM     20  C   UNL     1      -6.092   7.163  -4.882  1.00  0.00     0.004 C 
ENDBRANCH  18  19
ENDBRANCH  17  18
ENDBRANCH  16  17
ENDBRANCH  15  16
ENDBRANCH  14  15
ENDBRANCH  13  14
ENDBRANCH   2  13
TORSDOF 15
ENDMDL
MODEL 2
REMARK VINA RESULT:    -4.720      1.156      2.375
REMARK INTER + INTRA:         -11.516
REMARK INTER:                  -9.476
REMARK INTRA:                  -2.040
REMARK UNBOUND:                -2.657
REMARK SMILES CCCCCCCCC=CCCCCCCCC(=O)[O-]
REMARK SMILES IDX 10 1 9 2 11 3 12 4 13 5 14 6 15 7 16 8 17 9 18 10 19 11
REMARK SMILES IDX 20 12 8 13 7 14 6 15 5 16 4 17 3 18 2 19 1 20
REMARK H PARENT
REMARK Flexibility Score: inf
ROOT
ATOM      1  C   UNL     1      -3.706  13.718  -3.159  1.00  0.00    -0.031 C 
ATOM      2  C   UNL     1      -4.679  13.406  -4.037  1.00  0.00    -0.031 C 
ENDROOT
BRANCH   1   3
ATOM      3  C   UNL     1      -3.188  12.790  -2.090  1.00  0.00     0.027 C 
BRANCH   3   4
ATOM      4  C   UNL     1      -3.638  13.260  -0.702  1.00  0.00     0.004 C 
BRANCH   4   5
ATOM      5  C   UNL     1      -3.716  12.081   0.279  1.00  0.00     0.000 C 
BRANCH   5   6
ATOM      6  C   UNL     1      -4.070  10.754  -0.413  1.00  0.00     0.000 C 
BRANCH   6   7
ATOM      7  C   UNL     1      -5.582  10.579  -0.626  1.00  0.00     0.000 C 
BRANCH   7   8
ATOM      8  C   UNL     1      -5.870   9.419  -1.586  1.00  0.00     0.006 C 
BRANCH   8   9
ATOM      9  C   UNL     1      -6.591   8.275  -0.869  1.00  0.00     0.053 C 
BRANCH   9  10
ATOM     10  C   UNL     1      -5.621   7.204  -0.481  1.00  0.00     0.041 C 
ATOM     11  O   UNL     1      -5.270   7.073   0.722  1.00  0.00    -0.550 OA
ATOM     12  O   UNL     1      -5.066   6.383  -1.453  1.00  0.00    -0.550 OA
ENDBRANCH   9  10
ENDBRANCH   8   9
ENDBRANCH   7   8
ENDBRANCH   6   7
ENDBRANCH   5   6
ENDBRANCH   4   5
ENDBRANCH   3   4
ENDBRANCH   1   3
BRANCH   2  13
ATOM     13  C   UNL     1      -5.465  12.120  -4.022  1.00  0.00     0.027 C 
BRANCH  13  14
ATOM     14  C   UNL     1      -6.663  12.206  -4.974  1.00  0.00     0.004 C 
BRANCH  14  15
ATOM     15  C   UNL     1      -6.632  11.063  -6.000  1.00  0.00     0.000 C 
BRANCH  15  16
ATOM     16  C   UNL     1      -7.915  10.215  -5.971  1.00  0.00     0.000 C 
BRANCH  16  17
ATOM     17  C   UNL     1      -8.067   9.421  -4.661  1.00  0.00    -0.000 C 
BRANCH  17  18
ATOM     18  C   UNL     1      -7.707   7.932  -4.840  1.00  0.00    -0.000 C 
BRANCH  18  19
ATOM     19  C   UNL     1      -6.205   7.639  -4.690  1.00  0.00    -0.003 C 
ATOM     20  C   UNL     1      -5.856   6.168  -4.904  1.00  0.00     0.004 C 
ENDBRANCH  18  19
ENDBRANCH  17  18
ENDBRANCH  16  17
ENDBRANCH  15  16
ENDBRANCH  14  15
ENDBRANCH  13  14
ENDBRANCH   2  13
TORSDOF 15
ENDMDL
MODEL 3
REMARK VINA RESULT:    -4.553      1.882      4.463
REMARK INTER + INTRA:         -11.202
REMARK INTER:                  -8.181
REMARK INTRA:                  -3.021
REMARK UNBOUND:                -2.657
REMARK SMILES CCCCCCCCC=CCCCCCCCC(=O)[O-]
REMARK SMILES IDX 10 1 9 2 11 3 12 4 13 5 14 6 15 7 16 8 17 9 18 10 19 11
REMARK SMILES IDX 20 12 8 13 7 14 6 15 5 16 4 17 3 18 2 19 1 20
REMARK H PARENT
REMARK Flexibility Score: inf
ROOT
ATOM      1  C   UNL     1      -3.925  11.902  -2.247  1.00  0.00    -0.031 C 
ATOM      2  C   UNL     1      -3.876  11.595  -0.937  1.00  0.00    -0.031 C 
ENDROOT
BRANCH   1   3
ATOM      3  C   UNL     1      -3.575  13.248  -2.826  1.00  0.00     0.027 C 
BRANCH   3   4
ATOM      4  C   UNL     1      -4.515  13.602  -3.983  1.00  0.00     0.004 C 
BRANCH   4   5
ATOM      5  C   UNL     1      -5.455  12.432  -4.305  1.00  0.00     0.000 C 
BRANCH   5   6
ATOM      6  C   UNL     1      -6.130  12.570  -5.680  1.00  0.00     0.000 C 
BRANCH   6   7
ATOM      7  C   UNL     1      -6.845  11.285  -6.123  1.00  0.00     0.000 C 
BRANCH   7   8
ATOM      8  C   UNL     1      -7.233  10.428  -4.911  1.00  0.00     0.006 C 
BRANCH   8   9
ATOM      9  C   UNL     1      -7.247   8.940  -5.269  1.00  0.00     0.053 C 
BRANCH   9  10
ATOM     10  C   UNL     1      -6.042   8.254  -4.707  1.00  0.00     0.041 C 
ATOM     11  O   UNL     1      -5.291   8.856  -3.895  1.00  0.00    -0.550 OA
ATOM     12  O   UNL     1      -5.720   6.967  -5.119  1.00  0.00    -0.550 OA
ENDBRANCH   9  10
ENDBRANCH   8   9
ENDBRANCH   7   8
ENDBRANCH   6   7
ENDBRANCH   5   6
ENDBRANCH   4   5
ENDBRANCH   3   4
ENDBRANCH   1   3
BRANCH   2  13
ATOM     13  C   UNL     1      -3.556  12.578   0.160  1.00  0.00     0.027 C 
BRANCH  13  14
ATOM     14  C   UNL     1      -4.838  13.058   0.849  1.00  0.00     0.004 C 
BRANCH  14  15
ATOM     15  C   UNL     1      -5.331  14.377   0.235  1.00  0.00     0.000 C 
BRANCH  15  16
ATOM     16  C   UNL     1      -6.537  14.174  -0.696  1.00  0.00     0.000 C 
BRANCH  16  17
ATOM     17  C   UNL     1      -7.415  12.982  -0.274  1.00  0.00    -0.000 C 
BRANCH  17  18
ATOM     18  C   UNL     1      -7.800  12.091  -1.473  1.00  0.00    -0.000 C 
BRANCH  18  19
ATOM     19  C   UNL     1      -7.491  10.600  -1.256  1.00  0.00    -0.003 C 
ATOM     20  C   UNL     1      -7.237  10.247   0.208  1.00  0.00     0.004 C 
ENDBRANCH  18  19
ENDBRANCH  17  18
ENDBRANCH  16  17
ENDBRANCH  15  16
ENDBRANCH  14  15
ENDBRANCH  13  14
ENDBRANCH   2  13
TORSDOF 15
ENDMDL
MODEL 4
REMARK VINA RESULT:    -4.530      1.543      4.416
REMARK INTER + INTRA:         -11.159
REMARK INTER:                  -8.641
REMARK INTRA:                  -2.518
REMARK UNBOUND:                -2.657
REMARK SMILES CCCCCCCCC=CCCCCCCCC(=O)[O-]
REMARK SMILES IDX 10 1 9 2 11 3 12 4 13 5 14 6 15 7 16 8 17 9 18 10 19 11
REMARK SMILES IDX 20 12 8 13 7 14 6 15 5 16 4 17 3 18 2 19 1 20
REMARK H PARENT
REMARK Flexibility Score: inf
ROOT
ATOM      1  C   UNL     1      -3.532  13.116  -2.638  1.00  0.00    -0.031 C 
ATOM      2  C   UNL     1      -3.323  13.441  -1.348  1.00  0.00    -0.031 C 
ENDROOT
BRANCH   1   3
ATOM      3  C   UNL     1      -4.647  13.666  -3.490  1.00  0.00     0.027 C 
BRANCH   3   4
ATOM      4  C   UNL     1      -5.496  12.529  -4.071  1.00  0.00     0.004 C 
BRANCH   4   5
ATOM      5  C   UNL     1      -5.917  12.841  -5.514  1.00  0.00     0.000 C 
BRANCH   5   6
ATOM      6  C   UNL     1      -6.767  11.723  -6.141  1.00  0.00     0.000 C 
BRANCH   6   7
ATOM      7  C   UNL     1      -7.487  10.864  -5.091  1.00  0.00     0.000 C 
BRANCH   7   8
ATOM      8  C   UNL     1      -7.319   9.370  -5.397  1.00  0.00     0.006 C 
BRANCH   8   9
ATOM      9  C   UNL     1      -6.009   8.831  -4.814  1.00  0.00     0.053 C 
BRANCH   9  10
ATOM     10  C   UNL     1      -6.109   7.359  -4.573  1.00  0.00     0.041 C 
ATOM     11  O   UNL     1      -5.775   6.875  -3.459  1.00  0.00    -0.550 OA
ATOM     12  O   UNL     1      -6.524   6.513  -5.594  1.00  0.00    -0.550 OA
ENDBRANCH   9  10
ENDBRANCH   8   9
ENDBRANCH   7   8
ENDBRANCH   6   7
ENDBRANCH   5   6
ENDBRANCH   4   5
ENDBRANCH   3   4
ENDBRANCH   1   3
BRANCH   2  13
ATOM     13  C   UNL     1      -4.226  14.330  -0.532  1.00  0.00     0.027 C 
BRANCH  13  14
ATOM     14  C   UNL     1      -4.684  13.614   0.743  1.00  0.00     0.004 C 
BRANCH  14  15
ATOM     15  C   UNL     1      -4.043  12.222   0.853  1.00  0.00     0.000 C 
BRANCH  15  16
ATOM     16  C   UNL     1      -5.089  11.097   0.894  1.00  0.00     0.000 C 
BRANCH  16  17
ATOM     17  C   UNL     1      -6.117  11.205  -0.247  1.00  0.00    -0.000 C 
BRANCH  17  18
ATOM     18  C   UNL     1      -5.887  10.139  -1.338  1.00  0.00    -0.000 C 
BRANCH  18  19
ATOM     19  C   UNL     1      -4.581   9.346  -1.158  1.00  0.00    -0.003 C 
ATOM     20  C   UNL     1      -3.506   9.721  -2.175  1.00  0.00     0.004 C 
ENDBRANCH  18  19
ENDBRANCH  17  18
ENDBRANCH  16  17
ENDBRANCH  15  16
ENDBRANCH  14  15
ENDBRANCH  13  14
ENDBRANCH   2  13
TORSDOF 15
ENDMDL
MODEL 5
REMARK VINA RESULT:    -4.483      1.967      2.969
REMARK INTER + INTRA:         -11.072
REMARK INTER:                  -7.861
REMARK INTRA:                  -3.211
REMARK UNBOUND:                -2.657
REMARK SMILES CCCCCCCCC=CCCCCCCCC(=O)[O-]
REMARK SMILES IDX 10 1 9 2 11 3 12 4 13 5 14 6 15 7 16 8 17 9 18 10 19 11
REMARK SMILES IDX 20 12 8 13 7 14 6 15 5 16 4 17 3 18 2 19 1 20
REMARK H PARENT
REMARK Flexibility Score: inf
ROOT
ATOM      1  C   UNL     1      -3.548  10.637  -2.086  1.00  0.00    -0.031 C 
ATOM      2  C   UNL     1      -3.729  11.960  -2.262  1.00  0.00    -0.031 C 
ENDROOT
BRANCH   1   3
ATOM      3  C   UNL     1      -4.555   9.578  -2.453  1.00  0.00     0.027 C 
BRANCH   3   4
ATOM      4  C   UNL     1      -4.793   8.625  -1.277  1.00  0.00     0.004 C 
BRANCH   4   5
ATOM      5  C   UNL     1      -6.236   8.735  -0.763  1.00  0.00     0.000 C 
BRANCH   5   6
ATOM      6  C   UNL     1      -7.068   9.768  -1.542  1.00  0.00     0.000 C 
BRANCH   6   7
ATOM      7  C   UNL     1      -7.564  10.921  -0.657  1.00  0.00     0.000 C 
BRANCH   7   8
ATOM      8  C   UNL     1      -6.886  10.887   0.718  1.00  0.00     0.006 C 
BRANCH   8   9
ATOM      9  C   UNL     1      -5.862  12.016   0.857  1.00  0.00     0.053 C 
BRANCH   9  10
ATOM     10  C   UNL     1      -4.558  11.483   1.362  1.00  0.00     0.041 C 
ATOM     11  O   UNL     1      -3.504  12.160   1.233  1.00  0.00    -0.550 OA
ATOM     12  O   UNL     1      -4.498  10.218   1.931  1.00  0.00    -0.550 OA
ENDBRANCH   9  10
ENDBRANCH   8   9
ENDBRANCH   7   8
ENDBRANCH   6   7
ENDBRANCH   5   6
ENDBRANCH   4   5
ENDBRANCH   3   4
ENDBRANCH   1   3
BRANCH   2  13
ATOM     13  C   UNL     1      -5.003  12.590  -2.764  1.00  0.00     0.027 C 
BRANCH  13  14
ATOM     14  C   UNL     1      -4.764  13.314  -4.093  1.00  0.00     0.004 C 
BRANCH  14  15
ATOM     15  C   UNL     1      -5.699  12.778  -5.187  1.00  0.00     0.000 C 
BRANCH  15  16
ATOM     16  C   UNL     1      -6.599  11.639  -4.682  1.00  0.00     0.000 C 
BRANCH  16  17
ATOM     17  C   UNL     1      -6.363  10.320  -5.441  1.00  0.00    -0.000 C 
BRANCH  17  18
ATOM     18  C   UNL     1      -7.632   9.444  -5.490  1.00  0.00    -0.000 C 
BRANCH  18  19
ATOM     19  C   UNL     1      -7.468   8.084  -4.791  1.00  0.00    -0.003 C 
ATOM     20  C   UNL     1      -6.105   7.442  -5.041  1.00  0.00     0.004 C 
ENDBRANCH  18  19
ENDBRANCH  17  18
ENDBRANCH  16  17
ENDBRANCH  15  16
ENDBRANCH  14  15
ENDBRANCH  13  14
ENDBRANCH   2  13
TORSDOF 15
ENDMDL
MODEL 6
REMARK VINA RESULT:    -4.447      1.060      4.418
REMARK INTER + INTRA:         -11.004
REMARK INTER:                  -8.281
REMARK INTRA:                  -2.722
REMARK UNBOUND:                -2.657
REMARK SMILES CCCCCCCCC=CCCCCCCCC(=O)[O-]
REMARK SMILES IDX 10 1 9 2 11 3 12 4 13 5 14 6 15 7 16 8 17 9 18 10 19 11
REMARK SMILES IDX 20 12 8 13 7 14 6 15 5 16 4 17 3 18 2 19 1 20
REMARK H PARENT
REMARK Flexibility Score: inf
ROOT
ATOM      1  C   UNL     1      -4.491  13.119  -3.305  1.00  0.00    -0.031 C 
ATOM      2  C   UNL     1      -3.526  12.644  -2.495  1.00  0.00    -0.031 C 
ENDROOT
BRANCH   1   3
ATOM      3  C   UNL     1      -5.800  12.423  -3.576  1.00  0.00     0.027 C 
BRANCH   3   4
ATOM      4  C   UNL     1      -5.877  11.963  -5.036  1.00  0.00     0.004 C 
BRANCH   4   5
ATOM      5  C   UNL     1      -7.060  11.008  -5.250  1.00  0.00     0.000 C 
BRANCH   5   6
ATOM      6  C   UNL     1      -6.652   9.527  -5.174  1.00  0.00     0.000 C 
BRANCH   6   7
ATOM      7  C   UNL     1      -7.041   8.871  -3.840  1.00  0.00     0.000 C 
BRANCH   7   8
ATOM      8  C   UNL     1      -5.794   8.500  -3.028  1.00  0.00     0.006 C 
BRANCH   8   9
ATOM      9  C   UNL     1      -6.113   8.421  -1.532  1.00  0.00     0.053 C 
BRANCH   9  10
ATOM     10  C   UNL     1      -5.443   7.235  -0.914  1.00  0.00     0.041 C 
ATOM     11  O   UNL     1      -5.053   6.280  -1.637  1.00  0.00    -0.550 OA
ATOM     12  O   UNL     1      -5.294   7.161   0.464  1.00  0.00    -0.550 OA
ENDBRANCH   9  10
ENDBRANCH   8   9
ENDBRANCH   7   8
ENDBRANCH   6   7
ENDBRANCH   5   6
ENDBRANCH   4   5
ENDBRANCH   3   4
ENDBRANCH   1   3
BRANCH   2  13
ATOM     13  C   UNL     1      -3.564  11.300  -1.813  1.00  0.00     0.027 C 
BRANCH  13  14
ATOM     14  C   UNL     1      -4.100  11.433  -0.383  1.00  0.00     0.004 C 
BRANCH  14  15
ATOM     15  C   UNL     1      -3.678  12.771   0.240  1.00  0.00     0.000 C 
BRANCH  15  16
ATOM     16  C   UNL     1      -4.858  13.515   0.887  1.00  0.00     0.000 C 
BRANCH  16  17
ATOM     17  C   UNL     1      -5.509  14.531  -0.068  1.00  0.00    -0.000 C 
BRANCH  17  18
ATOM     18  C   UNL     1      -6.996  14.213  -0.328  1.00  0.00    -0.000 C 
BRANCH  18  19
ATOM     19  C   UNL     1      -7.460  12.887   0.299  1.00  0.00    -0.003 C 
ATOM     20  C   UNL     1      -7.793  11.817  -0.738  1.00  0.00     0.004 C 
ENDBRANCH  18  19
ENDBRANCH  17  18
ENDBRANCH  16  17
ENDBRANCH  15  16
ENDBRANCH  14  15
ENDBRANCH  13  14
ENDBRANCH   2  13
TORSDOF 15
ENDMDL
MODEL 7
REMARK VINA RESULT:    -4.439      1.736      4.196
REMARK INTER + INTRA:         -10.988
REMARK INTER:                  -8.171
REMARK INTRA:                  -2.817
REMARK UNBOUND:                -2.657
REMARK SMILES CCCCCCCCC=CCCCCCCCC(=O)[O-]
REMARK SMILES IDX 10 1 9 2 11 3 12 4 13 5 14 6 15 7 16 8 17 9 18 10 19 11
REMARK SMILES IDX 20 12 8 13 7 14 6 15 5 16 4 17 3 18 2 19 1 20
REMARK H PARENT
REMARK Flexibility Score: inf
ROOT
ATOM      1  C   UNL     1      -3.475  13.264  -0.809  1.00  0.00    -0.031 C 
ATOM      2  C   UNL     1      -4.426  13.967  -0.166  1.00  0.00    -0.031 C 
ENDROOT
BRANCH   1   3
ATOM      3  C   UNL     1      -3.665  12.584  -2.140  1.00  0.00     0.027 C 
BRANCH   3   4
ATOM      4  C   UNL     1      -3.604  13.603  -3.283  1.00  0.00     0.004 C 
BRANCH   4   5
ATOM      5  C   UNL     1      -4.773  13.406  -4.259  1.00  0.00     0.000 C 
BRANCH   5   6
ATOM      6  C   UNL     1      -5.484  12.055  -4.070  1.00  0.00     0.000 C 
BRANCH   6   7
ATOM      7  C   UNL     1      -6.798  11.959  -4.861  1.00  0.00     0.000 C 
BRANCH   7   8
ATOM      8  C   UNL     1      -6.910  10.606  -5.573  1.00  0.00     0.006 C 
BRANCH   8   9
ATOM      9  C   UNL     1      -5.960   9.576  -4.955  1.00  0.00     0.053 C 
BRANCH   9  10
ATOM     10  C   UNL     1      -6.631   8.244  -4.842  1.00  0.00     0.041 C 
ATOM     11  O   UNL     1      -7.860   8.174  -4.576  1.00  0.00    -0.550 OA
ATOM     12  O   UNL     1      -5.890   7.078  -4.983  1.00  0.00    -0.550 OA
ENDBRANCH   9  10
ENDBRANCH   8   9
ENDBRANCH   7   8
ENDBRANCH   6   7
ENDBRANCH   5   6
ENDBRANCH   4   5
ENDBRANCH   3   4
ENDBRANCH   1   3
BRANCH   2  13
ATOM     13  C   UNL     1      -5.854  14.100  -0.631  1.00  0.00     0.027 C 
BRANCH  13  14
ATOM     14  C   UNL     1      -6.728  12.998  -0.023  1.00  0.00     0.004 C 
BRANCH  14  15
ATOM     15  C   UNL     1      -7.323  12.101  -1.118  1.00  0.00     0.000 C 
BRANCH  15  16
ATOM     16  C   UNL     1      -6.888  10.633  -0.975  1.00  0.00     0.000 C 
BRANCH  16  17
ATOM     17  C   UNL     1      -5.824  10.438   0.120  1.00  0.00    -0.000 C 
BRANCH  17  18
ATOM     18  C   UNL     1      -4.703   9.476  -0.325  1.00  0.00    -0.000 C 
BRANCH  18  19
ATOM     19  C   UNL     1      -5.091   8.591  -1.521  1.00  0.00    -0.003 C 
ATOM     20  C   UNL     1      -5.346   7.136  -1.134  1.00  0.00     0.004 C 
ENDBRANCH  18  19
ENDBRANCH  17  18
ENDBRANCH  16  17
ENDBRANCH  15  16
ENDBRANCH  14  15
ENDBRANCH  13  14
ENDBRANCH   2  13
TORSDOF 15
ENDMDL
MODEL 8
REMARK VINA RESULT:    -4.391      1.963      2.755
REMARK INTER + INTRA:         -10.898
REMARK INTER:                  -8.405
REMARK INTRA:                  -2.493
REMARK UNBOUND:                -2.657
REMARK SMILES CCCCCCCCC=CCCCCCCCC(=O)[O-]
REMARK SMILES IDX 10 1 9 2 11 3 12 4 13 5 14 6 15 7 16 8 17 9 18 10 19 11
REMARK SMILES IDX 20 12 8 13 7 14 6 15 5 16 4 17 3 18 2 19 1 20
REMARK H PARENT
REMARK Flexibility Score: inf
ROOT
ATOM      1  C   UNL     1      -3.821  11.392  -0.939  1.00  0.00    -0.031 C 
ATOM      2  C   UNL     1      -3.810  12.674  -1.352  1.00  0.00    -0.031 C 
ENDROOT
BRANCH   1   3
ATOM      3  C   UNL     1      -3.241  10.237  -1.714  1.00  0.00     0.027 C 
BRANCH   3   4
ATOM      4  C   UNL     1      -4.355   9.398  -2.348  1.00  0.00     0.004 C 
BRANCH   4   5
ATOM      5  C   UNL     1      -5.701   9.658  -1.656  1.00  0.00     0.000 C 
BRANCH   5   6
ATOM      6  C   UNL     1      -6.404   8.363  -1.215  1.00  0.00     0.000 C 
BRANCH   6   7
ATOM      7  C   UNL     1      -5.454   7.383  -0.509  1.00  0.00     0.000 C 
BRANCH   7   8
ATOM      8  C   UNL     1      -5.567   7.514   1.015  1.00  0.00     0.006 C 
BRANCH   8   9
ATOM      9  C   UNL     1      -4.502   8.466   1.568  1.00  0.00     0.053 C 
BRANCH   9  10
ATOM     10  C   UNL     1      -5.136   9.713   2.097  1.00  0.00     0.041 C 
ATOM     11  O   UNL     1      -6.379   9.886   1.992  1.00  0.00    -0.550 OA
ATOM     12  O   UNL     1      -4.348  10.707   2.662  1.00  0.00    -0.550 OA
ENDBRANCH   9  10
ENDBRANCH   8   9
ENDBRANCH   7   8
ENDBRANCH   6   7
ENDBRANCH   5   6
ENDBRANCH   4   5
ENDBRANCH   3   4
ENDBRANCH   1   3
BRANCH   2  13
ATOM     13  C   UNL     1      -3.304  13.136  -2.695  1.00  0.00     0.027 C 
BRANCH  13  14
ATOM     14  C   UNL     1      -4.455  13.666  -3.556  1.00  0.00     0.004 C 
BRANCH  14  15
ATOM     15  C   UNL     1      -5.381  12.523  -4.001  1.00  0.00     0.000 C 
BRANCH  15  16
ATOM     16  C   UNL     1      -5.942  12.740  -5.415  1.00  0.00     0.000 C 
BRANCH  16  17
ATOM     17  C   UNL     1      -6.754  11.533  -5.918  1.00  0.00    -0.000 C 
BRANCH  17  18
ATOM     18  C   UNL     1      -6.234  10.201  -5.339  1.00  0.00    -0.000 C 
BRANCH  18  19
ATOM     19  C   UNL     1      -7.298   9.091  -5.298  1.00  0.00    -0.003 C 
ATOM     20  C   UNL     1      -6.729   7.730  -4.904  1.00  0.00     0.004 C 
ENDBRANCH  18  19
ENDBRANCH  17  18
ENDBRANCH  16  17
ENDBRANCH  15  16
ENDBRANCH  14  15
ENDBRANCH  13  14
ENDBRANCH   2  13
TORSDOF 15
ENDMDL
MODEL 9
REMARK VINA RESULT:    -4.380      2.974      4.641
REMARK INTER + INTRA:         -10.877
REMARK INTER:                  -7.971
REMARK INTRA:                  -2.906
REMARK UNBOUND:                -2.657
REMARK SMILES CCCCCCCCC=CCCCCCCCC(=O)[O-]
REMARK SMILES IDX 10 1 9 2 11 3 12 4 13 5 14 6 15 7 16 8 17 9 18 10 19 11
REMARK SMILES IDX 20 12 8 13 7 14 6 15 5 16 4 17 3 18 2 19 1 20
REMARK H PARENT
REMARK Flexibility Score: inf
ROOT
ATOM      1  C   UNL     1      -5.499  12.389  -3.026  1.00  0.00    -0.031 C 
ATOM      2  C   UNL     1      -6.390  12.095  -3.991  1.00  0.00    -0.031 C 
ENDROOT
BRANCH   1   3
ATOM      3  C   UNL     1      -4.211  13.139  -3.248  1.00  0.00     0.027 C 
BRANCH   3   4
ATOM      4  C   UNL     1      -3.160  12.729  -2.212  1.00  0.00     0.004 C 
BRANCH   4   5
ATOM      5  C   UNL     1      -3.509  11.374  -1.580  1.00  0.00     0.000 C 
BRANCH   5   6
ATOM      6  C   UNL     1      -3.619  11.442  -0.048  1.00  0.00     0.000 C 
BRANCH   6   7
ATOM      7  C   UNL     1      -4.991  10.986   0.471  1.00  0.00     0.000 C 
BRANCH   7   8
ATOM      8  C   UNL     1      -5.919  12.186   0.695  1.00  0.00     0.006 C 
BRANCH   8   9
ATOM      9  C   UNL     1      -5.116  13.469   0.926  1.00  0.00     0.053 C 
BRANCH   9  10
ATOM     10  C   UNL     1      -5.588  14.556   0.013  1.00  0.00     0.041 C 
ATOM     11  O   UNL     1      -6.803  14.630  -0.310  1.00  0.00    -0.550 OA
ATOM     12  O   UNL     1      -4.678  15.458  -0.522  1.00  0.00    -0.550 OA
ENDBRANCH   9  10
ENDBRANCH   8   9
ENDBRANCH   7   8
ENDBRANCH   6   7
ENDBRANCH   5   6
ENDBRANCH   4   5
ENDBRANCH   3   4
ENDBRANCH   1   3
BRANCH   2  13
ATOM     13  C   UNL     1      -6.191  12.385  -5.457  1.00  0.00     0.027 C 
BRANCH  13  14
ATOM     14  C   UNL     1      -6.937  11.361  -6.319  1.00  0.00     0.004 C 
BRANCH  14  15
ATOM     15  C   UNL     1      -7.844  10.472  -5.456  1.00  0.00     0.000 C 
BRANCH  15  16
ATOM     16  C   UNL     1      -7.749   8.987  -5.844  1.00  0.00     0.000 C 
BRANCH  16  17
ATOM     17  C   UNL     1      -7.286   8.101  -4.673  1.00  0.00    -0.000 C 
BRANCH  17  18
ATOM     18  C   UNL     1      -5.866   8.468  -4.195  1.00  0.00    -0.000 C 
BRANCH  18  19
ATOM     19  C   UNL     1      -5.725   8.513  -2.664  1.00  0.00    -0.003 C 
ATOM     20  C   UNL     1      -6.977   9.033  -1.962  1.00  0.00     0.004 C 
ENDBRANCH  18  19
ENDBRANCH  17  18
ENDBRANCH  16  17
ENDBRANCH  15  16
ENDBRANCH  14  15
ENDBRANCH  13  14
ENDBRANCH   2  13
TORSDOF 15
ENDMDL
