MODEL 1
REMARK VINA RESULT:    -4.198      0.000      0.000
REMARK INTER + INTRA:          -5.221
REMARK INTER:                  -5.180
REMARK INTRA:                  -0.041
REMARK UNBOUND:                -0.041
REMARK SMILES CCCCCC(=O)[O-]
REMARK SMILES IDX 4 1 5 2 6 3 7 4 8 5 3 6 2 7 1 8
REMARK H PARENT
REMARK Flexibility Score: inf
ROOT
ATOM      1  C   UNL     1       7.661  -9.503  21.517  1.00  0.00     0.006 C 
ENDROOT
BRANCH   1   2
ATOM      2  C   UNL     1       9.103  -9.797  21.953  1.00  0.00     0.053 C 
BRANCH   2   3
ATOM      3  C   UNL     1       9.643  -8.720  22.843  1.00  0.00     0.041 C 
ATOM      4  O   UNL     1      10.816  -8.293  22.681  1.00  0.00    -0.550 OA
ATOM      5  O   UNL     1       8.839  -8.166  23.831  1.00  0.00    -0.550 OA
ENDBRANCH   2   3
ENDBRANCH   1   2
BRANCH   1   6
ATOM      6  C   UNL     1       7.014 -10.699  20.804  1.00  0.00     0.000 C 
BRANCH   6   7
ATOM      7  C   UNL     1       6.679 -10.356  19.349  1.00  0.00    -0.003 C 
ATOM      8  C   UNL     1       7.912  -9.854  18.601  1.00  0.00     0.004 C 
ENDBRANCH   6   7
ENDBRANCH   1   6
TORSDOF 4
ENDMDL
MODEL 2
REMARK VINA RESULT:    -4.045     16.545     17.082
REMARK INTER + INTRA:          -5.032
REMARK INTER:                  -4.988
REMARK INTRA:                  -0.044
REMARK UNBOUND:                -0.041
REMARK SMILES CCCCCC(=O)[O-]
REMARK SMILES IDX 4 1 5 2 6 3 7 4 8 5 3 6 2 7 1 8
REMARK H PARENT
REMARK Flexibility Score: inf
ROOT
ATOM      1  C   UNL     1      22.015 -14.991  12.559  1.00  0.00     0.006 C 
ENDROOT
BRANCH   1   2
ATOM      2  C   UNL     1      22.383 -14.494  13.964  1.00  0.00     0.053 C 
BRANCH   2   3
ATOM      3  C   UNL     1      23.809 -14.801  14.305  1.00  0.00     0.041 C 
ATOM      4  O   UNL     1      24.745 -14.290  13.636  1.00  0.00    -0.550 OA
ATOM      5  O   UNL     1      24.103 -15.626  15.384  1.00  0.00    -0.550 OA
ENDBRANCH   2   3
ENDBRANCH   1   2
BRANCH   1   6
ATOM      6  C   UNL     1      20.597 -14.571  12.147  1.00  0.00     0.000 C 
BRANCH   6   7
ATOM      7  C   UNL     1      20.323 -14.927  10.682  1.00  0.00    -0.003 C 
ATOM      8  C   UNL     1      19.174 -14.096  10.117  1.00  0.00     0.004 C 
ENDBRANCH   6   7
ENDBRANCH   1   6
TORSDOF 4
ENDMDL
MODEL 3
REMARK VINA RESULT:    -4.037     12.994     13.826
REMARK INTER + INTRA:          -5.023
REMARK INTER:                  -4.927
REMARK INTRA:                  -0.095
REMARK UNBOUND:                -0.041
REMARK SMILES CCCCCC(=O)[O-]
REMARK SMILES IDX 4 1 5 2 6 3 7 4 8 5 3 6 2 7 1 8
REMARK H PARENT
REMARK Flexibility Score: inf
ROOT
ATOM      1  C   UNL     1      16.308  -5.604  11.232  1.00  0.00     0.006 C 
ENDROOT
BRANCH   1   2
ATOM      2  C   UNL     1      17.766  -5.909  11.604  1.00  0.00     0.053 C 
BRANCH   2   3
ATOM      3  C   UNL     1      18.361  -4.826  12.451  1.00  0.00     0.041 C 
ATOM      4  O   UNL     1      19.603  -4.787  12.649  1.00  0.00    -0.550 OA
ATOM      5  O   UNL     1      17.545  -3.841  12.994  1.00  0.00    -0.550 OA
ENDBRANCH   2   3
ENDBRANCH   1   2
BRANCH   1   6
ATOM      6  C   UNL     1      16.085  -5.598   9.713  1.00  0.00     0.000 C 
BRANCH   6   7
ATOM      7  C   UNL     1      14.593  -5.693   9.376  1.00  0.00    -0.003 C 
ATOM      8  C   UNL     1      13.731  -5.248  10.554  1.00  0.00     0.004 C 
ENDBRANCH   6   7
ENDBRANCH   1   6
TORSDOF 4
ENDMDL
MODEL 4
REMARK VINA RESULT:    -4.029     16.611     17.578
REMARK INTER + INTRA:          -5.012
REMARK INTER:                  -4.953
REMARK INTRA:                  -0.059
REMARK UNBOUND:                -0.041
REMARK SMILES CCCCCC(=O)[O-]
REMARK SMILES IDX 4 1 5 2 6 3 7 4 8 5 3 6 2 7 1 8
REMARK H PARENT
REMARK Flexibility Score: inf
ROOT
ATOM      1  C   UNL     1      21.914 -15.023  11.737  1.00  0.00     0.006 C 
ENDROOT
BRANCH   1   2
ATOM      2  C   UNL     1      20.394 -15.000  11.524  1.00  0.00     0.053 C 
BRANCH   2   3
ATOM      3  C   UNL     1      20.038 -14.631  10.116  1.00  0.00     0.041 C 
ATOM      4  O   UNL     1      19.037 -13.901   9.887  1.00  0.00    -0.550 OA
ATOM      5  O   UNL     1      20.830 -15.066   9.061  1.00  0.00    -0.550 OA
ENDBRANCH   2   3
ENDBRANCH   1   2
BRANCH   1   6
ATOM      6  C   UNL     1      22.297 -15.533  13.134  1.00  0.00     0.000 C 
BRANCH   6   7
ATOM      7  C   UNL     1      22.478 -14.368  14.113  1.00  0.00    -0.003 C 
ATOM      8  C   UNL     1      23.955 -14.057  14.336  1.00  0.00     0.004 C 
ENDBRANCH   6   7
ENDBRANCH   1   6
TORSDOF 4
ENDMDL
MODEL 5
REMARK VINA RESULT:    -3.878     10.002     10.824
REMARK INTER + INTRA:          -4.826
REMARK INTER:                  -4.758
REMARK INTRA:                  -0.069
REMARK UNBOUND:                -0.041
REMARK SMILES CCCCCC(=O)[O-]
REMARK SMILES IDX 4 1 5 2 6 3 7 4 8 5 3 6 2 7 1 8
REMARK H PARENT
REMARK Flexibility Score: inf
ROOT
ATOM      1  C   UNL     1      15.229  -2.943  17.244  1.00  0.00     0.006 C 
ENDROOT
BRANCH   1   2
ATOM      2  C   UNL     1      16.520  -3.631  16.781  1.00  0.00     0.053 C 
BRANCH   2   3
ATOM      3  C   UNL     1      17.713  -3.142  17.544  1.00  0.00     0.041 C 
ATOM      4  O   UNL     1      18.825  -3.015  16.968  1.00  0.00    -0.550 OA
ATOM      5  O   UNL     1      17.587  -2.797  18.884  1.00  0.00    -0.550 OA
ENDBRANCH   2   3
ENDBRANCH   1   2
BRANCH   1   6
ATOM      6  C   UNL     1      13.974  -3.609  16.661  1.00  0.00     0.000 C 
BRANCH   6   7
ATOM      7  C   UNL     1      13.911  -3.428  15.141  1.00  0.00    -0.003 C 
ATOM      8  C   UNL     1      12.574  -2.832  14.710  1.00  0.00     0.004 C 
ENDBRANCH   6   7
ENDBRANCH   1   6
TORSDOF 4
ENDMDL
MODEL 6
REMARK VINA RESULT:    -3.877     10.084     11.237
REMARK INTER + INTRA:          -4.825
REMARK INTER:                  -4.739
REMARK INTRA:                  -0.086
REMARK UNBOUND:                -0.041
REMARK SMILES CCCCCC(=O)[O-]
REMARK SMILES IDX 4 1 5 2 6 3 7 4 8 5 3 6 2 7 1 8
REMARK H PARENT
REMARK Flexibility Score: inf
ROOT
ATOM      1  C   UNL     1      15.462  -3.377  16.610  1.00  0.00     0.006 C 
ENDROOT
BRANCH   1   2
ATOM      2  C   UNL     1      13.928  -3.414  16.591  1.00  0.00     0.053 C 
BRANCH   2   3
ATOM      3  C   UNL     1      13.390  -3.385  15.194  1.00  0.00     0.041 C 
ATOM      4  O   UNL     1      14.114  -3.742  14.228  1.00  0.00    -0.550 OA
ATOM      5  O   UNL     1      12.077  -2.994  14.963  1.00  0.00    -0.550 OA
ENDBRANCH   2   3
ENDBRANCH   1   2
BRANCH   1   6
ATOM      6  C   UNL     1      16.011  -2.611  17.823  1.00  0.00     0.000 C 
BRANCH   6   7
ATOM      7  C   UNL     1      17.476  -2.973  18.085  1.00  0.00    -0.003 C 
ATOM      8  C   UNL     1      18.130  -3.567  16.840  1.00  0.00     0.004 C 
ENDBRANCH   6   7
ENDBRANCH   1   6
TORSDOF 4
ENDMDL
MODEL 7
REMARK VINA RESULT:    -3.859     10.420     11.506
REMARK INTER + INTRA:          -4.803
REMARK INTER:                  -4.644
REMARK INTRA:                  -0.159
REMARK UNBOUND:                -0.041
REMARK SMILES CCCCCC(=O)[O-]
REMARK SMILES IDX 4 1 5 2 6 3 7 4 8 5 3 6 2 7 1 8
REMARK H PARENT
REMARK Flexibility Score: inf
ROOT
ATOM      1  C   UNL     1      14.530  -3.345  16.848  1.00  0.00     0.006 C 
ENDROOT
BRANCH   1   2
ATOM      2  C   UNL     1      15.199  -4.408  15.966  1.00  0.00     0.053 C 
BRANCH   2   3
ATOM      3  C   UNL     1      15.035  -4.103  14.509  1.00  0.00     0.041 C 
ATOM      4  O   UNL     1      14.200  -4.743  13.817  1.00  0.00    -0.550 OA
ATOM      5  O   UNL     1      15.782  -3.090  13.922  1.00  0.00    -0.550 OA
ENDBRANCH   2   3
ENDBRANCH   1   2
BRANCH   1   6
ATOM      6  C   UNL     1      15.535  -2.633  17.764  1.00  0.00     0.000 C 
BRANCH   6   7
ATOM      7  C   UNL     1      16.974  -3.027  17.413  1.00  0.00    -0.003 C 
ATOM      8  C   UNL     1      17.858  -3.056  18.656  1.00  0.00     0.004 C 
ENDBRANCH   6   7
ENDBRANCH   1   6
TORSDOF 4
ENDMDL
MODEL 8
REMARK VINA RESULT:    -3.850     12.177     12.956
REMARK INTER + INTRA:          -4.792
REMARK INTER:                  -4.642
REMARK INTRA:                  -0.149
REMARK UNBOUND:                -0.041
REMARK SMILES CCCCCC(=O)[O-]
REMARK SMILES IDX 4 1 5 2 6 3 7 4 8 5 3 6 2 7 1 8
REMARK H PARENT
REMARK Flexibility Score: inf
ROOT
ATOM      1  C   UNL     1      17.092  -5.764  11.273  1.00  0.00     0.006 C 
ENDROOT
BRANCH   1   2
ATOM      2  C   UNL     1      16.189  -6.019  12.488  1.00  0.00     0.053 C 
BRANCH   2   3
ATOM      3  C   UNL     1      16.351  -4.957  13.532  1.00  0.00     0.041 C 
ATOM      4  O   UNL     1      15.640  -3.919  13.497  1.00  0.00    -0.550 OA
ATOM      5  O   UNL     1      17.267  -5.129  14.563  1.00  0.00    -0.550 OA
ENDBRANCH   2   3
ENDBRANCH   1   2
BRANCH   1   6
ATOM      6  C   UNL     1      16.290  -5.633   9.971  1.00  0.00     0.000 C 
BRANCH   6   7
ATOM      7  C   UNL     1      14.812  -5.351  10.260  1.00  0.00    -0.003 C 
ATOM      8  C   UNL     1      13.911  -5.983   9.204  1.00  0.00     0.004 C 
ENDBRANCH   6   7
ENDBRANCH   1   6
TORSDOF 4
ENDMDL
MODEL 9
REMARK VINA RESULT:    -3.839     13.019     14.116
REMARK INTER + INTRA:          -4.779
REMARK INTER:                  -4.713
REMARK INTRA:                  -0.065
REMARK UNBOUND:                -0.041
REMARK SMILES CCCCCC(=O)[O-]
REMARK SMILES IDX 4 1 5 2 6 3 7 4 8 5 3 6 2 7 1 8
REMARK H PARENT
REMARK Flexibility Score: inf
ROOT
ATOM      1  C   UNL     1      16.327  -5.600  10.461  1.00  0.00     0.006 C 
ENDROOT
BRANCH   1   2
ATOM      2  C   UNL     1      14.967  -5.626  11.172  1.00  0.00     0.053 C 
BRANCH   2   3
ATOM      3  C   UNL     1      13.844  -5.316  10.231  1.00  0.00     0.041 C 
ATOM      4  O   UNL     1      12.997  -4.431  10.524  1.00  0.00    -0.550 OA
ATOM      5  O   UNL     1      13.751  -5.982   9.015  1.00  0.00    -0.550 OA
ENDBRANCH   2   3
ENDBRANCH   1   2
BRANCH   1   6
ATOM      6  C   UNL     1      17.482  -5.974  11.401  1.00  0.00     0.000 C 
BRANCH   6   7
ATOM      7  C   UNL     1      17.685  -4.901  12.476  1.00  0.00    -0.003 C 
ATOM      8  C   UNL     1      19.156  -4.515  12.602  1.00  0.00     0.004 C 
ENDBRANCH   6   7
ENDBRANCH   1   6
TORSDOF 4
ENDMDL
