MODEL 1
REMARK VINA RESULT:    -3.879      0.000      0.000
REMARK INTER + INTRA:          -5.465
REMARK INTER:                  -5.013
REMARK INTRA:                  -0.452
REMARK UNBOUND:                -0.452
REMARK SMILES CCCCCCC(=O)[O-]
REMARK SMILES IDX 5 1 6 2 7 3 8 4 9 5 4 6 3 7 2 8 1 9
REMARK H PARENT
REMARK Flexibility Score: inf
ROOT
ATOM      1  C   UNL     1       0.994   8.101  -7.456  1.00  0.00     0.006 C 
ENDROOT
BRANCH   1   2
ATOM      2  C   UNL     1       1.648   8.280  -6.082  1.00  0.00     0.053 C 
BRANCH   2   3
ATOM      3  C   UNL     1       2.550   7.125  -5.778  1.00  0.00     0.041 C 
ATOM      4  O   UNL     1       3.434   6.778  -6.604  1.00  0.00    -0.550 OA
ATOM      5  O   UNL     1       2.382   6.402  -4.604  1.00  0.00    -0.550 OA
ENDBRANCH   2   3
ENDBRANCH   1   2
BRANCH   1   6
ATOM      6  C   UNL     1       0.041   6.899  -7.460  1.00  0.00     0.000 C 
BRANCH   6   7
ATOM      7  C   UNL     1       0.360   5.950  -8.623  1.00  0.00    -0.000 C 
BRANCH   7   8
ATOM      8  C   UNL     1       0.749   4.542  -8.147  1.00  0.00    -0.003 C 
ATOM      9  C   UNL     1       0.335   4.271  -6.701  1.00  0.00     0.004 C 
ENDBRANCH   7   8
ENDBRANCH   6   7
ENDBRANCH   1   6
TORSDOF 5
ENDMDL
MODEL 2
REMARK VINA RESULT:    -3.819     16.643     18.372
REMARK INTER + INTRA:          -5.387
REMARK INTER:                  -5.033
REMARK INTRA:                  -0.354
REMARK UNBOUND:                -0.452
REMARK SMILES CCCCCCC(=O)[O-]
REMARK SMILES IDX 5 1 6 2 7 3 8 4 9 5 4 6 3 7 2 8 1 9
REMARK H PARENT
REMARK Flexibility Score: inf
ROOT
ATOM      1  C   UNL     1      -3.922  -5.258   6.379  1.00  0.00     0.006 C 
ENDROOT
BRANCH   1   2
ATOM      2  C   UNL     1      -4.144  -4.347   5.168  1.00  0.00     0.053 C 
BRANCH   2   3
ATOM      3  C   UNL     1      -4.524  -2.969   5.613  1.00  0.00     0.041 C 
ATOM      4  O   UNL     1      -5.247  -2.810   6.632  1.00  0.00    -0.550 OA
ATOM      5  O   UNL     1      -4.122  -1.864   4.874  1.00  0.00    -0.550 OA
ENDBRANCH   2   3
ENDBRANCH   1   2
BRANCH   1   6
ATOM      6  C   UNL     1      -4.892  -6.446   6.359  1.00  0.00     0.000 C 
BRANCH   6   7
ATOM      7  C   UNL     1      -5.948  -6.275   5.258  1.00  0.00    -0.000 C 
BRANCH   7   8
ATOM      8  C   UNL     1      -7.383  -6.327   5.803  1.00  0.00    -0.003 C 
ATOM      9  C   UNL     1      -7.585  -5.435   7.026  1.00  0.00     0.004 C 
ENDBRANCH   7   8
ENDBRANCH   6   7
ENDBRANCH   1   6
TORSDOF 5
ENDMDL
MODEL 3
REMARK VINA RESULT:    -3.787     16.853     18.533
REMARK INTER + INTRA:          -5.346
REMARK INTER:                  -5.151
REMARK INTRA:                  -0.194
REMARK UNBOUND:                -0.452
REMARK SMILES CCCCCCC(=O)[O-]
REMARK SMILES IDX 5 1 6 2 7 3 8 4 9 5 4 6 3 7 2 8 1 9
REMARK H PARENT
REMARK Flexibility Score: inf
ROOT
ATOM      1  C   UNL     1      -4.444  -5.425   5.786  1.00  0.00     0.006 C 
ENDROOT
BRANCH   1   2
ATOM      2  C   UNL     1      -3.802  -4.169   5.188  1.00  0.00     0.053 C 
BRANCH   2   3
ATOM      3  C   UNL     1      -4.574  -2.949   5.581  1.00  0.00     0.041 C 
ATOM      4  O   UNL     1      -4.494  -1.900   4.890  1.00  0.00    -0.550 OA
ATOM      5  O   UNL     1      -5.344  -2.955   6.738  1.00  0.00    -0.550 OA
ENDBRANCH   2   3
ENDBRANCH   1   2
BRANCH   1   6
ATOM      6  C   UNL     1      -5.574  -5.945   4.890  1.00  0.00     0.000 C 
BRANCH   6   7
ATOM      7  C   UNL     1      -6.515  -6.871   5.673  1.00  0.00    -0.000 C 
BRANCH   7   8
ATOM      8  C   UNL     1      -5.760  -7.821   6.614  1.00  0.00    -0.003 C 
ATOM      9  C   UNL     1      -5.796  -9.274   6.142  1.00  0.00     0.004 C 
ENDBRANCH   7   8
ENDBRANCH   6   7
ENDBRANCH   1   6
TORSDOF 5
ENDMDL
MODEL 4
REMARK VINA RESULT:    -3.784      1.806      2.171
REMARK INTER + INTRA:          -5.342
REMARK INTER:                  -5.087
REMARK INTRA:                  -0.255
REMARK UNBOUND:                -0.452
REMARK SMILES CCCCCCC(=O)[O-]
REMARK SMILES IDX 5 1 6 2 7 3 8 4 9 5 4 6 3 7 2 8 1 9
REMARK H PARENT
REMARK Flexibility Score: inf
ROOT
ATOM      1  C   UNL     1       2.899   7.057  -6.772  1.00  0.00     0.006 C 
ENDROOT
BRANCH   1   2
ATOM      2  C   UNL     1       1.935   7.827  -5.864  1.00  0.00     0.053 C 
BRANCH   2   3
ATOM      3  C   UNL     1       2.665   8.402  -4.692  1.00  0.00     0.041 C 
ATOM      4  O   UNL     1       3.273   9.499  -4.801  1.00  0.00    -0.550 OA
ATOM      5  O   UNL     1       2.716   7.703  -3.493  1.00  0.00    -0.550 OA
ENDBRANCH   2   3
ENDBRANCH   1   2
BRANCH   1   6
ATOM      6  C   UNL     1       2.327   5.684  -7.144  1.00  0.00     0.000 C 
BRANCH   6   7
ATOM      7  C   UNL     1       1.468   5.119  -6.003  1.00  0.00    -0.000 C 
BRANCH   7   8
ATOM      8  C   UNL     1       0.362   4.180  -6.507  1.00  0.00    -0.003 C 
ATOM      9  C   UNL     1       0.278   4.128  -8.031  1.00  0.00     0.004 C 
ENDBRANCH   7   8
ENDBRANCH   6   7
ENDBRANCH   1   6
TORSDOF 5
ENDMDL
MODEL 5
REMARK VINA RESULT:    -3.773     17.629     19.195
REMARK INTER + INTRA:          -5.328
REMARK INTER:                  -4.977
REMARK INTRA:                  -0.350
REMARK UNBOUND:                -0.452
REMARK SMILES CCCCCCC(=O)[O-]
REMARK SMILES IDX 5 1 6 2 7 3 8 4 9 5 4 6 3 7 2 8 1 9
REMARK H PARENT
REMARK Flexibility Score: inf
ROOT
ATOM      1  C   UNL     1      -4.906  -6.578   6.154  1.00  0.00     0.006 C 
ENDROOT
BRANCH   1   2
ATOM      2  C   UNL     1      -6.025  -6.322   5.140  1.00  0.00     0.053 C 
BRANCH   2   3
ATOM      3  C   UNL     1      -7.364  -6.440   5.798  1.00  0.00     0.041 C 
ATOM      4  O   UNL     1      -7.902  -7.570   5.939  1.00  0.00    -0.550 OA
ATOM      5  O   UNL     1      -8.041  -5.299   6.209  1.00  0.00    -0.550 OA
ENDBRANCH   2   3
ENDBRANCH   1   2
BRANCH   1   6
ATOM      6  C   UNL     1      -4.032  -5.332   6.337  1.00  0.00     0.000 C 
BRANCH   6   7
ATOM      7  C   UNL     1      -4.166  -4.386   5.135  1.00  0.00    -0.000 C 
BRANCH   7   8
ATOM      8  C   UNL     1      -4.559  -2.960   5.546  1.00  0.00    -0.003 C 
ATOM      9  C   UNL     1      -5.495  -2.929   6.753  1.00  0.00     0.004 C 
ENDBRANCH   7   8
ENDBRANCH   6   7
ENDBRANCH   1   6
TORSDOF 5
ENDMDL
MODEL 6
REMARK VINA RESULT:    -3.748      1.942      3.682
REMARK INTER + INTRA:          -5.295
REMARK INTER:                  -4.967
REMARK INTRA:                  -0.328
REMARK UNBOUND:                -0.452
REMARK SMILES CCCCCCC(=O)[O-]
REMARK SMILES IDX 5 1 6 2 7 3 8 4 9 5 4 6 3 7 2 8 1 9
REMARK H PARENT
REMARK Flexibility Score: inf
ROOT
ATOM      1  C   UNL     1       0.034   6.981  -7.515  1.00  0.00     0.006 C 
ENDROOT
BRANCH   1   2
ATOM      2  C   UNL     1       0.540   5.617  -7.994  1.00  0.00     0.053 C 
BRANCH   2   3
ATOM      3  C   UNL     1       0.380   4.591  -6.916  1.00  0.00     0.041 C 
ATOM      4  O   UNL     1       0.827   4.813  -5.760  1.00  0.00    -0.550 OA
ATOM      5  O   UNL     1      -0.220   3.371  -7.200  1.00  0.00    -0.550 OA
ENDBRANCH   2   3
ENDBRANCH   1   2
BRANCH   1   6
ATOM      6  C   UNL     1       1.170   8.011  -7.487  1.00  0.00     0.000 C 
BRANCH   6   7
ATOM      7  C   UNL     1       1.421   8.513  -6.058  1.00  0.00    -0.000 C 
BRANCH   7   8
ATOM      8  C   UNL     1       2.678   7.897  -5.427  1.00  0.00    -0.003 C 
ATOM      9  C   UNL     1       2.465   7.473  -3.975  1.00  0.00     0.004 C 
ENDBRANCH   7   8
ENDBRANCH   6   7
ENDBRANCH   1   6
TORSDOF 5
ENDMDL
MODEL 7
REMARK VINA RESULT:    -3.728      1.879      2.492
REMARK INTER + INTRA:          -5.269
REMARK INTER:                  -5.002
REMARK INTRA:                  -0.267
REMARK UNBOUND:                -0.452
REMARK SMILES CCCCCCC(=O)[O-]
REMARK SMILES IDX 5 1 6 2 7 3 8 4 9 5 4 6 3 7 2 8 1 9
REMARK H PARENT
REMARK Flexibility Score: inf
ROOT
ATOM      1  C   UNL     1       2.252   6.410  -6.465  1.00  0.00     0.006 C 
ENDROOT
BRANCH   1   2
ATOM      2  C   UNL     1       2.443   7.607  -5.528  1.00  0.00     0.053 C 
BRANCH   2   3
ATOM      3  C   UNL     1       1.470   8.694  -5.863  1.00  0.00     0.041 C 
ATOM      4  O   UNL     1       0.637   8.532  -6.793  1.00  0.00    -0.550 OA
ATOM      5  O   UNL     1       1.515   9.903  -5.181  1.00  0.00    -0.550 OA
ENDBRANCH   2   3
ENDBRANCH   1   2
BRANCH   1   6
ATOM      6  C   UNL     1       1.530   5.261  -5.749  1.00  0.00     0.000 C 
BRANCH   6   7
ATOM      7  C   UNL     1       0.656   4.467  -6.729  1.00  0.00    -0.000 C 
BRANCH   7   8
ATOM      8  C   UNL     1       0.313   5.265  -7.996  1.00  0.00    -0.003 C 
ATOM      9  C   UNL     1       0.536   4.464  -9.278  1.00  0.00     0.004 C 
ENDBRANCH   7   8
ENDBRANCH   6   7
ENDBRANCH   1   6
TORSDOF 5
ENDMDL
MODEL 8
REMARK VINA RESULT:    -3.591      2.397      4.299
REMARK INTER + INTRA:          -5.093
REMARK INTER:                  -4.901
REMARK INTRA:                  -0.192
REMARK UNBOUND:                -0.452
REMARK SMILES CCCCCCC(=O)[O-]
REMARK SMILES IDX 5 1 6 2 7 3 8 4 9 5 4 6 3 7 2 8 1 9
REMARK H PARENT
REMARK Flexibility Score: inf
ROOT
ATOM      1  C   UNL     1       2.194   5.608  -6.295  1.00  0.00     0.006 C 
ENDROOT
BRANCH   1   2
ATOM      2  C   UNL     1       0.829   4.941  -6.099  1.00  0.00     0.053 C 
BRANCH   2   3
ATOM      3  C   UNL     1       0.338   4.365  -7.390  1.00  0.00     0.041 C 
ATOM      4  O   UNL     1       0.554   4.967  -8.474  1.00  0.00    -0.550 OA
ATOM      5  O   UNL     1      -0.402   3.189  -7.391  1.00  0.00    -0.550 OA
ENDBRANCH   2   3
ENDBRANCH   1   2
BRANCH   1   6
ATOM      6  C   UNL     1       2.251   6.963  -5.579  1.00  0.00     0.000 C 
BRANCH   6   7
ATOM      7  C   UNL     1       1.524   8.045  -6.390  1.00  0.00    -0.000 C 
BRANCH   7   8
ATOM      8  C   UNL     1       1.541   9.415  -5.696  1.00  0.00    -0.003 C 
ATOM      9  C   UNL     1       2.945   9.849  -5.277  1.00  0.00     0.004 C 
ENDBRANCH   7   8
ENDBRANCH   6   7
ENDBRANCH   1   6
TORSDOF 5
ENDMDL
MODEL 9
REMARK VINA RESULT:    -3.532      1.375      2.271
REMARK INTER + INTRA:          -5.017
REMARK INTER:                  -4.782
REMARK INTRA:                  -0.235
REMARK UNBOUND:                -0.452
REMARK SMILES CCCCCCC(=O)[O-]
REMARK SMILES IDX 5 1 6 2 7 3 8 4 9 5 4 6 3 7 2 8 1 9
REMARK H PARENT
REMARK Flexibility Score: inf
ROOT
ATOM      1  C   UNL     1       1.807   5.489  -6.187  1.00  0.00     0.006 C 
ENDROOT
BRANCH   1   2
ATOM      2  C   UNL     1       1.856   7.020  -6.180  1.00  0.00     0.053 C 
BRANCH   2   3
ATOM      3  C   UNL     1       2.901   7.506  -5.225  1.00  0.00     0.041 C 
ATOM      4  O   UNL     1       2.616   7.679  -4.011  1.00  0.00    -0.550 OA
ATOM      5  O   UNL     1       4.174   7.815  -5.685  1.00  0.00    -0.550 OA
ENDBRANCH   2   3
ENDBRANCH   1   2
BRANCH   1   6
ATOM      6  C   UNL     1       0.391   4.984  -6.489  1.00  0.00     0.000 C 
BRANCH   6   7
ATOM      7  C   UNL     1       0.383   4.082  -7.731  1.00  0.00    -0.000 C 
BRANCH   7   8
ATOM      8  C   UNL     1       1.066   4.737  -8.941  1.00  0.00    -0.003 C 
ATOM      9  C   UNL     1       0.219   5.840  -9.573  1.00  0.00     0.004 C 
ENDBRANCH   7   8
ENDBRANCH   6   7
ENDBRANCH   1   6
TORSDOF 5
ENDMDL
