MODEL 1
REMARK VINA RESULT:    -5.901      0.000      0.000
REMARK INTER + INTRA:          -7.681
REMARK INTER:                  -7.281
REMARK INTRA:                  -0.400
REMARK UNBOUND:                -0.400
REMARK SMILES COc1cc(-c2oc3cc(O)cc(O)c3c(=O)c2O)ccc1O
REMARK SMILES IDX 6 1 18 2 16 3 17 4 15 5 13 6 12 7 10 8 9 9 8 10 7 11 5 12
REMARK SMILES IDX 3 13 22 14 4 15 21 16 20 17 2 18 1 19 23 20 19 22 14 24
REMARK SMILES IDX 11 26
REMARK H PARENT 23 21 19 23 14 25 11 27
REMARK Flexibility Score: inf
ROOT
ATOM      1  C   UNL     1     125.405 133.079 111.532  1.00  0.00     0.180 A 
ATOM      2  C   UNL     1     126.437 132.125 111.557  1.00  0.00     0.208 A 
ATOM      3  C   UNL     1     127.748 132.533 111.265  1.00  0.00     0.238 A 
ATOM      4  O   UNL     1     128.659 131.665 111.235  1.00  0.00    -0.285 OA
ATOM      5  C   UNL     1     128.015 133.892 110.969  1.00  0.00     0.111 A 
ATOM      6  C   UNL     1     129.311 134.423 110.698  1.00  0.00     0.134 A 
ATOM      7  C   UNL     1     129.440 135.756 110.289  1.00  0.00     0.093 A 
ATOM      8  C   UNL     1     128.324 136.595 110.206  1.00  0.00     0.123 A 
ATOM      9  C   UNL     1     127.062 136.100 110.525  1.00  0.00     0.094 A 
ATOM     10  C   UNL     1     126.899 134.766 110.901  1.00  0.00     0.146 A 
ATOM     11  O   UNL     1     125.676 134.333 111.187  1.00  0.00    -0.452 OA
ENDROOT
BRANCH   1  12
ATOM     12  C   UNL     1     124.001 132.730 111.852  1.00  0.00     0.025 A 
ATOM     13  C   UNL     1     121.761 132.120 111.082  1.00  0.00     0.161 A 
ATOM     14  C   UNL     1     121.313 132.122 112.416  1.00  0.00     0.157 A 
ATOM     15  C   UNL     1     123.108 132.433 110.810  1.00  0.00     0.062 A 
ATOM     16  C   UNL     1     122.197 132.437 113.451  1.00  0.00     0.051 A 
ATOM     17  C   UNL     1     123.530 132.747 113.175  1.00  0.00     0.016 A 
BRANCH  13  18
ATOM     18  O   UNL     1     120.849 131.807 110.061  1.00  0.00    -0.493 OA
ATOM     19  C   UNL     1     121.166 131.046 108.900  1.00  0.00     0.278 C 
ENDBRANCH  13  18
BRANCH  14  20
ATOM     20  O   UNL     1     119.989 131.817 112.731  1.00  0.00    -0.504 OA
ATOM     21  H   UNL     1     119.703 131.553 113.667  1.00  0.00     0.293 HD
ENDBRANCH  14  20
ENDBRANCH   1  12
BRANCH   2  22
ATOM     22  O   UNL     1     126.149 130.785 111.830  1.00  0.00    -0.502 OA
ATOM     23  H   UNL     1     125.683 130.492 112.681  1.00  0.00     0.293 HD
ENDBRANCH   2  22
BRANCH   6  24
ATOM     24  O   UNL     1     130.498 133.698 110.841  1.00  0.00    -0.507 OA
ATOM     25  H   UNL     1     130.711 133.094 111.620  1.00  0.00     0.293 HD
ENDBRANCH   6  24
BRANCH   8  26
ATOM     26  O   UNL     1     128.463 137.924 109.813  1.00  0.00    -0.508 OA
ATOM     27  H   UNL     1     127.908 138.315 109.060  1.00  0.00     0.293 HD
ENDBRANCH   8  26
TORSDOF 6
ENDMDL
MODEL 2
REMARK VINA RESULT:    -5.657      1.582      7.225
REMARK INTER + INTRA:          -7.380
REMARK INTER:                  -7.017
REMARK INTRA:                  -0.363
REMARK UNBOUND:                -0.400
REMARK SMILES COc1cc(-c2oc3cc(O)cc(O)c3c(=O)c2O)ccc1O
REMARK SMILES IDX 6 1 18 2 16 3 17 4 15 5 13 6 12 7 10 8 9 9 8 10 7 11 5 12
REMARK SMILES IDX 3 13 22 14 4 15 21 16 20 17 2 18 1 19 23 20 19 22 14 24
REMARK SMILES IDX 11 26
REMARK H PARENT 23 21 19 23 14 25 11 27
REMARK Flexibility Score: inf
ROOT
ATOM      1  C   UNL     1     124.962 132.488 111.360  1.00  0.00     0.180 A 
ATOM      2  C   UNL     1     124.271 132.613 112.578  1.00  0.00     0.208 A 
ATOM      3  C   UNL     1     122.888 132.371 112.603  1.00  0.00     0.238 A 
ATOM      4  O   UNL     1     122.266 132.537 113.685  1.00  0.00    -0.285 OA
ATOM      5  C   UNL     1     122.216 131.993 111.416  1.00  0.00     0.111 A 
ATOM      6  C   UNL     1     120.826 131.685 111.335  1.00  0.00     0.134 A 
ATOM      7  C   UNL     1     120.241 131.450 110.084  1.00  0.00     0.093 A 
ATOM      8  C   UNL     1     121.013 131.446 108.919  1.00  0.00     0.123 A 
ATOM      9  C   UNL     1     122.383 131.687 108.995  1.00  0.00     0.094 A 
ATOM     10  C   UNL     1     122.986 131.961 110.224  1.00  0.00     0.146 A 
ATOM     11  O   UNL     1     124.292 132.196 110.251  1.00  0.00    -0.452 OA
ENDROOT
BRANCH   1  12
ATOM     12  C   UNL     1     126.424 132.702 111.258  1.00  0.00     0.025 A 
ATOM     13  C   UNL     1     128.311 134.245 111.040  1.00  0.00     0.161 A 
ATOM     14  C   UNL     1     129.190 133.148 111.003  1.00  0.00     0.157 A 
ATOM     15  C   UNL     1     126.926 134.011 111.161  1.00  0.00     0.062 A 
ATOM     16  C   UNL     1     128.689 131.845 111.078  1.00  0.00     0.051 A 
ATOM     17  C   UNL     1     127.317 131.620 111.197  1.00  0.00     0.016 A 
BRANCH  13  18
ATOM     18  O   UNL     1     128.841 135.542 110.954  1.00  0.00    -0.493 OA
ATOM     19  C   UNL     1     129.159 136.361 112.075  1.00  0.00     0.278 C 
ENDBRANCH  13  18
BRANCH  14  20
ATOM     20  O   UNL     1     130.568 133.333 110.884  1.00  0.00    -0.504 OA
ATOM     21  H   UNL     1     131.131 133.701 111.642  1.00  0.00     0.293 HD
ENDBRANCH  14  20
ENDBRANCH   1  12
BRANCH   2  22
ATOM     22  O   UNL     1     124.950 133.008 113.733  1.00  0.00    -0.502 OA
ATOM     23  H   UNL     1     125.960 133.078 113.774  1.00  0.00     0.293 HD
ENDBRANCH   2  22
BRANCH   6  24
ATOM     24  O   UNL     1     119.985 131.572 112.447  1.00  0.00    -0.507 OA
ATOM     25  H   UNL     1     119.038 131.919 112.488  1.00  0.00     0.293 HD
ENDBRANCH   6  24
BRANCH   8  26
ATOM     26  O   UNL     1     120.427 131.196 107.680  1.00  0.00    -0.508 OA
ATOM     27  H   UNL     1     120.985 130.958 106.867  1.00  0.00     0.293 HD
ENDBRANCH   8  26
TORSDOF 6
ENDMDL
MODEL 3
REMARK VINA RESULT:    -5.507      1.286      2.136
REMARK INTER + INTRA:          -7.195
REMARK INTER:                  -6.915
REMARK INTRA:                  -0.280
REMARK UNBOUND:                -0.400
REMARK SMILES COc1cc(-c2oc3cc(O)cc(O)c3c(=O)c2O)ccc1O
REMARK SMILES IDX 6 1 18 2 16 3 17 4 15 5 13 6 12 7 10 8 9 9 8 10 7 11 5 12
REMARK SMILES IDX 3 13 22 14 4 15 21 16 20 17 2 18 1 19 23 20 19 22 14 24
REMARK SMILES IDX 11 26
REMARK H PARENT 23 21 19 23 14 25 11 27
REMARK Flexibility Score: inf
ROOT
ATOM      1  C   UNL     1     125.017 132.898 110.210  1.00  0.00     0.180 A 
ATOM      2  C   UNL     1     126.012 132.115 110.821  1.00  0.00     0.208 A 
ATOM      3  C   UNL     1     127.259 132.697 111.103  1.00  0.00     0.238 A 
ATOM      4  O   UNL     1     128.163 131.977 111.600  1.00  0.00    -0.285 OA
ATOM      5  C   UNL     1     127.489 134.058 110.786  1.00  0.00     0.111 A 
ATOM      6  C   UNL     1     128.700 134.761 111.064  1.00  0.00     0.134 A 
ATOM      7  C   UNL     1     128.865 136.067 110.588  1.00  0.00     0.093 A 
ATOM      8  C   UNL     1     127.836 136.719 109.902  1.00  0.00     0.123 A 
ATOM      9  C   UNL     1     126.629 136.061 109.678  1.00  0.00     0.094 A 
ATOM     10  C   UNL     1     126.449 134.745 110.109  1.00  0.00     0.146 A 
ATOM     11  O   UNL     1     125.287 134.152 109.865  1.00  0.00    -0.452 OA
ENDROOT
BRANCH   1  12
ATOM     12  C   UNL     1     123.671 132.363 109.904  1.00  0.00     0.025 A 
ATOM     13  C   UNL     1     121.278 132.283 110.408  1.00  0.00     0.161 A 
ATOM     14  C   UNL     1     121.107 131.324 109.394  1.00  0.00     0.157 A 
ATOM     15  C   UNL     1     122.568 132.792 110.661  1.00  0.00     0.062 A 
ATOM     16  C   UNL     1     122.207 130.881 108.654  1.00  0.00     0.051 A 
ATOM     17  C   UNL     1     123.482 131.389 108.910  1.00  0.00     0.016 A 
BRANCH  13  18
ATOM     18  O   UNL     1     120.156 132.703 111.141  1.00  0.00    -0.493 OA
ATOM     19  C   UNL     1     119.876 132.317 112.482  1.00  0.00     0.278 C 
ENDBRANCH  13  18
BRANCH  14  20
ATOM     20  O   UNL     1     119.848 130.793 109.109  1.00  0.00    -0.504 OA
ATOM     21  H   UNL     1     119.687 129.796 109.031  1.00  0.00     0.293 HD
ENDBRANCH  14  20
ENDBRANCH   1  12
BRANCH   2  22
ATOM     22  O   UNL     1     125.771 130.769 111.106  1.00  0.00    -0.502 OA
ATOM     23  H   UNL     1     125.589 130.436 112.045  1.00  0.00     0.293 HD
ENDBRANCH   2  22
BRANCH   6  24
ATOM     24  O   UNL     1     129.753 134.234 111.819  1.00  0.00    -0.507 OA
ATOM     25  H   UNL     1     129.717 133.362 112.324  1.00  0.00     0.293 HD
ENDBRANCH   6  24
BRANCH   8  26
ATOM     26  O   UNL     1     128.003 138.025 109.446  1.00  0.00    -0.508 OA
ATOM     27  H   UNL     1     128.341 138.761 110.055  1.00  0.00     0.293 HD
ENDBRANCH   8  26
TORSDOF 6
ENDMDL
MODEL 4
REMARK VINA RESULT:    -5.469      1.846      7.195
REMARK INTER + INTRA:          -7.147
REMARK INTER:                  -6.753
REMARK INTRA:                  -0.394
REMARK UNBOUND:                -0.400
REMARK SMILES COc1cc(-c2oc3cc(O)cc(O)c3c(=O)c2O)ccc1O
REMARK SMILES IDX 6 1 18 2 16 3 17 4 15 5 13 6 12 7 10 8 9 9 8 10 7 11 5 12
REMARK SMILES IDX 3 13 22 14 4 15 21 16 20 17 2 18 1 19 23 20 19 22 14 24
REMARK SMILES IDX 11 26
REMARK H PARENT 23 21 19 23 14 25 11 27
REMARK Flexibility Score: inf
ROOT
ATOM      1  C   UNL     1     124.934 132.438 111.269  1.00  0.00     0.180 A 
ATOM      2  C   UNL     1     124.254 132.569 112.493  1.00  0.00     0.208 A 
ATOM      3  C   UNL     1     122.870 132.334 112.531  1.00  0.00     0.238 A 
ATOM      4  O   UNL     1     122.258 132.505 113.617  1.00  0.00    -0.285 OA
ATOM      5  C   UNL     1     122.186 131.957 111.350  1.00  0.00     0.111 A 
ATOM      6  C   UNL     1     120.793 131.656 111.282  1.00  0.00     0.134 A 
ATOM      7  C   UNL     1     120.197 131.421 110.037  1.00  0.00     0.093 A 
ATOM      8  C   UNL     1     120.958 131.411 108.865  1.00  0.00     0.123 A 
ATOM      9  C   UNL     1     122.330 131.645 108.929  1.00  0.00     0.094 A 
ATOM     10  C   UNL     1     122.945 131.918 110.152  1.00  0.00     0.146 A 
ATOM     11  O   UNL     1     124.253 132.147 110.167  1.00  0.00    -0.452 OA
ENDROOT
BRANCH   1  12
ATOM     12  C   UNL     1     126.396 132.644 111.155  1.00  0.00     0.025 A 
ATOM     13  C   UNL     1     128.662 131.730 111.277  1.00  0.00     0.161 A 
ATOM     14  C   UNL     1     129.181 133.009 111.004  1.00  0.00     0.157 A 
ATOM     15  C   UNL     1     127.265 131.559 111.356  1.00  0.00     0.062 A 
ATOM     16  C   UNL     1     128.317 134.092 110.824  1.00  0.00     0.051 A 
ATOM     17  C   UNL     1     126.935 133.916 110.905  1.00  0.00     0.016 A 
BRANCH  13  18
ATOM     18  O   UNL     1     129.553 130.662 111.462  1.00  0.00    -0.493 OA
ATOM     19  C   UNL     1     129.621 129.860 112.637  1.00  0.00     0.278 C 
ENDBRANCH  13  18
BRANCH  14  20
ATOM     20  O   UNL     1     130.557 133.223 110.916  1.00  0.00    -0.504 OA
ATOM     21  H   UNL     1     131.209 132.832 111.585  1.00  0.00     0.293 HD
ENDBRANCH  14  20
ENDBRANCH   1  12
BRANCH   2  22
ATOM     22  O   UNL     1     124.944 132.963 113.642  1.00  0.00    -0.502 OA
ATOM     23  H   UNL     1     124.969 132.398 114.483  1.00  0.00     0.293 HD
ENDBRANCH   2  22
BRANCH   6  24
ATOM     24  O   UNL     1     119.961 131.549 112.401  1.00  0.00    -0.507 OA
ATOM     25  H   UNL     1     118.978 131.325 112.366  1.00  0.00     0.293 HD
ENDBRANCH   6  24
BRANCH   8  26
ATOM     26  O   UNL     1     120.361 131.161 107.631  1.00  0.00    -0.508 OA
ATOM     27  H   UNL     1     120.166 131.909 106.975  1.00  0.00     0.293 HD
ENDBRANCH   8  26
TORSDOF 6
ENDMDL
MODEL 5
REMARK VINA RESULT:    -5.459      2.850      7.110
REMARK INTER + INTRA:          -7.135
REMARK INTER:                  -6.740
REMARK INTRA:                  -0.395
REMARK UNBOUND:                -0.400
REMARK SMILES COc1cc(-c2oc3cc(O)cc(O)c3c(=O)c2O)ccc1O
REMARK SMILES IDX 6 1 18 2 16 3 17 4 15 5 13 6 12 7 10 8 9 9 8 10 7 11 5 12
REMARK SMILES IDX 3 13 22 14 4 15 21 16 20 17 2 18 1 19 23 20 19 22 14 24
REMARK SMILES IDX 11 26
REMARK H PARENT 23 21 19 23 14 25 11 27
REMARK Flexibility Score: inf
ROOT
ATOM      1  C   UNL     1     124.680 131.575 111.227  1.00  0.00     0.180 A 
ATOM      2  C   UNL     1     124.251 131.871 112.533  1.00  0.00     0.208 A 
ATOM      3  C   UNL     1     122.900 132.187 112.750  1.00  0.00     0.238 A 
ATOM      4  O   UNL     1     122.533 132.504 113.911  1.00  0.00    -0.285 OA
ATOM      5  C   UNL     1     121.993 132.187 111.663  1.00  0.00     0.111 A 
ATOM      6  C   UNL     1     120.595 132.453 111.774  1.00  0.00     0.134 A 
ATOM      7  C   UNL     1     119.817 132.556 110.614  1.00  0.00     0.093 A 
ATOM      8  C   UNL     1     120.374 132.336 109.352  1.00  0.00     0.123 A 
ATOM      9  C   UNL     1     121.725 132.017 109.238  1.00  0.00     0.094 A 
ATOM     10  C   UNL     1     122.534 131.944 110.374  1.00  0.00     0.146 A 
ATOM     11  O   UNL     1     123.819 131.648 110.219  1.00  0.00    -0.452 OA
ENDROOT
BRANCH   1  12
ATOM     12  C   UNL     1     126.083 131.208 110.924  1.00  0.00     0.025 A 
ATOM     13  C   UNL     1     127.818 129.490 110.769  1.00  0.00     0.161 A 
ATOM     14  C   UNL     1     128.752 130.480 110.413  1.00  0.00     0.157 A 
ATOM     15  C   UNL     1     126.485 129.866 111.029  1.00  0.00     0.062 A 
ATOM     16  C   UNL     1     128.357 131.819 110.328  1.00  0.00     0.051 A 
ATOM     17  C   UNL     1     127.035 132.184 110.588  1.00  0.00     0.016 A 
BRANCH  13  18
ATOM     18  O   UNL     1     128.245 128.156 110.855  1.00  0.00    -0.493 OA
ATOM     19  C   UNL     1     128.624 127.504 112.063  1.00  0.00     0.278 C 
ENDBRANCH  13  18
BRANCH  14  20
ATOM     20  O   UNL     1     130.082 130.154 110.146  1.00  0.00    -0.504 OA
ATOM     21  H   UNL     1     130.562 129.405 110.632  1.00  0.00     0.293 HD
ENDBRANCH  14  20
ENDBRANCH   1  12
BRANCH   2  22
ATOM     22  O   UNL     1     125.167 131.885 113.588  1.00  0.00    -0.502 OA
ATOM     23  H   UNL     1     126.059 131.406 113.541  1.00  0.00     0.293 HD
ENDBRANCH   2  22
BRANCH   6  24
ATOM     24  O   UNL     1     119.922 132.598 112.991  1.00  0.00    -0.507 OA
ATOM     25  H   UNL     1     119.386 133.409 113.258  1.00  0.00     0.293 HD
ENDBRANCH   6  24
BRANCH   8  26
ATOM     26  O   UNL     1     119.590 132.424 108.204  1.00  0.00    -0.508 OA
ATOM     27  H   UNL     1     119.002 133.230 108.023  1.00  0.00     0.293 HD
ENDBRANCH   8  26
TORSDOF 6
ENDMDL
MODEL 6
REMARK VINA RESULT:    -5.425      2.071      7.533
REMARK INTER + INTRA:          -7.094
REMARK INTER:                  -6.702
REMARK INTRA:                  -0.392
REMARK UNBOUND:                -0.400
REMARK SMILES COc1cc(-c2oc3cc(O)cc(O)c3c(=O)c2O)ccc1O
REMARK SMILES IDX 6 1 18 2 16 3 17 4 15 5 13 6 12 7 10 8 9 9 8 10 7 11 5 12
REMARK SMILES IDX 3 13 22 14 4 15 21 16 20 17 2 18 1 19 23 20 19 22 14 24
REMARK SMILES IDX 11 26
REMARK H PARENT 23 21 19 23 14 25 11 27
REMARK Flexibility Score: inf
ROOT
ATOM      1  C   UNL     1     126.190 134.904 110.226  1.00  0.00     0.180 A 
ATOM      2  C   UNL     1     125.296 135.031 109.149  1.00  0.00     0.208 A 
ATOM      3  C   UNL     1     124.084 134.323 109.184  1.00  0.00     0.238 A 
ATOM      4  O   UNL     1     123.312 134.397 108.193  1.00  0.00    -0.285 OA
ATOM      5  C   UNL     1     123.774 133.510 110.301  1.00  0.00     0.111 A 
ATOM      6  C   UNL     1     122.558 132.780 110.460  1.00  0.00     0.134 A 
ATOM      7  C   UNL     1     122.414 131.905 111.544  1.00  0.00     0.093 A 
ATOM      8  C   UNL     1     123.416 131.786 112.510  1.00  0.00     0.123 A 
ATOM      9  C   UNL     1     124.582 132.539 112.395  1.00  0.00     0.094 A 
ATOM     10  C   UNL     1     124.769 133.392 111.305  1.00  0.00     0.146 A 
ATOM     11  O   UNL     1     125.900 134.083 111.229  1.00  0.00    -0.452 OA
ENDROOT
BRANCH   1  12
ATOM     12  C   UNL     1     127.476 135.639 110.273  1.00  0.00     0.025 A 
ATOM     13  C   UNL     1     128.735 137.627 110.941  1.00  0.00     0.161 A 
ATOM     14  C   UNL     1     129.884 137.091 110.331  1.00  0.00     0.157 A 
ATOM     15  C   UNL     1     127.532 136.894 110.900  1.00  0.00     0.062 A 
ATOM     16  C   UNL     1     129.823 135.851 109.689  1.00  0.00     0.051 A 
ATOM     17  C   UNL     1     128.628 135.132 109.652  1.00  0.00     0.016 A 
BRANCH  13  18
ATOM     18  O   UNL     1     128.823 138.878 111.571  1.00  0.00    -0.493 OA
ATOM     19  C   UNL     1     128.600 139.101 112.960  1.00  0.00     0.278 C 
ENDBRANCH  13  18
BRANCH  14  20
ATOM     20  O   UNL     1     131.096 137.781 110.347  1.00  0.00    -0.504 OA
ATOM     21  H   UNL     1     131.269 138.556 110.977  1.00  0.00     0.293 HD
ENDBRANCH  14  20
ENDBRANCH   1  12
BRANCH   2  22
ATOM     22  O   UNL     1     125.630 135.822 108.047  1.00  0.00    -0.502 OA
ATOM     23  H   UNL     1     125.272 136.761 107.922  1.00  0.00     0.293 HD
ENDBRANCH   2  22
BRANCH   6  24
ATOM     24  O   UNL     1     121.459 132.897 109.603  1.00  0.00    -0.507 OA
ATOM     25  H   UNL     1     121.515 133.169 108.633  1.00  0.00     0.293 HD
ENDBRANCH   6  24
BRANCH   8  26
ATOM     26  O   UNL     1     123.259 130.925 113.594  1.00  0.00    -0.508 OA
ATOM     27  H   UNL     1     123.895 130.943 114.384  1.00  0.00     0.293 HD
ENDBRANCH   8  26
TORSDOF 6
ENDMDL
MODEL 7
REMARK VINA RESULT:    -5.409      2.373      3.891
REMARK INTER + INTRA:          -7.074
REMARK INTER:                  -6.770
REMARK INTRA:                  -0.304
REMARK UNBOUND:                -0.400
REMARK SMILES COc1cc(-c2oc3cc(O)cc(O)c3c(=O)c2O)ccc1O
REMARK SMILES IDX 6 1 18 2 16 3 17 4 15 5 13 6 12 7 10 8 9 9 8 10 7 11 5 12
REMARK SMILES IDX 3 13 22 14 4 15 21 16 20 17 2 18 1 19 23 20 19 22 14 24
REMARK SMILES IDX 11 26
REMARK H PARENT 23 21 19 23 14 25 11 27
REMARK Flexibility Score: inf
ROOT
ATOM      1  C   UNL     1     126.687 134.796 110.962  1.00  0.00     0.180 A 
ATOM      2  C   UNL     1     126.463 135.172 109.625  1.00  0.00     0.208 A 
ATOM      3  C   UNL     1     127.315 136.118 109.033  1.00  0.00     0.238 A 
ATOM      4  O   UNL     1     127.077 136.492 107.855  1.00  0.00    -0.285 OA
ATOM      5  C   UNL     1     128.389 136.664 109.777  1.00  0.00     0.111 A 
ATOM      6  C   UNL     1     129.338 137.599 109.265  1.00  0.00     0.134 A 
ATOM      7  C   UNL     1     130.280 138.171 110.128  1.00  0.00     0.093 A 
ATOM      8  C   UNL     1     130.349 137.791 111.471  1.00  0.00     0.123 A 
ATOM      9  C   UNL     1     129.466 136.835 111.967  1.00  0.00     0.094 A 
ATOM     10  C   UNL     1     128.492 136.274 111.138  1.00  0.00     0.146 A 
ATOM     11  O   UNL     1     127.662 135.375 111.653  1.00  0.00    -0.452 OA
ENDROOT
BRANCH   1  12
ATOM     12  C   UNL     1     125.847 133.787 111.647  1.00  0.00     0.025 A 
ATOM     13  C   UNL     1     125.565 131.503 112.477  1.00  0.00     0.161 A 
ATOM     14  C   UNL     1     124.260 131.826 112.891  1.00  0.00     0.157 A 
ATOM     15  C   UNL     1     126.350 132.491 111.848  1.00  0.00     0.062 A 
ATOM     16  C   UNL     1     123.753 133.110 112.673  1.00  0.00     0.051 A 
ATOM     17  C   UNL     1     124.535 134.083 112.049  1.00  0.00     0.016 A 
BRANCH  13  18
ATOM     18  O   UNL     1     126.046 130.203 112.702  1.00  0.00    -0.493 OA
ATOM     19  C   UNL     1     127.425 129.852 112.767  1.00  0.00     0.278 C 
ENDBRANCH  13  18
BRANCH  14  20
ATOM     20  O   UNL     1     123.449 130.879 113.518  1.00  0.00    -0.504 OA
ATOM     21  H   UNL     1     122.999 130.130 113.006  1.00  0.00     0.293 HD
ENDBRANCH  14  20
ENDBRANCH   1  12
BRANCH   2  22
ATOM     22  O   UNL     1     125.385 134.638 108.916  1.00  0.00    -0.502 OA
ATOM     23  H   UNL     1     125.268 134.775 107.919  1.00  0.00     0.293 HD
ENDBRANCH   2  22
BRANCH   6  24
ATOM     24  O   UNL     1     129.414 137.977 107.920  1.00  0.00    -0.507 OA
ATOM     25  H   UNL     1     129.326 137.343 107.141  1.00  0.00     0.293 HD
ENDBRANCH   6  24
BRANCH   8  26
ATOM     26  O   UNL     1     131.300 138.354 112.321  1.00  0.00    -0.508 OA
ATOM     27  H   UNL     1     132.232 138.583 111.996  1.00  0.00     0.293 HD
ENDBRANCH   8  26
TORSDOF 6
ENDMDL
MODEL 8
REMARK VINA RESULT:    -5.316      1.934      7.404
REMARK INTER + INTRA:          -6.959
REMARK INTER:                  -6.560
REMARK INTRA:                  -0.399
REMARK UNBOUND:                -0.400
REMARK SMILES COc1cc(-c2oc3cc(O)cc(O)c3c(=O)c2O)ccc1O
REMARK SMILES IDX 6 1 18 2 16 3 17 4 15 5 13 6 12 7 10 8 9 9 8 10 7 11 5 12
REMARK SMILES IDX 3 13 22 14 4 15 21 16 20 17 2 18 1 19 23 20 19 22 14 24
REMARK SMILES IDX 11 26
REMARK H PARENT 23 21 19 23 14 25 11 27
REMARK Flexibility Score: inf
ROOT
ATOM      1  C   UNL     1     126.123 134.851 110.275  1.00  0.00     0.180 A 
ATOM      2  C   UNL     1     125.136 134.994 109.283  1.00  0.00     0.208 A 
ATOM      3  C   UNL     1     123.935 134.278 109.412  1.00  0.00     0.238 A 
ATOM      4  O   UNL     1     123.078 134.367 108.494  1.00  0.00    -0.285 OA
ATOM      5  C   UNL     1     123.728 133.443 110.536  1.00  0.00     0.111 A 
ATOM      6  C   UNL     1     122.534 132.703 110.787  1.00  0.00     0.134 A 
ATOM      7  C   UNL     1     122.489 131.807 111.863  1.00  0.00     0.093 A 
ATOM      8  C   UNL     1     123.573 131.675 112.735  1.00  0.00     0.123 A 
ATOM      9  C   UNL     1     124.722 132.437 112.532  1.00  0.00     0.094 A 
ATOM     10  C   UNL     1     124.808 133.311 111.446  1.00  0.00     0.146 A 
ATOM     11  O   UNL     1     125.925 134.010 111.283  1.00  0.00    -0.452 OA
ENDROOT
BRANCH   1  12
ATOM     12  C   UNL     1     127.405 135.592 110.222  1.00  0.00     0.025 A 
ATOM     13  C   UNL     1     129.775 135.646 109.621  1.00  0.00     0.161 A 
ATOM     14  C   UNL     1     129.872 136.942 110.158  1.00  0.00     0.157 A 
ATOM     15  C   UNL     1     128.536 134.975 109.664  1.00  0.00     0.062 A 
ATOM     16  C   UNL     1     128.750 137.548 110.732  1.00  0.00     0.051 A 
ATOM     17  C   UNL     1     127.527 136.878 110.772  1.00  0.00     0.016 A 
BRANCH  13  18
ATOM     18  O   UNL     1     130.920 135.058 109.059  1.00  0.00    -0.493 OA
ATOM     19  C   UNL     1     131.277 133.687 109.199  1.00  0.00     0.278 C 
ENDBRANCH  13  18
BRANCH  14  20
ATOM     20  O   UNL     1     131.077 137.644 110.136  1.00  0.00    -0.504 OA
ATOM     21  H   UNL     1     131.626 137.749 109.291  1.00  0.00     0.293 HD
ENDBRANCH  14  20
ENDBRANCH   1  12
BRANCH   2  22
ATOM     22  O   UNL     1     125.369 135.806 108.171  1.00  0.00    -0.502 OA
ATOM     23  H   UNL     1     125.730 136.750 108.253  1.00  0.00     0.293 HD
ENDBRANCH   2  22
BRANCH   6  24
ATOM     24  O   UNL     1     121.363 132.830 110.033  1.00  0.00    -0.507 OA
ATOM     25  H   UNL     1     120.886 133.701 109.856  1.00  0.00     0.293 HD
ENDBRANCH   6  24
BRANCH   8  26
ATOM     26  O   UNL     1     123.515 130.793 113.812  1.00  0.00    -0.508 OA
ATOM     27  H   UNL     1     123.744 129.811 113.706  1.00  0.00     0.293 HD
ENDBRANCH   8  26
TORSDOF 6
ENDMDL
MODEL 9
REMARK VINA RESULT:    -5.304      1.371      3.058
REMARK INTER + INTRA:          -6.945
REMARK INTER:                  -6.558
REMARK INTRA:                  -0.387
REMARK UNBOUND:                -0.400
REMARK SMILES COc1cc(-c2oc3cc(O)cc(O)c3c(=O)c2O)ccc1O
REMARK SMILES IDX 6 1 18 2 16 3 17 4 15 5 13 6 12 7 10 8 9 9 8 10 7 11 5 12
REMARK SMILES IDX 3 13 22 14 4 15 21 16 20 17 2 18 1 19 23 20 19 22 14 24
REMARK SMILES IDX 11 26
REMARK H PARENT 23 21 19 23 14 25 11 27
REMARK Flexibility Score: inf
ROOT
ATOM      1  C   UNL     1     124.881 132.865 111.548  1.00  0.00     0.180 A 
ATOM      2  C   UNL     1     125.324 134.176 111.298  1.00  0.00     0.208 A 
ATOM      3  C   UNL     1     126.689 134.396 111.048  1.00  0.00     0.238 A 
ATOM      4  O   UNL     1     127.089 135.577 110.879  1.00  0.00    -0.285 OA
ATOM      5  C   UNL     1     127.588 133.303 111.034  1.00  0.00     0.111 A 
ATOM      6  C   UNL     1     128.983 133.405 110.752  1.00  0.00     0.134 A 
ATOM      7  C   UNL     1     129.802 132.278 110.895  1.00  0.00     0.093 A 
ATOM      8  C   UNL     1     129.263 131.037 111.244  1.00  0.00     0.123 A 
ATOM      9  C   UNL     1     127.893 130.915 111.464  1.00  0.00     0.094 A 
ATOM     10  C   UNL     1     127.058 132.029 111.364  1.00  0.00     0.146 A 
ATOM     11  O   UNL     1     125.759 131.871 111.593  1.00  0.00    -0.452 OA
ENDROOT
BRANCH   1  12
ATOM     12  C   UNL     1     123.455 132.550 111.795  1.00  0.00     0.025 A 
ATOM     13  C   UNL     1     121.243 131.994 110.910  1.00  0.00     0.161 A 
ATOM     14  C   UNL     1     120.727 132.007 112.219  1.00  0.00     0.157 A 
ATOM     15  C   UNL     1     122.609 132.274 110.708  1.00  0.00     0.062 A 
ATOM     16  C   UNL     1     121.564 132.302 113.299  1.00  0.00     0.051 A 
ATOM     17  C   UNL     1     122.916 132.579 113.091  1.00  0.00     0.016 A 
BRANCH  13  18
ATOM     18  O   UNL     1     120.377 131.703 109.844  1.00  0.00    -0.493 OA
ATOM     19  C   UNL     1     120.750 130.981 108.675  1.00  0.00     0.278 C 
ENDBRANCH  13  18
BRANCH  14  20
ATOM     20  O   UNL     1     119.381 131.735 112.466  1.00  0.00    -0.504 OA
ATOM     21  H   UNL     1     118.853 132.224 113.179  1.00  0.00     0.293 HD
ENDBRANCH  14  20
ENDBRANCH   1  12
BRANCH   2  22
ATOM     22  O   UNL     1     124.423 135.242 111.338  1.00  0.00    -0.502 OA
ATOM     23  H   UNL     1     123.972 135.605 110.506  1.00  0.00     0.293 HD
ENDBRANCH   2  22
BRANCH   6  24
ATOM     24  O   UNL     1     129.606 134.576 110.306  1.00  0.00    -0.507 OA
ATOM     25  H   UNL     1     130.081 135.236 110.902  1.00  0.00     0.293 HD
ENDBRANCH   6  24
BRANCH   8  26
ATOM     26  O   UNL     1     130.082 129.917 111.369  1.00  0.00    -0.508 OA
ATOM     27  H   UNL     1     129.814 129.019 110.982  1.00  0.00     0.293 HD
ENDBRANCH   8  26
TORSDOF 6
ENDMDL
