MODEL 1
REMARK VINA RESULT:    -4.159      0.000      0.000
REMARK INTER + INTRA:          -7.480
REMARK INTER:                  -6.347
REMARK INTRA:                  -1.133
REMARK UNBOUND:                -1.133
REMARK SMILES CCCCCCCCCC=CC(=O)[O-]
REMARK SMILES IDX 7 1 8 2 9 3 10 4 11 5 12 6 13 7 14 8 6 9 5 10 4 11 3 12 2 13
REMARK SMILES IDX 1 14
REMARK H PARENT
REMARK Flexibility Score: inf
ROOT
ATOM      1  C   UNL     1       0.745   4.773   6.008  1.00  0.00     0.000 C 
ENDROOT
BRANCH   1   2
ATOM      2  C   UNL     1       0.702   4.754   7.548  1.00  0.00     0.004 C 
BRANCH   2   3
ATOM      3  C   UNL     1       0.960   3.370   8.173  1.00  0.00     0.027 C 
BRANCH   3   4
ATOM      4  C   UNL     1       1.911   2.536   7.362  1.00  0.00    -0.025 C 
ATOM      5  C   UNL     1       1.727   1.222   7.202  1.00  0.00     0.020 C 
BRANCH   5   6
ATOM      6  C   UNL     1       2.653   0.394   6.415  1.00  0.00     0.064 C 
ATOM      7  O   UNL     1       3.864   0.728   6.328  1.00  0.00    -0.545 OA
ATOM      8  O   UNL     1       2.211  -0.751   5.762  1.00  0.00    -0.545 OA
ENDBRANCH   5   6
ENDBRANCH   3   4
ENDBRANCH   2   3
ENDBRANCH   1   2
BRANCH   1   9
ATOM      9  C   UNL     1      -0.636   5.020   5.378  1.00  0.00     0.000 C 
BRANCH   9  10
ATOM     10  C   UNL     1      -1.125   3.827   4.540  1.00  0.00     0.000 C 
BRANCH  10  11
ATOM     11  C   UNL     1      -1.498   2.611   5.402  1.00  0.00    -0.000 C 
BRANCH  11  12
ATOM     12  C   UNL     1      -2.505   3.001   6.492  1.00  0.00    -0.000 C 
BRANCH  12  13
ATOM     13  C   UNL     1      -3.945   2.792   6.012  1.00  0.00    -0.003 C 
ATOM     14  C   UNL     1      -4.772   4.064   6.179  1.00  0.00     0.004 C 
ENDBRANCH  12  13
ENDBRANCH  11  12
ENDBRANCH  10  11
ENDBRANCH   9  10
ENDBRANCH   1   9
TORSDOF 9
ENDMDL
MODEL 2
REMARK VINA RESULT:    -4.138     12.661     14.185
REMARK INTER + INTRA:          -7.448
REMARK INTER:                  -6.393
REMARK INTRA:                  -1.055
REMARK UNBOUND:                -1.133
REMARK SMILES CCCCCCCCCC=CC(=O)[O-]
REMARK SMILES IDX 7 1 8 2 9 3 10 4 11 5 12 6 13 7 14 8 6 9 5 10 4 11 3 12 2 13
REMARK SMILES IDX 1 14
REMARK H PARENT
REMARK Flexibility Score: inf
ROOT
ATOM      1  C   UNL     1      -4.425  -0.274  -7.040  1.00  0.00     0.000 C 
ENDROOT
BRANCH   1   2
ATOM      2  C   UNL     1      -4.956  -1.666  -7.434  1.00  0.00     0.004 C 
BRANCH   2   3
ATOM      3  C   UNL     1      -5.818  -2.345  -6.354  1.00  0.00     0.027 C 
BRANCH   3   4
ATOM      4  C   UNL     1      -5.218  -3.629  -5.854  1.00  0.00    -0.025 C 
ATOM      5  C   UNL     1      -4.986  -3.832  -4.554  1.00  0.00     0.020 C 
BRANCH   5   6
ATOM      6  C   UNL     1      -4.395  -5.083  -4.053  1.00  0.00     0.064 C 
ATOM      7  O   UNL     1      -4.637  -5.455  -2.875  1.00  0.00    -0.545 OA
ATOM      8  O   UNL     1      -3.573  -5.860  -4.860  1.00  0.00    -0.545 OA
ENDBRANCH   5   6
ENDBRANCH   3   4
ENDBRANCH   2   3
ENDBRANCH   1   2
BRANCH   1   9
ATOM      9  C   UNL     1      -3.387  -0.333  -5.906  1.00  0.00     0.000 C 
BRANCH   9  10
ATOM     10  C   UNL     1      -2.134  -1.137  -6.295  1.00  0.00     0.000 C 
BRANCH  10  11
ATOM     11  C   UNL     1      -1.763  -2.198  -5.247  1.00  0.00    -0.000 C 
BRANCH  11  12
ATOM     12  C   UNL     1      -0.331  -2.703  -5.462  1.00  0.00    -0.000 C 
BRANCH  12  13
ATOM     13  C   UNL     1      -0.123  -4.069  -4.800  1.00  0.00    -0.003 C 
ATOM     14  C   UNL     1      -0.867  -4.158  -3.471  1.00  0.00     0.004 C 
ENDBRANCH  12  13
ENDBRANCH  11  12
ENDBRANCH  10  11
ENDBRANCH   9  10
ENDBRANCH   1   9
TORSDOF 9
ENDMDL
MODEL 3
REMARK VINA RESULT:    -4.134      2.749      5.288
REMARK INTER + INTRA:          -7.443
REMARK INTER:                  -6.120
REMARK INTRA:                  -1.323
REMARK UNBOUND:                -1.133
REMARK SMILES CCCCCCCCCC=CC(=O)[O-]
REMARK SMILES IDX 7 1 8 2 9 3 10 4 11 5 12 6 13 7 14 8 6 9 5 10 4 11 3 12 2 13
REMARK SMILES IDX 1 14
REMARK H PARENT
REMARK Flexibility Score: inf
ROOT
ATOM      1  C   UNL     1       4.133   4.062   7.379  1.00  0.00     0.000 C 
ENDROOT
BRANCH   1   2
ATOM      2  C   UNL     1       2.678   4.567   7.358  1.00  0.00     0.004 C 
BRANCH   2   3
ATOM      3  C   UNL     1       1.619   3.455   7.472  1.00  0.00     0.027 C 
BRANCH   3   4
ATOM      4  C   UNL     1       0.580   3.530   6.388  1.00  0.00    -0.025 C 
ATOM      5  C   UNL     1      -0.421   2.647   6.317  1.00  0.00     0.020 C 
BRANCH   5   6
ATOM      6  C   UNL     1      -1.441   2.708   5.259  1.00  0.00     0.064 C 
ATOM      7  O   UNL     1      -1.180   3.299   4.179  1.00  0.00    -0.545 OA
ATOM      8  O   UNL     1      -2.689   2.123   5.434  1.00  0.00    -0.545 OA
ENDBRANCH   5   6
ENDBRANCH   3   4
ENDBRANCH   2   3
ENDBRANCH   1   2
BRANCH   1   9
ATOM      9  C   UNL     1       4.364   2.875   6.428  1.00  0.00     0.000 C 
BRANCH   9  10
ATOM     10  C   UNL     1       5.087   1.703   7.112  1.00  0.00     0.000 C 
BRANCH  10  11
ATOM     11  C   UNL     1       4.144   0.536   7.441  1.00  0.00    -0.000 C 
BRANCH  11  12
ATOM     12  C   UNL     1       3.154   0.291   6.296  1.00  0.00    -0.000 C 
BRANCH  12  13
ATOM     13  C   UNL     1       1.818  -0.240   6.826  1.00  0.00    -0.003 C 
ATOM     14  C   UNL     1       1.777  -0.207   8.351  1.00  0.00     0.004 C 
ENDBRANCH  12  13
ENDBRANCH  11  12
ENDBRANCH  10  11
ENDBRANCH   9  10
ENDBRANCH   1   9
TORSDOF 9
ENDMDL
MODEL 4
REMARK VINA RESULT:    -4.073     13.122     14.557
REMARK INTER + INTRA:          -7.350
REMARK INTER:                  -5.753
REMARK INTRA:                  -1.597
REMARK UNBOUND:                -1.133
REMARK SMILES CCCCCCCCCC=CC(=O)[O-]
REMARK SMILES IDX 7 1 8 2 9 3 10 4 11 5 12 6 13 7 14 8 6 9 5 10 4 11 3 12 2 13
REMARK SMILES IDX 1 14
REMARK H PARENT
REMARK Flexibility Score: inf
ROOT
ATOM      1  C   UNL     1      -4.359  -1.166  -8.041  1.00  0.00     0.000 C 
ENDROOT
BRANCH   1   2
ATOM      2  C   UNL     1      -5.299  -2.381  -7.916  1.00  0.00     0.004 C 
BRANCH   2   3
ATOM      3  C   UNL     1      -5.866  -2.601  -6.502  1.00  0.00     0.027 C 
BRANCH   3   4
ATOM      4  C   UNL     1      -5.266  -3.795  -5.815  1.00  0.00    -0.025 C 
ATOM      5  C   UNL     1      -4.950  -3.769  -4.517  1.00  0.00     0.020 C 
BRANCH   5   6
ATOM      6  C   UNL     1      -4.358  -4.929  -3.834  1.00  0.00     0.064 C 
ATOM      7  O   UNL     1      -5.110  -5.775  -3.283  1.00  0.00    -0.545 OA
ATOM      8  O   UNL     1      -2.980  -5.107  -3.788  1.00  0.00    -0.545 OA
ENDBRANCH   5   6
ENDBRANCH   3   4
ENDBRANCH   2   3
ENDBRANCH   1   2
BRANCH   1   9
ATOM      9  C   UNL     1      -4.596  -0.115  -6.943  1.00  0.00     0.000 C 
BRANCH   9  10
ATOM     10  C   UNL     1      -3.397   0.024  -5.990  1.00  0.00     0.000 C 
BRANCH  10  11
ATOM     11  C   UNL     1      -2.195  -0.829  -6.424  1.00  0.00    -0.000 C 
BRANCH  11  12
ATOM     12  C   UNL     1      -1.946  -1.971  -5.431  1.00  0.00    -0.000 C 
BRANCH  12  13
ATOM     13  C   UNL     1      -1.037  -3.043  -6.040  1.00  0.00    -0.003 C 
ATOM     14  C   UNL     1      -1.822  -3.975  -6.958  1.00  0.00     0.004 C 
ENDBRANCH  12  13
ENDBRANCH  11  12
ENDBRANCH  10  11
ENDBRANCH   9  10
ENDBRANCH   1   9
TORSDOF 9
ENDMDL
MODEL 5
REMARK VINA RESULT:    -4.067     12.692     13.780
REMARK INTER + INTRA:          -7.340
REMARK INTER:                  -6.205
REMARK INTRA:                  -1.135
REMARK UNBOUND:                -1.133
REMARK SMILES CCCCCCCCCC=CC(=O)[O-]
REMARK SMILES IDX 7 1 8 2 9 3 10 4 11 5 12 6 13 7 14 8 6 9 5 10 4 11 3 12 2 13
REMARK SMILES IDX 1 14
REMARK H PARENT
REMARK Flexibility Score: inf
ROOT
ATOM      1  C   UNL     1      -4.460   0.060  -7.123  1.00  0.00     0.000 C 
ENDROOT
BRANCH   1   2
ATOM      2  C   UNL     1      -3.565  -0.340  -5.935  1.00  0.00     0.004 C 
BRANCH   2   3
ATOM      3  C   UNL     1      -2.272  -1.075  -6.333  1.00  0.00     0.027 C 
BRANCH   3   4
ATOM      4  C   UNL     1      -1.918  -2.184  -5.383  1.00  0.00    -0.025 C 
ATOM      5  C   UNL     1      -0.683  -2.691  -5.330  1.00  0.00     0.020 C 
BRANCH   5   6
ATOM      6  C   UNL     1      -0.326  -3.779  -4.407  1.00  0.00     0.064 C 
ATOM      7  O   UNL     1      -0.722  -3.736  -3.213  1.00  0.00    -0.545 OA
ATOM      8  O   UNL     1       0.445  -4.855  -4.833  1.00  0.00    -0.545 OA
ENDBRANCH   5   6
ENDBRANCH   3   4
ENDBRANCH   2   3
ENDBRANCH   1   2
BRANCH   1   9
ATOM      9  C   UNL     1      -5.196  -1.141  -7.743  1.00  0.00     0.000 C 
BRANCH   9  10
ATOM     10  C   UNL     1      -6.138  -1.835  -6.744  1.00  0.00     0.000 C 
BRANCH  10  11
ATOM     11  C   UNL     1      -6.195  -3.357  -6.945  1.00  0.00    -0.000 C 
BRANCH  11  12
ATOM     12  C   UNL     1      -5.019  -4.047  -6.243  1.00  0.00    -0.000 C 
BRANCH  12  13
ATOM     13  C   UNL     1      -4.994  -3.708  -4.748  1.00  0.00    -0.003 C 
ATOM     14  C   UNL     1      -4.403  -4.855  -3.933  1.00  0.00     0.004 C 
ENDBRANCH  12  13
ENDBRANCH  11  12
ENDBRANCH  10  11
ENDBRANCH   9  10
ENDBRANCH   1   9
TORSDOF 9
ENDMDL
MODEL 6
REMARK VINA RESULT:    -3.948      2.987      6.341
REMARK INTER + INTRA:          -7.159
REMARK INTER:                  -6.258
REMARK INTRA:                  -0.901
REMARK UNBOUND:                -1.133
REMARK SMILES CCCCCCCCCC=CC(=O)[O-]
REMARK SMILES IDX 7 1 8 2 9 3 10 4 11 5 12 6 13 7 14 8 6 9 5 10 4 11 3 12 2 13
REMARK SMILES IDX 1 14
REMARK H PARENT
REMARK Flexibility Score: inf
ROOT
ATOM      1  C   UNL     1       2.339  -0.482   7.005  1.00  0.00     0.000 C 
ENDROOT
BRANCH   1   2
ATOM      2  C   UNL     1       1.649   0.360   8.095  1.00  0.00     0.004 C 
BRANCH   2   3
ATOM      3  C   UNL     1       1.327   1.804   7.672  1.00  0.00     0.027 C 
BRANCH   3   4
ATOM      4  C   UNL     1       0.414   1.870   6.481  1.00  0.00    -0.025 C 
ATOM      5  C   UNL     1      -0.407   2.907   6.285  1.00  0.00     0.020 C 
BRANCH   5   6
ATOM      6  C   UNL     1      -1.308   2.981   5.126  1.00  0.00     0.064 C 
ATOM      7  O   UNL     1      -0.991   3.694   4.137  1.00  0.00    -0.545 OA
ATOM      8  O   UNL     1      -2.507   2.277   5.104  1.00  0.00    -0.545 OA
ENDBRANCH   5   6
ENDBRANCH   3   4
ENDBRANCH   2   3
ENDBRANCH   1   2
BRANCH   1   9
ATOM      9  C   UNL     1       3.673  -1.088   7.477  1.00  0.00     0.000 C 
BRANCH   9  10
ATOM     10  C   UNL     1       4.640  -0.026   8.028  1.00  0.00     0.000 C 
BRANCH  10  11
ATOM     11  C   UNL     1       4.933   1.090   7.014  1.00  0.00    -0.000 C 
BRANCH  11  12
ATOM     12  C   UNL     1       5.658   2.264   7.686  1.00  0.00    -0.000 C 
BRANCH  12  13
ATOM     13  C   UNL     1       5.208   3.603   7.092  1.00  0.00    -0.003 C 
ATOM     14  C   UNL     1       4.294   3.393   5.888  1.00  0.00     0.004 C 
ENDBRANCH  12  13
ENDBRANCH  11  12
ENDBRANCH  10  11
ENDBRANCH   9  10
ENDBRANCH   1   9
TORSDOF 9
ENDMDL
MODEL 7
REMARK VINA RESULT:    -3.905      3.318      6.363
REMARK INTER + INTRA:          -7.093
REMARK INTER:                  -6.157
REMARK INTRA:                  -0.936
REMARK UNBOUND:                -1.133
REMARK SMILES CCCCCCCCCC=CC(=O)[O-]
REMARK SMILES IDX 7 1 8 2 9 3 10 4 11 5 12 6 13 7 14 8 6 9 5 10 4 11 3 12 2 13
REMARK SMILES IDX 1 14
REMARK H PARENT
REMARK Flexibility Score: inf
ROOT
ATOM      1  C   UNL     1       1.341   1.454   7.760  1.00  0.00     0.000 C 
ENDROOT
BRANCH   1   2
ATOM      2  C   UNL     1       0.410   2.661   7.537  1.00  0.00     0.004 C 
BRANCH   2   3
ATOM      3  C   UNL     1       0.068   2.936   6.061  1.00  0.00     0.027 C 
BRANCH   3   4
ATOM      4  C   UNL     1      -1.377   2.678   5.743  1.00  0.00    -0.025 C 
ATOM      5  C   UNL     1      -2.335   3.543   6.089  1.00  0.00     0.020 C 
BRANCH   5   6
ATOM      6  C   UNL     1      -3.753   3.300   5.786  1.00  0.00     0.064 C 
ATOM      7  O   UNL     1      -4.143   2.130   5.534  1.00  0.00    -0.545 OA
ATOM      8  O   UNL     1      -4.671   4.344   5.772  1.00  0.00    -0.545 OA
ENDBRANCH   5   6
ENDBRANCH   3   4
ENDBRANCH   2   3
ENDBRANCH   1   2
BRANCH   1   9
ATOM      9  C   UNL     1       1.562   0.630   6.479  1.00  0.00     0.000 C 
BRANCH   9  10
ATOM     10  C   UNL     1       2.922  -0.088   6.468  1.00  0.00     0.000 C 
BRANCH  10  11
ATOM     11  C   UNL     1       3.849   0.380   7.600  1.00  0.00    -0.000 C 
BRANCH  11  12
ATOM     12  C   UNL     1       4.988   1.248   7.052  1.00  0.00    -0.000 C 
BRANCH  12  13
ATOM     13  C   UNL     1       4.697   2.737   7.264  1.00  0.00    -0.003 C 
ATOM     14  C   UNL     1       4.206   3.392   5.976  1.00  0.00     0.004 C 
ENDBRANCH  12  13
ENDBRANCH  11  12
ENDBRANCH  10  11
ENDBRANCH   9  10
ENDBRANCH   1   9
TORSDOF 9
ENDMDL
MODEL 8
REMARK VINA RESULT:    -3.892      0.918      1.721
REMARK INTER + INTRA:          -7.073
REMARK INTER:                  -5.596
REMARK INTRA:                  -1.477
REMARK UNBOUND:                -1.133
REMARK SMILES CCCCCCCCCC=CC(=O)[O-]
REMARK SMILES IDX 7 1 8 2 9 3 10 4 11 5 12 6 13 7 14 8 6 9 5 10 4 11 3 12 2 13
REMARK SMILES IDX 1 14
REMARK H PARENT
REMARK Flexibility Score: inf
ROOT
ATOM      1  C   UNL     1      -0.493   4.479   8.281  1.00  0.00     0.000 C 
ENDROOT
BRANCH   1   2
ATOM      2  C   UNL     1       0.221   3.337   9.028  1.00  0.00     0.004 C 
BRANCH   2   3
ATOM      3  C   UNL     1      -0.082   1.931   8.477  1.00  0.00     0.027 C 
BRANCH   3   4
ATOM      4  C   UNL     1       1.152   1.216   8.003  1.00  0.00    -0.025 C 
ATOM      5  C   UNL     1       1.328   0.904   6.715  1.00  0.00     0.020 C 
BRANCH   5   6
ATOM      6  C   UNL     1       2.529   0.201   6.240  1.00  0.00     0.064 C 
ATOM      7  O   UNL     1       3.650   0.768   6.313  1.00  0.00    -0.545 OA
ATOM      8  O   UNL     1       2.445  -1.081   5.709  1.00  0.00    -0.545 OA
ENDBRANCH   5   6
ENDBRANCH   3   4
ENDBRANCH   2   3
ENDBRANCH   1   2
BRANCH   1   9
ATOM      9  C   UNL     1       0.450   5.263   7.353  1.00  0.00     0.000 C 
BRANCH   9  10
ATOM     10  C   UNL     1       0.553   4.639   5.951  1.00  0.00     0.000 C 
BRANCH  10  11
ATOM     11  C   UNL     1      -0.814   4.500   5.263  1.00  0.00    -0.000 C 
BRANCH  11  12
ATOM     12  C   UNL     1      -1.138   3.028   4.979  1.00  0.00    -0.000 C 
BRANCH  12  13
ATOM     13  C   UNL     1      -2.429   2.602   5.685  1.00  0.00    -0.003 C 
ATOM     14  C   UNL     1      -3.308   3.808   6.004  1.00  0.00     0.004 C 
ENDBRANCH  12  13
ENDBRANCH  11  12
ENDBRANCH  10  11
ENDBRANCH   9  10
ENDBRANCH   1   9
TORSDOF 9
ENDMDL
MODEL 9
REMARK VINA RESULT:    -3.874     12.841     14.202
REMARK INTER + INTRA:          -7.045
REMARK INTER:                  -5.676
REMARK INTRA:                  -1.368
REMARK UNBOUND:                -1.133
REMARK SMILES CCCCCCCCCC=CC(=O)[O-]
REMARK SMILES IDX 7 1 8 2 9 3 10 4 11 5 12 6 13 7 14 8 6 9 5 10 4 11 3 12 2 13
REMARK SMILES IDX 1 14
REMARK H PARENT
REMARK Flexibility Score: inf
ROOT
ATOM      1  C   UNL     1      -6.002  -1.383  -7.107  1.00  0.00     0.000 C 
ENDROOT
BRANCH   1   2
ATOM      2  C   UNL     1      -4.570  -0.917  -7.433  1.00  0.00     0.004 C 
BRANCH   2   3
ATOM      3  C   UNL     1      -3.916  -0.059  -6.335  1.00  0.00     0.027 C 
BRANCH   3   4
ATOM      4  C   UNL     1      -2.886  -0.815  -5.545  1.00  0.00    -0.025 C 
ATOM      5  C   UNL     1      -1.956  -1.564  -6.145  1.00  0.00     0.020 C 
BRANCH   5   6
ATOM      6  C   UNL     1      -0.944  -2.311  -5.383  1.00  0.00     0.064 C 
ATOM      7  O   UNL     1       0.268  -2.227  -5.711  1.00  0.00    -0.545 OA
ATOM      8  O   UNL     1      -1.306  -3.111  -4.305  1.00  0.00    -0.545 OA
ENDBRANCH   5   6
ENDBRANCH   3   4
ENDBRANCH   2   3
ENDBRANCH   1   2
BRANCH   1   9
ATOM      9  C   UNL     1      -6.083  -2.889  -6.804  1.00  0.00     0.000 C 
BRANCH   9  10
ATOM     10  C   UNL     1      -4.828  -3.651  -7.262  1.00  0.00     0.000 C 
BRANCH  10  11
ATOM     11  C   UNL     1      -4.167  -4.441  -6.123  1.00  0.00    -0.000 C 
BRANCH  11  12
ATOM     12  C   UNL     1      -4.699  -3.986  -4.758  1.00  0.00    -0.000 C 
BRANCH  12  13
ATOM     13  C   UNL     1      -4.569  -5.101  -3.715  1.00  0.00    -0.003 C 
ATOM     14  C   UNL     1      -5.324  -6.354  -4.149  1.00  0.00     0.004 C 
ENDBRANCH  12  13
ENDBRANCH  11  12
ENDBRANCH  10  11
ENDBRANCH   9  10
ENDBRANCH   1   9
TORSDOF 9
ENDMDL
