MODEL 1
REMARK VINA RESULT:    -4.457      0.000      0.000
REMARK INTER + INTRA:          -9.597
REMARK INTER:                  -8.365
REMARK INTRA:                  -1.232
REMARK UNBOUND:                -1.232
REMARK SMILES O=C([O-])CCCCCCCCCCCCCCC(=O)[O-]
REMARK SMILES IDX 10 1 9 2 8 3 7 4 6 5 5 6 4 7 2 8 1 9 3 10 11 11 12 12 13 13
REMARK SMILES IDX 14 14 15 15 16 16 17 17 18 18 19 19 20 20
REMARK H PARENT
REMARK Flexibility Score: inf
ROOT
ATOM      1  C   UNL     1      57.289  -1.990  84.358  1.00  0.00     0.000 C 
ENDROOT
BRANCH   1   2
ATOM      2  C   UNL     1      57.681  -0.527  84.608  1.00  0.00     0.000 C 
BRANCH   2   3
ATOM      3  C   UNL     1      59.171  -0.258  84.344  1.00  0.00     0.000 C 
BRANCH   3   4
ATOM      4  C   UNL     1      59.936  -1.525  83.929  1.00  0.00     0.000 C 
BRANCH   4   5
ATOM      5  C   UNL     1      60.110  -1.583  82.404  1.00  0.00     0.000 C 
BRANCH   5   6
ATOM      6  C   UNL     1      60.117  -3.023  81.864  1.00  0.00     0.006 C 
BRANCH   6   7
ATOM      7  C   UNL     1      59.924  -4.070  82.969  1.00  0.00     0.053 C 
BRANCH   7   8
ATOM      8  C   UNL     1      60.995  -5.113  82.892  1.00  0.00     0.041 C 
ATOM      9  O   UNL     1      61.043  -6.035  83.749  1.00  0.00    -0.550 OA
ATOM     10  O   UNL     1      61.968  -5.040  81.904  1.00  0.00    -0.550 OA
ENDBRANCH   7   8
ENDBRANCH   6   7
ENDBRANCH   5   6
ENDBRANCH   4   5
ENDBRANCH   3   4
ENDBRANCH   2   3
ENDBRANCH   1   2
BRANCH   1  11
ATOM     11  C   UNL     1      56.306  -2.104  83.187  1.00  0.00     0.000 C 
BRANCH  11  12
ATOM     12  C   UNL     1      56.184  -3.555  82.706  1.00  0.00     0.000 C 
BRANCH  12  13
ATOM     13  C   UNL     1      54.807  -3.814  82.078  1.00  0.00     0.000 C 
BRANCH  13  14
ATOM     14  C   UNL     1      53.875  -2.594  82.163  1.00  0.00     0.000 C 
BRANCH  14  15
ATOM     15  C   UNL     1      52.404  -2.987  82.380  1.00  0.00     0.000 C 
BRANCH  15  16
ATOM     16  C   UNL     1      51.760  -3.600  81.122  1.00  0.00     0.006 C 
BRANCH  16  17
ATOM     17  C   UNL     1      50.707  -2.706  80.448  1.00  0.00     0.053 C 
BRANCH  17  18
ATOM     18  C   UNL     1      49.330  -2.970  80.972  1.00  0.00     0.041 C 
ATOM     19  O   UNL     1      48.771  -4.078  80.758  1.00  0.00    -0.550 OA
ATOM     20  O   UNL     1      48.648  -1.980  81.668  1.00  0.00    -0.550 OA
ENDBRANCH  17  18
ENDBRANCH  16  17
ENDBRANCH  15  16
ENDBRANCH  14  15
ENDBRANCH  13  14
ENDBRANCH  12  13
ENDBRANCH  11  12
ENDBRANCH   1  11
TORSDOF 15
ENDMDL
MODEL 2
REMARK VINA RESULT:    -4.451      9.853     11.569
REMARK INTER + INTRA:          -9.587
REMARK INTER:                  -7.702
REMARK INTRA:                  -1.884
REMARK UNBOUND:                -1.232
REMARK SMILES O=C([O-])CCCCCCCCCCCCCCC(=O)[O-]
REMARK SMILES IDX 10 1 9 2 8 3 7 4 6 5 5 6 4 7 2 8 1 9 3 10 11 11 12 12 13 13
REMARK SMILES IDX 14 14 15 15 16 16 17 17 18 18 19 19 20 20
REMARK H PARENT
REMARK Flexibility Score: inf
ROOT
ATOM      1  C   UNL     1      48.874  -1.482  72.621  1.00  0.00     0.000 C 
ENDROOT
BRANCH   1   2
ATOM      2  C   UNL     1      49.845  -0.594  71.829  1.00  0.00     0.000 C 
BRANCH   2   3
ATOM      3  C   UNL     1      50.979  -0.030  72.700  1.00  0.00     0.000 C 
BRANCH   3   4
ATOM      4  C   UNL     1      52.266   0.228  71.901  1.00  0.00     0.000 C 
BRANCH   4   5
ATOM      5  C   UNL     1      53.324  -0.843  72.205  1.00  0.00     0.000 C 
BRANCH   5   6
ATOM      6  C   UNL     1      52.881  -1.814  73.313  1.00  0.00     0.006 C 
BRANCH   6   7
ATOM      7  C   UNL     1      52.918  -3.280  72.863  1.00  0.00     0.053 C 
BRANCH   7   8
ATOM      8  C   UNL     1      53.458  -4.149  73.955  1.00  0.00     0.041 C 
ATOM      9  O   UNL     1      52.823  -5.173  74.323  1.00  0.00    -0.550 OA
ATOM     10  O   UNL     1      54.638  -3.801  74.601  1.00  0.00    -0.550 OA
ENDBRANCH   7   8
ENDBRANCH   6   7
ENDBRANCH   5   6
ENDBRANCH   4   5
ENDBRANCH   3   4
ENDBRANCH   2   3
ENDBRANCH   1   2
BRANCH   1  11
ATOM     11  C   UNL     1      48.778  -1.025  74.082  1.00  0.00     0.000 C 
BRANCH  11  12
ATOM     12  C   UNL     1      48.600  -2.221  75.024  1.00  0.00     0.000 C 
BRANCH  12  13
ATOM     13  C   UNL     1      49.746  -3.230  74.857  1.00  0.00     0.000 C 
BRANCH  13  14
ATOM     14  C   UNL     1      49.252  -4.634  74.471  1.00  0.00     0.000 C 
BRANCH  14  15
ATOM     15  C   UNL     1      47.754  -4.659  74.120  1.00  0.00     0.000 C 
BRANCH  15  16
ATOM     16  C   UNL     1      47.497  -4.986  72.637  1.00  0.00     0.006 C 
BRANCH  16  17
ATOM     17  C   UNL     1      46.504  -6.136  72.404  1.00  0.00     0.053 C 
BRANCH  17  18
ATOM     18  C   UNL     1      47.150  -7.476  72.568  1.00  0.00     0.041 C 
ATOM     19  O   UNL     1      46.495  -8.443  73.037  1.00  0.00    -0.550 OA
ATOM     20  O   UNL     1      48.487  -7.649  72.234  1.00  0.00    -0.550 OA
ENDBRANCH  17  18
ENDBRANCH  16  17
ENDBRANCH  15  16
ENDBRANCH  14  15
ENDBRANCH  13  14
ENDBRANCH  12  13
ENDBRANCH  11  12
ENDBRANCH   1  11
TORSDOF 15
ENDMDL
MODEL 3
REMARK VINA RESULT:    -4.419     11.124     13.389
REMARK INTER + INTRA:          -9.526
REMARK INTER:                  -7.443
REMARK INTRA:                  -2.083
REMARK UNBOUND:                -1.232
REMARK SMILES O=C([O-])CCCCCCCCCCCCCCC(=O)[O-]
REMARK SMILES IDX 10 1 9 2 8 3 7 4 6 5 5 6 4 7 2 8 1 9 3 10 11 11 12 12 13 13
REMARK SMILES IDX 14 14 15 15 16 16 17 17 18 18 19 19 20 20
REMARK H PARENT
REMARK Flexibility Score: inf
ROOT
ATOM      1  C   UNL     1      51.374  -3.166  74.245  1.00  0.00     0.000 C 
ENDROOT
BRANCH   1   2
ATOM      2  C   UNL     1      50.321  -4.259  74.010  1.00  0.00     0.000 C 
BRANCH   2   3
ATOM      3  C   UNL     1      49.694  -4.187  72.608  1.00  0.00     0.000 C 
BRANCH   3   4
ATOM      4  C   UNL     1      48.159  -4.237  72.643  1.00  0.00     0.000 C 
BRANCH   4   5
ATOM      5  C   UNL     1      47.644  -4.266  74.090  1.00  0.00     0.000 C 
BRANCH   5   6
ATOM      6  C   UNL     1      46.940  -5.587  74.442  1.00  0.00     0.006 C 
BRANCH   6   7
ATOM      7  C   UNL     1      46.291  -6.253  73.222  1.00  0.00     0.053 C 
BRANCH   7   8
ATOM      8  C   UNL     1      45.681  -7.565  73.607  1.00  0.00     0.041 C 
ATOM      9  O   UNL     1      45.345  -7.780  74.802  1.00  0.00    -0.550 OA
ATOM     10  O   UNL     1      45.529  -8.567  72.658  1.00  0.00    -0.550 OA
ENDBRANCH   7   8
ENDBRANCH   6   7
ENDBRANCH   5   6
ENDBRANCH   4   5
ENDBRANCH   3   4
ENDBRANCH   2   3
ENDBRANCH   1   2
BRANCH   1  11
ATOM     11  C   UNL     1      52.318  -3.044  73.043  1.00  0.00     0.000 C 
BRANCH  11  12
ATOM     12  C   UNL     1      52.470  -1.582  72.605  1.00  0.00     0.000 C 
BRANCH  12  13
ATOM     13  C   UNL     1      51.235  -0.758  72.999  1.00  0.00     0.000 C 
BRANCH  13  14
ATOM     14  C   UNL     1      50.213  -0.634  71.856  1.00  0.00     0.000 C 
BRANCH  14  15
ATOM     15  C   UNL     1      48.763  -0.558  72.365  1.00  0.00     0.000 C 
BRANCH  15  16
ATOM     16  C   UNL     1      48.675  -0.486  73.901  1.00  0.00     0.006 C 
BRANCH  16  17
ATOM     17  C   UNL     1      47.915   0.738  74.436  1.00  0.00     0.053 C 
BRANCH  17  18
ATOM     18  C   UNL     1      48.462   2.021  73.891  1.00  0.00     0.041 C 
ATOM     19  O   UNL     1      47.709   2.822  73.277  1.00  0.00    -0.550 OA
ATOM     20  O   UNL     1      49.812   2.316  74.030  1.00  0.00    -0.550 OA
ENDBRANCH  17  18
ENDBRANCH  16  17
ENDBRANCH  15  16
ENDBRANCH  14  15
ENDBRANCH  13  14
ENDBRANCH  12  13
ENDBRANCH  11  12
ENDBRANCH   1  11
TORSDOF 15
ENDMDL
MODEL 4
REMARK VINA RESULT:    -4.413      9.696     13.146
REMARK INTER + INTRA:          -9.515
REMARK INTER:                  -7.659
REMARK INTRA:                  -1.857
REMARK UNBOUND:                -1.232
REMARK SMILES O=C([O-])CCCCCCCCCCCCCCC(=O)[O-]
REMARK SMILES IDX 10 1 9 2 8 3 7 4 6 5 5 6 4 7 2 8 1 9 3 10 11 11 12 12 13 13
REMARK SMILES IDX 14 14 15 15 16 16 17 17 18 18 19 19 20 20
REMARK H PARENT
REMARK Flexibility Score: inf
ROOT
ATOM      1  C   UNL     1      48.248  -0.271  74.839  1.00  0.00     0.000 C 
ENDROOT
BRANCH   1   2
ATOM      2  C   UNL     1      49.128  -1.454  75.265  1.00  0.00     0.000 C 
BRANCH   2   3
ATOM      3  C   UNL     1      48.392  -2.801  75.182  1.00  0.00     0.000 C 
BRANCH   3   4
ATOM      4  C   UNL     1      49.107  -3.811  74.271  1.00  0.00     0.000 C 
BRANCH   4   5
ATOM      5  C   UNL     1      48.255  -4.134  73.036  1.00  0.00     0.000 C 
BRANCH   5   6
ATOM      6  C   UNL     1      46.969  -4.901  73.388  1.00  0.00     0.006 C 
BRANCH   6   7
ATOM      7  C   UNL     1      47.109  -6.415  73.182  1.00  0.00     0.053 C 
BRANCH   7   8
ATOM      8  C   UNL     1      46.300  -7.157  74.200  1.00  0.00     0.041 C 
ATOM      9  O   UNL     1      46.735  -7.297  75.374  1.00  0.00    -0.550 OA
ATOM     10  O   UNL     1      45.090  -7.736  73.840  1.00  0.00    -0.550 OA
ENDBRANCH   7   8
ENDBRANCH   6   7
ENDBRANCH   5   6
ENDBRANCH   4   5
ENDBRANCH   3   4
ENDBRANCH   2   3
ENDBRANCH   1   2
BRANCH   1  11
ATOM     11  C   UNL     1      48.805   0.403  73.579  1.00  0.00     0.000 C 
BRANCH  11  12
ATOM     12  C   UNL     1      48.617  -0.488  72.346  1.00  0.00     0.000 C 
BRANCH  12  13
ATOM     13  C   UNL     1      49.969  -0.978  71.809  1.00  0.00     0.000 C 
BRANCH  13  14
ATOM     14  C   UNL     1      51.142  -0.084  72.243  1.00  0.00     0.000 C 
BRANCH  14  15
ATOM     15  C   UNL     1      52.435  -0.881  72.489  1.00  0.00     0.000 C 
BRANCH  15  16
ATOM     16  C   UNL     1      52.178  -2.228  73.191  1.00  0.00     0.006 C 
BRANCH  16  17
ATOM     17  C   UNL     1      53.280  -3.277  72.972  1.00  0.00     0.053 C 
BRANCH  17  18
ATOM     18  C   UNL     1      53.445  -4.173  74.159  1.00  0.00     0.041 C 
ATOM     19  O   UNL     1      52.736  -4.004  75.186  1.00  0.00    -0.550 OA
ATOM     20  O   UNL     1      54.407  -5.176  74.146  1.00  0.00    -0.550 OA
ENDBRANCH  17  18
ENDBRANCH  16  17
ENDBRANCH  15  16
ENDBRANCH  14  15
ENDBRANCH  13  14
ENDBRANCH  12  13
ENDBRANCH  11  12
ENDBRANCH   1  11
TORSDOF 15
ENDMDL
MODEL 5
REMARK VINA RESULT:    -4.407     10.479     13.861
REMARK INTER + INTRA:          -9.504
REMARK INTER:                  -7.812
REMARK INTRA:                  -1.692
REMARK UNBOUND:                -1.232
REMARK SMILES O=C([O-])CCCCCCCCCCCCCCC(=O)[O-]
REMARK SMILES IDX 10 1 9 2 8 3 7 4 6 5 5 6 4 7 2 8 1 9 3 10 11 11 12 12 13 13
REMARK SMILES IDX 14 14 15 15 16 16 17 17 18 18 19 19 20 20
REMARK H PARENT
REMARK Flexibility Score: inf
ROOT
ATOM      1  C   UNL     1      48.922  -2.432  75.227  1.00  0.00     0.000 C 
ENDROOT
BRANCH   1   2
ATOM      2  C   UNL     1      48.029  -3.544  74.657  1.00  0.00     0.000 C 
BRANCH   2   3
ATOM      3  C   UNL     1      48.536  -4.078  73.308  1.00  0.00     0.000 C 
BRANCH   3   4
ATOM      4  C   UNL     1      47.540  -5.040  72.641  1.00  0.00     0.000 C 
BRANCH   4   5
ATOM      5  C   UNL     1      46.390  -5.388  73.597  1.00  0.00     0.000 C 
BRANCH   5   6
ATOM      6  C   UNL     1      45.947  -6.856  73.480  1.00  0.00     0.006 C 
BRANCH   6   7
ATOM      7  C   UNL     1      47.084  -7.782  73.029  1.00  0.00     0.053 C 
BRANCH   7   8
ATOM      8  C   UNL     1      46.661  -8.586  71.839  1.00  0.00     0.041 C 
ATOM      9  O   UNL     1      46.278  -8.007  70.788  1.00  0.00    -0.550 OA
ATOM     10  O   UNL     1      46.644  -9.973  71.907  1.00  0.00    -0.550 OA
ENDBRANCH   7   8
ENDBRANCH   6   7
ENDBRANCH   5   6
ENDBRANCH   4   5
ENDBRANCH   3   4
ENDBRANCH   2   3
ENDBRANCH   1   2
BRANCH   1  11
ATOM     11  C   UNL     1      48.217  -1.072  75.162  1.00  0.00     0.000 C 
BRANCH  11  12
ATOM     12  C   UNL     1      48.937  -0.122  74.198  1.00  0.00     0.000 C 
BRANCH  12  13
ATOM     13  C   UNL     1      48.549  -0.418  72.742  1.00  0.00     0.000 C 
BRANCH  13  14
ATOM     14  C   UNL     1      49.770  -0.633  71.832  1.00  0.00     0.000 C 
BRANCH  14  15
ATOM     15  C   UNL     1      51.065  -0.061  72.434  1.00  0.00     0.000 C 
BRANCH  15  16
ATOM     16  C   UNL     1      52.213  -1.088  72.459  1.00  0.00     0.006 C 
BRANCH  16  17
ATOM     17  C   UNL     1      52.218  -2.003  73.694  1.00  0.00     0.053 C 
BRANCH  17  18
ATOM     18  C   UNL     1      52.724  -3.375  73.374  1.00  0.00     0.041 C 
ATOM     19  O   UNL     1      52.117  -4.391  73.802  1.00  0.00    -0.550 OA
ATOM     20  O   UNL     1      53.887  -3.531  72.630  1.00  0.00    -0.550 OA
ENDBRANCH  17  18
ENDBRANCH  16  17
ENDBRANCH  15  16
ENDBRANCH  14  15
ENDBRANCH  13  14
ENDBRANCH  12  13
ENDBRANCH  11  12
ENDBRANCH   1  11
TORSDOF 15
ENDMDL
MODEL 6
REMARK VINA RESULT:    -4.396      9.254     11.407
REMARK INTER + INTRA:          -9.483
REMARK INTER:                  -8.212
REMARK INTRA:                  -1.271
REMARK UNBOUND:                -1.232
REMARK SMILES O=C([O-])CCCCCCCCCCCCCCC(=O)[O-]
REMARK SMILES IDX 10 1 9 2 8 3 7 4 6 5 5 6 4 7 2 8 1 9 3 10 11 11 12 12 13 13
REMARK SMILES IDX 14 14 15 15 16 16 17 17 18 18 19 19 20 20
REMARK H PARENT
REMARK Flexibility Score: inf
ROOT
ATOM      1  C   UNL     1      50.270  -1.327  71.913  1.00  0.00     0.000 C 
ENDROOT
BRANCH   1   2
ATOM      2  C   UNL     1      51.255  -0.195  72.240  1.00  0.00     0.000 C 
BRANCH   2   3
ATOM      3  C   UNL     1      52.721  -0.659  72.219  1.00  0.00     0.000 C 
BRANCH   3   4
ATOM      4  C   UNL     1      53.033  -1.680  73.325  1.00  0.00     0.000 C 
BRANCH   4   5
ATOM      5  C   UNL     1      53.331  -3.062  72.727  1.00  0.00     0.000 C 
BRANCH   5   6
ATOM      6  C   UNL     1      53.275  -4.186  73.775  1.00  0.00     0.006 C 
BRANCH   6   7
ATOM      7  C   UNL     1      54.482  -4.170  74.722  1.00  0.00     0.053 C 
BRANCH   7   8
ATOM      8  C   UNL     1      55.450  -5.251  74.353  1.00  0.00     0.041 C 
ATOM      9  O   UNL     1      55.991  -5.254  73.216  1.00  0.00    -0.550 OA
ATOM     10  O   UNL     1      55.716  -6.281  75.246  1.00  0.00    -0.550 OA
ENDBRANCH   7   8
ENDBRANCH   6   7
ENDBRANCH   5   6
ENDBRANCH   4   5
ENDBRANCH   3   4
ENDBRANCH   2   3
ENDBRANCH   1   2
BRANCH   1  11
ATOM     11  C   UNL     1      49.124  -1.369  72.930  1.00  0.00     0.000 C 
BRANCH  11  12
ATOM     12  C   UNL     1      48.441  -2.742  72.936  1.00  0.00     0.000 C 
BRANCH  12  13
ATOM     13  C   UNL     1      49.472  -3.871  72.791  1.00  0.00     0.000 C 
BRANCH  13  14
ATOM     14  C   UNL     1      48.862  -5.267  72.999  1.00  0.00     0.000 C 
BRANCH  14  15
ATOM     15  C   UNL     1      47.792  -5.286  74.104  1.00  0.00     0.000 C 
BRANCH  15  16
ATOM     16  C   UNL     1      46.455  -5.883  73.627  1.00  0.00     0.006 C 
BRANCH  16  17
ATOM     17  C   UNL     1      46.499  -6.492  72.216  1.00  0.00     0.053 C 
BRANCH  17  18
ATOM     18  C   UNL     1      46.543  -7.987  72.252  1.00  0.00     0.041 C 
ATOM     19  O   UNL     1      45.523  -8.645  72.586  1.00  0.00    -0.550 OA
ATOM     20  O   UNL     1      47.723  -8.656  71.949  1.00  0.00    -0.550 OA
ENDBRANCH  17  18
ENDBRANCH  16  17
ENDBRANCH  15  16
ENDBRANCH  14  15
ENDBRANCH  13  14
ENDBRANCH  12  13
ENDBRANCH  11  12
ENDBRANCH   1  11
TORSDOF 15
ENDMDL
MODEL 7
REMARK VINA RESULT:    -4.381     10.297     13.095
REMARK INTER + INTRA:          -9.454
REMARK INTER:                  -7.670
REMARK INTRA:                  -1.784
REMARK UNBOUND:                -1.232
REMARK SMILES O=C([O-])CCCCCCCCCCCCCCC(=O)[O-]
REMARK SMILES IDX 10 1 9 2 8 3 7 4 6 5 5 6 4 7 2 8 1 9 3 10 11 11 12 12 13 13
REMARK SMILES IDX 14 14 15 15 16 16 17 17 18 18 19 19 20 20
REMARK H PARENT
REMARK Flexibility Score: inf
ROOT
ATOM      1  C   UNL     1      52.355  -3.196  72.967  1.00  0.00     0.000 C 
ENDROOT
BRANCH   1   2
ATOM      2  C   UNL     1      51.025  -3.843  73.381  1.00  0.00     0.000 C 
BRANCH   2   3
ATOM      3  C   UNL     1      50.039  -3.972  72.209  1.00  0.00     0.000 C 
BRANCH   3   4
ATOM      4  C   UNL     1      48.573  -4.008  72.670  1.00  0.00     0.000 C 
BRANCH   4   5
ATOM      5  C   UNL     1      48.186  -5.413  73.154  1.00  0.00     0.000 C 
BRANCH   5   6
ATOM      6  C   UNL     1      46.730  -5.775  72.818  1.00  0.00     0.006 C 
BRANCH   6   7
ATOM      7  C   UNL     1      46.435  -7.269  73.004  1.00  0.00     0.053 C 
BRANCH   7   8
ATOM      8  C   UNL     1      46.982  -8.057  71.855  1.00  0.00     0.041 C 
ATOM      9  O   UNL     1      48.056  -8.703  71.985  1.00  0.00    -0.550 OA
ATOM     10  O   UNL     1      46.333  -8.038  70.627  1.00  0.00    -0.550 OA
ENDBRANCH   7   8
ENDBRANCH   6   7
ENDBRANCH   5   6
ENDBRANCH   4   5
ENDBRANCH   3   4
ENDBRANCH   2   3
ENDBRANCH   1   2
BRANCH   1  11
ATOM     11  C   UNL     1      52.442  -1.749  73.464  1.00  0.00     0.000 C 
BRANCH  11  12
ATOM     12  C   UNL     1      52.402  -0.759  72.294  1.00  0.00     0.000 C 
BRANCH  12  13
ATOM     13  C   UNL     1      51.173   0.158  72.390  1.00  0.00     0.000 C 
BRANCH  13  14
ATOM     14  C   UNL     1      49.881  -0.525  71.911  1.00  0.00     0.000 C 
BRANCH  14  15
ATOM     15  C   UNL     1      48.707  -0.318  72.883  1.00  0.00     0.000 C 
BRANCH  15  16
ATOM     16  C   UNL     1      49.167  -0.151  74.344  1.00  0.00     0.006 C 
BRANCH  16  17
ATOM     17  C   UNL     1      48.835  -1.344  75.254  1.00  0.00     0.053 C 
BRANCH  17  18
ATOM     18  C   UNL     1      48.642  -0.926  76.678  1.00  0.00     0.041 C 
ATOM     19  O   UNL     1      48.725  -1.774  77.605  1.00  0.00    -0.550 OA
ATOM     20  O   UNL     1      48.336   0.395  76.981  1.00  0.00    -0.550 OA
ENDBRANCH  17  18
ENDBRANCH  16  17
ENDBRANCH  15  16
ENDBRANCH  14  15
ENDBRANCH  13  14
ENDBRANCH  12  13
ENDBRANCH  11  12
ENDBRANCH   1  11
TORSDOF 15
ENDMDL
MODEL 8
REMARK VINA RESULT:    -4.350      9.383     12.430
REMARK INTER + INTRA:          -9.397
REMARK INTER:                  -7.459
REMARK INTRA:                  -1.937
REMARK UNBOUND:                -1.232
REMARK SMILES O=C([O-])CCCCCCCCCCCCCCC(=O)[O-]
REMARK SMILES IDX 10 1 9 2 8 3 7 4 6 5 5 6 4 7 2 8 1 9 3 10 11 11 12 12 13 13
REMARK SMILES IDX 14 14 15 15 16 16 17 17 18 18 19 19 20 20
REMARK H PARENT
REMARK Flexibility Score: inf
ROOT
ATOM      1  C   UNL     1      51.623   0.226  72.032  1.00  0.00     0.000 C 
ENDROOT
BRANCH   1   2
ATOM      2  C   UNL     1      50.446  -0.303  72.865  1.00  0.00     0.000 C 
BRANCH   2   3
ATOM      3  C   UNL     1      49.347  -0.942  72.000  1.00  0.00     0.000 C 
BRANCH   3   4
ATOM      4  C   UNL     1      48.789  -2.237  72.613  1.00  0.00     0.000 C 
BRANCH   4   5
ATOM      5  C   UNL     1      49.734  -3.419  72.350  1.00  0.00     0.000 C 
BRANCH   5   6
ATOM      6  C   UNL     1      49.078  -4.778  72.644  1.00  0.00     0.006 C 
BRANCH   6   7
ATOM      7  C   UNL     1      47.606  -4.646  73.058  1.00  0.00     0.053 C 
BRANCH   7   8
ATOM      8  C   UNL     1      46.913  -5.969  72.951  1.00  0.00     0.041 C 
ATOM      9  O   UNL     1      45.768  -6.126  73.451  1.00  0.00    -0.550 OA
ATOM     10  O   UNL     1      47.552  -7.041  72.343  1.00  0.00    -0.550 OA
ENDBRANCH   7   8
ENDBRANCH   6   7
ENDBRANCH   5   6
ENDBRANCH   4   5
ENDBRANCH   3   4
ENDBRANCH   2   3
ENDBRANCH   1   2
BRANCH   1  11
ATOM     11  C   UNL     1      52.867  -0.650  72.220  1.00  0.00     0.000 C 
BRANCH  11  12
ATOM     12  C   UNL     1      52.673  -1.647  73.369  1.00  0.00     0.000 C 
BRANCH  12  13
ATOM     13  C   UNL     1      53.416  -2.961  73.088  1.00  0.00     0.000 C 
BRANCH  13  14
ATOM     14  C   UNL     1      53.748  -3.744  74.369  1.00  0.00     0.000 C 
BRANCH  14  15
ATOM     15  C   UNL     1      53.224  -5.189  74.333  1.00  0.00     0.000 C 
BRANCH  15  16
ATOM     16  C   UNL     1      51.827  -5.331  74.964  1.00  0.00     0.006 C 
BRANCH  16  17
ATOM     17  C   UNL     1      51.412  -4.152  75.859  1.00  0.00     0.053 C 
BRANCH  17  18
ATOM     18  C   UNL     1      49.946  -4.162  76.157  1.00  0.00     0.041 C 
ATOM     19  O   UNL     1      49.381  -5.224  76.529  1.00  0.00    -0.550 OA
ATOM     20  O   UNL     1      49.194  -3.005  75.990  1.00  0.00    -0.550 OA
ENDBRANCH  17  18
ENDBRANCH  16  17
ENDBRANCH  15  16
ENDBRANCH  14  15
ENDBRANCH  13  14
ENDBRANCH  12  13
ENDBRANCH  11  12
ENDBRANCH   1  11
TORSDOF 15
ENDMDL
MODEL 9
REMARK VINA RESULT:    -4.310     11.050     12.596
REMARK INTER + INTRA:          -9.322
REMARK INTER:                  -7.492
REMARK INTRA:                  -1.829
REMARK UNBOUND:                -1.232
REMARK SMILES O=C([O-])CCCCCCCCCCCCCCC(=O)[O-]
REMARK SMILES IDX 10 1 9 2 8 3 7 4 6 5 5 6 4 7 2 8 1 9 3 10 11 11 12 12 13 13
REMARK SMILES IDX 14 14 15 15 16 16 17 17 18 18 19 19 20 20
REMARK H PARENT
REMARK Flexibility Score: inf
ROOT
ATOM      1  C   UNL     1      47.553  -1.252  76.202  1.00  0.00     0.000 C 
ENDROOT
BRANCH   1   2
ATOM      2  C   UNL     1      48.557  -0.263  75.591  1.00  0.00     0.000 C 
BRANCH   2   3
ATOM      3  C   UNL     1      47.916   0.661  74.543  1.00  0.00     0.000 C 
BRANCH   3   4
ATOM      4  C   UNL     1      48.780   0.814  73.281  1.00  0.00     0.000 C 
BRANCH   4   5
ATOM      5  C   UNL     1      48.633  -0.410  72.366  1.00  0.00     0.000 C 
BRANCH   5   6
ATOM      6  C   UNL     1      49.988  -0.953  71.881  1.00  0.00     0.006 C 
BRANCH   6   7
ATOM      7  C   UNL     1      51.162  -0.049  72.278  1.00  0.00     0.053 C 
BRANCH   7   8
ATOM      8  C   UNL     1      52.405  -0.861  72.468  1.00  0.00     0.041 C 
ATOM      9  O   UNL     1      53.528  -0.382  72.157  1.00  0.00    -0.550 OA
ATOM     10  O   UNL     1      52.319  -2.164  72.941  1.00  0.00    -0.550 OA
ENDBRANCH   7   8
ENDBRANCH   6   7
ENDBRANCH   5   6
ENDBRANCH   4   5
ENDBRANCH   3   4
ENDBRANCH   2   3
ENDBRANCH   1   2
BRANCH   1  11
ATOM     11  C   UNL     1      47.775  -2.668  75.657  1.00  0.00     0.000 C 
BRANCH  11  12
ATOM     12  C   UNL     1      49.255  -2.911  75.336  1.00  0.00     0.000 C 
BRANCH  12  13
ATOM     13  C   UNL     1      49.409  -3.842  74.125  1.00  0.00     0.000 C 
BRANCH  13  14
ATOM     14  C   UNL     1      48.150  -3.887  73.243  1.00  0.00     0.000 C 
BRANCH  14  15
ATOM     15  C   UNL     1      47.963  -5.246  72.548  1.00  0.00     0.000 C 
BRANCH  15  16
ATOM     16  C   UNL     1      46.590  -5.880  72.841  1.00  0.00     0.006 C 
BRANCH  16  17
ATOM     17  C   UNL     1      46.641  -7.379  73.175  1.00  0.00     0.053 C 
BRANCH  17  18
ATOM     18  C   UNL     1      47.012  -8.207  71.984  1.00  0.00     0.041 C 
ATOM     19  O   UNL     1      47.892  -9.102  72.082  1.00  0.00    -0.550 OA
ATOM     20  O   UNL     1      46.409  -7.968  70.756  1.00  0.00    -0.550 OA
ENDBRANCH  17  18
ENDBRANCH  16  17
ENDBRANCH  15  16
ENDBRANCH  14  15
ENDBRANCH  13  14
ENDBRANCH  12  13
ENDBRANCH  11  12
ENDBRANCH   1  11
TORSDOF 15
ENDMDL
