MODEL 1
REMARK VINA RESULT:     3.448      0.000      0.000
REMARK INTER + INTRA:           5.499
REMARK INTER:                   4.859
REMARK INTRA:                   0.639
REMARK UNBOUND:                 0.639
REMARK SMILES CC1=CCC(=C(C)C)C(=O)CC(C)=CCC1
REMARK SMILES IDX 12 1 14 2 13 3 15 4 16 5 2 6 1 7 3 8 11 10 9 11 10 12 5 13
REMARK SMILES IDX 6 14 7 15 8 16 4 17
REMARK H PARENT
REMARK Flexibility Score: 60.00
ROOT
ATOM      1  C   UNL     1      -6.077  11.948   7.382  1.00  0.00    -0.070 C 
ATOM      2  C   UNL     1      -5.259  10.948   7.781  1.00  0.00    -0.027 C 
ATOM      3  C   UNL     1      -6.755  11.811   6.042  1.00  0.00     0.039 C 
ENDROOT
BRANCH   2   4
ATOM      4  C   UNL     1      -4.569  10.855   9.125  1.00  0.00     0.032 C 
BRANCH   4   5
ATOM      5  C   UNL     1      -3.038  11.043   9.081  1.00  0.00     0.034 C 
BRANCH   5   6
ATOM      6  C   UNL     1      -2.511  11.334   7.687  1.00  0.00    -0.077 C 
ATOM      7  C   UNL     1      -1.912  10.188   6.911  1.00  0.00     0.039 C 
ATOM      8  C   UNL     1      -2.607  12.536   7.069  1.00  0.00    -0.023 CG0
ATOM      9  G   UNL     1      -3.149  13.825   7.656  1.00  0.00     0.000 G0
ENDBRANCH   5   6
ENDBRANCH   4   5
ENDBRANCH   2   4
BRANCH   1  10
ATOM     10  C   UNL     1      -6.414  13.142   8.250  1.00  0.00     0.111 C 
BRANCH  10  11
ATOM     11  C   UNL     1      -5.646  14.368   7.830  1.00  0.00     0.163 C 
ATOM     12  O   UNL     1      -6.035  15.488   8.260  1.00  0.00    -0.294 OA
BRANCH  11  13
ATOM     13  C   UNL     1      -4.420  14.294   6.982  1.00  0.00    -0.002 C 
ATOM     14  C   UNL     1      -4.442  14.717   5.682  1.00  0.00    -0.069 C 
ATOM     15  C   UNL     1      -3.184  14.803   4.846  1.00  0.00     0.039 C 
ATOM     16  C   UNL     1      -5.736  15.123   5.012  1.00  0.00     0.039 C 
BRANCH  13  17
ATOM     17  C   UNL     1      -3.138  13.824   7.652  1.00  0.00     0.066 CG0
ATOM     18  G   UNL     1      -2.615  12.534   7.052  1.00  0.00     0.000 G0
ENDBRANCH  13  17
ENDBRANCH  11  13
ENDBRANCH  10  11
ENDBRANCH   1  10
TORSDOF 0
ENDMDL
MODEL 2
REMARK VINA RESULT:     3.996      1.323      3.298
REMARK INTER + INTRA:           6.271
REMARK INTER:                   3.580
REMARK INTRA:                   2.691
REMARK UNBOUND:                 0.639
REMARK SMILES CC1=CCC(=C(C)C)C(=O)CC(C)=CCC1
REMARK SMILES IDX 12 1 14 2 13 3 15 4 16 5 2 6 1 7 3 8 11 10 9 11 10 12 5 13
REMARK SMILES IDX 6 14 7 15 8 16 4 17
REMARK H PARENT
REMARK Flexibility Score: 60.00
ROOT
ATOM      1  C   UNL     1      -4.535  15.352   5.360  1.00  0.00    -0.070 C 
ATOM      2  C   UNL     1      -3.365  14.696   5.523  1.00  0.00    -0.027 C 
ATOM      3  C   UNL     1      -4.509  16.670   4.628  1.00  0.00     0.039 C 
ENDROOT
BRANCH   2   4
ATOM      4  C   UNL     1      -3.200  13.324   6.141  1.00  0.00     0.032 C 
BRANCH   4   5
ATOM      5  C   UNL     1      -2.639  13.323   7.578  1.00  0.00     0.034 C 
BRANCH   5   6
ATOM      6  C   UNL     1      -2.908  12.029   8.324  1.00  0.00    -0.077 C 
ATOM      7  C   UNL     1      -1.797  11.010   8.382  1.00  0.00     0.039 C 
ATOM      8  C   UNL     1      -4.051  11.759   8.999  1.00  0.00    -0.023 CG0
ATOM      9  G   UNL     1      -5.299  12.619   9.065  1.00  0.00     0.000 G0
ENDBRANCH   5   6
ENDBRANCH   4   5
ENDBRANCH   2   4
BRANCH   1  10
ATOM     10  C   UNL     1      -5.872  14.787   5.791  1.00  0.00     0.111 C 
BRANCH  10  11
ATOM     11  C   UNL     1      -5.857  14.365   7.237  1.00  0.00     0.163 C 
ATOM     12  O   UNL     1      -5.928  15.264   8.118  1.00  0.00    -0.294 OA
BRANCH  11  13
ATOM     13  C   UNL     1      -5.823  12.932   7.653  1.00  0.00    -0.002 C 
ATOM     14  C   UNL     1      -6.175  11.941   6.779  1.00  0.00    -0.069 C 
ATOM     15  C   UNL     1      -6.001  10.477   7.115  1.00  0.00     0.039 C 
ATOM     16  C   UNL     1      -6.757  12.265   5.421  1.00  0.00     0.039 C 
BRANCH  13  17
ATOM     17  C   UNL     1      -5.294  12.624   9.045  1.00  0.00     0.066 CG0
ATOM     18  G   UNL     1      -4.051  11.757   9.009  1.00  0.00     0.000 G0
ENDBRANCH  13  17
ENDBRANCH  11  13
ENDBRANCH  10  11
ENDBRANCH   1  10
TORSDOF 0
ENDMDL
MODEL 3
REMARK VINA RESULT:     4.014      1.796      3.730
REMARK INTER + INTRA:           6.296
REMARK INTER:                   4.746
REMARK INTRA:                   1.550
REMARK UNBOUND:                 0.639
REMARK SMILES CC1=CCC(=C(C)C)C(=O)CC(C)=CCC1
REMARK SMILES IDX 12 1 14 2 13 3 15 4 16 5 2 6 1 7 3 8 11 10 9 11 10 12 5 13
REMARK SMILES IDX 6 14 7 15 8 16 4 17
REMARK H PARENT
REMARK Flexibility Score: 60.00
ROOT
ATOM      1  C   UNL     1      -2.911  10.848   7.902  1.00  0.00    -0.070 C 
ATOM      2  C   UNL     1      -4.037  10.991   8.638  1.00  0.00    -0.027 C 
ATOM      3  C   UNL     1      -1.868   9.877   8.392  1.00  0.00     0.039 C 
ENDROOT
BRANCH   2   4
ATOM      4  C   UNL     1      -5.234  11.839   8.264  1.00  0.00     0.032 C 
BRANCH   4   5
ATOM      5  C   UNL     1      -5.399  13.129   9.095  1.00  0.00     0.034 C 
BRANCH   5   6
ATOM      6  C   UNL     1      -6.077  14.251   8.329  1.00  0.00    -0.077 C 
ATOM      7  C   UNL     1      -6.819  15.294   9.125  1.00  0.00     0.039 C 
ATOM      8  C   UNL     1      -5.999  14.414   6.986  1.00  0.00    -0.023 CG0
ATOM      9  G   UNL     1      -5.329  13.489   5.989  1.00  0.00     0.000 G0
ENDBRANCH   5   6
ENDBRANCH   4   5
ENDBRANCH   2   4
BRANCH   1  10
ATOM     10  C   UNL     1      -2.694  11.541   6.574  1.00  0.00     0.111 C 
BRANCH  10  11
ATOM     11  C   UNL     1      -2.905  13.029   6.681  1.00  0.00     0.163 C 
ATOM     12  O   UNL     1      -2.202  13.670   7.508  1.00  0.00    -0.294 OA
BRANCH  11  13
ATOM     13  C   UNL     1      -3.864  13.767   5.807  1.00  0.00    -0.002 C 
ATOM     14  C   UNL     1      -3.413  14.586   4.809  1.00  0.00    -0.069 C 
ATOM     15  C   UNL     1      -4.352  15.221   3.808  1.00  0.00     0.039 C 
ATOM     16  C   UNL     1      -1.940  14.897   4.656  1.00  0.00     0.039 C 
BRANCH  13  17
ATOM     17  C   UNL     1      -5.345  13.493   6.012  1.00  0.00     0.066 CG0
ATOM     18  G   UNL     1      -5.980  14.464   6.988  1.00  0.00     0.000 G0
ENDBRANCH  13  17
ENDBRANCH  11  13
ENDBRANCH  10  11
ENDBRANCH   1  10
TORSDOF 0
ENDMDL
MODEL 4
REMARK VINA RESULT:     4.123      1.635      3.837
REMARK INTER + INTRA:           6.450
REMARK INTER:                   3.990
REMARK INTRA:                   2.460
REMARK UNBOUND:                 0.639
REMARK SMILES CC1=CCC(=C(C)C)C(=O)CC(C)=CCC1
REMARK SMILES IDX 12 1 14 2 13 3 15 4 16 5 2 6 1 7 3 8 11 10 9 11 10 12 5 13
REMARK SMILES IDX 6 14 7 15 8 16 4 17
REMARK H PARENT
REMARK Flexibility Score: 60.00
ROOT
ATOM      1  C   UNL     1      -2.838  11.221   7.942  1.00  0.00    -0.070 C 
ATOM      2  C   UNL     1      -2.226  11.794   6.881  1.00  0.00    -0.027 C 
ATOM      3  C   UNL     1      -1.970  10.583   8.996  1.00  0.00     0.039 C 
ENDROOT
BRANCH   2   4
ATOM      4  C   UNL     1      -2.914  12.564   5.775  1.00  0.00     0.032 C 
BRANCH   4   5
ATOM      5  C   UNL     1      -2.614  14.077   5.755  1.00  0.00     0.034 C 
BRANCH   5   6
ATOM      6  C   UNL     1      -3.639  14.880   4.974  1.00  0.00    -0.077 C 
ATOM      7  C   UNL     1      -3.254  15.357   3.596  1.00  0.00     0.039 C 
ATOM      8  C   UNL     1      -4.898  15.135   5.404  1.00  0.00    -0.023 CG0
ATOM      9  G   UNL     1      -5.496  14.774   6.750  1.00  0.00     0.000 G0
ENDBRANCH   5   6
ENDBRANCH   4   5
ENDBRANCH   2   4
BRANCH   1  10
ATOM     10  C   UNL     1      -4.335  11.272   8.165  1.00  0.00     0.111 C 
BRANCH  10  11
ATOM     11  C   UNL     1      -4.855  12.685   8.124  1.00  0.00     0.163 C 
ATOM     12  O   UNL     1      -4.639  13.426   9.121  1.00  0.00    -0.294 OA
BRANCH  11  13
ATOM     13  C   UNL     1      -5.555  13.247   6.931  1.00  0.00    -0.002 C 
ATOM     14  C   UNL     1      -6.279  12.439   6.100  1.00  0.00    -0.069 C 
ATOM     15  C   UNL     1      -7.127  12.997   4.978  1.00  0.00     0.039 C 
ATOM     16  C   UNL     1      -6.270  10.935   6.265  1.00  0.00     0.039 C 
BRANCH  13  17
ATOM     17  C   UNL     1      -5.504  14.755   6.742  1.00  0.00     0.066 CG0
ATOM     18  G   UNL     1      -4.908  15.147   5.404  1.00  0.00     0.000 G0
ENDBRANCH  13  17
ENDBRANCH  11  13
ENDBRANCH  10  11
ENDBRANCH   1  10
TORSDOF 0
ENDMDL
MODEL 5
REMARK VINA RESULT:     5.669      1.911      3.319
REMARK INTER + INTRA:           8.628
REMARK INTER:                   5.022
REMARK INTRA:                   3.607
REMARK UNBOUND:                 0.639
REMARK SMILES CC1=CCC(=C(C)C)C(=O)CC(C)=CCC1
REMARK SMILES IDX 12 1 14 2 13 3 15 4 16 5 2 6 1 7 3 8 11 10 9 11 10 12 5 13
REMARK SMILES IDX 6 14 7 15 8 16 4 17
REMARK H PARENT
REMARK Flexibility Score: 60.00
ROOT
ATOM      1  C   UNL     1      -2.756  13.525   6.022  1.00  0.00    -0.070 C 
ATOM      2  C   UNL     1      -2.468  14.169   7.176  1.00  0.00    -0.027 C 
ATOM      3  C   UNL     1      -2.382  14.198   4.726  1.00  0.00     0.039 C 
ENDROOT
BRANCH   2   4
ATOM      4  C   UNL     1      -2.676  13.619   8.570  1.00  0.00     0.032 C 
BRANCH   4   5
ATOM      5  C   UNL     1      -1.753  12.441   8.946  1.00  0.00     0.034 C 
BRANCH   5   6
ATOM      6  C   UNL     1      -2.428  11.087   8.819  1.00  0.00    -0.077 C 
ATOM      7  C   UNL     1      -1.546   9.877   8.647  1.00  0.00     0.039 C 
ATOM      8  C   UNL     1      -3.765  10.888   8.921  1.00  0.00    -0.023 CG0
ATOM      9  G   UNL     1      -4.838  11.948   9.076  1.00  0.00     0.000 G0
ENDBRANCH   5   6
ENDBRANCH   4   5
ENDBRANCH   2   4
BRANCH   1  10
ATOM     10  C   UNL     1      -3.347  12.131   5.974  1.00  0.00     0.111 C 
BRANCH  10  11
ATOM     11  C   UNL     1      -4.756  12.106   6.505  1.00  0.00     0.163 C 
ATOM     12  O   UNL     1      -5.626  11.473   5.848  1.00  0.00    -0.294 OA
BRANCH  11  13
ATOM     13  C   UNL     1      -5.137  12.747   7.798  1.00  0.00    -0.002 C 
ATOM     14  C   UNL     1      -5.761  13.963   7.819  1.00  0.00    -0.069 C 
ATOM     15  C   UNL     1      -6.300  14.565   9.098  1.00  0.00     0.039 C 
ATOM     16  C   UNL     1      -5.944  14.772   6.554  1.00  0.00     0.039 C 
BRANCH  13  17
ATOM     17  C   UNL     1      -4.890  11.949   9.069  1.00  0.00     0.066 CG0
ATOM     18  G   UNL     1      -3.785  10.925   8.899  1.00  0.00     0.000 G0
ENDBRANCH  13  17
ENDBRANCH  11  13
ENDBRANCH  10  11
ENDBRANCH   1  10
TORSDOF 0
ENDMDL
MODEL 6
REMARK VINA RESULT:     6.166      1.563      3.969
REMARK INTER + INTRA:           9.328
REMARK INTER:                   7.165
REMARK INTRA:                   2.164
REMARK UNBOUND:                 0.639
REMARK SMILES CC1=CCC(=C(C)C)C(=O)CC(C)=CCC1
REMARK SMILES IDX 12 1 14 2 13 3 15 4 16 5 2 6 1 7 3 8 11 10 9 11 10 12 5 13
REMARK SMILES IDX 6 14 7 15 8 16 4 17
REMARK H PARENT
REMARK Flexibility Score: 60.00
ROOT
ATOM      1  C   UNL     1      -6.345  13.063   5.901  1.00  0.00    -0.070 C 
ATOM      2  C   UNL     1      -6.300  14.128   5.070  1.00  0.00    -0.027 C 
ATOM      3  C   UNL     1      -6.678  11.718   5.306  1.00  0.00     0.039 C 
ENDROOT
BRANCH   2   4
ATOM      4  C   UNL     1      -5.892  15.533   5.457  1.00  0.00     0.032 C 
BRANCH   4   5
ATOM      5  C   UNL     1      -4.417  15.685   5.884  1.00  0.00     0.034 C 
BRANCH   5   6
ATOM      6  C   UNL     1      -3.527  14.569   5.368  1.00  0.00    -0.077 C 
ATOM      7  C   UNL     1      -3.258  14.515   3.886  1.00  0.00     0.039 C 
ATOM      8  C   UNL     1      -2.903  13.662   6.159  1.00  0.00    -0.023 CG0
ATOM      9  G   UNL     1      -3.039  13.513   7.662  1.00  0.00     0.000 G0
ENDBRANCH   5   6
ENDBRANCH   4   5
ENDBRANCH   2   4
BRANCH   1  10
ATOM     10  C   UNL     1      -5.987  13.139   7.370  1.00  0.00     0.111 C 
BRANCH  10  11
ATOM     11  C   UNL     1      -5.092  12.000   7.785  1.00  0.00     0.163 C 
ATOM     12  O   UNL     1      -5.584  10.841   7.818  1.00  0.00    -0.294 OA
BRANCH  11  13
ATOM     13  C   UNL     1      -3.644  12.191   8.093  1.00  0.00    -0.002 C 
ATOM     14  C   UNL     1      -2.910  11.183   8.654  1.00  0.00    -0.069 C 
ATOM     15  C   UNL     1      -1.411  11.288   8.832  1.00  0.00     0.039 C 
ATOM     16  C   UNL     1      -3.566   9.904   9.125  1.00  0.00     0.039 C 
BRANCH  13  17
ATOM     17  C   UNL     1      -3.011  13.507   7.671  1.00  0.00     0.066 CG0
ATOM     18  G   UNL     1      -2.931  13.650   6.163  1.00  0.00     0.000 G0
ENDBRANCH  13  17
ENDBRANCH  11  13
ENDBRANCH  10  11
ENDBRANCH   1  10
TORSDOF 0
ENDMDL
