MODEL 1
REMARK VINA RESULT:    -4.268      0.000      0.000
REMARK INTER + INTRA:          -8.551
REMARK INTER:                  -7.761
REMARK INTRA:                  -0.790
REMARK UNBOUND:                -0.790
REMARK SMILES CCCCCCCCCCCCCC[C@@H](C)C(=O)[O-]
REMARK SMILES IDX 9 1 10 2 11 3 12 4 13 5 14 6 15 7 16 8 17 9 18 10 19 11 8 12
REMARK SMILES IDX 7 13 6 14 5 15 4 16 3 17 2 18 1 19
REMARK H PARENT
REMARK Flexibility Score: inf
ROOT
ATOM      1  C   UNL     1      -3.629   7.803  -4.431  1.00  0.00     0.000 C 
ENDROOT
BRANCH   1   2
ATOM      2  C   UNL     1      -4.607   8.183  -3.301  1.00  0.00     0.000 C 
BRANCH   2   3
ATOM      3  C   UNL     1      -4.075   7.949  -1.873  1.00  0.00     0.000 C 
BRANCH   3   4
ATOM      4  C   UNL     1      -2.550   8.103  -1.711  1.00  0.00     0.000 C 
BRANCH   4   5
ATOM      5  C   UNL     1      -2.040   8.064  -0.259  1.00  0.00     0.001 C 
BRANCH   5   6
ATOM      6  C   UNL     1      -1.664   9.459   0.279  1.00  0.00     0.009 C 
BRANCH   6   7
ATOM      7  C   UNL     1      -2.236   9.777   1.678  1.00  0.00     0.032 C 
ATOM      8  C   UNL     1      -1.306  10.670   2.514  1.00  0.00     0.014 C 
BRANCH   7   9
ATOM      9  C   UNL     1      -3.631  10.341   1.595  1.00  0.00     0.044 C 
ATOM     10  O   UNL     1      -4.161  10.595   0.481  1.00  0.00    -0.550 OA
ATOM     11  O   UNL     1      -4.365  10.531   2.759  1.00  0.00    -0.550 OA
ENDBRANCH   7   9
ENDBRANCH   6   7
ENDBRANCH   5   6
ENDBRANCH   4   5
ENDBRANCH   3   4
ENDBRANCH   2   3
ENDBRANCH   1   2
BRANCH   1  12
ATOM     12  C   UNL     1      -2.691   8.935  -4.889  1.00  0.00     0.000 C 
BRANCH  12  13
ATOM     13  C   UNL     1      -1.492   8.422  -5.705  1.00  0.00    -0.000 C 
BRANCH  13  14
ATOM     14  C   UNL     1      -1.203   6.932  -5.453  1.00  0.00    -0.000 C 
BRANCH  14  15
ATOM     15  C   UNL     1      -1.088   6.126  -6.759  1.00  0.00    -0.000 C 
BRANCH  15  16
ATOM     16  C   UNL     1      -0.875   4.621  -6.516  1.00  0.00    -0.000 C 
BRANCH  16  17
ATOM     17  C   UNL     1      -1.968   3.934  -5.679  1.00  0.00    -0.000 C 
BRANCH  17  18
ATOM     18  C   UNL     1      -1.500   2.610  -5.053  1.00  0.00    -0.003 C 
ATOM     19  C   UNL     1      -0.879   1.696  -6.104  1.00  0.00     0.004 C 
ENDBRANCH  17  18
ENDBRANCH  16  17
ENDBRANCH  15  16
ENDBRANCH  14  15
ENDBRANCH  13  14
ENDBRANCH  12  13
ENDBRANCH   1  12
TORSDOF 14
ENDMDL
MODEL 2
REMARK VINA RESULT:    -3.881      3.563      7.525
REMARK INTER + INTRA:          -7.848
REMARK INTER:                  -5.915
REMARK INTRA:                  -1.933
REMARK UNBOUND:                -0.790
REMARK SMILES CCCCCCCCCCCCCC[C@@H](C)C(=O)[O-]
REMARK SMILES IDX 9 1 10 2 11 3 12 4 13 5 14 6 15 7 16 8 17 9 18 10 19 11 8 12
REMARK SMILES IDX 7 13 6 14 5 15 4 16 3 17 2 18 1 19
REMARK H PARENT
REMARK Flexibility Score: inf
ROOT
ATOM      1  C   UNL     1      -4.923   8.453  -1.732  1.00  0.00     0.000 C 
ENDROOT
BRANCH   1   2
ATOM      2  C   UNL     1      -4.013   7.546  -2.585  1.00  0.00     0.000 C 
BRANCH   2   3
ATOM      3  C   UNL     1      -4.301   7.575  -4.100  1.00  0.00     0.000 C 
BRANCH   3   4
ATOM      4  C   UNL     1      -3.112   8.001  -4.983  1.00  0.00     0.000 C 
BRANCH   4   5
ATOM      5  C   UNL     1      -1.726   7.592  -4.456  1.00  0.00     0.001 C 
BRANCH   5   6
ATOM      6  C   UNL     1      -1.534   6.063  -4.402  1.00  0.00     0.009 C 
BRANCH   6   7
ATOM      7  C   UNL     1      -1.705   5.352  -5.763  1.00  0.00     0.032 C 
ATOM      8  C   UNL     1      -0.970   6.069  -6.907  1.00  0.00     0.014 C 
BRANCH   7   9
ATOM      9  C   UNL     1      -1.333   3.895  -5.681  1.00  0.00     0.044 C 
ATOM     10  O   UNL     1      -1.181   3.327  -4.567  1.00  0.00    -0.550 OA
ATOM     11  O   UNL     1      -1.208   3.151  -6.848  1.00  0.00    -0.550 OA
ENDBRANCH   7   9
ENDBRANCH   6   7
ENDBRANCH   5   6
ENDBRANCH   4   5
ENDBRANCH   3   4
ENDBRANCH   2   3
ENDBRANCH   1   2
BRANCH   1  12
ATOM     12  C   UNL     1      -5.259   9.817  -2.362  1.00  0.00     0.000 C 
BRANCH  12  13
ATOM     13  C   UNL     1      -4.288  10.930  -1.929  1.00  0.00    -0.000 C 
BRANCH  13  14
ATOM     14  C   UNL     1      -2.869  10.719  -2.481  1.00  0.00    -0.000 C 
BRANCH  14  15
ATOM     15  C   UNL     1      -1.792  10.808  -1.386  1.00  0.00    -0.000 C 
BRANCH  15  16
ATOM     16  C   UNL     1      -1.281   9.427  -0.936  1.00  0.00    -0.000 C 
BRANCH  16  17
ATOM     17  C   UNL     1      -1.946   8.867   0.334  1.00  0.00    -0.000 C 
BRANCH  17  18
ATOM     18  C   UNL     1      -2.231   9.949   1.387  1.00  0.00    -0.003 C 
ATOM     19  C   UNL     1      -3.723  10.042   1.689  1.00  0.00     0.004 C 
ENDBRANCH  17  18
ENDBRANCH  16  17
ENDBRANCH  15  16
ENDBRANCH  14  15
ENDBRANCH  13  14
ENDBRANCH  12  13
ENDBRANCH   1  12
TORSDOF 14
ENDMDL
MODEL 3
REMARK VINA RESULT:    -3.237      2.498      6.704
REMARK INTER + INTRA:          -6.676
REMARK INTER:                  -5.146
REMARK INTRA:                  -1.530
REMARK UNBOUND:                -0.790
REMARK SMILES CCCCCCCCCCCCCC[C@@H](C)C(=O)[O-]
REMARK SMILES IDX 9 1 10 2 11 3 12 4 13 5 14 6 15 7 16 8 17 9 18 10 19 11 8 12
REMARK SMILES IDX 7 13 6 14 5 15 4 16 3 17 2 18 1 19
REMARK H PARENT
REMARK Flexibility Score: inf
ROOT
ATOM      1  C   UNL     1      -4.776   8.138  -3.313  1.00  0.00     0.000 C 
ENDROOT
BRANCH   1   2
ATOM      2  C   UNL     1      -4.038   7.948  -4.654  1.00  0.00     0.000 C 
BRANCH   2   3
ATOM      3  C   UNL     1      -3.572   6.506  -4.942  1.00  0.00     0.000 C 
BRANCH   3   4
ATOM      4  C   UNL     1      -2.053   6.275  -4.822  1.00  0.00     0.000 C 
BRANCH   4   5
ATOM      5  C   UNL     1      -1.173   7.431  -5.332  1.00  0.00     0.001 C 
BRANCH   5   6
ATOM      6  C   UNL     1      -0.875   8.479  -4.242  1.00  0.00     0.009 C 
BRANCH   6   7
ATOM      7  C   UNL     1      -1.078   9.942  -4.694  1.00  0.00     0.032 C 
ATOM      8  C   UNL     1      -1.656  10.054  -6.114  1.00  0.00     0.014 C 
BRANCH   7   9
ATOM      9  C   UNL     1      -1.886  10.728  -3.695  1.00  0.00     0.044 C 
ATOM     10  O   UNL     1      -1.390  11.074  -2.590  1.00  0.00    -0.550 OA
ATOM     11  O   UNL     1      -3.178  11.125  -4.016  1.00  0.00    -0.550 OA
ENDBRANCH   7   9
ENDBRANCH   6   7
ENDBRANCH   5   6
ENDBRANCH   4   5
ENDBRANCH   3   4
ENDBRANCH   2   3
ENDBRANCH   1   2
BRANCH   1  12
ATOM     12  C   UNL     1      -4.161   7.387  -2.118  1.00  0.00     0.000 C 
BRANCH  12  13
ATOM     13  C   UNL     1      -3.422   8.321  -1.144  1.00  0.00    -0.000 C 
BRANCH  13  14
ATOM     14  C   UNL     1      -1.916   8.018  -1.066  1.00  0.00    -0.000 C 
BRANCH  14  15
ATOM     15  C   UNL     1      -1.366   8.133   0.366  1.00  0.00    -0.000 C 
BRANCH  15  16
ATOM     16  C   UNL     1      -1.072   9.586   0.779  1.00  0.00    -0.000 C 
BRANCH  16  17
ATOM     17  C   UNL     1      -1.524   9.964   2.201  1.00  0.00    -0.000 C 
BRANCH  17  18
ATOM     18  C   UNL     1      -2.651  11.009   2.213  1.00  0.00    -0.003 C 
ATOM     19  C   UNL     1      -3.989  10.378   1.844  1.00  0.00     0.004 C 
ENDBRANCH  17  18
ENDBRANCH  16  17
ENDBRANCH  15  16
ENDBRANCH  14  15
ENDBRANCH  13  14
ENDBRANCH  12  13
ENDBRANCH   1  12
TORSDOF 14
ENDMDL
MODEL 4
REMARK VINA RESULT:    -2.899      3.619      7.814
REMARK INTER + INTRA:          -6.062
REMARK INTER:                  -5.802
REMARK INTRA:                  -0.259
REMARK UNBOUND:                -0.790
REMARK SMILES CCCCCCCCCCCCCC[C@@H](C)C(=O)[O-]
REMARK SMILES IDX 9 1 10 2 11 3 12 4 13 5 14 6 15 7 16 8 17 9 18 10 19 11 8 12
REMARK SMILES IDX 7 13 6 14 5 15 4 16 3 17 2 18 1 19
REMARK H PARENT
REMARK Flexibility Score: inf
ROOT
ATOM      1  C   UNL     1      -4.582   7.966  -1.694  1.00  0.00     0.000 C 
ENDROOT
BRANCH   1   2
ATOM      2  C   UNL     1      -3.067   7.882  -1.419  1.00  0.00     0.000 C 
BRANCH   2   3
ATOM      3  C   UNL     1      -2.195   8.804  -2.295  1.00  0.00     0.000 C 
BRANCH   3   4
ATOM      4  C   UNL     1      -1.122   8.083  -3.135  1.00  0.00     0.000 C 
BRANCH   4   5
ATOM      5  C   UNL     1      -0.881   8.676  -4.535  1.00  0.00     0.001 C 
BRANCH   5   6
ATOM      6  C   UNL     1      -1.414   7.773  -5.665  1.00  0.00     0.009 C 
BRANCH   6   7
ATOM      7  C   UNL     1      -2.057   6.456  -5.178  1.00  0.00     0.032 C 
ATOM      8  C   UNL     1      -3.576   6.575  -4.973  1.00  0.00     0.014 C 
BRANCH   7   9
ATOM      9  C   UNL     1      -1.699   5.297  -6.071  1.00  0.00     0.044 C 
ATOM     10  O   UNL     1      -1.050   5.476  -7.135  1.00  0.00    -0.550 OA
ATOM     11  O   UNL     1      -2.041   4.005  -5.691  1.00  0.00    -0.550 OA
ENDBRANCH   7   9
ENDBRANCH   6   7
ENDBRANCH   5   6
ENDBRANCH   4   5
ENDBRANCH   3   4
ENDBRANCH   2   3
ENDBRANCH   1   2
BRANCH   1  12
ATOM     12  C   UNL     1      -5.179   9.384  -1.631  1.00  0.00     0.000 C 
BRANCH  12  13
ATOM     13  C   UNL     1      -4.131  10.457  -1.290  1.00  0.00    -0.000 C 
BRANCH  13  14
ATOM     14  C   UNL     1      -4.348  11.069   0.104  1.00  0.00    -0.000 C 
BRANCH  14  15
ATOM     15  C   UNL     1      -3.868  10.143   1.235  1.00  0.00    -0.000 C 
BRANCH  15  16
ATOM     16  C   UNL     1      -3.188  10.906   2.386  1.00  0.00    -0.000 C 
BRANCH  16  17
ATOM     17  C   UNL     1      -1.661  11.048   2.263  1.00  0.00    -0.000 C 
BRANCH  17  18
ATOM     18  C   UNL     1      -0.923   9.707   2.399  1.00  0.00    -0.003 C 
ATOM     19  C   UNL     1      -0.875   8.968   1.066  1.00  0.00     0.004 C 
ENDBRANCH  17  18
ENDBRANCH  16  17
ENDBRANCH  15  16
ENDBRANCH  14  15
ENDBRANCH  13  14
ENDBRANCH  12  13
ENDBRANCH   1  12
TORSDOF 14
ENDMDL
MODEL 5
REMARK VINA RESULT:    -2.788      1.645      3.453
REMARK INTER + INTRA:          -5.859
REMARK INTER:                  -5.578
REMARK INTRA:                  -0.282
REMARK UNBOUND:                -0.790
REMARK SMILES CCCCCCCCCCCCCC[C@@H](C)C(=O)[O-]
REMARK SMILES IDX 9 1 10 2 11 3 12 4 13 5 14 6 15 7 16 8 17 9 18 10 19 11 8 12
REMARK SMILES IDX 7 13 6 14 5 15 4 16 3 17 2 18 1 19
REMARK H PARENT
REMARK Flexibility Score: inf
ROOT
ATOM      1  C   UNL     1      -4.696   7.454  -4.064  1.00  0.00     0.000 C 
ENDROOT
BRANCH   1   2
ATOM      2  C   UNL     1      -5.006   8.290  -2.805  1.00  0.00     0.000 C 
BRANCH   2   3
ATOM      3  C   UNL     1      -4.092   8.008  -1.595  1.00  0.00     0.000 C 
BRANCH   3   4
ATOM      4  C   UNL     1      -2.843   8.906  -1.496  1.00  0.00     0.000 C 
BRANCH   4   5
ATOM      5  C   UNL     1      -1.946   8.645  -0.274  1.00  0.00     0.001 C 
BRANCH   5   6
ATOM      6  C   UNL     1      -1.556   9.939   0.468  1.00  0.00     0.009 C 
BRANCH   6   7
ATOM      7  C   UNL     1      -2.167  10.072   1.880  1.00  0.00     0.032 C 
ATOM      8  C   UNL     1      -1.257  10.838   2.854  1.00  0.00     0.014 C 
BRANCH   7   9
ATOM      9  C   UNL     1      -3.555  10.653   1.834  1.00  0.00     0.044 C 
ATOM     10  O   UNL     1      -4.072  11.011   0.742  1.00  0.00    -0.550 OA
ATOM     11  O   UNL     1      -4.301  10.745   3.003  1.00  0.00    -0.550 OA
ENDBRANCH   7   9
ENDBRANCH   6   7
ENDBRANCH   5   6
ENDBRANCH   4   5
ENDBRANCH   3   4
ENDBRANCH   2   3
ENDBRANCH   1   2
BRANCH   1  12
ATOM     12  C   UNL     1      -3.383   7.819  -4.781  1.00  0.00     0.000 C 
BRANCH  12  13
ATOM     13  C   UNL     1      -2.230   6.860  -4.440  1.00  0.00    -0.000 C 
BRANCH  13  14
ATOM     14  C   UNL     1      -1.591   6.239  -5.694  1.00  0.00    -0.000 C 
BRANCH  14  15
ATOM     15  C   UNL     1      -0.890   7.287  -6.576  1.00  0.00    -0.000 C 
BRANCH  15  16
ATOM     16  C   UNL     1      -0.875   8.690  -5.942  1.00  0.00    -0.000 C 
BRANCH  16  17
ATOM     17  C   UNL     1      -1.572   9.786  -6.767  1.00  0.00    -0.000 C 
BRANCH  17  18
ATOM     18  C   UNL     1      -1.673  11.125  -6.020  1.00  0.00    -0.003 C 
ATOM     19  C   UNL     1      -1.716  10.910  -4.510  1.00  0.00     0.004 C 
ENDBRANCH  17  18
ENDBRANCH  16  17
ENDBRANCH  15  16
ENDBRANCH  14  15
ENDBRANCH  13  14
ENDBRANCH  12  13
ENDBRANCH   1  12
TORSDOF 14
ENDMDL
MODEL 6
REMARK VINA RESULT:    -2.758      3.472      7.698
REMARK INTER + INTRA:          -5.806
REMARK INTER:                  -4.619
REMARK INTRA:                  -1.187
REMARK UNBOUND:                -0.790
REMARK SMILES CCCCCCCCCCCCCC[C@@H](C)C(=O)[O-]
REMARK SMILES IDX 9 1 10 2 11 3 12 4 13 5 14 6 15 7 16 8 17 9 18 10 19 11 8 12
REMARK SMILES IDX 7 13 6 14 5 15 4 16 3 17 2 18 1 19
REMARK H PARENT
REMARK Flexibility Score: inf
ROOT
ATOM      1  C   UNL     1      -4.922   8.157  -2.838  1.00  0.00     0.000 C 
ENDROOT
BRANCH   1   2
ATOM      2  C   UNL     1      -4.334   8.947  -4.024  1.00  0.00     0.000 C 
BRANCH   2   3
ATOM      3  C   UNL     1      -2.957   9.589  -3.759  1.00  0.00     0.000 C 
BRANCH   3   4
ATOM      4  C   UNL     1      -2.097   9.834  -5.015  1.00  0.00     0.000 C 
BRANCH   4   5
ATOM      5  C   UNL     1      -0.875   8.910  -5.161  1.00  0.00     0.001 C 
BRANCH   5   6
ATOM      6  C   UNL     1      -1.184   7.634  -5.969  1.00  0.00     0.009 C 
BRANCH   6   7
ATOM      7  C   UNL     1      -0.878   6.317  -5.222  1.00  0.00     0.032 C 
ATOM      8  C   UNL     1      -1.298   6.358  -3.744  1.00  0.00     0.014 C 
BRANCH   7   9
ATOM      9  C   UNL     1      -1.454   5.123  -5.937  1.00  0.00     0.044 C 
ATOM     10  O   UNL     1      -1.587   5.121  -7.190  1.00  0.00    -0.550 OA
ATOM     11  O   UNL     1      -1.793   3.986  -5.215  1.00  0.00    -0.550 OA
ENDBRANCH   7   9
ENDBRANCH   6   7
ENDBRANCH   5   6
ENDBRANCH   4   5
ENDBRANCH   3   4
ENDBRANCH   2   3
ENDBRANCH   1   2
BRANCH   1  12
ATOM     12  C   UNL     1      -4.503   8.663  -1.445  1.00  0.00     0.000 C 
BRANCH  12  13
ATOM     13  C   UNL     1      -3.328   7.867  -0.851  1.00  0.00    -0.000 C 
BRANCH  13  14
ATOM     14  C   UNL     1      -2.022   8.679  -0.825  1.00  0.00    -0.000 C 
BRANCH  14  15
ATOM     15  C   UNL     1      -1.402   8.750   0.582  1.00  0.00    -0.000 C 
BRANCH  15  16
ATOM     16  C   UNL     1      -1.349  10.184   1.140  1.00  0.00    -0.000 C 
BRANCH  16  17
ATOM     17  C   UNL     1      -1.773  10.326   2.613  1.00  0.00    -0.000 C 
BRANCH  17  18
ATOM     18  C   UNL     1      -3.184  10.911   2.776  1.00  0.00    -0.003 C 
ATOM     19  C   UNL     1      -3.889  11.027   1.428  1.00  0.00     0.004 C 
ENDBRANCH  17  18
ENDBRANCH  16  17
ENDBRANCH  15  16
ENDBRANCH  14  15
ENDBRANCH  13  14
ENDBRANCH  12  13
ENDBRANCH   1  12
TORSDOF 14
ENDMDL
MODEL 7
REMARK VINA RESULT:    -2.568      2.761      4.512
REMARK INTER + INTRA:          -5.460
REMARK INTER:                  -4.643
REMARK INTRA:                  -0.817
REMARK UNBOUND:                -0.790
REMARK SMILES CCCCCCCCCCCCCC[C@@H](C)C(=O)[O-]
REMARK SMILES IDX 9 1 10 2 11 3 12 4 13 5 14 6 15 7 16 8 17 9 18 10 19 11 8 12
REMARK SMILES IDX 7 13 6 14 5 15 4 16 3 17 2 18 1 19
REMARK H PARENT
REMARK Flexibility Score: inf
ROOT
ATOM      1  C   UNL     1      -3.963   7.816  -4.066  1.00  0.00     0.000 C 
ENDROOT
BRANCH   1   2
ATOM      2  C   UNL     1      -3.887   7.657  -2.534  1.00  0.00     0.000 C 
BRANCH   2   3
ATOM      3  C   UNL     1      -4.999   8.381  -1.748  1.00  0.00     0.000 C 
BRANCH   3   4
ATOM      4  C   UNL     1      -5.187   9.869  -2.102  1.00  0.00     0.000 C 
BRANCH   4   5
ATOM      5  C   UNL     1      -4.211  10.835  -1.407  1.00  0.00     0.001 C 
BRANCH   5   6
ATOM      6  C   UNL     1      -2.834  10.198  -1.134  1.00  0.00     0.009 C 
BRANCH   6   7
ATOM      7  C   UNL     1      -2.373  10.284   0.338  1.00  0.00     0.032 C 
ATOM      8  C   UNL     1      -3.545  10.426   1.322  1.00  0.00     0.014 C 
BRANCH   7   9
ATOM      9  C   UNL     1      -1.465   9.140   0.705  1.00  0.00     0.044 C 
ATOM     10  O   UNL     1      -1.189   8.893   1.909  1.00  0.00    -0.550 OA
ATOM     11  O   UNL     1      -0.966   8.311  -0.292  1.00  0.00    -0.550 OA
ENDBRANCH   7   9
ENDBRANCH   6   7
ENDBRANCH   5   6
ENDBRANCH   4   5
ENDBRANCH   3   4
ENDBRANCH   2   3
ENDBRANCH   1   2
BRANCH   1  12
ATOM     12  C   UNL     1      -2.695   7.393  -4.829  1.00  0.00     0.000 C 
BRANCH  12  13
ATOM     13  C   UNL     1      -1.496   8.317  -4.552  1.00  0.00    -0.000 C 
BRANCH  13  14
ATOM     14  C   UNL     1      -1.924   9.767  -4.269  1.00  0.00    -0.000 C 
BRANCH  14  15
ATOM     15  C   UNL     1      -2.406  10.496  -5.536  1.00  0.00    -0.000 C 
BRANCH  15  16
ATOM     16  C   UNL     1      -1.252  11.122  -6.341  1.00  0.00    -0.000 C 
BRANCH  16  17
ATOM     17  C   UNL     1      -0.875  10.374  -7.631  1.00  0.00    -0.000 C 
BRANCH  17  18
ATOM     18  C   UNL     1      -1.625  10.896  -8.867  1.00  0.00    -0.003 C 
ATOM     19  C   UNL     1      -0.936  10.455 -10.154  1.00  0.00     0.004 C 
ENDBRANCH  17  18
ENDBRANCH  16  17
ENDBRANCH  15  16
ENDBRANCH  14  15
ENDBRANCH  13  14
ENDBRANCH  12  13
ENDBRANCH   1  12
TORSDOF 14
ENDMDL
