MODEL 1
REMARK VINA RESULT:    -3.400      0.000      0.000
REMARK INTER + INTRA:          -6.255
REMARK INTER:                  -5.387
REMARK INTRA:                  -0.868
REMARK UNBOUND:                -0.868
REMARK SMILES CCCCCCCCCCCC(=O)[O-]
REMARK SMILES IDX 7 1 8 2 9 3 10 4 11 5 12 6 13 7 14 8 6 9 5 10 4 11 3 12 2 13
REMARK SMILES IDX 1 14
REMARK H PARENT
REMARK Flexibility Score: inf
ROOT
ATOM      1  C   UNL     1      44.016  32.992  49.348  1.00  0.00     0.000 C 
ENDROOT
BRANCH   1   2
ATOM      2  C   UNL     1      45.481  33.199  48.919  1.00  0.00     0.000 C 
BRANCH   2   3
ATOM      3  C   UNL     1      46.402  32.058  49.371  1.00  0.00     0.000 C 
BRANCH   3   4
ATOM      4  C   UNL     1      45.586  30.868  49.894  1.00  0.00     0.006 C 
BRANCH   4   5
ATOM      5  C   UNL     1      46.001  29.544  49.238  1.00  0.00     0.053 C 
BRANCH   5   6
ATOM      6  C   UNL     1      45.071  29.161  48.128  1.00  0.00     0.041 C 
ATOM      7  O   UNL     1      44.360  28.126  48.226  1.00  0.00    -0.550 OA
ATOM      8  O   UNL     1      45.012  29.929  46.973  1.00  0.00    -0.550 OA
ENDBRANCH   5   6
ENDBRANCH   4   5
ENDBRANCH   3   4
ENDBRANCH   2   3
ENDBRANCH   1   2
BRANCH   1   9
ATOM      9  C   UNL     1      43.402  34.150  50.160  1.00  0.00     0.000 C 
BRANCH   9  10
ATOM     10  C   UNL     1      42.844  35.313  49.319  1.00  0.00    -0.000 C 
BRANCH  10  11
ATOM     11  C   UNL     1      41.387  35.094  48.889  1.00  0.00    -0.000 C 
BRANCH  11  12
ATOM     12  C   UNL     1      41.189  35.463  47.414  1.00  0.00    -0.000 C 
BRANCH  12  13
ATOM     13  C   UNL     1      41.202  34.212  46.528  1.00  0.00    -0.003 C 
ATOM     14  C   UNL     1      42.588  33.970  45.937  1.00  0.00     0.004 C 
ENDBRANCH  12  13
ENDBRANCH  11  12
ENDBRANCH  10  11
ENDBRANCH   9  10
ENDBRANCH   1   9
TORSDOF 10
ENDMDL
MODEL 2
REMARK VINA RESULT:    -3.385      2.633      6.048
REMARK INTER + INTRA:          -6.231
REMARK INTER:                  -5.460
REMARK INTRA:                  -0.772
REMARK UNBOUND:                -0.868
REMARK SMILES CCCCCCCCCCCC(=O)[O-]
REMARK SMILES IDX 7 1 8 2 9 3 10 4 11 5 12 6 13 7 14 8 6 9 5 10 4 11 3 12 2 13
REMARK SMILES IDX 1 14
REMARK H PARENT
REMARK Flexibility Score: inf
ROOT
ATOM      1  C   UNL     1      45.375  33.414  48.695  1.00  0.00     0.000 C 
ENDROOT
BRANCH   1   2
ATOM      2  C   UNL     1      44.122  33.010  49.494  1.00  0.00     0.000 C 
BRANCH   2   3
ATOM      3  C   UNL     1      43.370  34.216  50.075  1.00  0.00     0.000 C 
BRANCH   3   4
ATOM      4  C   UNL     1      42.875  35.145  48.957  1.00  0.00     0.006 C 
BRANCH   4   5
ATOM      5  C   UNL     1      41.356  35.060  48.760  1.00  0.00     0.053 C 
BRANCH   5   6
ATOM      6  C   UNL     1      40.984  35.062  47.309  1.00  0.00     0.041 C 
ATOM      7  O   UNL     1      40.448  36.078  46.793  1.00  0.00    -0.550 OA
ATOM      8  O   UNL     1      41.203  33.931  46.534  1.00  0.00    -0.550 OA
ENDBRANCH   5   6
ENDBRANCH   4   5
ENDBRANCH   3   4
ENDBRANCH   2   3
ENDBRANCH   1   2
BRANCH   1   9
ATOM      9  C   UNL     1      46.710  32.893  49.265  1.00  0.00     0.000 C 
BRANCH   9  10
ATOM     10  C   UNL     1      47.028  31.422  48.938  1.00  0.00    -0.000 C 
BRANCH  10  11
ATOM     11  C   UNL     1      46.991  30.514  50.176  1.00  0.00    -0.000 C 
BRANCH  11  12
ATOM     12  C   UNL     1      45.711  29.672  50.202  1.00  0.00    -0.000 C 
BRANCH  12  13
ATOM     13  C   UNL     1      45.146  29.488  48.788  1.00  0.00    -0.003 C 
ATOM     14  C   UNL     1      44.618  28.070  48.587  1.00  0.00     0.004 C 
ENDBRANCH  12  13
ENDBRANCH  11  12
ENDBRANCH  10  11
ENDBRANCH   9  10
ENDBRANCH   1   9
TORSDOF 10
ENDMDL
MODEL 3
REMARK VINA RESULT:    -3.317      1.858      2.286
REMARK INTER + INTRA:          -6.124
REMARK INTER:                  -5.590
REMARK INTRA:                  -0.534
REMARK UNBOUND:                -0.868
REMARK SMILES CCCCCCCCCCCC(=O)[O-]
REMARK SMILES IDX 7 1 8 2 9 3 10 4 11 5 12 6 13 7 14 8 6 9 5 10 4 11 3 12 2 13
REMARK SMILES IDX 1 14
REMARK H PARENT
REMARK Flexibility Score: inf
ROOT
ATOM      1  C   UNL     1      44.725  33.160  49.091  1.00  0.00     0.000 C 
ENDROOT
BRANCH   1   2
ATOM      2  C   UNL     1      45.181  31.751  49.515  1.00  0.00     0.000 C 
BRANCH   2   3
ATOM      3  C   UNL     1      45.223  30.759  48.344  1.00  0.00     0.000 C 
BRANCH   3   4
ATOM      4  C   UNL     1      45.227  29.310  48.852  1.00  0.00     0.006 C 
BRANCH   4   5
ATOM      5  C   UNL     1      45.717  29.204  50.303  1.00  0.00     0.053 C 
BRANCH   5   6
ATOM      6  C   UNL     1      47.192  28.955  50.372  1.00  0.00     0.041 C 
ATOM      7  O   UNL     1      47.960  29.821  50.868  1.00  0.00    -0.550 OA
ATOM      8  O   UNL     1      47.722  27.778  49.860  1.00  0.00    -0.550 OA
ENDBRANCH   5   6
ENDBRANCH   4   5
ENDBRANCH   3   4
ENDBRANCH   2   3
ENDBRANCH   1   2
BRANCH   1   9
ATOM      9  C   UNL     1      43.480  33.694  49.829  1.00  0.00     0.000 C 
BRANCH   9  10
ATOM     10  C   UNL     1      43.356  35.228  49.872  1.00  0.00    -0.000 C 
BRANCH  10  11
ATOM     11  C   UNL     1      42.567  35.797  48.684  1.00  0.00    -0.000 C 
BRANCH  11  12
ATOM     12  C   UNL     1      41.161  35.191  48.618  1.00  0.00    -0.000 C 
BRANCH  12  13
ATOM     13  C   UNL     1      40.615  35.222  47.185  1.00  0.00    -0.003 C 
ATOM     14  C   UNL     1      41.220  34.103  46.341  1.00  0.00     0.004 C 
ENDBRANCH  12  13
ENDBRANCH  11  12
ENDBRANCH  10  11
ENDBRANCH   9  10
ENDBRANCH   1   9
TORSDOF 10
ENDMDL
MODEL 4
REMARK VINA RESULT:    -3.278      2.466      6.161
REMARK INTER + INTRA:          -6.063
REMARK INTER:                  -4.755
REMARK INTRA:                  -1.307
REMARK UNBOUND:                -0.868
REMARK SMILES CCCCCCCCCCCC(=O)[O-]
REMARK SMILES IDX 7 1 8 2 9 3 10 4 11 5 12 6 13 7 14 8 6 9 5 10 4 11 3 12 2 13
REMARK SMILES IDX 1 14
REMARK H PARENT
REMARK Flexibility Score: inf
ROOT
ATOM      1  C   UNL     1      45.028  30.834  48.025  1.00  0.00     0.000 C 
ENDROOT
BRANCH   1   2
ATOM      2  C   UNL     1      45.968  32.050  48.118  1.00  0.00     0.000 C 
BRANCH   2   3
ATOM      3  C   UNL     1      45.623  32.982  49.289  1.00  0.00     0.000 C 
BRANCH   3   4
ATOM      4  C   UNL     1      44.166  32.790  49.732  1.00  0.00     0.006 C 
BRANCH   4   5
ATOM      5  C   UNL     1      43.380  34.109  49.731  1.00  0.00     0.053 C 
BRANCH   5   6
ATOM      6  C   UNL     1      42.463  34.206  48.551  1.00  0.00     0.041 C 
ATOM      7  O   UNL     1      41.286  34.629  48.694  1.00  0.00    -0.550 OA
ATOM      8  O   UNL     1      42.899  33.799  47.297  1.00  0.00    -0.550 OA
ENDBRANCH   5   6
ENDBRANCH   4   5
ENDBRANCH   3   4
ENDBRANCH   2   3
ENDBRANCH   1   2
BRANCH   1   9
ATOM      9  C   UNL     1      45.658  29.568  47.408  1.00  0.00     0.000 C 
BRANCH   9  10
ATOM     10  C   UNL     1      46.205  28.550  48.426  1.00  0.00    -0.000 C 
BRANCH  10  11
ATOM     11  C   UNL     1      45.482  28.610  49.779  1.00  0.00    -0.000 C 
BRANCH  11  12
ATOM     12  C   UNL     1      46.473  28.869  50.919  1.00  0.00    -0.000 C 
BRANCH  12  13
ATOM     13  C   UNL     1      47.797  29.424  50.382  1.00  0.00    -0.003 C 
ATOM     14  C   UNL     1      48.122  30.777  51.009  1.00  0.00     0.004 C 
ENDBRANCH  12  13
ENDBRANCH  11  12
ENDBRANCH  10  11
ENDBRANCH   9  10
ENDBRANCH   1   9
TORSDOF 10
ENDMDL
MODEL 5
REMARK VINA RESULT:    -3.242      1.950      2.333
REMARK INTER + INTRA:          -6.005
REMARK INTER:                  -5.127
REMARK INTRA:                  -0.878
REMARK UNBOUND:                -0.868
REMARK SMILES CCCCCCCCCCCC(=O)[O-]
REMARK SMILES IDX 7 1 8 2 9 3 10 4 11 5 12 6 13 7 14 8 6 9 5 10 4 11 3 12 2 13
REMARK SMILES IDX 1 14
REMARK H PARENT
REMARK Flexibility Score: inf
ROOT
ATOM      1  C   UNL     1      44.820  34.941  48.017  1.00  0.00     0.000 C 
ENDROOT
BRANCH   1   2
ATOM      2  C   UNL     1      45.775  33.748  47.831  1.00  0.00     0.000 C 
BRANCH   2   3
ATOM      3  C   UNL     1      46.165  33.082  49.158  1.00  0.00     0.000 C 
BRANCH   3   4
ATOM      4  C   UNL     1      45.432  31.745  49.338  1.00  0.00     0.006 C 
BRANCH   4   5
ATOM      5  C   UNL     1      46.365  30.541  49.152  1.00  0.00     0.053 C 
BRANCH   5   6
ATOM      6  C   UNL     1      46.848  30.008  50.466  1.00  0.00     0.041 C 
ATOM      7  O   UNL     1      47.758  30.607  51.098  1.00  0.00    -0.550 OA
ATOM      8  O   UNL     1      46.315  28.832  50.977  1.00  0.00    -0.550 OA
ENDBRANCH   5   6
ENDBRANCH   4   5
ENDBRANCH   3   4
ENDBRANCH   2   3
ENDBRANCH   1   2
BRANCH   1   9
ATOM      9  C   UNL     1      44.535  35.327  49.483  1.00  0.00     0.000 C 
BRANCH   9  10
ATOM     10  C   UNL     1      43.157  34.891  50.016  1.00  0.00    -0.000 C 
BRANCH  10  11
ATOM     11  C   UNL     1      42.235  34.350  48.915  1.00  0.00    -0.000 C 
BRANCH  11  12
ATOM     12  C   UNL     1      41.050  35.294  48.678  1.00  0.00    -0.000 C 
BRANCH  12  13
ATOM     13  C   UNL     1      40.674  35.343  47.193  1.00  0.00    -0.003 C 
ATOM     14  C   UNL     1      41.277  34.164  46.433  1.00  0.00     0.004 C 
ENDBRANCH  12  13
ENDBRANCH  11  12
ENDBRANCH  10  11
ENDBRANCH   9  10
ENDBRANCH   1   9
TORSDOF 10
ENDMDL
MODEL 6
REMARK VINA RESULT:    -3.221      3.124      6.227
REMARK INTER + INTRA:          -5.972
REMARK INTER:                  -4.873
REMARK INTRA:                  -1.099
REMARK UNBOUND:                -0.868
REMARK SMILES CCCCCCCCCCCC(=O)[O-]
REMARK SMILES IDX 7 1 8 2 9 3 10 4 11 5 12 6 13 7 14 8 6 9 5 10 4 11 3 12 2 13
REMARK SMILES IDX 1 14
REMARK H PARENT
REMARK Flexibility Score: inf
ROOT
ATOM      1  C   UNL     1      46.818  32.038  48.402  1.00  0.00     0.000 C 
ENDROOT
BRANCH   1   2
ATOM      2  C   UNL     1      45.301  32.273  48.284  1.00  0.00     0.000 C 
BRANCH   2   3
ATOM      3  C   UNL     1      44.594  32.304  49.647  1.00  0.00     0.000 C 
BRANCH   3   4
ATOM      4  C   UNL     1      43.756  33.582  49.801  1.00  0.00     0.006 C 
BRANCH   4   5
ATOM      5  C   UNL     1      43.182  34.066  48.463  1.00  0.00     0.053 C 
BRANCH   5   6
ATOM      6  C   UNL     1      42.365  35.310  48.629  1.00  0.00     0.041 C 
ATOM      7  O   UNL     1      41.170  35.238  49.020  1.00  0.00    -0.550 OA
ATOM      8  O   UNL     1      42.914  36.548  48.321  1.00  0.00    -0.550 OA
ENDBRANCH   5   6
ENDBRANCH   4   5
ENDBRANCH   3   4
ENDBRANCH   2   3
ENDBRANCH   1   2
BRANCH   1   9
ATOM      9  C   UNL     1      47.451  32.508  49.728  1.00  0.00     0.000 C 
BRANCH   9  10
ATOM     10  C   UNL     1      48.131  31.401  50.555  1.00  0.00    -0.000 C 
BRANCH  10  11
ATOM     11  C   UNL     1      47.817  29.991  50.037  1.00  0.00    -0.000 C 
BRANCH  11  12
ATOM     12  C   UNL     1      46.717  29.330  50.877  1.00  0.00    -0.000 C 
BRANCH  12  13
ATOM     13  C   UNL     1      46.102  28.136  50.136  1.00  0.00    -0.003 C 
ATOM     14  C   UNL     1      45.087  28.599  49.094  1.00  0.00     0.004 C 
ENDBRANCH  12  13
ENDBRANCH  11  12
ENDBRANCH  10  11
ENDBRANCH   9  10
ENDBRANCH   1   9
TORSDOF 10
ENDMDL
MODEL 7
REMARK VINA RESULT:    -3.218      2.711      6.124
REMARK INTER + INTRA:          -5.968
REMARK INTER:                  -4.806
REMARK INTRA:                  -1.161
REMARK UNBOUND:                -0.868
REMARK SMILES CCCCCCCCCCCC(=O)[O-]
REMARK SMILES IDX 7 1 8 2 9 3 10 4 11 5 12 6 13 7 14 8 6 9 5 10 4 11 3 12 2 13
REMARK SMILES IDX 1 14
REMARK H PARENT
REMARK Flexibility Score: inf
ROOT
ATOM      1  C   UNL     1      47.592  30.700  49.414  1.00  0.00     0.000 C 
ENDROOT
BRANCH   1   2
ATOM      2  C   UNL     1      46.619  31.736  48.823  1.00  0.00     0.000 C 
BRANCH   2   3
ATOM      3  C   UNL     1      45.364  31.936  49.683  1.00  0.00     0.000 C 
BRANCH   3   4
ATOM      4  C   UNL     1      44.241  32.597  48.870  1.00  0.00     0.006 C 
BRANCH   4   5
ATOM      5  C   UNL     1      43.619  33.793  49.604  1.00  0.00     0.053 C 
BRANCH   5   6
ATOM      6  C   UNL     1      42.653  34.535  48.733  1.00  0.00     0.041 C 
ATOM      7  O   UNL     1      42.829  34.583  47.487  1.00  0.00    -0.550 OA
ATOM      8  O   UNL     1      41.575  35.201  49.301  1.00  0.00    -0.550 OA
ENDBRANCH   5   6
ENDBRANCH   4   5
ENDBRANCH   3   4
ENDBRANCH   2   3
ENDBRANCH   1   2
BRANCH   1   9
ATOM      9  C   UNL     1      47.259  30.234  50.847  1.00  0.00     0.000 C 
BRANCH   9  10
ATOM     10  C   UNL     1      46.647  28.825  50.949  1.00  0.00    -0.000 C 
BRANCH  10  11
ATOM     11  C   UNL     1      46.966  27.945  49.732  1.00  0.00    -0.000 C 
BRANCH  11  12
ATOM     12  C   UNL     1      45.691  27.317  49.159  1.00  0.00    -0.000 C 
BRANCH  12  13
ATOM     13  C   UNL     1      44.733  28.395  48.638  1.00  0.00    -0.003 C 
ATOM     14  C   UNL     1      45.073  28.787  47.203  1.00  0.00     0.004 C 
ENDBRANCH  12  13
ENDBRANCH  11  12
ENDBRANCH  10  11
ENDBRANCH   9  10
ENDBRANCH   1   9
TORSDOF 10
ENDMDL
MODEL 8
REMARK VINA RESULT:    -3.181      2.588      6.215
REMARK INTER + INTRA:          -5.908
REMARK INTER:                  -5.027
REMARK INTRA:                  -0.881
REMARK UNBOUND:                -0.868
REMARK SMILES CCCCCCCCCCCC(=O)[O-]
REMARK SMILES IDX 7 1 8 2 9 3 10 4 11 5 12 6 13 7 14 8 6 9 5 10 4 11 3 12 2 13
REMARK SMILES IDX 1 14
REMARK H PARENT
REMARK Flexibility Score: inf
ROOT
ATOM      1  C   UNL     1      44.246  32.435  49.301  1.00  0.00     0.000 C 
ENDROOT
BRANCH   1   2
ATOM      2  C   UNL     1      44.549  33.941  49.405  1.00  0.00     0.000 C 
BRANCH   2   3
ATOM      3  C   UNL     1      43.431  34.728  50.104  1.00  0.00     0.000 C 
BRANCH   3   4
ATOM      4  C   UNL     1      42.633  35.562  49.092  1.00  0.00     0.006 C 
BRANCH   4   5
ATOM      5  C   UNL     1      41.366  34.840  48.614  1.00  0.00     0.053 C 
BRANCH   5   6
ATOM      6  C   UNL     1      41.375  34.630  47.131  1.00  0.00     0.041 C 
ATOM      7  O   UNL     1      42.231  33.873  46.602  1.00  0.00    -0.550 OA
ATOM      8  O   UNL     1      40.456  35.294  46.330  1.00  0.00    -0.550 OA
ENDBRANCH   5   6
ENDBRANCH   4   5
ENDBRANCH   3   4
ENDBRANCH   2   3
ENDBRANCH   1   2
BRANCH   1   9
ATOM      9  C   UNL     1      45.078  31.672  48.250  1.00  0.00     0.000 C 
BRANCH   9  10
ATOM     10  C   UNL     1      45.213  30.158  48.498  1.00  0.00    -0.000 C 
BRANCH  10  11
ATOM     11  C   UNL     1      46.605  29.759  49.007  1.00  0.00    -0.000 C 
BRANCH  11  12
ATOM     12  C   UNL     1      46.669  29.820  50.537  1.00  0.00    -0.000 C 
BRANCH  12  13
ATOM     13  C   UNL     1      47.948  30.521  51.007  1.00  0.00    -0.003 C 
ATOM     14  C   UNL     1      48.112  31.880  50.331  1.00  0.00     0.004 C 
ENDBRANCH  12  13
ENDBRANCH  11  12
ENDBRANCH  10  11
ENDBRANCH   9  10
ENDBRANCH   1   9
TORSDOF 10
ENDMDL
MODEL 9
REMARK VINA RESULT:    -3.173      1.834      2.686
REMARK INTER + INTRA:          -5.895
REMARK INTER:                  -5.316
REMARK INTRA:                  -0.580
REMARK UNBOUND:                -0.868
REMARK SMILES CCCCCCCCCCCC(=O)[O-]
REMARK SMILES IDX 7 1 8 2 9 3 10 4 11 5 12 6 13 7 14 8 6 9 5 10 4 11 3 12 2 13
REMARK SMILES IDX 1 14
REMARK H PARENT
REMARK Flexibility Score: inf
ROOT
ATOM      1  C   UNL     1      44.974  31.803  48.493  1.00  0.00     0.000 C 
ENDROOT
BRANCH   1   2
ATOM      2  C   UNL     1      45.532  30.600  49.276  1.00  0.00     0.000 C 
BRANCH   2   3
ATOM      3  C   UNL     1      46.824  30.931  50.037  1.00  0.00     0.000 C 
BRANCH   3   4
ATOM      4  C   UNL     1      47.319  29.714  50.832  1.00  0.00     0.006 C 
BRANCH   4   5
ATOM      5  C   UNL     1      46.279  28.587  50.876  1.00  0.00     0.053 C 
BRANCH   5   6
ATOM      6  C   UNL     1      46.781  27.345  50.206  1.00  0.00     0.041 C 
ATOM      7  O   UNL     1      47.648  27.421  49.296  1.00  0.00    -0.550 OA
ATOM      8  O   UNL     1      46.268  26.106  50.565  1.00  0.00    -0.550 OA
ENDBRANCH   5   6
ENDBRANCH   4   5
ENDBRANCH   3   4
ENDBRANCH   2   3
ENDBRANCH   1   2
BRANCH   1   9
ATOM      9  C   UNL     1      44.972  33.140  49.263  1.00  0.00     0.000 C 
BRANCH   9  10
ATOM     10  C   UNL     1      43.626  33.519  49.909  1.00  0.00    -0.000 C 
BRANCH  10  11
ATOM     11  C   UNL     1      43.468  35.032  50.115  1.00  0.00    -0.000 C 
BRANCH  11  12
ATOM     12  C   UNL     1      42.772  35.680  48.913  1.00  0.00    -0.000 C 
BRANCH  12  13
ATOM     13  C   UNL     1      41.401  35.042  48.662  1.00  0.00    -0.003 C 
ATOM     14  C   UNL     1      41.257  34.600  47.208  1.00  0.00     0.004 C 
ENDBRANCH  12  13
ENDBRANCH  11  12
ENDBRANCH  10  11
ENDBRANCH   9  10
ENDBRANCH   1   9
TORSDOF 10
ENDMDL
