MODEL 1
REMARK VINA RESULT:    -1.874      0.000      0.000
REMARK INTER + INTRA:          -1.874
REMARK INTER:                  -1.874
REMARK INTRA:                   0.000
REMARK UNBOUND:                 0.000
REMARK SMILES CC(=O)[O-]
REMARK SMILES IDX 1 1 2 2 3 3 4 4
REMARK H PARENT
REMARK Flexibility Score: inf
ROOT
ATOM      1  C   UNL     1      16.300  -8.620  27.878  1.00  0.00     0.063 C 
ATOM      2  C   UNL     1      17.220  -9.059  28.966  1.00  0.00     0.038 C 
ATOM      3  O   UNL     1      18.218  -8.354  29.271  1.00  0.00    -0.550 OA
ATOM      4  O   UNL     1      16.951 -10.219  29.682  1.00  0.00    -0.550 OA
ENDROOT
TORSDOF 0
ENDMDL
MODEL 2
REMARK VINA RESULT:    -1.872      1.369      2.118
REMARK INTER + INTRA:          -1.872
REMARK INTER:                  -1.872
REMARK INTRA:                   0.000
REMARK UNBOUND:                 0.000
REMARK SMILES CC(=O)[O-]
REMARK SMILES IDX 1 1 2 2 3 3 4 4
REMARK H PARENT
REMARK Flexibility Score: inf
ROOT
ATOM      1  C   UNL     1      18.108  -8.259  29.718  1.00  0.00     0.063 C 
ATOM      2  C   UNL     1      17.146  -9.187  29.056  1.00  0.00     0.038 C 
ATOM      3  O   UNL     1      16.842 -10.278  29.606  1.00  0.00    -0.550 OA
ATOM      4  O   UNL     1      16.545  -8.828  27.857  1.00  0.00    -0.550 OA
ENDROOT
TORSDOF 0
ENDMDL
MODEL 3
REMARK VINA RESULT:    -1.855      1.370      1.754
REMARK INTER + INTRA:          -1.855
REMARK INTER:                  -1.855
REMARK INTRA:                   0.000
REMARK UNBOUND:                 0.000
REMARK SMILES CC(=O)[O-]
REMARK SMILES IDX 1 1 2 2 3 3 4 4
REMARK H PARENT
REMARK Flexibility Score: inf
ROOT
ATOM      1  C   UNL     1      16.705 -10.071  29.741  1.00  0.00     0.063 C 
ATOM      2  C   UNL     1      17.222  -8.947  28.907  1.00  0.00     0.038 C 
ATOM      3  O   UNL     1      18.251  -8.317  29.265  1.00  0.00    -0.550 OA
ATOM      4  O   UNL     1      16.600  -8.626  27.707  1.00  0.00    -0.550 OA
ENDROOT
TORSDOF 0
ENDMDL
MODEL 4
REMARK VINA RESULT:    -1.656      2.165      2.381
REMARK INTER + INTRA:          -1.656
REMARK INTER:                  -1.656
REMARK INTRA:                   0.000
REMARK UNBOUND:                 0.000
REMARK SMILES CC(=O)[O-]
REMARK SMILES IDX 1 1 2 2 3 3 4 4
REMARK H PARENT
REMARK Flexibility Score: inf
ROOT
ATOM      1  C   UNL     1      16.925  -8.732  25.808  1.00  0.00     0.063 C 
ATOM      2  C   UNL     1      16.278  -8.563  27.140  1.00  0.00     0.038 C 
ATOM      3  O   UNL     1      15.875  -7.428  27.507  1.00  0.00    -0.550 OA
ATOM      4  O   UNL     1      16.069  -9.665  27.959  1.00  0.00    -0.550 OA
ENDROOT
TORSDOF 0
ENDMDL
MODEL 5
REMARK VINA RESULT:    -1.475     23.904     24.121
REMARK INTER + INTRA:          -1.475
REMARK INTER:                  -1.475
REMARK INTRA:                   0.000
REMARK UNBOUND:                 0.000
REMARK SMILES CC(=O)[O-]
REMARK SMILES IDX 1 1 2 2 3 3 4 4
REMARK H PARENT
REMARK Flexibility Score: inf
ROOT
ATOM      1  C   UNL     1      33.734 -24.784  22.271  1.00  0.00     0.063 C 
ATOM      2  C   UNL     1      34.840 -24.360  23.178  1.00  0.00     0.038 C 
ATOM      3  O   UNL     1      35.228 -25.125  24.100  1.00  0.00    -0.550 OA
ATOM      4  O   UNL     1      35.479 -23.144  22.977  1.00  0.00    -0.550 OA
ENDROOT
TORSDOF 0
ENDMDL
MODEL 6
REMARK VINA RESULT:    -1.286     18.269     18.364
REMARK INTER + INTRA:          -1.286
REMARK INTER:                  -1.286
REMARK INTRA:                   0.000
REMARK UNBOUND:                 0.000
REMARK SMILES CC(=O)[O-]
REMARK SMILES IDX 1 1 2 2 3 3 4 4
REMARK H PARENT
REMARK Flexibility Score: inf
ROOT
ATOM      1  C   UNL     1      28.376 -16.046  14.881  1.00  0.00     0.063 C 
ATOM      2  C   UNL     1      28.681 -15.336  16.157  1.00  0.00     0.038 C 
ATOM      3  O   UNL     1      28.541 -14.087  16.233  1.00  0.00    -0.550 OA
ATOM      4  O   UNL     1      29.070 -16.055  17.279  1.00  0.00    -0.550 OA
ENDROOT
TORSDOF 0
ENDMDL
MODEL 7
REMARK VINA RESULT:    -1.236      3.574      3.868
REMARK INTER + INTRA:          -1.236
REMARK INTER:                  -1.236
REMARK INTRA:                   0.000
REMARK UNBOUND:                 0.000
REMARK SMILES CC(=O)[O-]
REMARK SMILES IDX 1 1 2 2 3 3 4 4
REMARK H PARENT
REMARK Flexibility Score: inf
ROOT
ATOM      1  C   UNL     1      16.564  -8.687  26.956  1.00  0.00     0.063 C 
ATOM      2  C   UNL     1      16.945  -8.551  25.520  1.00  0.00     0.038 C 
ATOM      3  O   UNL     1      18.156  -8.440  25.196  1.00  0.00    -0.550 OA
ATOM      4  O   UNL     1      15.969  -8.598  24.533  1.00  0.00    -0.550 OA
ENDROOT
TORSDOF 0
ENDMDL
MODEL 8
REMARK VINA RESULT:    -1.220     20.900     21.008
REMARK INTER + INTRA:          -1.220
REMARK INTER:                  -1.220
REMARK INTRA:                   0.000
REMARK UNBOUND:                 0.000
REMARK SMILES CC(=O)[O-]
REMARK SMILES IDX 1 1 2 2 3 3 4 4
REMARK H PARENT
REMARK Flexibility Score: inf
ROOT
ATOM      1  C   UNL     1      25.267 -21.040  15.152  1.00  0.00     0.063 C 
ATOM      2  C   UNL     1      25.373 -22.524  15.046  1.00  0.00     0.038 C 
ATOM      3  O   UNL     1      26.504 -23.075  15.014  1.00  0.00    -0.550 OA
ATOM      4  O   UNL     1      24.225 -23.305  15.037  1.00  0.00    -0.550 OA
ENDROOT
TORSDOF 0
ENDMDL
MODEL 9
REMARK VINA RESULT:    -0.744     20.909     21.059
REMARK INTER + INTRA:          -0.744
REMARK INTER:                  -0.744
REMARK INTRA:                   0.000
REMARK UNBOUND:                 0.000
REMARK SMILES CC(=O)[O-]
REMARK SMILES IDX 1 1 2 2 3 3 4 4
REMARK H PARENT
REMARK Flexibility Score: inf
ROOT
ATOM      1  C   UNL     1      26.486 -23.216  14.713  1.00  0.00     0.063 C 
ATOM      2  C   UNL     1      25.227 -22.500  15.069  1.00  0.00     0.038 C 
ATOM      3  O   UNL     1      24.129 -23.115  15.066  1.00  0.00    -0.550 OA
ATOM      4  O   UNL     1      25.269 -21.167  15.457  1.00  0.00    -0.550 OA
ENDROOT
TORSDOF 0
ENDMDL
