MODEL 1
REMARK VINA RESULT:    -3.127      0.000      0.000
REMARK INTER + INTRA:          -3.401
REMARK INTER:                  -3.401
REMARK INTRA:                   0.000
REMARK UNBOUND:                 0.000
REMARK SMILES [NH3+]CC(=O)[O-]
REMARK SMILES IDX 2 1 1 2 3 6 4 7 5 8
REMARK H PARENT 1 3 1 4 1 5
REMARK Flexibility Score: inf
ROOT
ATOM      1  C   UNL     1      10.801  15.149  20.880  1.00  0.00     0.312 C 
ENDROOT
BRANCH   1   2
ATOM      2  N   UNL     1      11.425  14.161  21.760  1.00  0.00    -0.353 N 
ATOM      3  H   UNL     1      12.427  14.413  21.929  1.00  0.00     0.344 HD
ATOM      4  H   UNL     1      10.919  14.150  22.674  1.00  0.00     0.344 HD
ATOM      5  H   UNL     1      11.368  13.210  21.328  1.00  0.00     0.344 HD
ENDBRANCH   1   2
BRANCH   1   6
ATOM      6  C   UNL     1      10.950  14.746  19.446  1.00  0.00     0.096 C 
ATOM      7  O   UNL     1      10.790  13.544  19.105  1.00  0.00    -0.544 OA
ATOM      8  O   UNL     1      11.314  15.689  18.493  1.00  0.00    -0.544 OA
ENDBRANCH   1   6
TORSDOF 2
ENDMDL
MODEL 2
REMARK VINA RESULT:    -3.092      1.676      1.899
REMARK INTER + INTRA:          -3.363
REMARK INTER:                  -3.363
REMARK INTRA:                   0.000
REMARK UNBOUND:                 0.000
REMARK SMILES [NH3+]CC(=O)[O-]
REMARK SMILES IDX 2 1 1 2 3 6 4 7 5 8
REMARK H PARENT 1 3 1 4 1 5
REMARK Flexibility Score: inf
ROOT
ATOM      1  C   UNL     1      10.277  13.357  20.043  1.00  0.00     0.312 C 
ENDROOT
BRANCH   1   2
ATOM      2  N   UNL     1       9.811  13.315  21.428  1.00  0.00    -0.353 N 
ATOM      3  H   UNL     1       9.098  14.064  21.590  1.00  0.00     0.344 HD
ATOM      4  H   UNL     1       9.373  12.385  21.613  1.00  0.00     0.344 HD
ATOM      5  H   UNL     1      10.618  13.447  22.082  1.00  0.00     0.344 HD
ENDBRANCH   1   2
BRANCH   1   6
ATOM      6  C   UNL     1      10.150  14.740  19.484  1.00  0.00     0.096 C 
ATOM      7  O   UNL     1      11.023  15.187  18.695  1.00  0.00    -0.544 OA
ATOM      8  O   UNL     1       9.094  15.554  19.875  1.00  0.00    -0.544 OA
ENDBRANCH   1   6
TORSDOF 2
ENDMDL
MODEL 3
REMARK VINA RESULT:    -3.090      1.662      1.744
REMARK INTER + INTRA:          -3.360
REMARK INTER:                  -3.360
REMARK INTRA:                   0.000
REMARK UNBOUND:                 0.000
REMARK SMILES [NH3+]CC(=O)[O-]
REMARK SMILES IDX 2 1 1 2 3 6 4 7 5 8
REMARK H PARENT 1 3 1 4 1 5
REMARK Flexibility Score: inf
ROOT
ATOM      1  C   UNL     1      10.204  13.486  20.278  1.00  0.00     0.312 C 
ENDROOT
BRANCH   1   2
ATOM      2  N   UNL     1       9.694  13.595  21.644  1.00  0.00    -0.353 N 
ATOM      3  H   UNL     1       9.006  14.380  21.709  1.00  0.00     0.344 HD
ATOM      4  H   UNL     1       9.215  12.702  21.902  1.00  0.00     0.344 HD
ATOM      5  H   UNL     1      10.484  13.761  22.309  1.00  0.00     0.344 HD
ENDBRANCH   1   2
BRANCH   1   6
ATOM      6  C   UNL     1      10.094  14.800  19.568  1.00  0.00     0.096 C 
ATOM      7  O   UNL     1       9.097  15.544  19.764  1.00  0.00    -0.544 OA
ATOM      8  O   UNL     1      11.068  15.179  18.653  1.00  0.00    -0.544 OA
ENDBRANCH   1   6
TORSDOF 2
ENDMDL
MODEL 4
REMARK VINA RESULT:    -2.656      3.044      3.732
REMARK INTER + INTRA:          -2.889
REMARK INTER:                  -2.889
REMARK INTRA:                   0.000
REMARK UNBOUND:                 0.000
REMARK SMILES [NH3+]CC(=O)[O-]
REMARK SMILES IDX 2 1 1 2 3 6 4 7 5 8
REMARK H PARENT 1 3 1 4 1 5
REMARK Flexibility Score: inf
ROOT
ATOM      1  C   UNL     1      10.725  13.757  23.145  1.00  0.00     0.312 C 
ENDROOT
BRANCH   1   2
ATOM      2  N   UNL     1      11.889  14.250  22.409  1.00  0.00    -0.353 N 
ATOM      3  H   UNL     1      11.603  15.014  21.754  1.00  0.00     0.344 HD
ATOM      4  H   UNL     1      12.587  14.629  23.088  1.00  0.00     0.344 HD
ATOM      5  H   UNL     1      12.329  13.468  21.870  1.00  0.00     0.344 HD
ENDBRANCH   1   2
BRANCH   1   6
ATOM      6  C   UNL     1      10.106  12.594  22.434  1.00  0.00     0.096 C 
ATOM      7  O   UNL     1      10.145  12.525  21.177  1.00  0.00    -0.544 OA
ATOM      8  O   UNL     1       9.441  11.611  23.157  1.00  0.00    -0.544 OA
ENDBRANCH   1   6
TORSDOF 2
ENDMDL
MODEL 5
REMARK VINA RESULT:    -2.655     15.849     16.093
REMARK INTER + INTRA:          -2.888
REMARK INTER:                  -2.888
REMARK INTRA:                   0.000
REMARK UNBOUND:                 0.000
REMARK SMILES [NH3+]CC(=O)[O-]
REMARK SMILES IDX 2 1 1 2 3 6 4 7 5 8
REMARK H PARENT 1 3 1 4 1 5
REMARK Flexibility Score: inf
ROOT
ATOM      1  C   UNL     1      24.334   7.399  27.116  1.00  0.00     0.312 C 
ENDROOT
BRANCH   1   2
ATOM      2  N   UNL     1      23.658   8.656  27.432  1.00  0.00    -0.353 N 
ATOM      3  H   UNL     1      22.935   8.499  28.172  1.00  0.00     0.344 HD
ATOM      4  H   UNL     1      24.362   9.343  27.786  1.00  0.00     0.344 HD
ATOM      5  H   UNL     1      23.205   9.046  26.573  1.00  0.00     0.344 HD
ENDBRANCH   1   2
BRANCH   1   6
ATOM      6  C   UNL     1      23.572   6.637  26.076  1.00  0.00     0.096 C 
ATOM      7  O   UNL     1      24.156   6.221  25.040  1.00  0.00    -0.544 OA
ATOM      8  O   UNL     1      22.207   6.429  26.227  1.00  0.00    -0.544 OA
ENDBRANCH   1   6
TORSDOF 2
ENDMDL
MODEL 6
REMARK VINA RESULT:    -2.518     14.532     14.762
REMARK INTER + INTRA:          -2.738
REMARK INTER:                  -2.738
REMARK INTRA:                   0.000
REMARK UNBOUND:                 0.000
REMARK SMILES [NH3+]CC(=O)[O-]
REMARK SMILES IDX 2 1 1 2 3 6 4 7 5 8
REMARK H PARENT 1 3 1 4 1 5
REMARK Flexibility Score: inf
ROOT
ATOM      1  C   UNL     1      25.511  20.186  22.510  1.00  0.00     0.312 C 
ENDROOT
BRANCH   1   2
ATOM      2  N   UNL     1      25.876  20.073  21.098  1.00  0.00    -0.353 N 
ATOM      3  H   UNL     1      25.857  19.069  20.802  1.00  0.00     0.344 HD
ATOM      4  H   UNL     1      25.187  20.609  20.524  1.00  0.00     0.344 HD
ATOM      5  H   UNL     1      26.831  20.470  20.942  1.00  0.00     0.344 HD
ENDBRANCH   1   2
BRANCH   1   6
ATOM      6  C   UNL     1      24.051  19.915  22.701  1.00  0.00     0.096 C 
ATOM      7  O   UNL     1      23.592  18.757  22.516  1.00  0.00    -0.544 OA
ATOM      8  O   UNL     1      23.189  20.952  23.035  1.00  0.00    -0.544 OA
ENDBRANCH   1   6
TORSDOF 2
ENDMDL
MODEL 7
REMARK VINA RESULT:    -2.481      2.535      2.704
REMARK INTER + INTRA:          -2.698
REMARK INTER:                  -2.698
REMARK INTRA:                   0.000
REMARK UNBOUND:                 0.000
REMARK SMILES [NH3+]CC(=O)[O-]
REMARK SMILES IDX 2 1 1 2 3 6 4 7 5 8
REMARK H PARENT 1 3 1 4 1 5
REMARK Flexibility Score: inf
ROOT
ATOM      1  C   UNL     1      10.295  13.971  21.787  1.00  0.00     0.312 C 
ENDROOT
BRANCH   1   2
ATOM      2  N   UNL     1      11.599  14.384  22.305  1.00  0.00    -0.353 N 
ATOM      3  H   UNL     1      12.289  14.457  21.522  1.00  0.00     0.344 HD
ATOM      4  H   UNL     1      11.504  15.319  22.762  1.00  0.00     0.344 HD
ATOM      5  H   UNL     1      11.939  13.693  23.013  1.00  0.00     0.344 HD
ENDBRANCH   1   2
BRANCH   1   6
ATOM      6  C   UNL     1       9.450  15.166  21.472  1.00  0.00     0.096 C 
ATOM      7  O   UNL     1       8.996  15.884  22.402  1.00  0.00    -0.544 OA
ATOM      8  O   UNL     1       9.122  15.458  20.154  1.00  0.00    -0.544 OA
ENDBRANCH   1   6
TORSDOF 2
ENDMDL
MODEL 8
REMARK VINA RESULT:    -2.473      2.604      2.854
REMARK INTER + INTRA:          -2.690
REMARK INTER:                  -2.690
REMARK INTRA:                   0.000
REMARK UNBOUND:                 0.000
REMARK SMILES [NH3+]CC(=O)[O-]
REMARK SMILES IDX 2 1 1 2 3 6 4 7 5 8
REMARK H PARENT 1 3 1 4 1 5
REMARK Flexibility Score: inf
ROOT
ATOM      1  C   UNL     1      10.198  14.713  19.710  1.00  0.00     0.312 C 
ENDROOT
BRANCH   1   2
ATOM      2  N   UNL     1      11.168  15.667  19.174  1.00  0.00    -0.353 N 
ATOM      3  H   UNL     1      11.978  15.157  18.751  1.00  0.00     0.344 HD
ATOM      4  H   UNL     1      10.707  16.243  18.433  1.00  0.00     0.344 HD
ATOM      5  H   UNL     1      11.506  16.300  19.935  1.00  0.00     0.344 HD
ENDBRANCH   1   2
BRANCH   1   6
ATOM      6  C   UNL     1      10.006  14.925  21.180  1.00  0.00     0.096 C 
ATOM      7  O   UNL     1      10.915  14.605  21.990  1.00  0.00    -0.544 OA
ATOM      8  O   UNL     1       8.804  15.431  21.658  1.00  0.00    -0.544 OA
ENDBRANCH   1   6
TORSDOF 2
ENDMDL
MODEL 9
REMARK VINA RESULT:    -2.454      6.831      7.336
REMARK INTER + INTRA:          -2.669
REMARK INTER:                  -2.669
REMARK INTRA:                   0.000
REMARK UNBOUND:                 0.000
REMARK SMILES [NH3+]CC(=O)[O-]
REMARK SMILES IDX 2 1 1 2 3 6 4 7 5 8
REMARK H PARENT 1 3 1 4 1 5
REMARK Flexibility Score: inf
ROOT
ATOM      1  C   UNL     1       9.190   8.774  24.376  1.00  0.00     0.312 C 
ENDROOT
BRANCH   1   2
ATOM      2  N   UNL     1       9.320   8.041  25.635  1.00  0.00    -0.353 N 
ATOM      3  H   UNL     1       8.380   7.913  26.075  1.00  0.00     0.344 HD
ATOM      4  H   UNL     1       9.735   7.101  25.441  1.00  0.00     0.344 HD
ATOM      5  H   UNL     1       9.949   8.562  26.289  1.00  0.00     0.344 HD
ENDBRANCH   1   2
BRANCH   1   6
ATOM      6  C   UNL     1       9.606  10.202  24.551  1.00  0.00     0.096 C 
ATOM      7  O   UNL     1       9.720  10.955  23.549  1.00  0.00    -0.544 OA
ATOM      8  O   UNL     1       9.916  10.686  25.815  1.00  0.00    -0.544 OA
ENDBRANCH   1   6
TORSDOF 2
ENDMDL
