MODEL 1
REMARK VINA RESULT:    -4.763      0.000      0.000
REMARK INTER + INTRA:          -5.849
REMARK INTER:                  -5.737
REMARK INTRA:                  -0.112
REMARK UNBOUND:                -0.112
REMARK SMILES NC(=O)C[C@@H]([NH3+])C(=O)[O-]
REMARK SMILES IDX 4 1 5 2 6 3 7 7 8 8 9 9 2 10 3 11 1 12
REMARK H PARENT 6 4 6 5 6 6 1 13 1 14
REMARK Flexibility Score: inf
ROOT
ATOM      1  C   UNL     1      23.420   7.067  15.069  1.00  0.00     0.171 C 
ENDROOT
BRANCH   1   2
ATOM      2  C   UNL     1      24.545   6.440  14.218  1.00  0.00     0.237 C 
BRANCH   2   3
ATOM      3  N   UNL     1      24.503   6.910  12.827  1.00  0.00    -0.350 N 
ATOM      4  H   UNL     1      23.576   7.353  12.631  1.00  0.00     0.345 HD
ATOM      5  H   UNL     1      24.621   6.097  12.179  1.00  0.00     0.345 HD
ATOM      6  H   UNL     1      25.262   7.605  12.638  1.00  0.00     0.345 HD
ENDBRANCH   2   3
BRANCH   2   7
ATOM      7  C   UNL     1      25.900   6.682  14.833  1.00  0.00     0.100 C 
ATOM      8  O   UNL     1      26.467   7.798  14.683  1.00  0.00    -0.544 OA
ATOM      9  O   UNL     1      26.557   5.671  15.523  1.00  0.00    -0.544 OA
ENDBRANCH   2   7
ENDBRANCH   1   2
BRANCH   1  10
ATOM     10  C   UNL     1      22.572   6.049  15.778  1.00  0.00     0.223 C 
ATOM     11  O   UNL     1      23.107   5.021  16.272  1.00  0.00    -0.275 OA
ATOM     12  N   UNL     1      21.164   6.247  15.915  1.00  0.00    -0.369 N 
ATOM     13  H   UNL     1      20.704   7.097  15.520  1.00  0.00     0.159 HD
ATOM     14  H   UNL     1      20.580   5.543  16.418  1.00  0.00     0.159 HD
ENDBRANCH   1  10
TORSDOF 4
ENDMDL
MODEL 2
REMARK VINA RESULT:    -4.527      1.630      1.636
REMARK INTER + INTRA:          -5.565
REMARK INTER:                  -5.351
REMARK INTRA:                  -0.214
REMARK UNBOUND:                -0.112
REMARK SMILES NC(=O)C[C@@H]([NH3+])C(=O)[O-]
REMARK SMILES IDX 4 1 5 2 6 3 7 7 8 8 9 9 2 10 3 11 1 12
REMARK H PARENT 6 4 6 5 6 6 1 13 1 14
REMARK Flexibility Score: inf
ROOT
ATOM      1  C   UNL     1      23.571   5.975  15.383  1.00  0.00     0.171 C 
ENDROOT
BRANCH   1   2
ATOM      2  C   UNL     1      24.697   6.033  14.329  1.00  0.00     0.237 C 
BRANCH   2   3
ATOM      3  N   UNL     1      24.280   6.767  13.126  1.00  0.00    -0.350 N 
ATOM      4  H   UNL     1      23.249   6.663  12.988  1.00  0.00     0.345 HD
ATOM      5  H   UNL     1      24.765   6.370  12.288  1.00  0.00     0.345 HD
ATOM      6  H   UNL     1      24.515   7.783  13.201  1.00  0.00     0.345 HD
ENDBRANCH   2   3
BRANCH   2   7
ATOM      7  C   UNL     1      25.963   6.613  14.908  1.00  0.00     0.100 C 
ATOM      8  O   UNL     1      26.225   7.835  14.747  1.00  0.00    -0.544 OA
ATOM      9  O   UNL     1      26.872   5.802  15.577  1.00  0.00    -0.544 OA
ENDBRANCH   2   7
ENDBRANCH   1   2
BRANCH   1  10
ATOM     10  C   UNL     1      23.667   4.782  16.292  1.00  0.00     0.223 C 
ATOM     11  O   UNL     1      22.960   4.728  17.334  1.00  0.00    -0.275 OA
ATOM     12  N   UNL     1      24.540   3.698  15.974  1.00  0.00    -0.369 N 
ATOM     13  H   UNL     1      25.127   3.720  15.112  1.00  0.00     0.159 HD
ATOM     14  H   UNL     1      24.597   2.866  16.603  1.00  0.00     0.159 HD
ENDBRANCH   1  10
TORSDOF 4
ENDMDL
MODEL 3
REMARK VINA RESULT:    -4.522      1.171      1.618
REMARK INTER + INTRA:          -5.559
REMARK INTER:                  -5.279
REMARK INTRA:                  -0.279
REMARK UNBOUND:                -0.112
REMARK SMILES NC(=O)C[C@@H]([NH3+])C(=O)[O-]
REMARK SMILES IDX 4 1 5 2 6 3 7 7 8 8 9 9 2 10 3 11 1 12
REMARK H PARENT 6 4 6 5 6 6 1 13 1 14
REMARK Flexibility Score: inf
ROOT
ATOM      1  C   UNL     1      23.559   5.718  15.650  1.00  0.00     0.171 C 
ENDROOT
BRANCH   1   2
ATOM      2  C   UNL     1      24.564   5.925  14.497  1.00  0.00     0.237 C 
BRANCH   2   3
ATOM      3  N   UNL     1      24.037   6.834  13.471  1.00  0.00    -0.350 N 
ATOM      4  H   UNL     1      23.259   6.367  12.950  1.00  0.00     0.345 HD
ATOM      5  H   UNL     1      24.794   7.068  12.787  1.00  0.00     0.345 HD
ATOM      6  H   UNL     1      23.681   7.721  13.895  1.00  0.00     0.345 HD
ENDBRANCH   2   3
BRANCH   2   7
ATOM      7  C   UNL     1      25.900   6.402  15.011  1.00  0.00     0.100 C 
ATOM      8  O   UNL     1      26.603   5.642  15.730  1.00  0.00    -0.544 OA
ATOM      9  O   UNL     1      26.343   7.691  14.744  1.00  0.00    -0.544 OA
ENDBRANCH   2   7
ENDBRANCH   1   2
BRANCH   1  10
ATOM     10  C   UNL     1      22.469   6.753  15.683  1.00  0.00     0.223 C 
ATOM     11  O   UNL     1      22.767   7.978  15.659  1.00  0.00    -0.275 OA
ATOM     12  N   UNL     1      21.097   6.360  15.720  1.00  0.00    -0.369 N 
ATOM     13  H   UNL     1      20.831   5.351  15.731  1.00  0.00     0.159 HD
ATOM     14  H   UNL     1      20.343   7.082  15.731  1.00  0.00     0.159 HD
ENDBRANCH   1  10
TORSDOF 4
ENDMDL
MODEL 4
REMARK VINA RESULT:    -4.473      1.940      3.947
REMARK INTER + INTRA:          -5.500
REMARK INTER:                  -5.312
REMARK INTRA:                  -0.188
REMARK UNBOUND:                -0.112
REMARK SMILES NC(=O)C[C@@H]([NH3+])C(=O)[O-]
REMARK SMILES IDX 4 1 5 2 6 3 7 7 8 8 9 9 2 10 3 11 1 12
REMARK H PARENT 6 4 6 5 6 6 1 13 1 14
REMARK Flexibility Score: inf
ROOT
ATOM      1  C   UNL     1      25.617   5.555  15.549  1.00  0.00     0.171 C 
ENDROOT
BRANCH   1   2
ATOM      2  C   UNL     1      24.377   4.641  15.442  1.00  0.00     0.237 C 
BRANCH   2   3
ATOM      3  N   UNL     1      24.691   3.252  15.802  1.00  0.00    -0.350 N 
ATOM      4  H   UNL     1      25.345   3.237  16.618  1.00  0.00     0.345 HD
ATOM      5  H   UNL     1      25.160   2.779  14.996  1.00  0.00     0.345 HD
ATOM      6  H   UNL     1      23.825   2.719  16.049  1.00  0.00     0.345 HD
ENDBRANCH   2   3
BRANCH   2   7
ATOM      7  C   UNL     1      23.231   5.171  16.267  1.00  0.00     0.100 C 
ATOM      8  O   UNL     1      23.040   4.731  17.432  1.00  0.00    -0.544 OA
ATOM      9  O   UNL     1      22.349   6.106  15.738  1.00  0.00    -0.544 OA
ENDBRANCH   2   7
ENDBRANCH   1   2
BRANCH   1  10
ATOM     10  C   UNL     1      25.558   6.748  14.636  1.00  0.00     0.223 C 
ATOM     11  O   UNL     1      26.455   7.631  14.699  1.00  0.00    -0.275 OA
ATOM     12  N   UNL     1      24.503   6.878  13.682  1.00  0.00    -0.369 N 
ATOM     13  H   UNL     1      23.756   6.152  13.609  1.00  0.00     0.159 HD
ATOM     14  H   UNL     1      24.471   7.703  13.042  1.00  0.00     0.159 HD
ENDBRANCH   1  10
TORSDOF 4
ENDMDL
MODEL 5
REMARK VINA RESULT:    -4.437      2.610      4.381
REMARK INTER + INTRA:          -5.457
REMARK INTER:                  -5.352
REMARK INTRA:                  -0.105
REMARK UNBOUND:                -0.112
REMARK SMILES NC(=O)C[C@@H]([NH3+])C(=O)[O-]
REMARK SMILES IDX 4 1 5 2 6 3 7 7 8 8 9 9 2 10 3 11 1 12
REMARK H PARENT 6 4 6 5 6 6 1 13 1 14
REMARK Flexibility Score: inf
ROOT
ATOM      1  C   UNL     1      25.779   4.880  16.301  1.00  0.00     0.171 C 
ENDROOT
BRANCH   1   2
ATOM      2  C   UNL     1      24.472   4.530  15.556  1.00  0.00     0.237 C 
BRANCH   2   3
ATOM      3  N   UNL     1      24.284   3.078  15.438  1.00  0.00    -0.350 N 
ATOM      4  H   UNL     1      23.416   2.791  15.947  1.00  0.00     0.345 HD
ATOM      5  H   UNL     1      25.097   2.583  15.872  1.00  0.00     0.345 HD
ATOM      6  H   UNL     1      24.205   2.785  14.437  1.00  0.00     0.345 HD
ENDBRANCH   2   3
BRANCH   2   7
ATOM      7  C   UNL     1      23.277   5.183  16.206  1.00  0.00     0.100 C 
ATOM      8  O   UNL     1      22.892   4.797  17.342  1.00  0.00    -0.544 OA
ATOM      9  O   UNL     1      22.563   6.172  15.542  1.00  0.00    -0.544 OA
ENDBRANCH   2   7
ENDBRANCH   1   2
BRANCH   1  10
ATOM     10  C   UNL     1      26.632   5.878  15.570  1.00  0.00     0.223 C 
ATOM     11  O   UNL     1      26.109   6.642  14.714  1.00  0.00    -0.275 OA
ATOM     12  N   UNL     1      28.027   5.984  15.853  1.00  0.00    -0.369 N 
ATOM     13  H   UNL     1      28.476   5.366  16.565  1.00  0.00     0.159 HD
ATOM     14  H   UNL     1      28.614   6.687  15.351  1.00  0.00     0.159 HD
ENDBRANCH   1  10
TORSDOF 4
ENDMDL
MODEL 6
REMARK VINA RESULT:    -4.361      1.827      3.922
REMARK INTER + INTRA:          -5.365
REMARK INTER:                  -5.153
REMARK INTRA:                  -0.211
REMARK UNBOUND:                -0.112
REMARK SMILES NC(=O)C[C@@H]([NH3+])C(=O)[O-]
REMARK SMILES IDX 4 1 5 2 6 3 7 7 8 8 9 9 2 10 3 11 1 12
REMARK H PARENT 6 4 6 5 6 6 1 13 1 14
REMARK Flexibility Score: inf
ROOT
ATOM      1  C   UNL     1      25.507   5.763  15.110  1.00  0.00     0.171 C 
ENDROOT
BRANCH   1   2
ATOM      2  C   UNL     1      24.259   6.626  14.826  1.00  0.00     0.237 C 
BRANCH   2   3
ATOM      3  N   UNL     1      24.034   6.802  13.385  1.00  0.00    -0.350 N 
ATOM      4  H   UNL     1      23.611   7.741  13.205  1.00  0.00     0.345 HD
ATOM      5  H   UNL     1      23.368   6.072  13.043  1.00  0.00     0.345 HD
ATOM      6  H   UNL     1      24.928   6.721  12.848  1.00  0.00     0.345 HD
ENDBRANCH   2   3
BRANCH   2   7
ATOM      7  C   UNL     1      23.034   6.061  15.502  1.00  0.00     0.100 C 
ATOM      8  O   UNL     1      21.943   6.689  15.451  1.00  0.00    -0.544 OA
ATOM      9  O   UNL     1      23.107   4.877  16.226  1.00  0.00    -0.544 OA
ENDBRANCH   2   7
ENDBRANCH   1   2
BRANCH   1  10
ATOM     10  C   UNL     1      26.765   6.570  15.269  1.00  0.00     0.223 C 
ATOM     11  O   UNL     1      26.783   7.780  14.917  1.00  0.00    -0.275 OA
ATOM     12  N   UNL     1      27.936   5.983  15.838  1.00  0.00    -0.369 N 
ATOM     13  H   UNL     1      27.937   4.985  16.144  1.00  0.00     0.159 HD
ATOM     14  H   UNL     1      28.804   6.550  15.957  1.00  0.00     0.159 HD
ENDBRANCH   1  10
TORSDOF 4
ENDMDL
MODEL 7
REMARK VINA RESULT:    -4.245      5.865      6.748
REMARK INTER + INTRA:          -5.225
REMARK INTER:                  -4.971
REMARK INTRA:                  -0.255
REMARK UNBOUND:                -0.112
REMARK SMILES NC(=O)C[C@@H]([NH3+])C(=O)[O-]
REMARK SMILES IDX 4 1 5 2 6 3 7 7 8 8 9 9 2 10 3 11 1 12
REMARK H PARENT 6 4 6 5 6 6 1 13 1 14
REMARK Flexibility Score: inf
ROOT
ATOM      1  C   UNL     1      26.587   7.109   9.732  1.00  0.00     0.171 C 
ENDROOT
BRANCH   1   2
ATOM      2  C   UNL     1      26.720   6.017   8.648  1.00  0.00     0.237 C 
BRANCH   2   3
ATOM      3  N   UNL     1      25.443   5.337   8.400  1.00  0.00    -0.350 N 
ATOM      4  H   UNL     1      24.716   6.037   8.124  1.00  0.00     0.345 HD
ATOM      5  H   UNL     1      25.123   4.860   9.274  1.00  0.00     0.345 HD
ATOM      6  H   UNL     1      25.534   4.623   7.641  1.00  0.00     0.345 HD
ENDBRANCH   2   3
BRANCH   2   7
ATOM      7  C   UNL     1      27.296   6.577   7.371  1.00  0.00     0.100 C 
ATOM      8  O   UNL     1      28.041   7.592   7.411  1.00  0.00    -0.544 OA
ATOM      9  O   UNL     1      26.973   6.015   6.142  1.00  0.00    -0.544 OA
ENDBRANCH   2   7
ENDBRANCH   1   2
BRANCH   1  10
ATOM     10  C   UNL     1      25.496   6.830  10.727  1.00  0.00     0.223 C 
ATOM     11  O   UNL     1      24.289   6.975  10.393  1.00  0.00    -0.275 OA
ATOM     12  N   UNL     1      25.814   6.379  12.044  1.00  0.00    -0.369 N 
ATOM     13  H   UNL     1      26.808   6.244  12.336  1.00  0.00     0.159 HD
ATOM     14  H   UNL     1      25.054   6.176  12.730  1.00  0.00     0.159 HD
ENDBRANCH   1  10
TORSDOF 4
ENDMDL
MODEL 8
REMARK VINA RESULT:    -4.193      2.305      3.229
REMARK INTER + INTRA:          -5.163
REMARK INTER:                  -4.971
REMARK INTRA:                  -0.192
REMARK UNBOUND:                -0.112
REMARK SMILES NC(=O)C[C@@H]([NH3+])C(=O)[O-]
REMARK SMILES IDX 4 1 5 2 6 3 7 7 8 8 9 9 2 10 3 11 1 12
REMARK H PARENT 6 4 6 5 6 6 1 13 1 14
REMARK Flexibility Score: inf
ROOT
ATOM      1  C   UNL     1      23.304   5.006  16.530  1.00  0.00     0.171 C 
ENDROOT
BRANCH   1   2
ATOM      2  C   UNL     1      22.600   5.872  15.463  1.00  0.00     0.237 C 
BRANCH   2   3
ATOM      3  N   UNL     1      21.282   6.333  15.919  1.00  0.00    -0.350 N 
ATOM      4  H   UNL     1      20.545   6.023  15.243  1.00  0.00     0.345 HD
ATOM      5  H   UNL     1      21.271   7.379  15.958  1.00  0.00     0.345 HD
ATOM      6  H   UNL     1      21.055   5.958  16.868  1.00  0.00     0.345 HD
ENDBRANCH   2   3
BRANCH   2   7
ATOM      7  C   UNL     1      23.465   7.033  15.038  1.00  0.00     0.100 C 
ATOM      8  O   UNL     1      23.215   8.191  15.466  1.00  0.00    -0.544 OA
ATOM      9  O   UNL     1      24.507   6.848  14.138  1.00  0.00    -0.544 OA
ENDBRANCH   2   7
ENDBRANCH   1   2
BRANCH   1  10
ATOM     10  C   UNL     1      24.357   4.098  15.959  1.00  0.00     0.223 C 
ATOM     11  O   UNL     1      24.027   2.985  15.469  1.00  0.00    -0.275 OA
ATOM     12  N   UNL     1      25.728   4.496  15.946  1.00  0.00    -0.369 N 
ATOM     13  H   UNL     1      26.020   5.419  16.338  1.00  0.00     0.159 HD
ATOM     14  H   UNL     1      26.455   3.868  15.538  1.00  0.00     0.159 HD
ENDBRANCH   1  10
TORSDOF 4
ENDMDL
MODEL 9
REMARK VINA RESULT:    -4.031      1.661      2.035
REMARK INTER + INTRA:          -4.968
REMARK INTER:                  -4.759
REMARK INTRA:                  -0.209
REMARK UNBOUND:                -0.112
REMARK SMILES NC(=O)C[C@@H]([NH3+])C(=O)[O-]
REMARK SMILES IDX 4 1 5 2 6 3 7 7 8 8 9 9 2 10 3 11 1 12
REMARK H PARENT 6 4 6 5 6 6 1 13 1 14
REMARK Flexibility Score: inf
ROOT
ATOM      1  C   UNL     1      24.288   6.442  13.976  1.00  0.00     0.171 C 
ENDROOT
BRANCH   1   2
ATOM      2  C   UNL     1      25.743   6.774  14.371  1.00  0.00     0.237 C 
BRANCH   2   3
ATOM      3  N   UNL     1      25.889   8.174  14.788  1.00  0.00    -0.350 N 
ATOM      4  H   UNL     1      26.427   8.223  15.684  1.00  0.00     0.345 HD
ATOM      5  H   UNL     1      24.944   8.592  14.951  1.00  0.00     0.345 HD
ATOM      6  H   UNL     1      26.387   8.738  14.061  1.00  0.00     0.345 HD
ENDBRANCH   2   3
BRANCH   2   7
ATOM      7  C   UNL     1      26.251   5.834  15.435  1.00  0.00     0.100 C 
ATOM      8  O   UNL     1      25.510   4.908  15.861  1.00  0.00    -0.544 OA
ATOM      9  O   UNL     1      27.513   6.007  15.990  1.00  0.00    -0.544 OA
ENDBRANCH   2   7
ENDBRANCH   1   2
BRANCH   1  10
ATOM     10  C   UNL     1      23.294   6.739  15.063  1.00  0.00     0.223 C 
ATOM     11  O   UNL     1      23.117   7.926  15.446  1.00  0.00    -0.275 OA
ATOM     12  N   UNL     1      22.529   5.686  15.653  1.00  0.00    -0.369 N 
ATOM     13  H   UNL     1      22.655   4.697  15.342  1.00  0.00     0.159 HD
ATOM     14  H   UNL     1      21.832   5.897  16.400  1.00  0.00     0.159 HD
ENDBRANCH   1  10
TORSDOF 4
ENDMDL
