MODEL 1
REMARK VINA RESULT:    -5.271      0.000      0.000
REMARK INTER + INTRA:          -9.865
REMARK INTER:                  -8.969
REMARK INTRA:                  -0.896
REMARK UNBOUND:                -0.896
REMARK SMILES CCCCCCCCCCCCCC(=O)[O-]
REMARK SMILES IDX 8 1 9 2 10 3 11 4 12 5 13 6 14 7 15 8 16 9 7 10 6 11 5 12
REMARK SMILES IDX 4 13 3 14 2 15 1 16
REMARK H PARENT
REMARK Flexibility Score: inf
ROOT
ATOM      1  C   UNL     1     -10.786  12.498   9.441  1.00  0.00     0.000 C 
ENDROOT
BRANCH   1   2
ATOM      2  C   UNL     1     -10.275  13.945   9.594  1.00  0.00     0.000 C 
BRANCH   2   3
ATOM      3  C   UNL     1      -9.102  14.326   8.674  1.00  0.00     0.000 C 
BRANCH   3   4
ATOM      4  C   UNL     1      -7.855  14.774   9.453  1.00  0.00     0.000 C 
BRANCH   4   5
ATOM      5  C   UNL     1      -8.165  15.104  10.923  1.00  0.00     0.006 C 
BRANCH   5   6
ATOM      6  C   UNL     1      -7.245  14.363  11.903  1.00  0.00     0.053 C 
BRANCH   6   7
ATOM      7  C   UNL     1      -8.023  13.353  12.686  1.00  0.00     0.041 C 
ATOM      8  O   UNL     1      -8.290  13.561  13.899  1.00  0.00    -0.550 OA
ATOM      9  O   UNL     1      -8.409  12.159  12.091  1.00  0.00    -0.550 OA
ENDBRANCH   6   7
ENDBRANCH   5   6
ENDBRANCH   4   5
ENDBRANCH   3   4
ENDBRANCH   2   3
ENDBRANCH   1   2
BRANCH   1  10
ATOM     10  C   UNL     1     -11.096  12.062   7.994  1.00  0.00     0.000 C 
BRANCH  10  11
ATOM     11  C   UNL     1     -11.931  10.774   7.871  1.00  0.00    -0.000 C 
BRANCH  11  12
ATOM     12  C   UNL     1     -12.073  10.293   6.420  1.00  0.00    -0.000 C 
BRANCH  12  13
ATOM     13  C   UNL     1     -11.894  11.454   5.435  1.00  0.00    -0.000 C 
BRANCH  13  14
ATOM     14  C   UNL     1     -10.833  11.119   4.376  1.00  0.00    -0.000 C 
BRANCH  14  15
ATOM     15  C   UNL     1     -10.349  12.361   3.611  1.00  0.00    -0.003 C 
ATOM     16  C   UNL     1      -9.243  13.116   4.347  1.00  0.00     0.004 C 
ENDBRANCH  14  15
ENDBRANCH  13  14
ENDBRANCH  12  13
ENDBRANCH  11  12
ENDBRANCH  10  11
ENDBRANCH   1  10
TORSDOF 12
ENDMDL
MODEL 2
REMARK VINA RESULT:    -5.257      1.544      2.888
REMARK INTER + INTRA:          -9.840
REMARK INTER:                  -9.110
REMARK INTRA:                  -0.730
REMARK UNBOUND:                -0.896
REMARK SMILES CCCCCCCCCCCCCC(=O)[O-]
REMARK SMILES IDX 8 1 9 2 10 3 11 4 12 5 13 6 14 7 15 8 16 9 7 10 6 11 5 12
REMARK SMILES IDX 4 13 3 14 2 15 1 16
REMARK H PARENT
REMARK Flexibility Score: inf
ROOT
ATOM      1  C   UNL     1     -11.985  10.630   7.432  1.00  0.00     0.000 C 
ENDROOT
BRANCH   1   2
ATOM      2  C   UNL     1     -12.253  11.926   8.222  1.00  0.00     0.000 C 
BRANCH   2   3
ATOM      3  C   UNL     1     -11.117  12.366   9.163  1.00  0.00     0.000 C 
BRANCH   3   4
ATOM      4  C   UNL     1     -10.137  13.345   8.496  1.00  0.00     0.000 C 
BRANCH   4   5
ATOM      5  C   UNL     1      -9.722  14.493   9.432  1.00  0.00     0.006 C 
BRANCH   5   6
ATOM      6  C   UNL     1      -8.203  14.573   9.633  1.00  0.00     0.053 C 
BRANCH   6   7
ATOM      7  C   UNL     1      -7.884  15.240  10.933  1.00  0.00     0.041 C 
ATOM      8  O   UNL     1      -8.414  16.345  11.226  1.00  0.00    -0.550 OA
ATOM      9  O   UNL     1      -6.963  14.668  11.801  1.00  0.00    -0.550 OA
ENDBRANCH   6   7
ENDBRANCH   5   6
ENDBRANCH   4   5
ENDBRANCH   3   4
ENDBRANCH   2   3
ENDBRANCH   1   2
BRANCH   1  10
ATOM     10  C   UNL     1     -12.035  10.776   5.896  1.00  0.00     0.000 C 
BRANCH  10  11
ATOM     11  C   UNL     1     -10.916  11.642   5.290  1.00  0.00    -0.000 C 
BRANCH  11  12
ATOM     12  C   UNL     1     -10.624  11.298   3.823  1.00  0.00    -0.000 C 
BRANCH  12  13
ATOM     13  C   UNL     1     -10.100  12.523   3.064  1.00  0.00    -0.000 C 
BRANCH  13  14
ATOM     14  C   UNL     1      -9.339  13.469   4.005  1.00  0.00    -0.000 C 
BRANCH  14  15
ATOM     15  C   UNL     1      -7.825  13.206   4.008  1.00  0.00    -0.003 C 
ATOM     16  C   UNL     1      -7.297  12.772   2.642  1.00  0.00     0.004 C 
ENDBRANCH  14  15
ENDBRANCH  13  14
ENDBRANCH  12  13
ENDBRANCH  11  12
ENDBRANCH  10  11
ENDBRANCH   1  10
TORSDOF 12
ENDMDL
MODEL 3
REMARK VINA RESULT:    -5.192      3.354      7.080
REMARK INTER + INTRA:          -9.729
REMARK INTER:                  -9.061
REMARK INTRA:                  -0.668
REMARK UNBOUND:                -0.896
REMARK SMILES CCCCCCCCCCCCCC(=O)[O-]
REMARK SMILES IDX 8 1 9 2 10 3 11 4 12 5 13 6 14 7 15 8 16 9 7 10 6 11 5 12
REMARK SMILES IDX 4 13 3 14 2 15 1 16
REMARK H PARENT
REMARK Flexibility Score: inf
ROOT
ATOM      1  C   UNL     1     -11.625  11.136   8.215  1.00  0.00     0.000 C 
ENDROOT
BRANCH   1   2
ATOM      2  C   UNL     1     -12.631  10.846   7.084  1.00  0.00     0.000 C 
BRANCH   2   3
ATOM      3  C   UNL     1     -12.004  10.517   5.718  1.00  0.00     0.000 C 
BRANCH   3   4
ATOM      4  C   UNL     1     -10.978  11.569   5.264  1.00  0.00     0.000 C 
BRANCH   4   5
ATOM      5  C   UNL     1     -10.820  11.618   3.735  1.00  0.00     0.006 C 
BRANCH   5   6
ATOM      6  C   UNL     1      -9.354  11.726   3.295  1.00  0.00     0.053 C 
BRANCH   6   7
ATOM      7  C   UNL     1      -8.856  13.124   3.479  1.00  0.00     0.041 C 
ATOM      8  O   UNL     1      -9.586  14.102   3.171  1.00  0.00    -0.550 OA
ATOM      9  O   UNL     1      -7.566  13.347   3.943  1.00  0.00    -0.550 OA
ENDBRANCH   6   7
ENDBRANCH   5   6
ENDBRANCH   4   5
ENDBRANCH   3   4
ENDBRANCH   2   3
ENDBRANCH   1   2
BRANCH   1  10
ATOM     10  C   UNL     1     -11.706  12.553   8.819  1.00  0.00     0.000 C 
BRANCH  10  11
ATOM     11  C   UNL     1     -10.456  12.998   9.599  1.00  0.00    -0.000 C 
BRANCH  11  12
ATOM     12  C   UNL     1     -10.011  14.425   9.248  1.00  0.00    -0.000 C 
BRANCH  12  13
ATOM     13  C   UNL     1      -8.502  14.482   8.984  1.00  0.00    -0.000 C 
BRANCH  13  14
ATOM     14  C   UNL     1      -7.709  14.358  10.294  1.00  0.00    -0.000 C 
BRANCH  14  15
ATOM     15  C   UNL     1      -8.120  15.413  11.334  1.00  0.00    -0.003 C 
ATOM     16  C   UNL     1      -7.786  14.995  12.765  1.00  0.00     0.004 C 
ENDBRANCH  14  15
ENDBRANCH  13  14
ENDBRANCH  12  13
ENDBRANCH  11  12
ENDBRANCH  10  11
ENDBRANCH   1  10
TORSDOF 12
ENDMDL
MODEL 4
REMARK VINA RESULT:    -5.136      3.942      7.165
REMARK INTER + INTRA:          -9.634
REMARK INTER:                  -9.054
REMARK INTRA:                  -0.580
REMARK UNBOUND:                -0.896
REMARK SMILES CCCCCCCCCCCCCC(=O)[O-]
REMARK SMILES IDX 8 1 9 2 10 3 11 4 12 5 13 6 14 7 15 8 16 9 7 10 6 11 5 12
REMARK SMILES IDX 4 13 3 14 2 15 1 16
REMARK H PARENT
REMARK Flexibility Score: inf
ROOT
ATOM      1  C   UNL     1     -13.041  11.816   7.021  1.00  0.00     0.000 C 
ENDROOT
BRANCH   1   2
ATOM      2  C   UNL     1     -11.953  10.978   6.320  1.00  0.00     0.000 C 
BRANCH   2   3
ATOM      3  C   UNL     1     -11.091  11.745   5.301  1.00  0.00     0.000 C 
BRANCH   3   4
ATOM      4  C   UNL     1     -10.878  10.963   3.994  1.00  0.00     0.000 C 
BRANCH   4   5
ATOM      5  C   UNL     1      -9.832  11.620   3.078  1.00  0.00     0.006 C 
BRANCH   5   6
ATOM      6  C   UNL     1      -9.007  12.696   3.798  1.00  0.00     0.053 C 
BRANCH   6   7
ATOM      7  C   UNL     1      -8.771  13.864   2.893  1.00  0.00     0.041 C 
ATOM      8  O   UNL     1      -9.743  14.541   2.466  1.00  0.00    -0.550 OA
ATOM      9  O   UNL     1      -7.482  14.175   2.481  1.00  0.00    -0.550 OA
ENDBRANCH   6   7
ENDBRANCH   5   6
ENDBRANCH   4   5
ENDBRANCH   3   4
ENDBRANCH   2   3
ENDBRANCH   1   2
BRANCH   1  10
ATOM     10  C   UNL     1     -12.738  12.191   8.486  1.00  0.00     0.000 C 
BRANCH  10  11
ATOM     11  C   UNL     1     -11.250  12.128   8.878  1.00  0.00    -0.000 C 
BRANCH  11  12
ATOM     12  C   UNL     1     -10.567  13.503   8.844  1.00  0.00    -0.000 C 
BRANCH  12  13
ATOM     13  C   UNL     1      -9.636  13.683  10.049  1.00  0.00    -0.000 C 
BRANCH  13  14
ATOM     14  C   UNL     1      -8.679  14.865   9.833  1.00  0.00    -0.000 C 
BRANCH  14  15
ATOM     15  C   UNL     1      -8.178  15.468  11.155  1.00  0.00    -0.003 C 
ATOM     16  C   UNL     1      -7.487  16.817  10.965  1.00  0.00     0.004 C 
ENDBRANCH  14  15
ENDBRANCH  13  14
ENDBRANCH  12  13
ENDBRANCH  11  12
ENDBRANCH  10  11
ENDBRANCH   1  10
TORSDOF 12
ENDMDL
MODEL 5
REMARK VINA RESULT:    -5.114      3.349      7.345
REMARK INTER + INTRA:          -9.598
REMARK INTER:                  -8.731
REMARK INTRA:                  -0.867
REMARK UNBOUND:                -0.896
REMARK SMILES CCCCCCCCCCCCCC(=O)[O-]
REMARK SMILES IDX 8 1 9 2 10 3 11 4 12 5 13 6 14 7 15 8 16 9 7 10 6 11 5 12
REMARK SMILES IDX 4 13 3 14 2 15 1 16
REMARK H PARENT
REMARK Flexibility Score: inf
ROOT
ATOM      1  C   UNL     1      -9.598  13.612  10.005  1.00  0.00     0.000 C 
ENDROOT
BRANCH   1   2
ATOM      2  C   UNL     1     -10.763  13.443   9.010  1.00  0.00     0.000 C 
BRANCH   2   3
ATOM      3  C   UNL     1     -11.260  11.998   8.824  1.00  0.00     0.000 C 
BRANCH   3   4
ATOM      4  C   UNL     1     -11.270  11.556   7.351  1.00  0.00     0.000 C 
BRANCH   4   5
ATOM      5  C   UNL     1     -12.664  11.109   6.879  1.00  0.00     0.006 C 
BRANCH   5   6
ATOM      6  C   UNL     1     -12.690   9.647   6.412  1.00  0.00     0.053 C 
BRANCH   6   7
ATOM      7  C   UNL     1     -13.382   8.789   7.423  1.00  0.00     0.041 C 
ATOM      8  O   UNL     1     -13.812   9.294   8.494  1.00  0.00    -0.550 OA
ATOM      9  O   UNL     1     -13.507   7.423   7.207  1.00  0.00    -0.550 OA
ENDBRANCH   6   7
ENDBRANCH   5   6
ENDBRANCH   4   5
ENDBRANCH   3   4
ENDBRANCH   2   3
ENDBRANCH   1   2
BRANCH   1  10
ATOM     10  C   UNL     1      -8.458  14.536   9.529  1.00  0.00     0.000 C 
BRANCH  10  11
ATOM     11  C   UNL     1      -7.909  15.494  10.602  1.00  0.00    -0.000 C 
BRANCH  11  12
ATOM     12  C   UNL     1      -7.957  14.897  12.015  1.00  0.00    -0.000 C 
BRANCH  12  13
ATOM     13  C   UNL     1      -6.793  13.925  12.241  1.00  0.00    -0.000 C 
BRANCH  13  14
ATOM     14  C   UNL     1      -7.197  12.797  13.202  1.00  0.00    -0.000 C 
BRANCH  14  15
ATOM     15  C   UNL     1      -7.576  11.502  12.466  1.00  0.00    -0.003 C 
ATOM     16  C   UNL     1      -9.072  11.199  12.534  1.00  0.00     0.004 C 
ENDBRANCH  14  15
ENDBRANCH  13  14
ENDBRANCH  12  13
ENDBRANCH  11  12
ENDBRANCH  10  11
ENDBRANCH   1  10
TORSDOF 12
ENDMDL
MODEL 6
REMARK VINA RESULT:    -5.102      5.034      7.133
REMARK INTER + INTRA:          -9.576
REMARK INTER:                  -8.969
REMARK INTRA:                  -0.607
REMARK UNBOUND:                -0.896
REMARK SMILES CCCCCCCCCCCCCC(=O)[O-]
REMARK SMILES IDX 8 1 9 2 10 3 11 4 12 5 13 6 14 7 15 8 16 9 7 10 6 11 5 12
REMARK SMILES IDX 4 13 3 14 2 15 1 16
REMARK H PARENT
REMARK Flexibility Score: inf
ROOT
ATOM      1  C   UNL     1     -12.329  10.283   7.417  1.00  0.00     0.000 C 
ENDROOT
BRANCH   1   2
ATOM      2  C   UNL     1     -13.126   9.047   7.879  1.00  0.00     0.000 C 
BRANCH   2   3
ATOM      3  C   UNL     1     -13.643   8.141   6.747  1.00  0.00     0.000 C 
BRANCH   3   4
ATOM      4  C   UNL     1     -14.065   6.748   7.244  1.00  0.00     0.000 C 
BRANCH   4   5
ATOM      5  C   UNL     1     -14.190   6.682   8.775  1.00  0.00     0.006 C 
BRANCH   5   6
ATOM      6  C   UNL     1     -15.638   6.481   9.243  1.00  0.00     0.053 C 
BRANCH   6   7
ATOM      7  C   UNL     1     -15.975   7.454  10.328  1.00  0.00     0.041 C 
ATOM      8  O   UNL     1     -15.231   8.448  10.541  1.00  0.00    -0.550 OA
ATOM      9  O   UNL     1     -17.082   7.237  11.138  1.00  0.00    -0.550 OA
ENDBRANCH   6   7
ENDBRANCH   5   6
ENDBRANCH   4   5
ENDBRANCH   3   4
ENDBRANCH   2   3
ENDBRANCH   1   2
BRANCH   1  10
ATOM     10  C   UNL     1     -12.148  10.414   5.890  1.00  0.00     0.000 C 
BRANCH  10  11
ATOM     11  C   UNL     1     -11.133  11.483   5.448  1.00  0.00    -0.000 C 
BRANCH  11  12
ATOM     12  C   UNL     1     -10.711  11.333   3.979  1.00  0.00    -0.000 C 
BRANCH  12  13
ATOM     13  C   UNL     1     -10.131  12.645   3.437  1.00  0.00    -0.000 C 
BRANCH  13  14
ATOM     14  C   UNL     1      -8.977  13.143   4.320  1.00  0.00    -0.000 C 
BRANCH  14  15
ATOM     15  C   UNL     1      -7.713  13.472   3.509  1.00  0.00    -0.003 C 
ATOM     16  C   UNL     1      -6.798  12.262   3.323  1.00  0.00     0.004 C 
ENDBRANCH  14  15
ENDBRANCH  13  14
ENDBRANCH  12  13
ENDBRANCH  11  12
ENDBRANCH  10  11
ENDBRANCH   1  10
TORSDOF 12
ENDMDL
MODEL 7
REMARK VINA RESULT:    -5.101      4.165      7.878
REMARK INTER + INTRA:          -9.575
REMARK INTER:                  -8.833
REMARK INTRA:                  -0.743
REMARK UNBOUND:                -0.896
REMARK SMILES CCCCCCCCCCCCCC(=O)[O-]
REMARK SMILES IDX 8 1 9 2 10 3 11 4 12 5 13 6 14 7 15 8 16 9 7 10 6 11 5 12
REMARK SMILES IDX 4 13 3 14 2 15 1 16
REMARK H PARENT
REMARK Flexibility Score: inf
ROOT
ATOM      1  C   UNL     1     -11.292  11.541   8.439  1.00  0.00     0.000 C 
ENDROOT
BRANCH   1   2
ATOM      2  C   UNL     1     -11.458  11.475   6.908  1.00  0.00     0.000 C 
BRANCH   2   3
ATOM      3  C   UNL     1     -12.190  10.228   6.382  1.00  0.00     0.000 C 
BRANCH   3   4
ATOM      4  C   UNL     1     -12.829   9.394   7.505  1.00  0.00     0.000 C 
BRANCH   4   5
ATOM      5  C   UNL     1     -13.645   8.207   6.967  1.00  0.00     0.006 C 
BRANCH   5   6
ATOM      6  C   UNL     1     -13.431   6.924   7.782  1.00  0.00     0.053 C 
BRANCH   6   7
ATOM      7  C   UNL     1     -14.670   6.086   7.770  1.00  0.00     0.041 C 
ATOM      8  O   UNL     1     -14.816   5.182   6.906  1.00  0.00    -0.550 OA
ATOM      9  O   UNL     1     -15.688   6.337   8.682  1.00  0.00    -0.550 OA
ENDBRANCH   6   7
ENDBRANCH   5   6
ENDBRANCH   4   5
ENDBRANCH   3   4
ENDBRANCH   2   3
ENDBRANCH   1   2
BRANCH   1  10
ATOM     10  C   UNL     1     -11.236  12.963   9.033  1.00  0.00     0.000 C 
BRANCH  10  11
ATOM     11  C   UNL     1      -9.943  13.742   8.729  1.00  0.00    -0.000 C 
BRANCH  11  12
ATOM     12  C   UNL     1      -9.432  14.544   9.934  1.00  0.00    -0.000 C 
BRANCH  12  13
ATOM     13  C   UNL     1      -7.905  14.463  10.042  1.00  0.00    -0.000 C 
BRANCH  13  14
ATOM     14  C   UNL     1      -7.482  13.449  11.116  1.00  0.00    -0.000 C 
BRANCH  14  15
ATOM     15  C   UNL     1      -8.615  13.130  12.105  1.00  0.00    -0.003 C 
ATOM     16  C   UNL     1      -8.859  11.630  12.261  1.00  0.00     0.004 C 
ENDBRANCH  14  15
ENDBRANCH  13  14
ENDBRANCH  12  13
ENDBRANCH  11  12
ENDBRANCH  10  11
ENDBRANCH   1  10
TORSDOF 12
ENDMDL
MODEL 8
REMARK VINA RESULT:    -5.018      5.770      7.585
REMARK INTER + INTRA:          -9.434
REMARK INTER:                  -8.591
REMARK INTRA:                  -0.843
REMARK UNBOUND:                -0.896
REMARK SMILES CCCCCCCCCCCCCC(=O)[O-]
REMARK SMILES IDX 8 1 9 2 10 3 11 4 12 5 13 6 14 7 15 8 16 9 7 10 6 11 5 12
REMARK SMILES IDX 4 13 3 14 2 15 1 16
REMARK H PARENT
REMARK Flexibility Score: inf
ROOT
ATOM      1  C   UNL     1     -10.899  11.597   3.925  1.00  0.00     0.000 C 
ENDROOT
BRANCH   1   2
ATOM      2  C   UNL     1      -9.960  12.673   3.346  1.00  0.00     0.000 C 
BRANCH   2   3
ATOM      3  C   UNL     1      -9.023  13.343   4.367  1.00  0.00     0.000 C 
BRANCH   3   4
ATOM      4  C   UNL     1      -7.550  13.325   3.924  1.00  0.00     0.000 C 
BRANCH   4   5
ATOM      5  C   UNL     1      -7.296  12.354   2.759  1.00  0.00     0.006 C 
BRANCH   5   6
ATOM      6  C   UNL     1      -6.369  12.943   1.688  1.00  0.00     0.053 C 
BRANCH   6   7
ATOM      7  C   UNL     1      -7.010  14.129   1.039  1.00  0.00     0.041 C 
ATOM      8  O   UNL     1      -6.434  15.249   1.055  1.00  0.00    -0.550 OA
ATOM      9  O   UNL     1      -8.268  14.009   0.461  1.00  0.00    -0.550 OA
ENDBRANCH   6   7
ENDBRANCH   5   6
ENDBRANCH   4   5
ENDBRANCH   3   4
ENDBRANCH   2   3
ENDBRANCH   1   2
BRANCH   1  10
ATOM     10  C   UNL     1     -10.885  11.473   5.463  1.00  0.00     0.000 C 
BRANCH  10  11
ATOM     11  C   UNL     1     -12.248  11.142   6.098  1.00  0.00    -0.000 C 
BRANCH  11  12
ATOM     12  C   UNL     1     -12.158  10.908   7.613  1.00  0.00    -0.000 C 
BRANCH  12  13
ATOM     13  C   UNL     1     -12.886   9.620   8.015  1.00  0.00    -0.000 C 
BRANCH  13  14
ATOM     14  C   UNL     1     -13.184   8.749   6.785  1.00  0.00    -0.000 C 
BRANCH  14  15
ATOM     15  C   UNL     1     -13.918   7.448   7.147  1.00  0.00    -0.003 C 
ATOM     16  C   UNL     1     -14.662   7.540   8.478  1.00  0.00     0.004 C 
ENDBRANCH  14  15
ENDBRANCH  13  14
ENDBRANCH  12  13
ENDBRANCH  11  12
ENDBRANCH  10  11
ENDBRANCH   1  10
TORSDOF 12
ENDMDL
MODEL 9
REMARK VINA RESULT:    -4.998      5.468      7.303
REMARK INTER + INTRA:          -9.400
REMARK INTER:                  -8.810
REMARK INTRA:                  -0.590
REMARK UNBOUND:                -0.896
REMARK SMILES CCCCCCCCCCCCCC(=O)[O-]
REMARK SMILES IDX 8 1 9 2 10 3 11 4 12 5 13 6 14 7 15 8 16 9 7 10 6 11 5 12
REMARK SMILES IDX 4 13 3 14 2 15 1 16
REMARK H PARENT
REMARK Flexibility Score: inf
ROOT
ATOM      1  C   UNL     1     -11.839  11.008   5.656  1.00  0.00     0.000 C 
ENDROOT
BRANCH   1   2
ATOM      2  C   UNL     1     -11.719  11.024   7.192  1.00  0.00     0.000 C 
BRANCH   2   3
ATOM      3  C   UNL     1     -12.457   9.885   7.918  1.00  0.00     0.000 C 
BRANCH   3   4
ATOM      4  C   UNL     1     -13.077   8.864   6.950  1.00  0.00     0.000 C 
BRANCH   4   5
ATOM      5  C   UNL     1     -14.151   7.992   7.620  1.00  0.00     0.006 C 
BRANCH   5   6
ATOM      6  C   UNL     1     -14.069   6.519   7.195  1.00  0.00     0.053 C 
BRANCH   6   7
ATOM      7  C   UNL     1     -14.844   5.659   8.143  1.00  0.00     0.041 C 
ATOM      8  O   UNL     1     -15.997   6.004   8.512  1.00  0.00    -0.550 OA
ATOM      9  O   UNL     1     -14.273   4.503   8.658  1.00  0.00    -0.550 OA
ENDBRANCH   6   7
ENDBRANCH   5   6
ENDBRANCH   4   5
ENDBRANCH   3   4
ENDBRANCH   2   3
ENDBRANCH   1   2
BRANCH   1  10
ATOM     10  C   UNL     1     -10.606  11.537   4.895  1.00  0.00     0.000 C 
BRANCH  10  11
ATOM     11  C   UNL     1     -10.865  11.919   3.426  1.00  0.00    -0.000 C 
BRANCH  11  12
ATOM     12  C   UNL     1      -9.923  13.021   2.921  1.00  0.00    -0.000 C 
BRANCH  12  13
ATOM     13  C   UNL     1      -8.918  13.425   4.006  1.00  0.00    -0.000 C 
BRANCH  13  14
ATOM     14  C   UNL     1      -7.495  12.988   3.628  1.00  0.00    -0.000 C 
BRANCH  14  15
ATOM     15  C   UNL     1      -7.384  12.546   2.160  1.00  0.00    -0.003 C 
ATOM     16  C   UNL     1      -6.268  13.268   1.407  1.00  0.00     0.004 C 
ENDBRANCH  14  15
ENDBRANCH  13  14
ENDBRANCH  12  13
ENDBRANCH  11  12
ENDBRANCH  10  11
ENDBRANCH   1  10
TORSDOF 12
ENDMDL
