MODEL 1
REMARK VINA RESULT:    -3.409      0.000      0.000
REMARK INTER + INTRA:          -4.236
REMARK INTER:                  -4.207
REMARK INTRA:                  -0.030
REMARK UNBOUND:                -0.030
REMARK SMILES CCCCCC=O
REMARK SMILES IDX 4 1 3 2 2 3 1 4 5 5 6 6 7 7
REMARK H PARENT
REMARK Flexibility Score: inf
ROOT
ATOM      1  C   UNL     1      25.553  56.783  -9.254  1.00  0.00     0.008 C 
ENDROOT
BRANCH   1   2
ATOM      2  C   UNL     1      24.215  56.493  -8.555  1.00  0.00     0.000 C 
BRANCH   2   3
ATOM      3  C   UNL     1      24.060  55.014  -8.170  1.00  0.00    -0.003 C 
ATOM      4  C   UNL     1      22.765  54.782  -7.395  1.00  0.00     0.004 C 
ENDBRANCH   2   3
ENDBRANCH   1   2
BRANCH   1   5
ATOM      5  C   UNL     1      25.765  58.279  -9.526  1.00  0.00     0.072 C 
BRANCH   5   6
ATOM      6  C   UNL     1      26.920  58.493 -10.457  1.00  0.00     0.224 C 
ATOM      7  O   UNL     1      27.414  59.602 -10.587  1.00  0.00    -0.303 OA
ENDBRANCH   5   6
ENDBRANCH   1   5
TORSDOF 4
ENDMDL
MODEL 2
REMARK VINA RESULT:    -3.353      2.778      4.985
REMARK INTER + INTRA:          -4.167
REMARK INTER:                  -4.138
REMARK INTRA:                  -0.029
REMARK UNBOUND:                -0.030
REMARK SMILES CCCCCC=O
REMARK SMILES IDX 4 1 3 2 2 3 1 4 5 5 6 6 7 7
REMARK H PARENT
REMARK Flexibility Score: inf
ROOT
ATOM      1  C   UNL     1      25.522  56.777  -9.300  1.00  0.00     0.008 C 
ENDROOT
BRANCH   1   2
ATOM      2  C   UNL     1      25.863  58.259  -9.516  1.00  0.00     0.000 C 
BRANCH   2   3
ATOM      3  C   UNL     1      27.037  58.458 -10.488  1.00  0.00    -0.003 C 
ATOM      4  C   UNL     1      27.534  59.901 -10.459  1.00  0.00     0.004 C 
ENDBRANCH   2   3
ENDBRANCH   1   2
BRANCH   1   5
ATOM      5  C   UNL     1      24.125  56.574  -8.695  1.00  0.00     0.072 C 
BRANCH   5   6
ATOM      6  C   UNL     1      24.002  55.212  -8.082  1.00  0.00     0.224 C 
ATOM      7  O   UNL     1      22.943  54.843  -7.598  1.00  0.00    -0.303 OA
ENDBRANCH   5   6
ENDBRANCH   1   5
TORSDOF 4
ENDMDL
MODEL 3
REMARK VINA RESULT:    -3.183     17.259     18.234
REMARK INTER + INTRA:          -3.956
REMARK INTER:                  -3.788
REMARK INTRA:                  -0.168
REMARK UNBOUND:                -0.030
REMARK SMILES CCCCCC=O
REMARK SMILES IDX 4 1 3 2 2 3 1 4 5 5 6 6 7 7
REMARK H PARENT
REMARK Flexibility Score: inf
ROOT
ATOM      1  C   UNL     1      19.108  44.505   0.222  1.00  0.00     0.008 C 
ENDROOT
BRANCH   1   2
ATOM      2  C   UNL     1      17.605  44.221   0.077  1.00  0.00     0.000 C 
BRANCH   2   3
ATOM      3  C   UNL     1      17.020  43.501   1.301  1.00  0.00    -0.003 C 
ATOM      4  C   UNL     1      15.805  44.247   1.848  1.00  0.00     0.004 C 
ENDBRANCH   2   3
ENDBRANCH   1   2
BRANCH   1   5
ATOM      5  C   UNL     1      19.713  43.860   1.477  1.00  0.00     0.072 C 
BRANCH   5   6
ATOM      6  C   UNL     1      20.670  42.768   1.106  1.00  0.00     0.224 C 
ATOM      7  O   UNL     1      20.423  42.017   0.175  1.00  0.00    -0.303 OA
ENDBRANCH   5   6
ENDBRANCH   1   5
TORSDOF 4
ENDMDL
MODEL 4
REMARK VINA RESULT:    -3.137     17.373     18.236
REMARK INTER + INTRA:          -3.900
REMARK INTER:                  -3.674
REMARK INTRA:                  -0.226
REMARK UNBOUND:                -0.030
REMARK SMILES CCCCCC=O
REMARK SMILES IDX 4 1 3 2 2 3 1 4 5 5 6 6 7 7
REMARK H PARENT
REMARK Flexibility Score: inf
ROOT
ATOM      1  C   UNL     1      19.105  44.322   0.019  1.00  0.00     0.008 C 
ENDROOT
BRANCH   1   2
ATOM      2  C   UNL     1      19.685  44.114   1.426  1.00  0.00     0.000 C 
BRANCH   2   3
ATOM      3  C   UNL     1      20.396  42.761   1.576  1.00  0.00    -0.003 C 
ATOM      4  C   UNL     1      20.908  42.258   0.229  1.00  0.00     0.004 C 
ENDBRANCH   2   3
ENDBRANCH   1   2
BRANCH   1   5
ATOM      5  C   UNL     1      17.569  44.342   0.009  1.00  0.00     0.072 C 
BRANCH   5   6
ATOM      6  C   UNL     1      17.019  42.956  -0.148  1.00  0.00     0.224 C 
ATOM      7  O   UNL     1      17.605  42.131  -0.831  1.00  0.00    -0.303 OA
ENDBRANCH   5   6
ENDBRANCH   1   5
TORSDOF 4
ENDMDL
MODEL 5
REMARK VINA RESULT:    -3.134     17.947     18.757
REMARK INTER + INTRA:          -3.897
REMARK INTER:                  -3.668
REMARK INTRA:                  -0.229
REMARK UNBOUND:                -0.030
REMARK SMILES CCCCCC=O
REMARK SMILES IDX 4 1 3 2 2 3 1 4 5 5 6 6 7 7
REMARK H PARENT
REMARK Flexibility Score: inf
ROOT
ATOM      1  C   UNL     1      18.517  43.361   1.950  1.00  0.00     0.008 C 
ENDROOT
BRANCH   1   2
ATOM      2  C   UNL     1      17.725  42.206   1.318  1.00  0.00     0.000 C 
BRANCH   2   3
ATOM      3  C   UNL     1      17.382  42.465  -0.157  1.00  0.00    -0.003 C 
ATOM      4  C   UNL     1      17.844  41.308  -1.039  1.00  0.00     0.004 C 
ENDBRANCH   2   3
ENDBRANCH   1   2
BRANCH   1   5
ATOM      5  C   UNL     1      19.765  43.737   1.139  1.00  0.00     0.072 C 
BRANCH   5   6
ATOM      6  C   UNL     1      20.796  42.651   1.213  1.00  0.00     0.224 C 
ATOM      7  O   UNL     1      21.104  42.021   0.214  1.00  0.00    -0.303 OA
ENDBRANCH   5   6
ENDBRANCH   1   5
TORSDOF 4
ENDMDL
MODEL 6
REMARK VINA RESULT:    -3.125     16.778     18.073
REMARK INTER + INTRA:          -3.885
REMARK INTER:                  -3.732
REMARK INTRA:                  -0.153
REMARK UNBOUND:                -0.030
REMARK SMILES CCCCCC=O
REMARK SMILES IDX 4 1 3 2 2 3 1 4 5 5 6 6 7 7
REMARK H PARENT
REMARK Flexibility Score: inf
ROOT
ATOM      1  C   UNL     1      18.427  43.546   2.235  1.00  0.00     0.008 C 
ENDROOT
BRANCH   1   2
ATOM      2  C   UNL     1      17.157  43.289   1.409  1.00  0.00     0.000 C 
BRANCH   2   3
ATOM      3  C   UNL     1      15.955  44.107   1.907  1.00  0.00    -0.003 C 
ATOM      4  C   UNL     1      15.311  44.886   0.762  1.00  0.00     0.004 C 
ENDBRANCH   2   3
ENDBRANCH   1   2
BRANCH   1   5
ATOM      5  C   UNL     1      19.631  43.930   1.363  1.00  0.00     0.072 C 
BRANCH   5   6
ATOM      6  C   UNL     1      19.186  44.362  -0.001  1.00  0.00     0.224 C 
ATOM      7  O   UNL     1      19.353  45.514  -0.372  1.00  0.00    -0.303 OA
ENDBRANCH   5   6
ENDBRANCH   1   5
TORSDOF 4
ENDMDL
MODEL 7
REMARK VINA RESULT:    -3.040     15.492     16.740
REMARK INTER + INTRA:          -3.780
REMARK INTER:                  -3.693
REMARK INTRA:                  -0.087
REMARK UNBOUND:                -0.030
REMARK SMILES CCCCCC=O
REMARK SMILES IDX 4 1 3 2 2 3 1 4 5 5 6 6 7 7
REMARK H PARENT
REMARK Flexibility Score: inf
ROOT
ATOM      1  C   UNL     1      30.654  44.286   0.363  1.00  0.00     0.008 C 
ENDROOT
BRANCH   1   2
ATOM      2  C   UNL     1      31.722  44.279   1.468  1.00  0.00     0.000 C 
BRANCH   2   3
ATOM      3  C   UNL     1      32.563  45.564   1.482  1.00  0.00    -0.003 C 
ATOM      4  C   UNL     1      32.574  46.197   2.872  1.00  0.00     0.004 C 
ENDBRANCH   2   3
ENDBRANCH   1   2
BRANCH   1   5
ATOM      5  C   UNL     1      29.446  45.165   0.715  1.00  0.00     0.072 C 
BRANCH   5   6
ATOM      6  C   UNL     1      28.411  45.109  -0.368  1.00  0.00     0.224 C 
ATOM      7  O   UNL     1      27.922  46.136  -0.811  1.00  0.00    -0.303 OA
ENDBRANCH   5   6
ENDBRANCH   1   5
TORSDOF 4
ENDMDL
MODEL 8
REMARK VINA RESULT:    -2.989      5.866      7.819
REMARK INTER + INTRA:          -3.718
REMARK INTER:                  -3.623
REMARK INTRA:                  -0.095
REMARK UNBOUND:                -0.030
REMARK SMILES CCCCCC=O
REMARK SMILES IDX 4 1 3 2 2 3 1 4 5 5 6 6 7 7
REMARK H PARENT
REMARK Flexibility Score: inf
ROOT
ATOM      1  C   UNL     1      30.077  57.871 -13.126  1.00  0.00     0.008 C 
ENDROOT
BRANCH   1   2
ATOM      2  C   UNL     1      31.088  56.950 -13.827  1.00  0.00     0.000 C 
BRANCH   2   3
ATOM      3  C   UNL     1      32.370  57.689 -14.239  1.00  0.00    -0.003 C 
ATOM      4  C   UNL     1      33.612  56.920 -13.795  1.00  0.00     0.004 C 
ENDBRANCH   2   3
ENDBRANCH   1   2
BRANCH   1   5
ATOM      5  C   UNL     1      30.657  58.538 -11.870  1.00  0.00     0.072 C 
BRANCH   5   6
ATOM      6  C   UNL     1      29.614  59.357 -11.172  1.00  0.00     0.224 C 
ATOM      7  O   UNL     1      28.500  58.900 -10.968  1.00  0.00    -0.303 OA
ENDBRANCH   5   6
ENDBRANCH   1   5
TORSDOF 4
ENDMDL
MODEL 9
REMARK VINA RESULT:    -2.979     17.849     18.605
REMARK INTER + INTRA:          -3.706
REMARK INTER:                  -3.590
REMARK INTRA:                  -0.116
REMARK UNBOUND:                -0.030
REMARK SMILES CCCCCC=O
REMARK SMILES IDX 4 1 3 2 2 3 1 4 5 5 6 6 7 7
REMARK H PARENT
REMARK Flexibility Score: inf
ROOT
ATOM      1  C   UNL     1      17.547  43.059   1.433  1.00  0.00     0.008 C 
ENDROOT
BRANCH   1   2
ATOM      2  C   UNL     1      18.701  43.560   2.314  1.00  0.00     0.000 C 
BRANCH   2   3
ATOM      3  C   UNL     1      19.967  43.876   1.504  1.00  0.00    -0.003 C 
ATOM      4  C   UNL     1      20.609  42.598   0.969  1.00  0.00     0.004 C 
ENDBRANCH   2   3
ENDBRANCH   1   2
BRANCH   1   5
ATOM      5  C   UNL     1      16.255  43.864   1.637  1.00  0.00     0.072 C 
BRANCH   5   6
ATOM      6  C   UNL     1      15.924  44.662   0.413  1.00  0.00     0.224 C 
ATOM      7  O   UNL     1      16.808  45.018  -0.351  1.00  0.00    -0.303 OA
ENDBRANCH   5   6
ENDBRANCH   1   5
TORSDOF 4
ENDMDL
