MODEL 1
REMARK VINA RESULT:    -5.222      0.000      0.000
REMARK INTER + INTRA:          -5.375
REMARK INTER:                  -5.375
REMARK INTRA:                   0.000
REMARK UNBOUND:                 0.000
REMARK SMILES O=c1ccc2cc(O)ccc2o1
REMARK SMILES IDX 9 1 10 2 11 3 5 4 4 5 3 6 2 7 1 8 12 9 6 10 7 11 8 12
REMARK H PARENT 8 13
REMARK Flexibility Score: inf
ROOT
ATOM      1  C   UNL     1      -8.453  -9.510  28.634  1.00  0.00     0.050 A 
ATOM      2  C   UNL     1      -7.235  -9.344  29.300  1.00  0.00     0.052 A 
ATOM      3  C   UNL     1      -7.201  -8.736  30.560  1.00  0.00     0.138 A 
ATOM      4  C   UNL     1      -8.402  -8.291  31.156  1.00  0.00     0.021 A 
ATOM      5  C   UNL     1      -8.337  -7.687  32.415  1.00  0.00     0.019 A 
ATOM      6  C   UNL     1      -7.100  -7.543  33.042  1.00  0.00     0.094 A 
ATOM      7  C   UNL     1      -5.951  -8.007  32.391  1.00  0.00     0.336 A 
ATOM      8  O   UNL     1      -4.825  -7.886  32.940  1.00  0.00    -0.246 OA
ATOM      9  O   UNL     1      -6.040  -8.578  31.193  1.00  0.00    -0.423 OA
ATOM     10  C   UNL     1      -9.621  -8.461  30.485  1.00  0.00     0.058 A 
ATOM     11  C   UNL     1      -9.647  -9.069  29.224  1.00  0.00     0.116 A 
ENDROOT
BRANCH  11  12
ATOM     12  O   UNL     1     -10.865  -9.232  28.566  1.00  0.00    -0.508 OA
ATOM     13  H   UNL     1     -11.673  -9.623  29.037  1.00  0.00     0.293 HD
ENDBRANCH  11  12
TORSDOF 1
ENDMDL
MODEL 2
REMARK VINA RESULT:    -5.140      2.704      3.628
REMARK INTER + INTRA:          -5.290
REMARK INTER:                  -5.290
REMARK INTRA:                   0.000
REMARK UNBOUND:                 0.000
REMARK SMILES O=c1ccc2cc(O)ccc2o1
REMARK SMILES IDX 9 1 10 2 11 3 5 4 4 5 3 6 2 7 1 8 12 9 6 10 7 11 8 12
REMARK H PARENT 8 13
REMARK Flexibility Score: inf
ROOT
ATOM      1  C   UNL     1      -9.494  -9.058  28.410  1.00  0.00     0.050 A 
ATOM      2  C   UNL     1      -8.695 -10.119  27.972  1.00  0.00     0.052 A 
ATOM      3  C   UNL     1      -7.522 -10.446  28.661  1.00  0.00     0.138 A 
ATOM      4  C   UNL     1      -7.149  -9.701  29.802  1.00  0.00     0.021 A 
ATOM      5  C   UNL     1      -5.972 -10.051  30.470  1.00  0.00     0.019 A 
ATOM      6  C   UNL     1      -5.207 -11.116  29.996  1.00  0.00     0.094 A 
ATOM      7  C   UNL     1      -5.638 -11.809  28.860  1.00  0.00     0.336 A 
ATOM      8  O   UNL     1      -4.962 -12.773  28.417  1.00  0.00    -0.246 OA
ATOM      9  O   UNL     1      -6.763 -11.456  28.242  1.00  0.00    -0.423 OA
ATOM     10  C   UNL     1      -7.953  -8.639  30.238  1.00  0.00     0.058 A 
ATOM     11  C   UNL     1      -9.125  -8.317  29.543  1.00  0.00     0.116 A 
ENDROOT
BRANCH  11  12
ATOM     12  O   UNL     1      -9.917  -7.259  29.986  1.00  0.00    -0.508 OA
ATOM     13  H   UNL     1     -10.557  -6.780  29.363  1.00  0.00     0.293 HD
ENDBRANCH  11  12
TORSDOF 1
ENDMDL
MODEL 3
REMARK VINA RESULT:    -5.034      1.217      2.424
REMARK INTER + INTRA:          -5.181
REMARK INTER:                  -5.181
REMARK INTRA:                   0.000
REMARK UNBOUND:                 0.000
REMARK SMILES O=c1ccc2cc(O)ccc2o1
REMARK SMILES IDX 9 1 10 2 11 3 5 4 4 5 3 6 2 7 1 8 12 9 6 10 7 11 8 12
REMARK H PARENT 8 13
REMARK Flexibility Score: inf
ROOT
ATOM      1  C   UNL     1      -9.571  -8.116  30.180  1.00  0.00     0.050 A 
ATOM      2  C   UNL     1      -8.411  -7.963  30.946  1.00  0.00     0.052 A 
ATOM      3  C   UNL     1      -7.315  -8.808  30.737  1.00  0.00     0.138 A 
ATOM      4  C   UNL     1      -7.386  -9.814  29.749  1.00  0.00     0.021 A 
ATOM      5  C   UNL     1      -6.276 -10.644  29.562  1.00  0.00     0.019 A 
ATOM      6  C   UNL     1      -5.141 -10.454  30.349  1.00  0.00     0.094 A 
ATOM      7  C   UNL     1      -5.142  -9.436  31.309  1.00  0.00     0.336 A 
ATOM      8  O   UNL     1      -4.127  -9.249  32.029  1.00  0.00    -0.246 OA
ATOM      9  O   UNL     1      -6.212  -8.661  31.466  1.00  0.00    -0.423 OA
ATOM     10  C   UNL     1      -8.551  -9.964  28.983  1.00  0.00     0.058 A 
ATOM     11  C   UNL     1      -9.644  -9.115  29.199  1.00  0.00     0.116 A 
ENDROOT
BRANCH  11  12
ATOM     12  O   UNL     1     -10.797  -9.273  28.432  1.00  0.00    -0.508 OA
ATOM     13  H   UNL     1     -11.229  -8.488  27.959  1.00  0.00     0.293 HD
ENDBRANCH  11  12
TORSDOF 1
ENDMDL
MODEL 4
REMARK VINA RESULT:    -4.993      1.947      2.746
REMARK INTER + INTRA:          -5.139
REMARK INTER:                  -5.139
REMARK INTRA:                   0.000
REMARK UNBOUND:                 0.000
REMARK SMILES O=c1ccc2cc(O)ccc2o1
REMARK SMILES IDX 9 1 10 2 11 3 5 4 4 5 3 6 2 7 1 8 12 9 6 10 7 11 8 12
REMARK H PARENT 8 13
REMARK Flexibility Score: inf
ROOT
ATOM      1  C   UNL     1      -9.484  -9.604  27.626  1.00  0.00     0.050 A 
ATOM      2  C   UNL     1      -9.728  -8.854  28.781  1.00  0.00     0.052 A 
ATOM      3  C   UNL     1      -8.756  -8.777  29.785  1.00  0.00     0.138 A 
ATOM      4  C   UNL     1      -7.529  -9.458  29.626  1.00  0.00     0.021 A 
ATOM      5  C   UNL     1      -6.577  -9.362  30.647  1.00  0.00     0.019 A 
ATOM      6  C   UNL     1      -6.864  -8.603  31.781  1.00  0.00     0.094 A 
ATOM      7  C   UNL     1      -8.102  -7.956  31.869  1.00  0.00     0.336 A 
ATOM      8  O   UNL     1      -8.379  -7.266  32.884  1.00  0.00    -0.246 OA
ATOM      9  O   UNL     1      -8.990  -8.063  30.884  1.00  0.00    -0.423 OA
ATOM     10  C   UNL     1      -7.289 -10.208  28.466  1.00  0.00     0.058 A 
ATOM     11  C   UNL     1      -8.266 -10.282  27.466  1.00  0.00     0.116 A 
ENDROOT
BRANCH  11  12
ATOM     12  O   UNL     1      -8.016 -11.030  26.317  1.00  0.00    -0.508 OA
ATOM     13  H   UNL     1      -7.075 -11.170  25.971  1.00  0.00     0.293 HD
ENDBRANCH  11  12
TORSDOF 1
ENDMDL
MODEL 5
REMARK VINA RESULT:    -4.739      2.245      3.088
REMARK INTER + INTRA:          -4.878
REMARK INTER:                  -4.878
REMARK INTRA:                   0.000
REMARK UNBOUND:                 0.000
REMARK SMILES O=c1ccc2cc(O)ccc2o1
REMARK SMILES IDX 9 1 10 2 11 3 5 4 4 5 3 6 2 7 1 8 12 9 6 10 7 11 8 12
REMARK H PARENT 8 13
REMARK Flexibility Score: inf
ROOT
ATOM      1  C   UNL     1      -6.629 -11.023  27.990  1.00  0.00     0.050 A 
ATOM      2  C   UNL     1      -6.635 -10.677  29.345  1.00  0.00     0.052 A 
ATOM      3  C   UNL     1      -7.744 -10.027  29.899  1.00  0.00     0.138 A 
ATOM      4  C   UNL     1      -8.857  -9.724  29.084  1.00  0.00     0.021 A 
ATOM      5  C   UNL     1      -9.951  -9.074  29.665  1.00  0.00     0.019 A 
ATOM      6  C   UNL     1      -9.912  -8.748  31.020  1.00  0.00     0.094 A 
ATOM      7  C   UNL     1      -8.775  -9.079  31.766  1.00  0.00     0.336 A 
ATOM      8  O   UNL     1      -8.721  -8.793  32.990  1.00  0.00    -0.246 OA
ATOM      9  O   UNL     1      -7.747  -9.698  31.188  1.00  0.00    -0.423 OA
ATOM     10  C   UNL     1      -8.847 -10.074  27.726  1.00  0.00     0.058 A 
ATOM     11  C   UNL     1      -7.734 -10.723  27.179  1.00  0.00     0.116 A 
ENDROOT
BRANCH  11  12
ATOM     12  O   UNL     1      -7.735 -11.066  25.828  1.00  0.00    -0.508 OA
ATOM     13  H   UNL     1      -6.904 -10.966  25.256  1.00  0.00     0.293 HD
ENDBRANCH  11  12
TORSDOF 1
ENDMDL
MODEL 6
REMARK VINA RESULT:    -4.634     15.376     16.985
REMARK INTER + INTRA:          -4.769
REMARK INTER:                  -4.769
REMARK INTRA:                   0.000
REMARK UNBOUND:                 0.000
REMARK SMILES O=c1ccc2cc(O)ccc2o1
REMARK SMILES IDX 9 1 10 2 11 3 5 4 4 5 3 6 2 7 1 8 12 9 6 10 7 11 8 12
REMARK H PARENT 8 13
REMARK Flexibility Score: inf
ROOT
ATOM      1  C   UNL     1     -14.007 -19.200  22.253  1.00  0.00     0.050 A 
ATOM      2  C   UNL     1     -14.026 -18.157  21.322  1.00  0.00     0.052 A 
ATOM      3  C   UNL     1     -14.975 -18.151  20.294  1.00  0.00     0.138 A 
ATOM      4  C   UNL     1     -15.912 -19.203  20.200  1.00  0.00     0.021 A 
ATOM      5  C   UNL     1     -16.849 -19.170  19.162  1.00  0.00     0.019 A 
ATOM      6  C   UNL     1     -16.830 -18.109  18.257  1.00  0.00     0.094 A 
ATOM      7  C   UNL     1     -15.871 -17.102  18.411  1.00  0.00     0.336 A 
ATOM      8  O   UNL     1     -15.838 -16.136  17.605  1.00  0.00    -0.246 OA
ATOM      9  O   UNL     1     -14.991 -17.157  19.409  1.00  0.00    -0.423 OA
ATOM     10  C   UNL     1     -15.890 -20.247  21.136  1.00  0.00     0.058 A 
ATOM     11  C   UNL     1     -14.937 -20.246  22.161  1.00  0.00     0.116 A 
ENDROOT
BRANCH  11  12
ATOM     12  O   UNL     1     -14.924 -21.289  23.086  1.00  0.00    -0.508 OA
ATOM     13  H   UNL     1     -15.776 -21.620  23.523  1.00  0.00     0.293 HD
ENDBRANCH  11  12
TORSDOF 1
ENDMDL
MODEL 7
REMARK VINA RESULT:    -4.629      9.769     12.141
REMARK INTER + INTRA:          -4.764
REMARK INTER:                  -4.764
REMARK INTRA:                   0.000
REMARK UNBOUND:                 0.000
REMARK SMILES O=c1ccc2cc(O)ccc2o1
REMARK SMILES IDX 9 1 10 2 11 3 5 4 4 5 3 6 2 7 1 8 12 9 6 10 7 11 8 12
REMARK H PARENT 8 13
REMARK Flexibility Score: inf
ROOT
ATOM      1  C   UNL     1      -8.840 -13.641  22.802  1.00  0.00     0.050 A 
ATOM      2  C   UNL     1      -7.885 -14.007  21.848  1.00  0.00     0.052 A 
ATOM      3  C   UNL     1      -8.096 -13.712  20.496  1.00  0.00     0.138 A 
ATOM      4  C   UNL     1      -9.274 -13.042  20.100  1.00  0.00     0.021 A 
ATOM      5  C   UNL     1      -9.457 -12.761  18.742  1.00  0.00     0.019 A 
ATOM      6  C   UNL     1      -8.478 -13.145  17.827  1.00  0.00     0.094 A 
ATOM      7  C   UNL     1      -7.335 -13.806  18.291  1.00  0.00     0.336 A 
ATOM      8  O   UNL     1      -6.441 -14.161  17.481  1.00  0.00    -0.246 OA
ATOM      9  O   UNL     1      -7.186 -14.061  19.589  1.00  0.00    -0.423 OA
ATOM     10  C   UNL     1     -10.228 -12.676  21.060  1.00  0.00     0.058 A 
ATOM     11  C   UNL     1     -10.012 -12.976  22.411  1.00  0.00     0.116 A 
ENDROOT
BRANCH  11  12
ATOM     12  O   UNL     1     -10.967 -12.607  23.357  1.00  0.00    -0.508 OA
ATOM     13  H   UNL     1     -11.876 -12.255  23.081  1.00  0.00     0.293 HD
ENDBRANCH  11  12
TORSDOF 1
ENDMDL
MODEL 8
REMARK VINA RESULT:    -4.507      9.611     11.404
REMARK INTER + INTRA:          -4.639
REMARK INTER:                  -4.639
REMARK INTRA:                   0.000
REMARK UNBOUND:                 0.000
REMARK SMILES O=c1ccc2cc(O)ccc2o1
REMARK SMILES IDX 9 1 10 2 11 3 5 4 4 5 3 6 2 7 1 8 12 9 6 10 7 11 8 12
REMARK H PARENT 8 13
REMARK Flexibility Score: inf
ROOT
ATOM      1  C   UNL     1     -10.538 -12.979  21.048  1.00  0.00     0.050 A 
ATOM      2  C   UNL     1      -9.635 -13.279  20.022  1.00  0.00     0.052 A 
ATOM      3  C   UNL     1      -8.277 -13.450  20.311  1.00  0.00     0.138 A 
ATOM      4  C   UNL     1      -7.822 -13.320  21.641  1.00  0.00     0.021 A 
ATOM      5  C   UNL     1      -6.458 -13.497  21.899  1.00  0.00     0.019 A 
ATOM      6  C   UNL     1      -5.596 -13.794  20.845  1.00  0.00     0.094 A 
ATOM      7  C   UNL     1      -6.118 -13.908  19.551  1.00  0.00     0.336 A 
ATOM      8  O   UNL     1      -5.356 -14.176  18.587  1.00  0.00    -0.246 OA
ATOM      9  O   UNL     1      -7.419 -13.735  19.333  1.00  0.00    -0.423 OA
ATOM     10  C   UNL     1      -8.730 -13.020  22.666  1.00  0.00     0.058 A 
ATOM     11  C   UNL     1     -10.087 -12.849  22.370  1.00  0.00     0.116 A 
ENDROOT
BRANCH  11  12
ATOM     12  O   UNL     1     -10.982 -12.552  23.397  1.00  0.00    -0.508 OA
ATOM     13  H   UNL     1     -10.737 -11.911  24.143  1.00  0.00     0.293 HD
ENDBRANCH  11  12
TORSDOF 1
ENDMDL
MODEL 9
REMARK VINA RESULT:    -4.499     15.560     17.594
REMARK INTER + INTRA:          -4.631
REMARK INTER:                  -4.631
REMARK INTRA:                   0.000
REMARK UNBOUND:                 0.000
REMARK SMILES O=c1ccc2cc(O)ccc2o1
REMARK SMILES IDX 9 1 10 2 11 3 5 4 4 5 3 6 2 7 1 8 12 9 6 10 7 11 8 12
REMARK H PARENT 8 13
REMARK Flexibility Score: inf
ROOT
ATOM      1  C   UNL     1     -17.122 -16.984  17.142  1.00  0.00     0.050 A 
ATOM      2  C   UNL     1     -16.165 -16.832  18.151  1.00  0.00     0.052 A 
ATOM      3  C   UNL     1     -16.096 -17.759  19.198  1.00  0.00     0.138 A 
ATOM      4  C   UNL     1     -16.995 -18.848  19.229  1.00  0.00     0.021 A 
ATOM      5  C   UNL     1     -16.901 -19.758  20.287  1.00  0.00     0.019 A 
ATOM      6  C   UNL     1     -15.932 -19.566  21.271  1.00  0.00     0.094 A 
ATOM      7  C   UNL     1     -15.075 -18.464  21.174  1.00  0.00     0.336 A 
ATOM      8  O   UNL     1     -14.193 -18.274  22.052  1.00  0.00    -0.246 OA
ATOM      9  O   UNL     1     -15.185 -17.613  20.157  1.00  0.00    -0.423 OA
ATOM     10  C   UNL     1     -17.951 -18.996  18.216  1.00  0.00     0.058 A 
ATOM     11  C   UNL     1     -18.016 -18.065  17.173  1.00  0.00     0.116 A 
ENDROOT
BRANCH  11  12
ATOM     12  O   UNL     1     -18.971 -18.222  16.170  1.00  0.00    -0.508 OA
ATOM     13  H   UNL     1     -19.823 -18.748  16.328  1.00  0.00     0.293 HD
ENDBRANCH  11  12
TORSDOF 1
ENDMDL
