MODEL 1
REMARK VINA RESULT:    -1.461      0.000      0.000
REMARK INTER + INTRA:          -9.297
REMARK INTER:                  -3.683
REMARK INTRA:                  -5.614
REMARK UNBOUND:                -5.614
REMARK SMILES CCCCCCCCCCCCCCCCCCCCCCCCCCCC(=O)[O-]
REMARK SMILES IDX 15 1 16 2 17 3 18 4 19 5 20 6 21 7 22 8 23 9 24 10 25 11
REMARK SMILES IDX 26 12 27 13 28 14 29 15 30 16 14 17 13 18 12 19 11 20 10 21
REMARK SMILES IDX 9 22 8 23 7 24 6 25 5 26 4 27 3 28 2 29 1 30
REMARK H PARENT
REMARK Flexibility Score: inf
ROOT
ATOM      1  C   UNL     1      15.389 -31.627   2.700  1.00  0.00     0.000 C 
ENDROOT
BRANCH   1   2
ATOM      2  C   UNL     1      16.411 -30.495   2.901  1.00  0.00     0.000 C 
BRANCH   2   3
ATOM      3  C   UNL     1      16.220 -29.659   4.183  1.00  0.00     0.000 C 
BRANCH   3   4
ATOM      4  C   UNL     1      17.519 -29.301   4.930  1.00  0.00     0.000 C 
BRANCH   4   5
ATOM      5  C   UNL     1      18.747 -30.125   4.513  1.00  0.00     0.000 C 
BRANCH   5   6
ATOM      6  C   UNL     1      19.214 -31.086   5.619  1.00  0.00     0.000 C 
BRANCH   6   7
ATOM      7  C   UNL     1      18.454 -32.425   5.599  1.00  0.00     0.000 C 
BRANCH   7   8
ATOM      8  C   UNL     1      18.487 -33.084   4.208  1.00  0.00     0.000 C 
BRANCH   8   9
ATOM      9  C   UNL     1      19.880 -33.599   3.825  1.00  0.00     0.000 C 
BRANCH   9  10
ATOM     10  C   UNL     1      20.182 -33.448   2.320  1.00  0.00     0.000 C 
BRANCH  10  11
ATOM     11  C   UNL     1      19.399 -32.293   1.678  1.00  0.00     0.000 C 
BRANCH  11  12
ATOM     12  C   UNL     1      20.315 -31.207   1.087  1.00  0.00     0.006 C 
BRANCH  12  13
ATOM     13  C   UNL     1      19.630 -29.833   1.056  1.00  0.00     0.053 C 
BRANCH  13  14
ATOM     14  C   UNL     1      20.189 -28.957  -0.024  1.00  0.00     0.041 C 
ATOM     15  O   UNL     1      20.512 -29.451  -1.139  1.00  0.00    -0.550 OA
ATOM     16  O   UNL     1      20.466 -27.621   0.238  1.00  0.00    -0.550 OA
ENDBRANCH  13  14
ENDBRANCH  12  13
ENDBRANCH  11  12
ENDBRANCH  10  11
ENDBRANCH   9  10
ENDBRANCH   8   9
ENDBRANCH   7   8
ENDBRANCH   6   7
ENDBRANCH   5   6
ENDBRANCH   4   5
ENDBRANCH   3   4
ENDBRANCH   2   3
ENDBRANCH   1   2
BRANCH   1  17
ATOM     17  C   UNL     1      13.994 -31.291   3.251  1.00  0.00     0.000 C 
BRANCH  17  18
ATOM     18  C   UNL     1      12.922 -32.109   2.520  1.00  0.00     0.000 C 
BRANCH  18  19
ATOM     19  C   UNL     1      13.471 -32.870   1.301  1.00  0.00     0.000 C 
BRANCH  19  20
ATOM     20  C   UNL     1      12.663 -34.116   0.887  1.00  0.00     0.000 C 
BRANCH  20  21
ATOM     21  C   UNL     1      13.140 -34.813  -0.404  1.00  0.00     0.000 C 
BRANCH  21  22
ATOM     22  C   UNL     1      14.411 -34.185  -1.018  1.00  0.00    -0.000 C 
BRANCH  22  23
ATOM     23  C   UNL     1      15.386 -35.249  -1.555  1.00  0.00    -0.000 C 
BRANCH  23  24
ATOM     24  C   UNL     1      16.444 -35.659  -0.520  1.00  0.00    -0.000 C 
BRANCH  24  25
ATOM     25  C   UNL     1      16.698 -34.559   0.525  1.00  0.00    -0.000 C 
BRANCH  25  26
ATOM     26  C   UNL     1      16.611 -35.083   1.967  1.00  0.00    -0.000 C 
BRANCH  26  27
ATOM     27  C   UNL     1      15.545 -36.174   2.139  1.00  0.00    -0.000 C 
BRANCH  27  28
ATOM     28  C   UNL     1      15.109 -36.285   3.606  1.00  0.00    -0.000 C 
BRANCH  28  29
ATOM     29  C   UNL     1      14.469 -34.991   4.132  1.00  0.00    -0.003 C 
ATOM     30  C   UNL     1      15.190 -34.429   5.357  1.00  0.00     0.004 C 
ENDBRANCH  28  29
ENDBRANCH  27  28
ENDBRANCH  26  27
ENDBRANCH  25  26
ENDBRANCH  24  25
ENDBRANCH  23  24
ENDBRANCH  22  23
ENDBRANCH  21  22
ENDBRANCH  20  21
ENDBRANCH  19  20
ENDBRANCH  18  19
ENDBRANCH  17  18
ENDBRANCH   1  17
TORSDOF 26
ENDMDL
MODEL 2
REMARK VINA RESULT:    -1.378      1.343      3.489
REMARK INTER + INTRA:          -9.086
REMARK INTER:                  -4.180
REMARK INTRA:                  -4.906
REMARK UNBOUND:                -5.614
REMARK SMILES CCCCCCCCCCCCCCCCCCCCCCCCCCCC(=O)[O-]
REMARK SMILES IDX 15 1 16 2 17 3 18 4 19 5 20 6 21 7 22 8 23 9 24 10 25 11
REMARK SMILES IDX 26 12 27 13 28 14 29 15 30 16 14 17 13 18 12 19 11 20 10 21
REMARK SMILES IDX 9 22 8 23 7 24 6 25 5 26 4 27 3 28 2 29 1 30
REMARK H PARENT
REMARK Flexibility Score: inf
ROOT
ATOM      1  C   UNL     1      16.706 -30.509   2.765  1.00  0.00     0.000 C 
ENDROOT
BRANCH   1   2
ATOM      2  C   UNL     1      17.146 -30.002   4.150  1.00  0.00     0.000 C 
BRANCH   2   3
ATOM      3  C   UNL     1      18.455 -30.617   4.686  1.00  0.00     0.000 C 
BRANCH   3   4
ATOM      4  C   UNL     1      18.442 -32.150   4.844  1.00  0.00     0.000 C 
BRANCH   4   5
ATOM      5  C   UNL     1      19.534 -32.886   4.052  1.00  0.00     0.000 C 
BRANCH   5   6
ATOM      6  C   UNL     1      18.962 -33.707   2.885  1.00  0.00     0.000 C 
BRANCH   6   7
ATOM      7  C   UNL     1      19.142 -33.009   1.525  1.00  0.00     0.000 C 
BRANCH   7   8
ATOM      8  C   UNL     1      20.623 -32.934   1.109  1.00  0.00     0.000 C 
BRANCH   8   9
ATOM      9  C   UNL     1      21.053 -31.523   0.691  1.00  0.00     0.000 C 
BRANCH   9  10
ATOM     10  C   UNL     1      20.148 -30.421   1.279  1.00  0.00     0.000 C 
BRANCH  10  11
ATOM     11  C   UNL     1      19.819 -29.323   0.256  1.00  0.00     0.000 C 
BRANCH  11  12
ATOM     12  C   UNL     1      20.653 -29.438  -1.031  1.00  0.00     0.006 C 
BRANCH  12  13
ATOM     13  C   UNL     1      20.593 -28.153  -1.870  1.00  0.00     0.053 C 
BRANCH  13  14
ATOM     14  C   UNL     1      21.442 -27.065  -1.285  1.00  0.00     0.041 C 
ATOM     15  O   UNL     1      20.939 -25.939  -1.023  1.00  0.00    -0.550 OA
ATOM     16  O   UNL     1      22.811 -27.254  -1.141  1.00  0.00    -0.550 OA
ENDBRANCH  13  14
ENDBRANCH  12  13
ENDBRANCH  11  12
ENDBRANCH  10  11
ENDBRANCH   9  10
ENDBRANCH   8   9
ENDBRANCH   7   8
ENDBRANCH   6   7
ENDBRANCH   5   6
ENDBRANCH   4   5
ENDBRANCH   3   4
ENDBRANCH   2   3
ENDBRANCH   1   2
BRANCH   1  17
ATOM     17  C   UNL     1      15.348 -31.228   2.785  1.00  0.00     0.000 C 
BRANCH  17  18
ATOM     18  C   UNL     1      15.543 -32.738   2.607  1.00  0.00     0.000 C 
BRANCH  18  19
ATOM     19  C   UNL     1      15.077 -33.555   3.825  1.00  0.00     0.000 C 
BRANCH  19  20
ATOM     20  C   UNL     1      15.001 -35.079   3.604  1.00  0.00     0.000 C 
BRANCH  20  21
ATOM     21  C   UNL     1      13.737 -35.576   2.873  1.00  0.00     0.000 C 
BRANCH  21  22
ATOM     22  C   UNL     1      12.545 -34.597   2.950  1.00  0.00    -0.000 C 
BRANCH  22  23
ATOM     23  C   UNL     1      12.148 -34.049   1.566  1.00  0.00    -0.000 C 
BRANCH  23  24
ATOM     24  C   UNL     1      12.872 -34.765   0.416  1.00  0.00    -0.000 C 
BRANCH  24  25
ATOM     25  C   UNL     1      13.841 -33.836  -0.336  1.00  0.00    -0.000 C 
BRANCH  25  26
ATOM     26  C   UNL     1      14.428 -34.491  -1.596  1.00  0.00    -0.000 C 
BRANCH  26  27
ATOM     27  C   UNL     1      15.584 -35.450  -1.284  1.00  0.00    -0.000 C 
BRANCH  27  28
ATOM     28  C   UNL     1      16.406 -34.946  -0.090  1.00  0.00    -0.000 C 
BRANCH  28  29
ATOM     29  C   UNL     1      17.080 -36.086   0.687  1.00  0.00    -0.003 C 
ATOM     30  C   UNL     1      16.206 -37.336   0.784  1.00  0.00     0.004 C 
ENDBRANCH  28  29
ENDBRANCH  27  28
ENDBRANCH  26  27
ENDBRANCH  25  26
ENDBRANCH  24  25
ENDBRANCH  23  24
ENDBRANCH  22  23
ENDBRANCH  21  22
ENDBRANCH  20  21
ENDBRANCH  19  20
ENDBRANCH  18  19
ENDBRANCH  17  18
ENDBRANCH   1  17
TORSDOF 26
ENDMDL
MODEL 3
REMARK VINA RESULT:    -1.376      4.305      7.966
REMARK INTER + INTRA:          -9.083
REMARK INTER:                  -2.562
REMARK INTRA:                  -6.521
REMARK UNBOUND:                -5.614
REMARK SMILES CCCCCCCCCCCCCCCCCCCCCCCCCCCC(=O)[O-]
REMARK SMILES IDX 15 1 16 2 17 3 18 4 19 5 20 6 21 7 22 8 23 9 24 10 25 11
REMARK SMILES IDX 26 12 27 13 28 14 29 15 30 16 14 17 13 18 12 19 11 20 10 21
REMARK SMILES IDX 9 22 8 23 7 24 6 25 5 26 4 27 3 28 2 29 1 30
REMARK H PARENT
REMARK Flexibility Score: inf
ROOT
ATOM      1  C   UNL     1      19.486 -29.687   3.553  1.00  0.00     0.000 C 
ENDROOT
BRANCH   1   2
ATOM      2  C   UNL     1      18.890 -30.322   2.284  1.00  0.00     0.000 C 
BRANCH   2   3
ATOM      3  C   UNL     1      18.909 -31.864   2.252  1.00  0.00     0.000 C 
BRANCH   3   4
ATOM      4  C   UNL     1      19.971 -32.486   1.324  1.00  0.00     0.000 C 
BRANCH   4   5
ATOM      5  C   UNL     1      19.972 -34.022   1.290  1.00  0.00     0.000 C 
BRANCH   5   6
ATOM      6  C   UNL     1      21.362 -34.616   1.570  1.00  0.00     0.000 C 
BRANCH   6   7
ATOM      7  C   UNL     1      22.499 -33.764   0.978  1.00  0.00     0.000 C 
BRANCH   7   8
ATOM      8  C   UNL     1      23.490 -33.295   2.060  1.00  0.00     0.000 C 
BRANCH   8   9
ATOM      9  C   UNL     1      22.959 -33.502   3.484  1.00  0.00     0.000 C 
BRANCH   9  10
ATOM     10  C   UNL     1      22.523 -32.185   4.158  1.00  0.00     0.000 C 
BRANCH  10  11
ATOM     11  C   UNL     1      21.300 -32.370   5.070  1.00  0.00     0.000 C 
BRANCH  11  12
ATOM     12  C   UNL     1      20.796 -33.822   5.107  1.00  0.00     0.006 C 
BRANCH  12  13
ATOM     13  C   UNL     1      19.270 -33.897   5.265  1.00  0.00     0.053 C 
BRANCH  13  14
ATOM     14  C   UNL     1      18.685 -35.032   4.479  1.00  0.00     0.041 C 
ATOM     15  O   UNL     1      17.572 -34.896   3.900  1.00  0.00    -0.550 OA
ATOM     16  O   UNL     1      19.306 -36.275   4.486  1.00  0.00    -0.550 OA
ENDBRANCH  13  14
ENDBRANCH  12  13
ENDBRANCH  11  12
ENDBRANCH  10  11
ENDBRANCH   9  10
ENDBRANCH   8   9
ENDBRANCH   7   8
ENDBRANCH   6   7
ENDBRANCH   5   6
ENDBRANCH   4   5
ENDBRANCH   3   4
ENDBRANCH   2   3
ENDBRANCH   1   2
BRANCH   1  17
ATOM     17  C   UNL     1      20.809 -28.949   3.300  1.00  0.00     0.000 C 
BRANCH  17  18
ATOM     18  C   UNL     1      20.578 -27.738   2.388  1.00  0.00     0.000 C 
BRANCH  18  19
ATOM     19  C   UNL     1      21.820 -26.840   2.251  1.00  0.00     0.000 C 
BRANCH  19  20
ATOM     20  C   UNL     1      22.064 -26.269   0.840  1.00  0.00     0.000 C 
BRANCH  20  21
ATOM     21  C   UNL     1      20.904 -26.462  -0.159  1.00  0.00     0.000 C 
BRANCH  21  22
ATOM     22  C   UNL     1      21.363 -26.870  -1.576  1.00  0.00    -0.000 C 
BRANCH  22  23
ATOM     23  C   UNL     1      20.653 -28.142  -2.077  1.00  0.00    -0.000 C 
BRANCH  23  24
ATOM     24  C   UNL     1      20.456 -29.185  -0.968  1.00  0.00    -0.000 C 
BRANCH  24  25
ATOM     25  C   UNL     1      21.577 -30.239  -0.947  1.00  0.00    -0.000 C 
BRANCH  25  26
ATOM     26  C   UNL     1      22.562 -30.031   0.213  1.00  0.00    -0.000 C 
BRANCH  26  27
ATOM     27  C   UNL     1      23.861 -29.342  -0.227  1.00  0.00    -0.000 C 
BRANCH  27  28
ATOM     28  C   UNL     1      24.664 -28.861   0.990  1.00  0.00    -0.000 C 
BRANCH  28  29
ATOM     29  C   UNL     1      24.356 -29.670   2.259  1.00  0.00    -0.003 C 
ATOM     30  C   UNL     1      24.587 -28.872   3.541  1.00  0.00     0.004 C 
ENDBRANCH  28  29
ENDBRANCH  27  28
ENDBRANCH  26  27
ENDBRANCH  25  26
ENDBRANCH  24  25
ENDBRANCH  23  24
ENDBRANCH  22  23
ENDBRANCH  21  22
ENDBRANCH  20  21
ENDBRANCH  19  20
ENDBRANCH  18  19
ENDBRANCH  17  18
ENDBRANCH   1  17
TORSDOF 26
ENDMDL
MODEL 4
REMARK VINA RESULT:    -1.342      3.109      7.063
REMARK INTER + INTRA:          -8.996
REMARK INTER:                  -3.424
REMARK INTRA:                  -5.572
REMARK UNBOUND:                -5.614
REMARK SMILES CCCCCCCCCCCCCCCCCCCCCCCCCCCC(=O)[O-]
REMARK SMILES IDX 15 1 16 2 17 3 18 4 19 5 20 6 21 7 22 8 23 9 24 10 25 11
REMARK SMILES IDX 26 12 27 13 28 14 29 15 30 16 14 17 13 18 12 19 11 20 10 21
REMARK SMILES IDX 9 22 8 23 7 24 6 25 5 26 4 27 3 28 2 29 1 30
REMARK H PARENT
REMARK Flexibility Score: inf
ROOT
ATOM      1  C   UNL     1      20.419 -27.224   2.899  1.00  0.00     0.000 C 
ENDROOT
BRANCH   1   2
ATOM      2  C   UNL     1      21.669 -27.489   3.755  1.00  0.00     0.000 C 
BRANCH   2   3
ATOM      3  C   UNL     1      21.450 -28.420   4.965  1.00  0.00     0.000 C 
BRANCH   3   4
ATOM      4  C   UNL     1      19.995 -28.883   5.179  1.00  0.00     0.000 C 
BRANCH   4   5
ATOM      5  C   UNL     1      19.799 -30.408   5.165  1.00  0.00     0.000 C 
BRANCH   5   6
ATOM      6  C   UNL     1      19.140 -30.904   3.868  1.00  0.00     0.000 C 
BRANCH   6   7
ATOM      7  C   UNL     1      17.983 -29.998   3.408  1.00  0.00     0.000 C 
BRANCH   7   8
ATOM      8  C   UNL     1      16.746 -30.813   2.989  1.00  0.00     0.000 C 
BRANCH   8   9
ATOM      9  C   UNL     1      16.712 -32.211   3.618  1.00  0.00     0.000 C 
BRANCH   9  10
ATOM     10  C   UNL     1      16.521 -33.333   2.576  1.00  0.00     0.000 C 
BRANCH  10  11
ATOM     11  C   UNL     1      17.781 -34.196   2.405  1.00  0.00     0.000 C 
BRANCH  11  12
ATOM     12  C   UNL     1      18.380 -34.104   0.992  1.00  0.00     0.006 C 
BRANCH  12  13
ATOM     13  C   UNL     1      19.882 -33.788   1.024  1.00  0.00     0.053 C 
BRANCH  13  14
ATOM     14  C   UNL     1      20.702 -34.927   0.499  1.00  0.00     0.041 C 
ATOM     15  O   UNL     1      20.617 -35.266  -0.713  1.00  0.00    -0.550 OA
ATOM     16  O   UNL     1      21.467 -35.692   1.371  1.00  0.00    -0.550 OA
ENDBRANCH  13  14
ENDBRANCH  12  13
ENDBRANCH  11  12
ENDBRANCH  10  11
ENDBRANCH   9  10
ENDBRANCH   8   9
ENDBRANCH   7   8
ENDBRANCH   6   7
ENDBRANCH   5   6
ENDBRANCH   4   5
ENDBRANCH   3   4
ENDBRANCH   2   3
ENDBRANCH   1   2
BRANCH   1  17
ATOM     17  C   UNL     1      20.629 -26.133   1.838  1.00  0.00     0.000 C 
BRANCH  17  18
ATOM     18  C   UNL     1      22.093 -26.111   1.380  1.00  0.00     0.000 C 
BRANCH  18  19
ATOM     19  C   UNL     1      22.247 -26.125  -0.151  1.00  0.00     0.000 C 
BRANCH  19  20
ATOM     20  C   UNL     1      20.968 -26.478  -0.936  1.00  0.00     0.000 C 
BRANCH  20  21
ATOM     21  C   UNL     1      21.150 -27.522  -2.057  1.00  0.00     0.000 C 
BRANCH  21  22
ATOM     22  C   UNL     1      20.518 -28.895  -1.740  1.00  0.00    -0.000 C 
BRANCH  22  23
ATOM     23  C   UNL     1      19.801 -28.908  -0.377  1.00  0.00    -0.000 C 
BRANCH  23  24
ATOM     24  C   UNL     1      20.213 -30.102   0.497  1.00  0.00    -0.000 C 
BRANCH  24  25
ATOM     25  C   UNL     1      21.656 -30.560   0.224  1.00  0.00    -0.000 C 
BRANCH  25  26
ATOM     26  C   UNL     1      22.696 -29.713   0.972  1.00  0.00    -0.000 C 
BRANCH  26  27
ATOM     27  C   UNL     1      23.565 -30.544   1.926  1.00  0.00    -0.000 C 
BRANCH  27  28
ATOM     28  C   UNL     1      22.705 -31.204   3.013  1.00  0.00    -0.000 C 
BRANCH  28  29
ATOM     29  C   UNL     1      22.889 -32.728   3.068  1.00  0.00    -0.003 C 
ATOM     30  C   UNL     1      21.962 -33.400   4.081  1.00  0.00     0.004 C 
ENDBRANCH  28  29
ENDBRANCH  27  28
ENDBRANCH  26  27
ENDBRANCH  25  26
ENDBRANCH  24  25
ENDBRANCH  23  24
ENDBRANCH  22  23
ENDBRANCH  21  22
ENDBRANCH  20  21
ENDBRANCH  19  20
ENDBRANCH  18  19
ENDBRANCH  17  18
ENDBRANCH   1  17
TORSDOF 26
ENDMDL
MODEL 5
REMARK VINA RESULT:    -1.341      3.944      7.005
REMARK INTER + INTRA:          -8.992
REMARK INTER:                  -2.692
REMARK INTRA:                  -6.301
REMARK UNBOUND:                -5.614
REMARK SMILES CCCCCCCCCCCCCCCCCCCCCCCCCCCC(=O)[O-]
REMARK SMILES IDX 15 1 16 2 17 3 18 4 19 5 20 6 21 7 22 8 23 9 24 10 25 11
REMARK SMILES IDX 26 12 27 13 28 14 29 15 30 16 14 17 13 18 12 19 11 20 10 21
REMARK SMILES IDX 9 22 8 23 7 24 6 25 5 26 4 27 3 28 2 29 1 30
REMARK H PARENT
REMARK Flexibility Score: inf
ROOT
ATOM      1  C   UNL     1      20.506 -28.355  -1.814  1.00  0.00     0.000 C 
ENDROOT
BRANCH   1   2
ATOM      2  C   UNL     1      22.037 -28.198  -1.791  1.00  0.00     0.000 C 
BRANCH   2   3
ATOM      3  C   UNL     1      22.546 -26.742  -1.760  1.00  0.00     0.000 C 
BRANCH   3   4
ATOM      4  C   UNL     1      21.524 -25.703  -1.259  1.00  0.00     0.000 C 
BRANCH   4   5
ATOM      5  C   UNL     1      21.685 -25.305   0.217  1.00  0.00     0.000 C 
BRANCH   5   6
ATOM      6  C   UNL     1      20.471 -25.708   1.070  1.00  0.00     0.000 C 
BRANCH   6   7
ATOM      7  C   UNL     1      20.818 -26.768   2.130  1.00  0.00     0.000 C 
BRANCH   7   8
ATOM      8  C   UNL     1      22.291 -27.209   2.041  1.00  0.00     0.000 C 
BRANCH   8   9
ATOM      9  C   UNL     1      22.594 -28.449   2.891  1.00  0.00     0.000 C 
BRANCH   9  10
ATOM     10  C   UNL     1      23.669 -29.359   2.261  1.00  0.00     0.000 C 
BRANCH  10  11
ATOM     11  C   UNL     1      24.362 -28.702   1.057  1.00  0.00     0.000 C 
BRANCH  11  12
ATOM     12  C   UNL     1      24.869 -29.726   0.028  1.00  0.00     0.006 C 
BRANCH  12  13
ATOM     13  C   UNL     1      24.349 -31.141   0.323  1.00  0.00     0.053 C 
BRANCH  13  14
ATOM     14  C   UNL     1      25.471 -32.114   0.528  1.00  0.00     0.041 C 
ATOM     15  O   UNL     1      25.229 -33.347   0.645  1.00  0.00    -0.550 OA
ATOM     16  O   UNL     1      26.768 -31.651   0.712  1.00  0.00    -0.550 OA
ENDBRANCH  13  14
ENDBRANCH  12  13
ENDBRANCH  11  12
ENDBRANCH  10  11
ENDBRANCH   9  10
ENDBRANCH   8   9
ENDBRANCH   7   8
ENDBRANCH   6   7
ENDBRANCH   5   6
ENDBRANCH   4   5
ENDBRANCH   3   4
ENDBRANCH   2   3
ENDBRANCH   1   2
BRANCH   1  17
ATOM     17  C   UNL     1      19.944 -29.013  -0.544  1.00  0.00     0.000 C 
BRANCH  17  18
ATOM     18  C   UNL     1      20.878 -30.132  -0.067  1.00  0.00     0.000 C 
BRANCH  18  19
ATOM     19  C   UNL     1      20.358 -30.858   1.187  1.00  0.00     0.000 C 
BRANCH  19  20
ATOM     20  C   UNL     1      19.177 -30.171   1.901  1.00  0.00     0.000 C 
BRANCH  20  21
ATOM     21  C   UNL     1      19.296 -30.083   3.436  1.00  0.00     0.000 C 
BRANCH  21  22
ATOM     22  C   UNL     1      18.121 -30.744   4.191  1.00  0.00    -0.000 C 
BRANCH  22  23
ATOM     23  C   UNL     1      18.599 -31.614   5.369  1.00  0.00    -0.000 C 
BRANCH  23  24
ATOM     24  C   UNL     1      18.607 -33.112   5.033  1.00  0.00    -0.000 C 
BRANCH  24  25
ATOM     25  C   UNL     1      18.209 -33.389   3.573  1.00  0.00    -0.000 C 
BRANCH  25  26
ATOM     26  C   UNL     1      19.309 -34.121   2.789  1.00  0.00    -0.000 C 
BRANCH  26  27
ATOM     27  C   UNL     1      20.633 -34.204   3.561  1.00  0.00    -0.000 C 
BRANCH  27  28
ATOM     28  C   UNL     1      21.821 -33.886   2.643  1.00  0.00    -0.000 C 
BRANCH  28  29
ATOM     29  C   UNL     1      22.752 -32.816   3.230  1.00  0.00    -0.003 C 
ATOM     30  C   UNL     1      22.186 -32.166   4.492  1.00  0.00     0.004 C 
ENDBRANCH  28  29
ENDBRANCH  27  28
ENDBRANCH  26  27
ENDBRANCH  25  26
ENDBRANCH  24  25
ENDBRANCH  23  24
ENDBRANCH  22  23
ENDBRANCH  21  22
ENDBRANCH  20  21
ENDBRANCH  19  20
ENDBRANCH  18  19
ENDBRANCH  17  18
ENDBRANCH   1  17
TORSDOF 26
ENDMDL
MODEL 6
REMARK VINA RESULT:    -1.337      2.341      4.897
REMARK INTER + INTRA:          -8.984
REMARK INTER:                  -3.887
REMARK INTRA:                  -5.097
REMARK UNBOUND:                -5.614
REMARK SMILES CCCCCCCCCCCCCCCCCCCCCCCCCCCC(=O)[O-]
REMARK SMILES IDX 15 1 16 2 17 3 18 4 19 5 20 6 21 7 22 8 23 9 24 10 25 11
REMARK SMILES IDX 26 12 27 13 28 14 29 15 30 16 14 17 13 18 12 19 11 20 10 21
REMARK SMILES IDX 9 22 8 23 7 24 6 25 5 26 4 27 3 28 2 29 1 30
REMARK H PARENT
REMARK Flexibility Score: inf
ROOT
ATOM      1  C   UNL     1      19.953 -31.981   1.917  1.00  0.00     0.000 C 
ENDROOT
BRANCH   1   2
ATOM      2  C   UNL     1      20.825 -30.735   1.683  1.00  0.00     0.000 C 
BRANCH   2   3
ATOM      3  C   UNL     1      20.081 -29.388   1.775  1.00  0.00     0.000 C 
BRANCH   3   4
ATOM      4  C   UNL     1      20.523 -28.474   2.935  1.00  0.00     0.000 C 
BRANCH   4   5
ATOM      5  C   UNL     1      20.880 -29.214   4.234  1.00  0.00     0.000 C 
BRANCH   5   6
ATOM      6  C   UNL     1      19.639 -29.561   5.072  1.00  0.00     0.000 C 
BRANCH   6   7
ATOM      7  C   UNL     1      18.624 -28.405   5.136  1.00  0.00     0.000 C 
BRANCH   7   8
ATOM      8  C   UNL     1      17.216 -28.851   4.701  1.00  0.00     0.000 C 
BRANCH   8   9
ATOM      9  C   UNL     1      17.153 -30.334   4.316  1.00  0.00     0.000 C 
BRANCH   9  10
ATOM     10  C   UNL     1      16.721 -30.555   2.852  1.00  0.00     0.000 C 
BRANCH  10  11
ATOM     11  C   UNL     1      15.421 -31.367   2.739  1.00  0.00     0.000 C 
BRANCH  11  12
ATOM     12  C   UNL     1      14.284 -30.796   3.602  1.00  0.00     0.006 C 
BRANCH  12  13
ATOM     13  C   UNL     1      13.214 -30.096   2.752  1.00  0.00     0.053 C 
BRANCH  13  14
ATOM     14  C   UNL     1      13.642 -28.719   2.342  1.00  0.00     0.041 C 
ATOM     15  O   UNL     1      13.689 -28.406   1.121  1.00  0.00    -0.550 OA
ATOM     16  O   UNL     1      14.104 -27.822   3.297  1.00  0.00    -0.550 OA
ENDBRANCH  13  14
ENDBRANCH  12  13
ENDBRANCH  11  12
ENDBRANCH  10  11
ENDBRANCH   9  10
ENDBRANCH   8   9
ENDBRANCH   7   8
ENDBRANCH   6   7
ENDBRANCH   5   6
ENDBRANCH   4   5
ENDBRANCH   3   4
ENDBRANCH   2   3
ENDBRANCH   1   2
BRANCH   1  17
ATOM     17  C   UNL     1      20.327 -32.754   3.191  1.00  0.00     0.000 C 
BRANCH  17  18
ATOM     18  C   UNL     1      19.065 -33.273   3.889  1.00  0.00     0.000 C 
BRANCH  18  19
ATOM     19  C   UNL     1      18.573 -34.618   3.325  1.00  0.00     0.000 C 
BRANCH  19  20
ATOM     20  C   UNL     1      17.189 -34.578   2.647  1.00  0.00     0.000 C 
BRANCH  20  21
ATOM     21  C   UNL     1      17.205 -34.287   1.132  1.00  0.00     0.000 C 
BRANCH  21  22
ATOM     22  C   UNL     1      18.355 -34.986   0.374  1.00  0.00    -0.000 C 
BRANCH  22  23
ATOM     23  C   UNL     1      17.859 -35.741  -0.873  1.00  0.00    -0.000 C 
BRANCH  23  24
ATOM     24  C   UNL     1      16.924 -36.908  -0.526  1.00  0.00    -0.000 C 
BRANCH  24  25
ATOM     25  C   UNL     1      15.502 -36.706  -1.080  1.00  0.00    -0.000 C 
BRANCH  25  26
ATOM     26  C   UNL     1      15.416 -35.541  -2.077  1.00  0.00    -0.000 C 
BRANCH  26  27
ATOM     27  C   UNL     1      14.484 -34.418  -1.601  1.00  0.00    -0.000 C 
BRANCH  27  28
ATOM     28  C   UNL     1      13.679 -34.860  -0.371  1.00  0.00    -0.000 C 
BRANCH  28  29
ATOM     29  C   UNL     1      13.482 -33.726   0.645  1.00  0.00    -0.003 C 
ATOM     30  C   UNL     1      12.556 -32.624   0.131  1.00  0.00     0.004 C 
ENDBRANCH  28  29
ENDBRANCH  27  28
ENDBRANCH  26  27
ENDBRANCH  25  26
ENDBRANCH  24  25
ENDBRANCH  23  24
ENDBRANCH  22  23
ENDBRANCH  21  22
ENDBRANCH  20  21
ENDBRANCH  19  20
ENDBRANCH  18  19
ENDBRANCH  17  18
ENDBRANCH   1  17
TORSDOF 26
ENDMDL
MODEL 7
REMARK VINA RESULT:    -1.332      3.557      8.043
REMARK INTER + INTRA:          -8.972
REMARK INTER:                  -2.965
REMARK INTRA:                  -6.007
REMARK UNBOUND:                -5.614
REMARK SMILES CCCCCCCCCCCCCCCCCCCCCCCCCCCC(=O)[O-]
REMARK SMILES IDX 15 1 16 2 17 3 18 4 19 5 20 6 21 7 22 8 23 9 24 10 25 11
REMARK SMILES IDX 26 12 27 13 28 14 29 15 30 16 14 17 13 18 12 19 11 20 10 21
REMARK SMILES IDX 9 22 8 23 7 24 6 25 5 26 4 27 3 28 2 29 1 30
REMARK H PARENT
REMARK Flexibility Score: inf
ROOT
ATOM      1  C   UNL     1      23.871 -28.702   5.795  1.00  0.00     0.000 C 
ENDROOT
BRANCH   1   2
ATOM      2  C   UNL     1      22.497 -28.789   6.480  1.00  0.00     0.000 C 
BRANCH   2   3
ATOM      3  C   UNL     1      21.839 -27.432   6.803  1.00  0.00     0.000 C 
BRANCH   3   4
ATOM      4  C   UNL     1      21.903 -26.387   5.672  1.00  0.00     0.000 C 
BRANCH   4   5
ATOM      5  C   UNL     1      20.969 -26.669   4.484  1.00  0.00     0.000 C 
BRANCH   5   6
ATOM      6  C   UNL     1      19.545 -27.038   4.931  1.00  0.00     0.000 C 
BRANCH   6   7
ATOM      7  C   UNL     1      18.981 -28.251   4.169  1.00  0.00     0.000 C 
BRANCH   7   8
ATOM      8  C   UNL     1      19.079 -29.546   4.997  1.00  0.00     0.000 C 
BRANCH   8   9
ATOM      9  C   UNL     1      17.911 -30.506   4.741  1.00  0.00     0.000 C 
BRANCH   9  10
ATOM     10  C   UNL     1      17.414 -30.470   3.281  1.00  0.00     0.000 C 
BRANCH  10  11
ATOM     11  C   UNL     1      16.869 -31.828   2.813  1.00  0.00     0.000 C 
BRANCH  11  12
ATOM     12  C   UNL     1      17.920 -32.949   2.882  1.00  0.00     0.006 C 
BRANCH  12  13
ATOM     13  C   UNL     1      18.003 -33.740   1.568  1.00  0.00     0.053 C 
BRANCH  13  14
ATOM     14  C   UNL     1      16.782 -34.580   1.347  1.00  0.00     0.041 C 
ATOM     15  O   UNL     1      16.026 -34.356   0.362  1.00  0.00    -0.550 OA
ATOM     16  O   UNL     1      16.412 -35.531   2.291  1.00  0.00    -0.550 OA
ENDBRANCH  13  14
ENDBRANCH  12  13
ENDBRANCH  11  12
ENDBRANCH  10  11
ENDBRANCH   9  10
ENDBRANCH   8   9
ENDBRANCH   7   8
ENDBRANCH   6   7
ENDBRANCH   5   6
ENDBRANCH   4   5
ENDBRANCH   3   4
ENDBRANCH   2   3
ENDBRANCH   1   2
BRANCH   1  17
ATOM     17  C   UNL     1      23.854 -29.180   4.334  1.00  0.00     0.000 C 
BRANCH  17  18
ATOM     18  C   UNL     1      22.784 -30.261   4.141  1.00  0.00     0.000 C 
BRANCH  18  19
ATOM     19  C   UNL     1      21.889 -30.012   2.915  1.00  0.00     0.000 C 
BRANCH  19  20
ATOM     20  C   UNL     1      21.339 -31.282   2.235  1.00  0.00     0.000 C 
BRANCH  20  21
ATOM     21  C   UNL     1      20.466 -31.036   0.987  1.00  0.00     0.000 C 
BRANCH  21  22
ATOM     22  C   UNL     1      19.959 -29.583   0.856  1.00  0.00    -0.000 C 
BRANCH  22  23
ATOM     23  C   UNL     1      20.095 -29.044  -0.580  1.00  0.00    -0.000 C 
BRANCH  23  24
ATOM     24  C   UNL     1      20.536 -27.573  -0.621  1.00  0.00    -0.000 C 
BRANCH  24  25
ATOM     25  C   UNL     1      20.741 -26.983   0.786  1.00  0.00    -0.000 C 
BRANCH  25  26
ATOM     26  C   UNL     1      22.006 -26.118   0.885  1.00  0.00    -0.000 C 
BRANCH  26  27
ATOM     27  C   UNL     1      23.194 -26.869   1.502  1.00  0.00    -0.000 C 
BRANCH  27  28
ATOM     28  C   UNL     1      24.086 -27.473   0.409  1.00  0.00    -0.000 C 
BRANCH  28  29
ATOM     29  C   UNL     1      24.279 -28.987   0.571  1.00  0.00    -0.003 C 
ATOM     30  C   UNL     1      23.692 -29.787  -0.591  1.00  0.00     0.004 C 
ENDBRANCH  28  29
ENDBRANCH  27  28
ENDBRANCH  26  27
ENDBRANCH  25  26
ENDBRANCH  24  25
ENDBRANCH  23  24
ENDBRANCH  22  23
ENDBRANCH  21  22
ENDBRANCH  20  21
ENDBRANCH  19  20
ENDBRANCH  18  19
ENDBRANCH  17  18
ENDBRANCH   1  17
TORSDOF 26
ENDMDL
MODEL 8
REMARK VINA RESULT:    -1.324      3.314      7.433
REMARK INTER + INTRA:          -8.950
REMARK INTER:                  -2.878
REMARK INTRA:                  -6.072
REMARK UNBOUND:                -5.614
REMARK SMILES CCCCCCCCCCCCCCCCCCCCCCCCCCCC(=O)[O-]
REMARK SMILES IDX 15 1 16 2 17 3 18 4 19 5 20 6 21 7 22 8 23 9 24 10 25 11
REMARK SMILES IDX 26 12 27 13 28 14 29 15 30 16 14 17 13 18 12 19 11 20 10 21
REMARK SMILES IDX 9 22 8 23 7 24 6 25 5 26 4 27 3 28 2 29 1 30
REMARK H PARENT
REMARK Flexibility Score: inf
ROOT
ATOM      1  C   UNL     1      21.302 -30.233   3.767  1.00  0.00     0.000 C 
ENDROOT
BRANCH   1   2
ATOM      2  C   UNL     1      20.431 -30.920   4.833  1.00  0.00     0.000 C 
BRANCH   2   3
ATOM      3  C   UNL     1      19.291 -30.054   5.406  1.00  0.00     0.000 C 
BRANCH   3   4
ATOM      4  C   UNL     1      17.868 -30.568   5.113  1.00  0.00     0.000 C 
BRANCH   4   5
ATOM      5  C   UNL     1      17.258 -30.054   3.799  1.00  0.00     0.000 C 
BRANCH   5   6
ATOM      6  C   UNL     1      16.744 -31.194   2.904  1.00  0.00     0.000 C 
BRANCH   6   7
ATOM      7  C   UNL     1      17.859 -32.174   2.494  1.00  0.00     0.000 C 
BRANCH   7   8
ATOM      8  C   UNL     1      17.311 -33.587   2.224  1.00  0.00     0.000 C 
BRANCH   8   9
ATOM      9  C   UNL     1      17.931 -34.239   0.982  1.00  0.00     0.000 C 
BRANCH   9  10
ATOM     10  C   UNL     1      19.280 -34.927   1.277  1.00  0.00     0.000 C 
BRANCH  10  11
ATOM     11  C   UNL     1      20.468 -34.183   0.648  1.00  0.00     0.000 C 
BRANCH  11  12
ATOM     12  C   UNL     1      21.264 -33.355   1.671  1.00  0.00     0.006 C 
BRANCH  12  13
ATOM     13  C   UNL     1      22.256 -34.220   2.461  1.00  0.00     0.053 C 
BRANCH  13  14
ATOM     14  C   UNL     1      22.007 -34.144   3.938  1.00  0.00     0.041 C 
ATOM     15  O   UNL     1      20.902 -34.523   4.415  1.00  0.00    -0.550 OA
ATOM     16  O   UNL     1      22.943 -33.545   4.771  1.00  0.00    -0.550 OA
ENDBRANCH  13  14
ENDBRANCH  12  13
ENDBRANCH  11  12
ENDBRANCH  10  11
ENDBRANCH   9  10
ENDBRANCH   8   9
ENDBRANCH   7   8
ENDBRANCH   6   7
ENDBRANCH   5   6
ENDBRANCH   4   5
ENDBRANCH   3   4
ENDBRANCH   2   3
ENDBRANCH   1   2
BRANCH   1  17
ATOM     17  C   UNL     1      20.898 -28.775   3.500  1.00  0.00     0.000 C 
BRANCH  17  18
ATOM     18  C   UNL     1      20.275 -28.642   2.105  1.00  0.00     0.000 C 
BRANCH  18  19
ATOM     19  C   UNL     1      20.328 -29.948   1.293  1.00  0.00     0.000 C 
BRANCH  19  20
ATOM     20  C   UNL     1      20.376 -29.768  -0.237  1.00  0.00     0.000 C 
BRANCH  20  21
ATOM     21  C   UNL     1      20.131 -28.330  -0.739  1.00  0.00     0.000 C 
BRANCH  21  22
ATOM     22  C   UNL     1      20.971 -27.951  -1.979  1.00  0.00    -0.000 C 
BRANCH  22  23
ATOM     23  C   UNL     1      22.355 -27.392  -1.599  1.00  0.00    -0.000 C 
BRANCH  23  24
ATOM     24  C   UNL     1      22.320 -26.544  -0.320  1.00  0.00    -0.000 C 
BRANCH  24  25
ATOM     25  C   UNL     1      23.293 -27.061   0.754  1.00  0.00    -0.000 C 
BRANCH  25  26
ATOM     26  C   UNL     1      24.016 -28.347   0.327  1.00  0.00    -0.000 C 
BRANCH  26  27
ATOM     27  C   UNL     1      24.050 -29.407   1.436  1.00  0.00    -0.000 C 
BRANCH  27  28
ATOM     28  C   UNL     1      23.883 -30.816   0.851  1.00  0.00    -0.000 C 
BRANCH  28  29
ATOM     29  C   UNL     1      23.810 -30.814  -0.683  1.00  0.00    -0.003 C 
ATOM     30  C   UNL     1      23.193 -32.093  -1.249  1.00  0.00     0.004 C 
ENDBRANCH  28  29
ENDBRANCH  27  28
ENDBRANCH  26  27
ENDBRANCH  25  26
ENDBRANCH  24  25
ENDBRANCH  23  24
ENDBRANCH  22  23
ENDBRANCH  21  22
ENDBRANCH  20  21
ENDBRANCH  19  20
ENDBRANCH  18  19
ENDBRANCH  17  18
ENDBRANCH   1  17
TORSDOF 26
ENDMDL
MODEL 9
REMARK VINA RESULT:    -1.258      3.312      7.222
REMARK INTER + INTRA:          -8.784
REMARK INTER:                  -2.886
REMARK INTRA:                  -5.898
REMARK UNBOUND:                -5.614
REMARK SMILES CCCCCCCCCCCCCCCCCCCCCCCCCCCC(=O)[O-]
REMARK SMILES IDX 15 1 16 2 17 3 18 4 19 5 20 6 21 7 22 8 23 9 24 10 25 11
REMARK SMILES IDX 26 12 27 13 28 14 29 15 30 16 14 17 13 18 12 19 11 20 10 21
REMARK SMILES IDX 9 22 8 23 7 24 6 25 5 26 4 27 3 28 2 29 1 30
REMARK H PARENT
REMARK Flexibility Score: inf
ROOT
ATOM      1  C   UNL     1      13.310 -32.459   2.139  1.00  0.00     0.000 C 
ENDROOT
BRANCH   1   2
ATOM      2  C   UNL     1      13.009 -33.115   0.781  1.00  0.00     0.000 C 
BRANCH   2   3
ATOM      3  C   UNL     1      14.176 -33.915   0.166  1.00  0.00     0.000 C 
BRANCH   3   4
ATOM      4  C   UNL     1      14.163 -34.013  -1.372  1.00  0.00     0.000 C 
BRANCH   4   5
ATOM      5  C   UNL     1      13.885 -35.421  -1.922  1.00  0.00     0.000 C 
BRANCH   5   6
ATOM      6  C   UNL     1      12.389 -35.774  -1.904  1.00  0.00     0.000 C 
BRANCH   6   7
ATOM      7  C   UNL     1      12.037 -36.803  -0.815  1.00  0.00     0.000 C 
BRANCH   7   8
ATOM      8  C   UNL     1      13.282 -37.561  -0.317  1.00  0.00     0.000 C 
BRANCH   8   9
ATOM      9  C   UNL     1      13.420 -37.543   1.210  1.00  0.00     0.000 C 
BRANCH   9  10
ATOM     10  C   UNL     1      12.331 -36.695   1.900  1.00  0.00     0.000 C 
BRANCH  10  11
ATOM     11  C   UNL     1      12.860 -35.954   3.138  1.00  0.00     0.000 C 
BRANCH  11  12
ATOM     12  C   UNL     1      14.376 -36.127   3.334  1.00  0.00     0.006 C 
BRANCH  12  13
ATOM     13  C   UNL     1      14.733 -36.438   4.795  1.00  0.00     0.053 C 
BRANCH  13  14
ATOM     14  C   UNL     1      16.217 -36.504   5.003  1.00  0.00     0.041 C 
ATOM     15  O   UNL     1      16.803 -35.615   5.679  1.00  0.00    -0.550 OA
ATOM     16  O   UNL     1      16.967 -37.476   4.352  1.00  0.00    -0.550 OA
ENDBRANCH  13  14
ENDBRANCH  12  13
ENDBRANCH  11  12
ENDBRANCH  10  11
ENDBRANCH   9  10
ENDBRANCH   8   9
ENDBRANCH   7   8
ENDBRANCH   6   7
ENDBRANCH   5   6
ENDBRANCH   4   5
ENDBRANCH   3   4
ENDBRANCH   2   3
ENDBRANCH   1   2
BRANCH   1  17
ATOM     17  C   UNL     1      14.801 -32.147   2.346  1.00  0.00     0.000 C 
BRANCH  17  18
ATOM     18  C   UNL     1      15.240 -32.559   3.757  1.00  0.00     0.000 C 
BRANCH  18  19
ATOM     19  C   UNL     1      16.766 -32.525   3.948  1.00  0.00     0.000 C 
BRANCH  19  20
ATOM     20  C   UNL     1      17.576 -32.141   2.694  1.00  0.00     0.000 C 
BRANCH  20  21
ATOM     21  C   UNL     1      18.973 -32.787   2.587  1.00  0.00     0.000 C 
BRANCH  21  22
ATOM     22  C   UNL     1      19.083 -33.855   1.477  1.00  0.00    -0.000 C 
BRANCH  22  23
ATOM     23  C   UNL     1      17.708 -34.248   0.905  1.00  0.00    -0.000 C 
BRANCH  23  24
ATOM     24  C   UNL     1      17.287 -35.670   1.302  1.00  0.00    -0.000 C 
BRANCH  24  25
ATOM     25  C   UNL     1      16.851 -36.513   0.090  1.00  0.00    -0.000 C 
BRANCH  25  26
ATOM     26  C   UNL     1      17.417 -35.979  -1.234  1.00  0.00    -0.000 C 
BRANCH  26  27
ATOM     27  C   UNL     1      18.674 -36.733  -1.691  1.00  0.00    -0.000 C 
BRANCH  27  28
ATOM     28  C   UNL     1      19.898 -35.807  -1.687  1.00  0.00    -0.000 C 
BRANCH  28  29
ATOM     29  C   UNL     1      21.059 -36.364  -0.849  1.00  0.00    -0.003 C 
ATOM     30  C   UNL     1      20.583 -37.185   0.349  1.00  0.00     0.004 C 
ENDBRANCH  28  29
ENDBRANCH  27  28
ENDBRANCH  26  27
ENDBRANCH  25  26
ENDBRANCH  24  25
ENDBRANCH  23  24
ENDBRANCH  22  23
ENDBRANCH  21  22
ENDBRANCH  20  21
ENDBRANCH  19  20
ENDBRANCH  18  19
ENDBRANCH  17  18
ENDBRANCH   1  17
TORSDOF 26
ENDMDL
