MODEL 1
REMARK VINA RESULT:    -4.052      0.000      0.000
REMARK INTER + INTRA:          -6.237
REMARK INTER:                  -5.947
REMARK INTRA:                  -0.289
REMARK UNBOUND:                -0.289
REMARK SMILES O=C([O-])CCCCCCCC(=O)[O-]
REMARK SMILES IDX 7 1 6 2 5 3 4 4 2 5 1 6 3 7 8 8 9 9 10 10 11 11 12 12 13 13
REMARK H PARENT
REMARK Flexibility Score: inf
ROOT
ATOM      1  C   UNL     1      19.855  -6.365  47.824  1.00  0.00     0.000 C 
ENDROOT
BRANCH   1   2
ATOM      2  C   UNL     1      20.473  -7.464  48.703  1.00  0.00     0.000 C 
BRANCH   2   3
ATOM      3  C   UNL     1      20.318  -7.179  50.205  1.00  0.00     0.006 C 
BRANCH   3   4
ATOM      4  C   UNL     1      21.544  -7.613  51.019  1.00  0.00     0.053 C 
BRANCH   4   5
ATOM      5  C   UNL     1      22.675  -6.658  50.808  1.00  0.00     0.041 C 
ATOM      6  O   UNL     1      23.703  -7.021  50.178  1.00  0.00    -0.550 OA
ATOM      7  O   UNL     1      22.574  -5.350  51.265  1.00  0.00    -0.550 OA
ENDBRANCH   4   5
ENDBRANCH   3   4
ENDBRANCH   2   3
ENDBRANCH   1   2
BRANCH   1   8
ATOM      8  C   UNL     1      19.966  -6.728  46.336  1.00  0.00     0.000 C 
BRANCH   8   9
ATOM      9  C   UNL     1      18.604  -7.062  45.699  1.00  0.00     0.006 C 
BRANCH   9  10
ATOM     10  C   UNL     1      18.672  -7.407  44.203  1.00  0.00     0.053 C 
BRANCH  10  11
ATOM     11  C   UNL     1      19.056  -6.223  43.370  1.00  0.00     0.041 C 
ATOM     12  O   UNL     1      18.243  -5.276  43.203  1.00  0.00    -0.550 OA
ATOM     13  O   UNL     1      20.324  -6.149  42.807  1.00  0.00    -0.550 OA
ENDBRANCH  10  11
ENDBRANCH   9  10
ENDBRANCH   8   9
ENDBRANCH   1   8
TORSDOF 8
ENDMDL
MODEL 2
REMARK VINA RESULT:    -4.040      0.620      6.930
REMARK INTER + INTRA:          -6.219
REMARK INTER:                  -5.955
REMARK INTRA:                  -0.264
REMARK UNBOUND:                -0.289
REMARK SMILES O=C([O-])CCCCCCCC(=O)[O-]
REMARK SMILES IDX 7 1 6 2 5 3 4 4 2 5 1 6 3 7 8 8 9 9 10 10 11 11 12 12 13 13
REMARK H PARENT
REMARK Flexibility Score: inf
ROOT
ATOM      1  C   UNL     1      19.846  -6.404  47.687  1.00  0.00     0.000 C 
ENDROOT
BRANCH   1   2
ATOM      2  C   UNL     1      19.897  -6.948  46.251  1.00  0.00     0.000 C 
BRANCH   2   3
ATOM      3  C   UNL     1      18.501  -7.103  45.626  1.00  0.00     0.006 C 
BRANCH   3   4
ATOM      4  C   UNL     1      18.557  -7.397  44.121  1.00  0.00     0.053 C 
BRANCH   4   5
ATOM      5  C   UNL     1      19.047  -6.199  43.372  1.00  0.00     0.041 C 
ATOM      6  O   UNL     1      18.323  -5.174  43.273  1.00  0.00    -0.550 OA
ATOM      7  O   UNL     1      20.324  -6.196  42.826  1.00  0.00    -0.550 OA
ENDBRANCH   4   5
ENDBRANCH   3   4
ENDBRANCH   2   3
ENDBRANCH   1   2
BRANCH   1   8
ATOM      8  C   UNL     1      20.677  -7.282  48.634  1.00  0.00     0.000 C 
BRANCH   8   9
ATOM      9  C   UNL     1      20.199  -7.204  50.096  1.00  0.00     0.006 C 
BRANCH   9  10
ATOM     10  C   UNL     1      21.134  -7.889  51.105  1.00  0.00     0.053 C 
BRANCH  10  11
ATOM     11  C   UNL     1      22.573  -7.556  50.854  1.00  0.00     0.041 C 
ATOM     12  O   UNL     1      23.018  -6.413  51.139  1.00  0.00    -0.550 OA
ATOM     13  O   UNL     1      23.431  -8.519  50.339  1.00  0.00    -0.550 OA
ENDBRANCH  10  11
ENDBRANCH   9  10
ENDBRANCH   8   9
ENDBRANCH   1   8
TORSDOF 8
ENDMDL
MODEL 3
REMARK VINA RESULT:    -4.018      0.910      1.634
REMARK INTER + INTRA:          -6.186
REMARK INTER:                  -5.798
REMARK INTRA:                  -0.389
REMARK UNBOUND:                -0.289
REMARK SMILES O=C([O-])CCCCCCCC(=O)[O-]
REMARK SMILES IDX 7 1 6 2 5 3 4 4 2 5 1 6 3 7 8 8 9 9 10 10 11 11 12 12 13 13
REMARK H PARENT
REMARK Flexibility Score: inf
ROOT
ATOM      1  C   UNL     1      20.598  -6.811  46.483  1.00  0.00     0.000 C 
ENDROOT
BRANCH   1   2
ATOM      2  C   UNL     1      20.835  -7.526  47.823  1.00  0.00     0.000 C 
BRANCH   2   3
ATOM      3  C   UNL     1      20.036  -6.902  48.977  1.00  0.00     0.006 C 
BRANCH   3   4
ATOM      4  C   UNL     1      20.381  -7.521  50.338  1.00  0.00     0.053 C 
BRANCH   4   5
ATOM      5  C   UNL     1      21.803  -7.231  50.698  1.00  0.00     0.041 C 
ATOM      6  O   UNL     1      22.188  -6.042  50.851  1.00  0.00    -0.550 OA
ATOM      7  O   UNL     1      22.692  -8.276  50.914  1.00  0.00    -0.550 OA
ENDBRANCH   4   5
ENDBRANCH   3   4
ENDBRANCH   2   3
ENDBRANCH   1   2
BRANCH   1   8
ATOM      8  C   UNL     1      19.106  -6.811  46.120  1.00  0.00     0.000 C 
BRANCH   8   9
ATOM      9  C   UNL     1      18.809  -7.565  44.811  1.00  0.00     0.006 C 
BRANCH   9  10
ATOM     10  C   UNL     1      18.103  -6.719  43.739  1.00  0.00     0.053 C 
BRANCH  10  11
ATOM     11  C   UNL     1      18.963  -5.592  43.256  1.00  0.00     0.041 C 
ATOM     12  O   UNL     1      20.067  -5.831  42.700  1.00  0.00    -0.550 OA
ATOM     13  O   UNL     1      18.529  -4.279  43.388  1.00  0.00    -0.550 OA
ENDBRANCH  10  11
ENDBRANCH   9  10
ENDBRANCH   8   9
ENDBRANCH   1   8
TORSDOF 8
ENDMDL
MODEL 4
REMARK VINA RESULT:    -3.967      4.757      6.247
REMARK INTER + INTRA:          -6.111
REMARK INTER:                  -5.601
REMARK INTRA:                  -0.510
REMARK UNBOUND:                -0.289
REMARK SMILES O=C([O-])CCCCCCCC(=O)[O-]
REMARK SMILES IDX 7 1 6 2 5 3 4 4 2 5 1 6 3 7 8 8 9 9 10 10 11 11 12 12 13 13
REMARK H PARENT
REMARK Flexibility Score: inf
ROOT
ATOM      1  C   UNL     1      19.214  -5.535  42.901  1.00  0.00     0.000 C 
ENDROOT
BRANCH   1   2
ATOM      2  C   UNL     1      18.430  -6.576  43.716  1.00  0.00     0.000 C 
BRANCH   2   3
ATOM      3  C   UNL     1      19.332  -7.681  44.289  1.00  0.00     0.006 C 
BRANCH   3   4
ATOM      4  C   UNL     1      20.686  -7.769  43.573  1.00  0.00     0.053 C 
BRANCH   4   5
ATOM      5  C   UNL     1      21.024  -9.195  43.270  1.00  0.00     0.041 C 
ATOM      6  O   UNL     1      20.121 -10.002  42.928  1.00  0.00    -0.550 OA
ATOM      7  O   UNL     1      22.346  -9.620  43.318  1.00  0.00    -0.550 OA
ENDBRANCH   4   5
ENDBRANCH   3   4
ENDBRANCH   2   3
ENDBRANCH   1   2
BRANCH   1   8
ATOM      8  C   UNL     1      18.980  -4.121  43.452  1.00  0.00     0.000 C 
BRANCH   8   9
ATOM      9  C   UNL     1      19.879  -3.794  44.659  1.00  0.00     0.006 C 
BRANCH   9  10
ATOM     10  C   UNL     1      21.373  -3.668  44.320  1.00  0.00     0.053 C 
BRANCH  10  11
ATOM     11  C   UNL     1      22.010  -2.502  45.011  1.00  0.00     0.041 C 
ATOM     12  O   UNL     1      22.247  -2.550  46.247  1.00  0.00    -0.550 OA
ATOM     13  O   UNL     1      22.374  -1.375  44.285  1.00  0.00    -0.550 OA
ENDBRANCH  10  11
ENDBRANCH   9  10
ENDBRANCH   8   9
ENDBRANCH   1   8
TORSDOF 8
ENDMDL
MODEL 5
REMARK VINA RESULT:    -3.950      4.969      6.955
REMARK INTER + INTRA:          -6.087
REMARK INTER:                  -5.541
REMARK INTRA:                  -0.546
REMARK UNBOUND:                -0.289
REMARK SMILES O=C([O-])CCCCCCCC(=O)[O-]
REMARK SMILES IDX 7 1 6 2 5 3 4 4 2 5 1 6 3 7 8 8 9 9 10 10 11 11 12 12 13 13
REMARK H PARENT
REMARK Flexibility Score: inf
ROOT
ATOM      1  C   UNL     1      19.957  -3.834  44.678  1.00  0.00     0.000 C 
ENDROOT
BRANCH   1   2
ATOM      2  C   UNL     1      20.068  -3.844  43.145  1.00  0.00     0.000 C 
BRANCH   2   3
ATOM      3  C   UNL     1      19.774  -5.225  42.538  1.00  0.00     0.006 C 
BRANCH   3   4
ATOM      4  C   UNL     1      20.719  -6.314  43.064  1.00  0.00     0.053 C 
BRANCH   4   5
ATOM      5  C   UNL     1      19.940  -7.510  43.511  1.00  0.00     0.041 C 
ATOM      6  O   UNL     1      18.747  -7.383  43.894  1.00  0.00    -0.550 OA
ATOM      7  O   UNL     1      20.515  -8.773  43.458  1.00  0.00    -0.550 OA
ENDBRANCH   4   5
ENDBRANCH   3   4
ENDBRANCH   2   3
ENDBRANCH   1   2
BRANCH   1   8
ATOM      8  C   UNL     1      21.110  -3.036  45.304  1.00  0.00     0.000 C 
BRANCH   8   9
ATOM      9  C   UNL     1      22.493  -3.488  44.801  1.00  0.00     0.006 C 
BRANCH   9  10
ATOM     10  C   UNL     1      23.301  -2.387  44.095  1.00  0.00     0.053 C 
BRANCH  10  11
ATOM     11  C   UNL     1      23.165  -1.063  44.782  1.00  0.00     0.041 C 
ATOM     12  O   UNL     1      23.695  -0.876  45.909  1.00  0.00    -0.550 OA
ATOM     13  O   UNL     1      22.483  -0.024  44.162  1.00  0.00    -0.550 OA
ENDBRANCH  10  11
ENDBRANCH   9  10
ENDBRANCH   8   9
ENDBRANCH   1   8
TORSDOF 8
ENDMDL
MODEL 6
REMARK VINA RESULT:    -3.923      5.092      5.683
REMARK INTER + INTRA:          -6.047
REMARK INTER:                  -5.447
REMARK INTRA:                  -0.600
REMARK UNBOUND:                -0.289
REMARK SMILES O=C([O-])CCCCCCCC(=O)[O-]
REMARK SMILES IDX 7 1 6 2 5 3 4 4 2 5 1 6 3 7 8 8 9 9 10 10 11 11 12 12 13 13
REMARK H PARENT
REMARK Flexibility Score: inf
ROOT
ATOM      1  C   UNL     1      20.183  -3.883  43.212  1.00  0.00     0.000 C 
ENDROOT
BRANCH   1   2
ATOM      2  C   UNL     1      20.028  -3.838  44.741  1.00  0.00     0.000 C 
BRANCH   2   3
ATOM      3  C   UNL     1      21.270  -3.271  45.446  1.00  0.00     0.006 C 
BRANCH   3   4
ATOM      4  C   UNL     1      22.559  -3.495  44.643  1.00  0.00     0.053 C 
BRANCH   4   5
ATOM      5  C   UNL     1      23.226  -2.188  44.352  1.00  0.00     0.041 C 
ATOM      6  O   UNL     1      24.461  -2.048  44.554  1.00  0.00    -0.550 OA
ATOM      7  O   UNL     1      22.493  -1.140  43.810  1.00  0.00    -0.550 OA
ENDBRANCH   4   5
ENDBRANCH   3   4
ENDBRANCH   2   3
ENDBRANCH   1   2
BRANCH   1   8
ATOM      8  C   UNL     1      19.696  -5.228  42.653  1.00  0.00     0.000 C 
BRANCH   8   9
ATOM      9  C   UNL     1      19.995  -6.410  43.593  1.00  0.00     0.006 C 
BRANCH   9  10
ATOM     10  C   UNL     1      21.319  -7.133  43.299  1.00  0.00     0.053 C 
BRANCH  10  11
ATOM     11  C   UNL     1      21.163  -8.623  43.321  1.00  0.00     0.041 C 
ATOM     12  O   UNL     1      20.036  -9.138  43.543  1.00  0.00    -0.550 OA
ATOM     13  O   UNL     1      22.254  -9.441  43.059  1.00  0.00    -0.550 OA
ENDBRANCH  10  11
ENDBRANCH   9  10
ENDBRANCH   8   9
ENDBRANCH   1   8
TORSDOF 8
ENDMDL
MODEL 7
REMARK VINA RESULT:    -3.876      2.251      3.028
REMARK INTER + INTRA:          -5.978
REMARK INTER:                  -5.271
REMARK INTRA:                  -0.707
REMARK UNBOUND:                -0.289
REMARK SMILES O=C([O-])CCCCCCCC(=O)[O-]
REMARK SMILES IDX 7 1 6 2 5 3 4 4 2 5 1 6 3 7 8 8 9 9 10 10 11 11 12 12 13 13
REMARK H PARENT
REMARK Flexibility Score: inf
ROOT
ATOM      1  C   UNL     1      20.235  -4.597  45.252  1.00  0.00     0.000 C 
ENDROOT
BRANCH   1   2
ATOM      2  C   UNL     1      20.650  -5.086  46.649  1.00  0.00     0.000 C 
BRANCH   2   3
ATOM      3  C   UNL     1      19.873  -6.335  47.094  1.00  0.00     0.006 C 
BRANCH   3   4
ATOM      4  C   UNL     1      20.788  -7.429  47.659  1.00  0.00     0.053 C 
BRANCH   4   5
ATOM      5  C   UNL     1      21.041  -7.197  49.115  1.00  0.00     0.041 C 
ATOM      6  O   UNL     1      22.216  -7.033  49.537  1.00  0.00    -0.550 OA
ATOM      7  O   UNL     1      19.973  -7.113  50.000  1.00  0.00    -0.550 OA
ENDBRANCH   4   5
ENDBRANCH   3   4
ENDBRANCH   2   3
ENDBRANCH   1   2
BRANCH   1   8
ATOM      8  C   UNL     1      21.328  -4.905  44.218  1.00  0.00     0.000 C 
BRANCH   8   9
ATOM      9  C   UNL     1      20.910  -5.997  43.215  1.00  0.00     0.006 C 
BRANCH   9  10
ATOM     10  C   UNL     1      21.342  -7.418  43.610  1.00  0.00     0.053 C 
BRANCH  10  11
ATOM     11  C   UNL     1      20.179  -8.361  43.673  1.00  0.00     0.041 C 
ATOM     12  O   UNL     1      19.075  -7.974  44.138  1.00  0.00    -0.550 OA
ATOM     13  O   UNL     1      20.305  -9.655  43.186  1.00  0.00    -0.550 OA
ENDBRANCH  10  11
ENDBRANCH   9  10
ENDBRANCH   8   9
ENDBRANCH   1   8
TORSDOF 8
ENDMDL
MODEL 8
REMARK VINA RESULT:    -3.867      3.605      5.887
REMARK INTER + INTRA:          -5.965
REMARK INTER:                  -5.242
REMARK INTRA:                  -0.723
REMARK UNBOUND:                -0.289
REMARK SMILES O=C([O-])CCCCCCCC(=O)[O-]
REMARK SMILES IDX 7 1 6 2 5 3 4 4 2 5 1 6 3 7 8 8 9 9 10 10 11 11 12 12 13 13
REMARK H PARENT
REMARK Flexibility Score: inf
ROOT
ATOM      1  C   UNL     1      20.247  -5.826  47.075  1.00  0.00     0.000 C 
ENDROOT
BRANCH   1   2
ATOM      2  C   UNL     1      19.976  -7.120  46.290  1.00  0.00     0.000 C 
BRANCH   2   3
ATOM      3  C   UNL     1      18.651  -7.075  45.513  1.00  0.00     0.006 C 
BRANCH   3   4
ATOM      4  C   UNL     1      18.814  -7.484  44.043  1.00  0.00     0.053 C 
BRANCH   4   5
ATOM      5  C   UNL     1      19.395  -6.357  43.249  1.00  0.00     0.041 C 
ATOM      6  O   UNL     1      18.696  -5.346  42.979  1.00  0.00    -0.550 OA
ATOM      7  O   UNL     1      20.724  -6.402  42.850  1.00  0.00    -0.550 OA
ENDBRANCH   4   5
ENDBRANCH   3   4
ENDBRANCH   2   3
ENDBRANCH   1   2
BRANCH   1   8
ATOM      8  C   UNL     1      21.259  -4.940  46.336  1.00  0.00     0.000 C 
BRANCH   8   9
ATOM      9  C   UNL     1      20.593  -3.775  45.579  1.00  0.00     0.006 C 
BRANCH   9  10
ATOM     10  C   UNL     1      21.413  -3.240  44.394  1.00  0.00     0.053 C 
BRANCH  10  11
ATOM     11  C   UNL     1      22.248  -2.057  44.776  1.00  0.00     0.041 C 
ATOM     12  O   UNL     1      21.794  -1.193  45.572  1.00  0.00    -0.550 OA
ATOM     13  O   UNL     1      23.540  -1.928  44.283  1.00  0.00    -0.550 OA
ENDBRANCH  10  11
ENDBRANCH   9  10
ENDBRANCH   8   9
ENDBRANCH   1   8
TORSDOF 8
ENDMDL
MODEL 9
REMARK VINA RESULT:    -3.848      4.890      5.728
REMARK INTER + INTRA:          -5.937
REMARK INTER:                  -5.440
REMARK INTRA:                  -0.497
REMARK UNBOUND:                -0.289
REMARK SMILES O=C([O-])CCCCCCCC(=O)[O-]
REMARK SMILES IDX 7 1 6 2 5 3 4 4 2 5 1 6 3 7 8 8 9 9 10 10 11 11 12 12 13 13
REMARK H PARENT
REMARK Flexibility Score: inf
ROOT
ATOM      1  C   UNL     1      20.190  -3.799  44.612  1.00  0.00     0.000 C 
ENDROOT
BRANCH   1   2
ATOM      2  C   UNL     1      21.708  -3.559  44.603  1.00  0.00     0.000 C 
BRANCH   2   3
ATOM      3  C   UNL     1      22.225  -2.989  45.933  1.00  0.00     0.006 C 
BRANCH   3   4
ATOM      4  C   UNL     1      22.186  -1.455  45.973  1.00  0.00     0.053 C 
BRANCH   4   5
ATOM      5  C   UNL     1      23.044  -0.883  44.890  1.00  0.00     0.041 C 
ATOM      6  O   UNL     1      22.558  -0.074  44.056  1.00  0.00    -0.550 OA
ATOM      7  O   UNL     1      24.394  -1.204  44.830  1.00  0.00    -0.550 OA
ENDBRANCH   4   5
ENDBRANCH   3   4
ENDBRANCH   2   3
ENDBRANCH   1   2
BRANCH   1   8
ATOM      8  C   UNL     1      19.629  -3.807  43.182  1.00  0.00     0.000 C 
BRANCH   8   9
ATOM      9  C   UNL     1      19.116  -5.193  42.749  1.00  0.00     0.006 C 
BRANCH   9  10
ATOM     10  C   UNL     1      19.174  -6.263  43.851  1.00  0.00     0.053 C 
BRANCH  10  11
ATOM     11  C   UNL     1      20.190  -7.322  43.554  1.00  0.00     0.041 C 
ATOM     12  O   UNL     1      21.370  -7.002  43.251  1.00  0.00    -0.550 OA
ATOM     13  O   UNL     1      19.844  -8.664  43.646  1.00  0.00    -0.550 OA
ENDBRANCH  10  11
ENDBRANCH   9  10
ENDBRANCH   8   9
ENDBRANCH   1   8
TORSDOF 8
ENDMDL
