MODEL 1
REMARK VINA RESULT:    -4.059      0.000      0.000
REMARK INTER + INTRA:          -5.097
REMARK INTER:                  -4.890
REMARK INTRA:                  -0.207
REMARK UNBOUND:                -0.207
REMARK SMILES C=CCc1ccc(O)c(OC)c1
REMARK SMILES IDX 9 1 7 2 6 3 5 4 4 5 12 6 10 7 11 8 8 9 3 11 2 12 1 13
REMARK H PARENT 8 10
REMARK Flexibility Score: inf
ROOT
ATOM      1  C   UNL     1      27.026  38.576  19.617  1.00  0.00     0.160 A 
ATOM      2  C   UNL     1      25.991  38.350  20.545  1.00  0.00     0.157 A 
ATOM      3  C   UNL     1      25.984  37.185  21.317  1.00  0.00     0.050 A 
ATOM      4  C   UNL     1      27.001  36.239  21.179  1.00  0.00     0.008 A 
ATOM      5  C   UNL     1      28.046  36.453  20.268  1.00  0.00    -0.040 A 
ATOM      6  C   UNL     1      28.050  37.617  19.484  1.00  0.00     0.054 A 
ENDROOT
BRANCH   1   7
ATOM      7  O   UNL     1      27.004  39.751  18.851  1.00  0.00    -0.493 OA
ATOM      8  C   UNL     1      27.754  40.924  19.149  1.00  0.00     0.278 C 
ENDBRANCH   1   7
BRANCH   2   9
ATOM      9  O   UNL     1      24.959  39.273  20.710  1.00  0.00    -0.504 OA
ATOM     10  H   UNL     1      23.989  38.991  20.787  1.00  0.00     0.293 HD
ENDBRANCH   2   9
BRANCH   5  11
ATOM     11  C   UNL     1      29.125  35.415  20.101  1.00  0.00     0.062 C 
BRANCH  11  12
ATOM     12  C   UNL     1      28.539  34.031  20.115  1.00  0.00    -0.030 C 
ATOM     13  C   UNL     1      28.841  33.149  21.073  1.00  0.00     0.004 C 
ENDBRANCH  11  12
ENDBRANCH   5  11
TORSDOF 4
ENDMDL
MODEL 2
REMARK VINA RESULT:    -4.056      2.745      3.891
REMARK INTER + INTRA:          -5.093
REMARK INTER:                  -4.870
REMARK INTRA:                  -0.223
REMARK UNBOUND:                -0.207
REMARK SMILES C=CCc1ccc(O)c(OC)c1
REMARK SMILES IDX 9 1 7 2 6 3 5 4 4 5 12 6 10 7 11 8 8 9 3 11 2 12 1 13
REMARK H PARENT 8 10
REMARK Flexibility Score: inf
ROOT
ATOM      1  C   UNL     1      28.205  35.737  21.355  1.00  0.00     0.160 A 
ATOM      2  C   UNL     1      27.619  36.398  22.451  1.00  0.00     0.157 A 
ATOM      3  C   UNL     1      27.411  35.714  23.652  1.00  0.00     0.050 A 
ATOM      4  C   UNL     1      27.783  34.374  23.776  1.00  0.00     0.008 A 
ATOM      5  C   UNL     1      28.379  33.704  22.699  1.00  0.00    -0.040 A 
ATOM      6  C   UNL     1      28.580  34.385  21.488  1.00  0.00     0.054 A 
ENDROOT
BRANCH   1   7
ATOM      7  O   UNL     1      28.397  36.447  20.159  1.00  0.00    -0.493 OA
ATOM      8  C   UNL     1      29.124  35.958  19.037  1.00  0.00     0.278 C 
ENDBRANCH   1   7
BRANCH   2   9
ATOM      9  O   UNL     1      27.234  37.736  22.363  1.00  0.00    -0.504 OA
ATOM     10  H   UNL     1      26.444  38.106  22.877  1.00  0.00     0.293 HD
ENDBRANCH   2   9
BRANCH   5  11
ATOM     11  C   UNL     1      28.752  32.250  22.828  1.00  0.00     0.062 C 
BRANCH  11  12
ATOM     12  C   UNL     1      28.626  31.793  24.254  1.00  0.00    -0.030 C 
ATOM     13  C   UNL     1      28.013  30.650  24.575  1.00  0.00     0.004 C 
ENDBRANCH  11  12
ENDBRANCH   5  11
TORSDOF 4
ENDMDL
MODEL 3
REMARK VINA RESULT:    -4.015      3.060      5.491
REMARK INTER + INTRA:          -5.044
REMARK INTER:                  -4.786
REMARK INTRA:                  -0.257
REMARK UNBOUND:                -0.207
REMARK SMILES C=CCc1ccc(O)c(OC)c1
REMARK SMILES IDX 9 1 7 2 6 3 5 4 4 5 12 6 10 7 11 8 8 9 3 11 2 12 1 13
REMARK H PARENT 8 10
REMARK Flexibility Score: inf
ROOT
ATOM      1  C   UNL     1      27.135  39.282  18.898  1.00  0.00     0.160 A 
ATOM      2  C   UNL     1      26.201  38.847  19.858  1.00  0.00     0.157 A 
ATOM      3  C   UNL     1      25.868  39.673  20.935  1.00  0.00     0.050 A 
ATOM      4  C   UNL     1      26.454  40.933  21.068  1.00  0.00     0.008 A 
ATOM      5  C   UNL     1      27.377  41.386  20.116  1.00  0.00    -0.040 A 
ATOM      6  C   UNL     1      27.722  40.556  19.038  1.00  0.00     0.054 A 
ENDROOT
BRANCH   1   7
ATOM      7  O   UNL     1      27.455  38.429  17.830  1.00  0.00    -0.493 OA
ATOM      8  C   UNL     1      28.781  38.100  17.428  1.00  0.00     0.278 C 
ENDBRANCH   1   7
BRANCH   2   9
ATOM      9  O   UNL     1      25.596  37.595  19.757  1.00  0.00    -0.504 OA
ATOM     10  H   UNL     1      26.068  36.798  19.347  1.00  0.00     0.293 HD
ENDBRANCH   2   9
BRANCH   5  11
ATOM     11  C   UNL     1      28.030  42.734  20.279  1.00  0.00     0.062 C 
BRANCH  11  12
ATOM     12  C   UNL     1      27.780  43.596  19.073  1.00  0.00    -0.030 C 
ATOM     13  C   UNL     1      26.576  44.119  18.820  1.00  0.00     0.004 C 
ENDBRANCH  11  12
ENDBRANCH   5  11
TORSDOF 4
ENDMDL
MODEL 4
REMARK VINA RESULT:    -4.007      1.287      2.751
REMARK INTER + INTRA:          -5.034
REMARK INTER:                  -4.785
REMARK INTRA:                  -0.249
REMARK UNBOUND:                -0.207
REMARK SMILES C=CCc1ccc(O)c(OC)c1
REMARK SMILES IDX 9 1 7 2 6 3 5 4 4 5 12 6 10 7 11 8 8 9 3 11 2 12 1 13
REMARK H PARENT 8 10
REMARK Flexibility Score: inf
ROOT
ATOM      1  C   UNL     1      26.247  37.514  20.645  1.00  0.00     0.160 A 
ATOM      2  C   UNL     1      26.975  38.006  19.545  1.00  0.00     0.157 A 
ATOM      3  C   UNL     1      28.323  37.670  19.391  1.00  0.00     0.050 A 
ATOM      4  C   UNL     1      28.958  36.846  20.322  1.00  0.00     0.008 A 
ATOM      5  C   UNL     1      28.245  36.339  21.417  1.00  0.00    -0.040 A 
ATOM      6  C   UNL     1      26.894  36.681  21.580  1.00  0.00     0.054 A 
ENDROOT
BRANCH   1   7
ATOM      7  O   UNL     1      24.897  37.872  20.778  1.00  0.00    -0.493 OA
ATOM      8  C   UNL     1      23.868  36.994  21.225  1.00  0.00     0.278 C 
ENDBRANCH   1   7
BRANCH   2   9
ATOM      9  O   UNL     1      26.374  38.832  18.596  1.00  0.00    -0.504 OA
ATOM     10  H   UNL     1      26.858  39.135  17.760  1.00  0.00     0.293 HD
ENDBRANCH   2   9
BRANCH   5  11
ATOM     11  C   UNL     1      28.942  35.474  22.435  1.00  0.00     0.062 C 
BRANCH  11  12
ATOM     12  C   UNL     1      28.488  34.046  22.320  1.00  0.00    -0.030 C 
ATOM     13  C   UNL     1      28.810  33.288  21.268  1.00  0.00     0.004 C 
ENDBRANCH  11  12
ENDBRANCH   5  11
TORSDOF 4
ENDMDL
MODEL 5
REMARK VINA RESULT:    -3.976      3.380      5.591
REMARK INTER + INTRA:          -4.997
REMARK INTER:                  -4.733
REMARK INTRA:                  -0.264
REMARK UNBOUND:                -0.207
REMARK SMILES C=CCc1ccc(O)c(OC)c1
REMARK SMILES IDX 9 1 7 2 6 3 5 4 4 5 12 6 10 7 11 8 8 9 3 11 2 12 1 13
REMARK H PARENT 8 10
REMARK Flexibility Score: inf
ROOT
ATOM      1  C   UNL     1      28.248  34.275  22.323  1.00  0.00     0.160 A 
ATOM      2  C   UNL     1      28.764  33.832  21.091  1.00  0.00     0.157 A 
ATOM      3  C   UNL     1      28.920  34.731  20.033  1.00  0.00     0.050 A 
ATOM      4  C   UNL     1      28.569  36.073  20.187  1.00  0.00     0.008 A 
ATOM      5  C   UNL     1      28.064  36.534  21.412  1.00  0.00    -0.040 A 
ATOM      6  C   UNL     1      27.897  35.632  22.474  1.00  0.00     0.054 A 
ENDROOT
BRANCH   1   7
ATOM      7  O   UNL     1      28.097  33.348  23.367  1.00  0.00    -0.493 OA
ATOM      8  C   UNL     1      29.125  32.990  24.284  1.00  0.00     0.278 C 
ENDBRANCH   1   7
BRANCH   2   9
ATOM      9  O   UNL     1      29.125  32.498  20.900  1.00  0.00    -0.504 OA
ATOM     10  H   UNL     1      28.662  31.738  21.384  1.00  0.00     0.293 HD
ENDBRANCH   2   9
BRANCH   5  11
ATOM     11  C   UNL     1      27.659  37.977  21.565  1.00  0.00     0.062 C 
BRANCH  11  12
ATOM     12  C   UNL     1      26.508  38.306  20.657  1.00  0.00    -0.030 C 
ATOM     13  C   UNL     1      25.277  37.839  20.885  1.00  0.00     0.004 C 
ENDBRANCH  11  12
ENDBRANCH   5  11
TORSDOF 4
ENDMDL
MODEL 6
REMARK VINA RESULT:    -3.949      9.704     12.255
REMARK INTER + INTRA:          -4.963
REMARK INTER:                  -4.719
REMARK INTRA:                  -0.244
REMARK UNBOUND:                -0.207
REMARK SMILES C=CCc1ccc(O)c(OC)c1
REMARK SMILES IDX 9 1 7 2 6 3 5 4 4 5 12 6 10 7 11 8 8 9 3 11 2 12 1 13
REMARK H PARENT 8 10
REMARK Flexibility Score: inf
ROOT
ATOM      1  C   UNL     1      25.688  27.767  28.452  1.00  0.00     0.160 A 
ATOM      2  C   UNL     1      26.373  28.228  29.592  1.00  0.00     0.157 A 
ATOM      3  C   UNL     1      27.667  28.742  29.473  1.00  0.00     0.050 A 
ATOM      4  C   UNL     1      28.290  28.805  28.225  1.00  0.00     0.008 A 
ATOM      5  C   UNL     1      27.619  28.362  27.077  1.00  0.00    -0.040 A 
ATOM      6  C   UNL     1      26.323  27.836  27.195  1.00  0.00     0.054 A 
ENDROOT
BRANCH   1   7
ATOM      7  O   UNL     1      24.392  27.250  28.602  1.00  0.00    -0.493 OA
ATOM      8  C   UNL     1      23.196  27.990  28.376  1.00  0.00     0.278 C 
ENDBRANCH   1   7
BRANCH   2   9
ATOM      9  O   UNL     1      25.781  28.180  30.855  1.00  0.00    -0.504 OA
ATOM     10  H   UNL     1      25.747  28.986  31.467  1.00  0.00     0.293 HD
ENDBRANCH   2   9
BRANCH   5  11
ATOM     11  C   UNL     1      28.306  28.405  25.737  1.00  0.00     0.062 C 
BRANCH  11  12
ATOM     12  C   UNL     1      27.606  29.358  24.810  1.00  0.00    -0.030 C 
ATOM     13  C   UNL     1      28.070  30.591  24.587  1.00  0.00     0.004 C 
ENDBRANCH  11  12
ENDBRANCH   5  11
TORSDOF 4
ENDMDL
MODEL 7
REMARK VINA RESULT:    -3.944      2.870      5.494
REMARK INTER + INTRA:          -4.958
REMARK INTER:                  -4.696
REMARK INTRA:                  -0.262
REMARK UNBOUND:                -0.207
REMARK SMILES C=CCc1ccc(O)c(OC)c1
REMARK SMILES IDX 9 1 7 2 6 3 5 4 4 5 12 6 10 7 11 8 8 9 3 11 2 12 1 13
REMARK H PARENT 8 10
REMARK Flexibility Score: inf
ROOT
ATOM      1  C   UNL     1      26.393  39.012  19.912  1.00  0.00     0.160 A 
ATOM      2  C   UNL     1      27.104  39.533  18.814  1.00  0.00     0.157 A 
ATOM      3  C   UNL     1      27.516  40.868  18.815  1.00  0.00     0.050 A 
ATOM      4  C   UNL     1      27.229  41.696  19.902  1.00  0.00     0.008 A 
ATOM      5  C   UNL     1      26.532  41.191  21.009  1.00  0.00    -0.040 A 
ATOM      6  C   UNL     1      26.109  39.853  21.007  1.00  0.00     0.054 A 
ENDROOT
BRANCH   1   7
ATOM      7  O   UNL     1      25.988  37.669  19.881  1.00  0.00    -0.493 OA
ATOM      8  C   UNL     1      25.101  37.071  20.821  1.00  0.00     0.278 C 
ENDBRANCH   1   7
BRANCH   2   9
ATOM      9  O   UNL     1      27.407  38.735  17.710  1.00  0.00    -0.504 OA
ATOM     10  H   UNL     1      28.348  38.655  17.344  1.00  0.00     0.293 HD
ENDBRANCH   2   9
BRANCH   5  11
ATOM     11  C   UNL     1      26.200  42.095  22.167  1.00  0.00     0.062 C 
BRANCH  11  12
ATOM     12  C   UNL     1      27.453  42.599  22.826  1.00  0.00    -0.030 C 
ATOM     13  C   UNL     1      28.318  41.771  23.419  1.00  0.00     0.004 C 
ENDBRANCH  11  12
ENDBRANCH   5  11
TORSDOF 4
ENDMDL
MODEL 8
REMARK VINA RESULT:    -3.940      1.554      2.689
REMARK INTER + INTRA:          -4.953
REMARK INTER:                  -4.739
REMARK INTRA:                  -0.213
REMARK UNBOUND:                -0.207
REMARK SMILES C=CCc1ccc(O)c(OC)c1
REMARK SMILES IDX 9 1 7 2 6 3 5 4 4 5 12 6 10 7 11 8 8 9 3 11 2 12 1 13
REMARK H PARENT 8 10
REMARK Flexibility Score: inf
ROOT
ATOM      1  C   UNL     1      27.060  38.681  19.913  1.00  0.00     0.160 A 
ATOM      2  C   UNL     1      27.933  38.678  18.808  1.00  0.00     0.157 A 
ATOM      3  C   UNL     1      28.827  37.621  18.623  1.00  0.00     0.050 A 
ATOM      4  C   UNL     1      28.862  36.558  19.528  1.00  0.00     0.008 A 
ATOM      5  C   UNL     1      27.992  36.538  20.628  1.00  0.00    -0.040 A 
ATOM      6  C   UNL     1      27.099  37.604  20.821  1.00  0.00     0.054 A 
ENDROOT
BRANCH   1   7
ATOM      7  O   UNL     1      26.177  39.759  20.076  1.00  0.00    -0.493 OA
ATOM      8  C   UNL     1      26.410  40.871  20.934  1.00  0.00     0.278 C 
ENDBRANCH   1   7
BRANCH   2   9
ATOM      9  O   UNL     1      27.926  39.724  17.884  1.00  0.00    -0.504 OA
ATOM     10  H   UNL     1      27.999  40.694  18.166  1.00  0.00     0.293 HD
ENDBRANCH   2   9
BRANCH   5  11
ATOM     11  C   UNL     1      28.053  35.404  21.617  1.00  0.00     0.062 C 
BRANCH  11  12
ATOM     12  C   UNL     1      27.678  35.878  22.993  1.00  0.00    -0.030 C 
ATOM     13  C   UNL     1      26.949  35.124  23.822  1.00  0.00     0.004 C 
ENDBRANCH  11  12
ENDBRANCH   5  11
TORSDOF 4
ENDMDL
MODEL 9
REMARK VINA RESULT:    -3.856     13.077     13.763
REMARK INTER + INTRA:          -4.852
REMARK INTER:                  -4.568
REMARK INTRA:                  -0.284
REMARK UNBOUND:                -0.207
REMARK SMILES C=CCc1ccc(O)c(OC)c1
REMARK SMILES IDX 9 1 7 2 6 3 5 4 4 5 12 6 10 7 11 8 8 9 3 11 2 12 1 13
REMARK H PARENT 8 10
REMARK Flexibility Score: inf
ROOT
ATOM      1  C   UNL     1      24.301  28.068  28.732  1.00  0.00     0.160 A 
ATOM      2  C   UNL     1      24.718  28.948  29.749  1.00  0.00     0.157 A 
ATOM      3  C   UNL     1      25.968  28.782  30.351  1.00  0.00     0.050 A 
ATOM      4  C   UNL     1      26.814  27.747  29.949  1.00  0.00     0.008 A 
ATOM      5  C   UNL     1      26.421  26.869  28.929  1.00  0.00    -0.040 A 
ATOM      6  C   UNL     1      25.162  27.027  28.330  1.00  0.00     0.054 A 
ENDROOT
BRANCH   1   7
ATOM      7  O   UNL     1      23.038  28.255  28.150  1.00  0.00    -0.493 OA
ATOM      8  C   UNL     1      21.981  27.301  28.189  1.00  0.00     0.278 C 
ENDBRANCH   1   7
BRANCH   2   9
ATOM      9  O   UNL     1      23.898  29.993  30.177  1.00  0.00    -0.504 OA
ATOM     10  H   UNL     1      24.029  30.946  29.860  1.00  0.00     0.293 HD
ENDBRANCH   2   9
BRANCH   5  11
ATOM     11  C   UNL     1      27.325  25.736  28.519  1.00  0.00     0.062 C 
BRANCH  11  12
ATOM     12  C   UNL     1      27.559  24.798  29.670  1.00  0.00    -0.030 C 
ATOM     13  C   UNL     1      26.655  23.881  30.024  1.00  0.00     0.004 C 
ENDBRANCH  11  12
ENDBRANCH   5  11
TORSDOF 4
ENDMDL
