MODEL 1
REMARK VINA RESULT:    -6.408      0.000      0.000
REMARK INTER + INTRA:         -10.557
REMARK INTER:                  -9.967
REMARK INTRA:                  -0.591
REMARK UNBOUND:                -0.591
REMARK SMILES COc1cc(CNC(=O)CCCCC=CC(C)C)ccc1O
REMARK SMILES IDX 11 1 12 2 13 3 14 4 15 5 16 6 17 7 18 8 10 9 8 10 9 11 7 12
REMARK SMILES IDX 6 14 5 15 4 16 19 17 3 18 20 19 21 20 2 21 1 22 22 23
REMARK H PARENT 7 13 22 24
REMARK Flexibility Score: inf
ROOT
ATOM      1  C   UNL     1      -3.481  16.181 -35.451  1.00  0.00     0.010 C 
ENDROOT
BRANCH   1   2
ATOM      2  C   UNL     1      -3.731  15.814 -36.925  1.00  0.00     0.005 C 
BRANCH   2   3
ATOM      3  C   UNL     1      -5.175  16.101 -37.358  1.00  0.00     0.027 C 
BRANCH   3   4
ATOM      4  C   UNL     1      -5.257  16.464 -38.820  1.00  0.00    -0.031 C 
ATOM      5  C   UNL     1      -5.245  15.608 -39.868  1.00  0.00    -0.028 C 
BRANCH   5   6
ATOM      6  C   UNL     1      -5.226  14.089 -39.845  1.00  0.00     0.005 C 
ATOM      7  C   UNL     1      -6.240  13.501 -38.857  1.00  0.00     0.012 C 
ATOM      8  C   UNL     1      -3.823  13.493 -39.671  1.00  0.00     0.012 C 
ENDBRANCH   5   6
ENDBRANCH   3   4
ENDBRANCH   2   3
ENDBRANCH   1   2
BRANCH   1   9
ATOM      9  C   UNL     1      -3.072  17.648 -35.274  1.00  0.00     0.100 C 
BRANCH   9  10
ATOM     10  C   UNL     1      -1.702  17.915 -35.828  1.00  0.00     0.220 C 
ATOM     11  O   UNL     1      -1.567  18.738 -36.774  1.00  0.00    -0.275 OA
ATOM     12  N   UNL     1      -0.554  17.276 -35.253  1.00  0.00    -0.352 N 
ATOM     13  H   UNL     1      -0.685  16.625 -34.445  1.00  0.00     0.163 HD
BRANCH  12  14
ATOM     14  C   UNL     1       0.808  17.561 -35.699  1.00  0.00     0.151 C 
BRANCH  14  15
ATOM     15  C   UNL     1       1.444  18.604 -34.822  1.00  0.00    -0.025 A 
ATOM     16  C   UNL     1       1.351  19.963 -35.165  1.00  0.00     0.056 A 
ATOM     17  C   UNL     1       2.125  18.235 -33.652  1.00  0.00     0.009 A 
ATOM     18  C   UNL     1       1.934  20.950 -34.348  1.00  0.00     0.160 A 
ATOM     19  C   UNL     1       2.705  19.209 -32.838  1.00  0.00     0.050 A 
ATOM     20  C   UNL     1       2.612  20.563 -33.182  1.00  0.00     0.157 A 
BRANCH  18  21
ATOM     21  O   UNL     1       1.863  22.317 -34.659  1.00  0.00    -0.493 OA
ATOM     22  C   UNL     1       1.606  22.835 -35.961  1.00  0.00     0.278 C 
ENDBRANCH  18  21
BRANCH  20  23
ATOM     23  O   UNL     1       3.194  21.535 -32.369  1.00  0.00    -0.504 OA
ATOM     24  H   UNL     1       4.160  21.470 -32.074  1.00  0.00     0.293 HD
ENDBRANCH  20  23
ENDBRANCH  14  15
ENDBRANCH  12  14
ENDBRANCH   9  10
ENDBRANCH   1   9
TORSDOF 10
ENDMDL
MODEL 2
REMARK VINA RESULT:    -6.388      1.163      2.305
REMARK INTER + INTRA:         -10.526
REMARK INTER:                  -9.902
REMARK INTRA:                  -0.624
REMARK UNBOUND:                -0.591
REMARK SMILES COc1cc(CNC(=O)CCCCC=CC(C)C)ccc1O
REMARK SMILES IDX 11 1 12 2 13 3 14 4 15 5 16 6 17 7 18 8 10 9 8 10 9 11 7 12
REMARK SMILES IDX 6 14 5 15 4 16 19 17 3 18 20 19 21 20 2 21 1 22 22 23
REMARK H PARENT 7 13 22 24
REMARK Flexibility Score: inf
ROOT
ATOM      1  C   UNL     1      -3.476  16.472 -35.322  1.00  0.00     0.010 C 
ENDROOT
BRANCH   1   2
ATOM      2  C   UNL     1      -3.635  16.045 -36.793  1.00  0.00     0.005 C 
BRANCH   2   3
ATOM      3  C   UNL     1      -5.097  16.094 -37.257  1.00  0.00     0.027 C 
BRANCH   3   4
ATOM      4  C   UNL     1      -5.207  16.466 -38.715  1.00  0.00    -0.031 C 
ATOM      5  C   UNL     1      -5.205  15.618 -39.770  1.00  0.00    -0.028 C 
BRANCH   5   6
ATOM      6  C   UNL     1      -5.174  14.099 -39.757  1.00  0.00     0.005 C 
ATOM      7  C   UNL     1      -6.244  13.494 -38.841  1.00  0.00     0.012 C 
ATOM      8  C   UNL     1      -3.780  13.514 -39.499  1.00  0.00     0.012 C 
ENDBRANCH   5   6
ENDBRANCH   3   4
ENDBRANCH   2   3
ENDBRANCH   1   2
BRANCH   1   9
ATOM      9  C   UNL     1      -3.015  17.928 -35.183  1.00  0.00     0.100 C 
BRANCH   9  10
ATOM     10  C   UNL     1      -1.589  18.105 -35.619  1.00  0.00     0.220 C 
ATOM     11  O   UNL     1      -0.714  17.292 -35.217  1.00  0.00    -0.275 OA
ATOM     12  N   UNL     1      -1.237  19.161 -36.524  1.00  0.00    -0.352 N 
ATOM     13  H   UNL     1      -1.986  19.803 -36.874  1.00  0.00     0.163 HD
BRANCH  12  14
ATOM     14  C   UNL     1       0.117  19.329 -37.044  1.00  0.00     0.151 C 
BRANCH  14  15
ATOM     15  C   UNL     1       0.813  20.469 -36.352  1.00  0.00    -0.025 A 
ATOM     16  C   UNL     1       1.441  20.260 -35.113  1.00  0.00     0.056 A 
ATOM     17  C   UNL     1       0.851  21.744 -36.937  1.00  0.00     0.009 A 
ATOM     18  C   UNL     1       2.104  21.317 -34.459  1.00  0.00     0.160 A 
ATOM     19  C   UNL     1       1.506  22.794 -36.293  1.00  0.00     0.050 A 
ATOM     20  C   UNL     1       2.132  22.585 -35.058  1.00  0.00     0.157 A 
BRANCH  18  21
ATOM     21  O   UNL     1       2.742  21.147 -33.220  1.00  0.00    -0.493 OA
ATOM     22  C   UNL     1       2.834  19.907 -32.525  1.00  0.00     0.278 C 
ENDBRANCH  18  21
BRANCH  20  23
ATOM     23  O   UNL     1       2.784  23.636 -34.414  1.00  0.00    -0.504 OA
ATOM     24  H   UNL     1       3.550  23.472 -33.773  1.00  0.00     0.293 HD
ENDBRANCH  20  23
ENDBRANCH  14  15
ENDBRANCH  12  14
ENDBRANCH   9  10
ENDBRANCH   1   9
TORSDOF 10
ENDMDL
MODEL 3
REMARK VINA RESULT:    -6.317      3.387      6.228
REMARK INTER + INTRA:         -10.416
REMARK INTER:                  -8.622
REMARK INTRA:                  -1.795
REMARK UNBOUND:                -0.591
REMARK SMILES COc1cc(CNC(=O)CCCCC=CC(C)C)ccc1O
REMARK SMILES IDX 11 1 12 2 13 3 14 4 15 5 16 6 17 7 18 8 10 9 8 10 9 11 7 12
REMARK SMILES IDX 6 14 5 15 4 16 19 17 3 18 20 19 21 20 2 21 1 22 22 23
REMARK H PARENT 7 13 22 24
REMARK Flexibility Score: inf
ROOT
ATOM      1  C   UNL     1       0.990  22.158 -36.429  1.00  0.00     0.010 C 
ENDROOT
BRANCH   1   2
ATOM      2  C   UNL     1       1.495  21.288 -37.594  1.00  0.00     0.005 C 
BRANCH   2   3
ATOM      3  C   UNL     1       0.751  19.949 -37.685  1.00  0.00     0.027 C 
BRANCH   3   4
ATOM      4  C   UNL     1      -0.744  20.143 -37.722  1.00  0.00    -0.031 C 
ATOM      5  C   UNL     1      -1.661  19.515 -36.949  1.00  0.00    -0.028 C 
BRANCH   5   6
ATOM      6  C   UNL     1      -1.425  18.533 -35.814  1.00  0.00     0.005 C 
ATOM      7  C   UNL     1      -2.334  17.302 -35.900  1.00  0.00     0.012 C 
ATOM      8  C   UNL     1      -1.443  19.182 -34.425  1.00  0.00     0.012 C 
ENDBRANCH   5   6
ENDBRANCH   3   4
ENDBRANCH   2   3
ENDBRANCH   1   2
BRANCH   1   9
ATOM      9  C   UNL     1       2.130  22.884 -35.704  1.00  0.00     0.100 C 
BRANCH   9  10
ATOM     10  C   UNL     1       2.934  21.946 -34.851  1.00  0.00     0.220 C 
ATOM     11  O   UNL     1       4.191  22.047 -34.835  1.00  0.00    -0.275 OA
ATOM     12  N   UNL     1       2.274  20.976 -34.025  1.00  0.00    -0.352 N 
ATOM     13  H   UNL     1       1.228  20.934 -34.027  1.00  0.00     0.163 HD
BRANCH  12  14
ATOM     14  C   UNL     1       3.002  20.095 -33.116  1.00  0.00     0.151 C 
BRANCH  14  15
ATOM     15  C   UNL     1       2.796  18.654 -33.498  1.00  0.00    -0.025 A 
ATOM     16  C   UNL     1       3.273  17.631 -32.662  1.00  0.00     0.056 A 
ATOM     17  C   UNL     1       2.119  18.318 -34.680  1.00  0.00     0.009 A 
ATOM     18  C   UNL     1       3.078  16.279 -33.003  1.00  0.00     0.160 A 
ATOM     19  C   UNL     1       1.923  16.980 -35.022  1.00  0.00     0.050 A 
ATOM     20  C   UNL     1       2.400  15.960 -34.189  1.00  0.00     0.157 A 
BRANCH  18  21
ATOM     21  O   UNL     1       3.541  15.229 -32.194  1.00  0.00    -0.493 OA
ATOM     22  C   UNL     1       3.045  14.937 -30.891  1.00  0.00     0.278 C 
ENDBRANCH  18  21
BRANCH  20  23
ATOM     23  O   UNL     1       2.205  14.623 -34.534  1.00  0.00    -0.504 OA
ATOM     24  H   UNL     1       2.973  14.038 -34.841  1.00  0.00     0.293 HD
ENDBRANCH  20  23
ENDBRANCH  14  15
ENDBRANCH  12  14
ENDBRANCH   9  10
ENDBRANCH   1   9
TORSDOF 10
ENDMDL
MODEL 4
REMARK VINA RESULT:    -6.263      2.679      7.350
REMARK INTER + INTRA:         -10.332
REMARK INTER:                  -8.187
REMARK INTRA:                  -2.145
REMARK UNBOUND:                -0.591
REMARK SMILES COc1cc(CNC(=O)CCCCC=CC(C)C)ccc1O
REMARK SMILES IDX 11 1 12 2 13 3 14 4 15 5 16 6 17 7 18 8 10 9 8 10 9 11 7 12
REMARK SMILES IDX 6 14 5 15 4 16 19 17 3 18 20 19 21 20 2 21 1 22 22 23
REMARK H PARENT 7 13 22 24
REMARK Flexibility Score: inf
ROOT
ATOM      1  C   UNL     1       2.241  22.289 -34.874  1.00  0.00     0.010 C 
ENDROOT
BRANCH   1   2
ATOM      2  C   UNL     1       3.096  21.355 -33.999  1.00  0.00     0.005 C 
BRANCH   2   3
ATOM      3  C   UNL     1       2.241  20.489 -33.065  1.00  0.00     0.027 C 
BRANCH   3   4
ATOM      4  C   UNL     1       2.973  19.242 -32.634  1.00  0.00    -0.031 C 
ATOM      5  C   UNL     1       2.826  17.999 -33.147  1.00  0.00    -0.028 C 
BRANCH   5   6
ATOM      6  C   UNL     1       1.964  17.558 -34.318  1.00  0.00     0.005 C 
ATOM      7  C   UNL     1       1.371  16.158 -34.120  1.00  0.00     0.012 C 
ATOM      8  C   UNL     1       2.647  17.720 -35.681  1.00  0.00     0.012 C 
ENDBRANCH   5   6
ENDBRANCH   3   4
ENDBRANCH   2   3
ENDBRANCH   1   2
BRANCH   1   9
ATOM      9  C   UNL     1       2.545  22.131 -36.369  1.00  0.00     0.100 C 
BRANCH   9  10
ATOM     10  C   UNL     1       1.696  21.066 -37.001  1.00  0.00     0.220 C 
ATOM     11  O   UNL     1       2.158  20.398 -37.965  1.00  0.00    -0.275 OA
ATOM     12  N   UNL     1       0.391  20.780 -36.480  1.00  0.00    -0.352 N 
ATOM     13  H   UNL     1       0.041  21.322 -35.656  1.00  0.00     0.163 HD
BRANCH  12  14
ATOM     14  C   UNL     1      -0.443  19.701 -37.003  1.00  0.00     0.151 C 
BRANCH  14  15
ATOM     15  C   UNL     1      -1.144  18.983 -35.882  1.00  0.00    -0.025 A 
ATOM     16  C   UNL     1      -1.965  17.878 -36.161  1.00  0.00     0.056 A 
ATOM     17  C   UNL     1      -0.978  19.400 -34.553  1.00  0.00     0.009 A 
ATOM     18  C   UNL     1      -2.619  17.191 -35.120  1.00  0.00     0.160 A 
ATOM     19  C   UNL     1      -1.624  18.722 -33.517  1.00  0.00     0.050 A 
ATOM     20  C   UNL     1      -2.443  17.621 -33.796  1.00  0.00     0.157 A 
BRANCH  18  21
ATOM     21  O   UNL     1      -3.448  16.083 -35.359  1.00  0.00    -0.493 OA
ATOM     22  C   UNL     1      -4.152  15.852 -36.576  1.00  0.00     0.278 C 
ENDBRANCH  18  21
BRANCH  20  23
ATOM     23  O   UNL     1      -3.090  16.948 -32.761  1.00  0.00    -0.504 OA
ATOM     24  H   UNL     1      -2.912  15.969 -32.573  1.00  0.00     0.293 HD
ENDBRANCH  20  23
ENDBRANCH  14  15
ENDBRANCH  12  14
ENDBRANCH   9  10
ENDBRANCH   1   9
TORSDOF 10
ENDMDL
MODEL 5
REMARK VINA RESULT:    -6.252      4.341      7.970
REMARK INTER + INTRA:         -10.315
REMARK INTER:                  -7.933
REMARK INTRA:                  -2.382
REMARK UNBOUND:                -0.591
REMARK SMILES COc1cc(CNC(=O)CCCCC=CC(C)C)ccc1O
REMARK SMILES IDX 11 1 12 2 13 3 14 4 15 5 16 6 17 7 18 8 10 9 8 10 9 11 7 12
REMARK SMILES IDX 6 14 5 15 4 16 19 17 3 18 20 19 21 20 2 21 1 22 22 23
REMARK H PARENT 7 13 22 24
REMARK Flexibility Score: inf
ROOT
ATOM      1  C   UNL     1       3.115  23.799 -36.524  1.00  0.00     0.010 C 
ENDROOT
BRANCH   1   2
ATOM      2  C   UNL     1       3.603  23.750 -35.065  1.00  0.00     0.005 C 
BRANCH   2   3
ATOM      3  C   UNL     1       4.825  22.837 -34.891  1.00  0.00     0.027 C 
BRANCH   3   4
ATOM      4  C   UNL     1       4.609  21.488 -35.531  1.00  0.00    -0.031 C 
ATOM      5  C   UNL     1       3.943  20.437 -35.000  1.00  0.00    -0.028 C 
BRANCH   5   6
ATOM      6  C   UNL     1       3.187  20.368 -33.684  1.00  0.00     0.005 C 
ATOM      7  C   UNL     1       3.359  19.019 -32.975  1.00  0.00     0.012 C 
ATOM      8  C   UNL     1       1.717  20.790 -33.795  1.00  0.00     0.012 C 
ENDBRANCH   5   6
ENDBRANCH   3   4
ENDBRANCH   2   3
ENDBRANCH   1   2
BRANCH   1   9
ATOM      9  C   UNL     1       1.626  23.457 -36.654  1.00  0.00     0.100 C 
BRANCH   9  10
ATOM     10  C   UNL     1       1.415  22.148 -37.358  1.00  0.00     0.220 C 
ATOM     11  O   UNL     1       2.303  21.717 -38.143  1.00  0.00    -0.275 OA
ATOM     12  N   UNL     1       0.236  21.372 -37.103  1.00  0.00    -0.352 N 
ATOM     13  H   UNL     1      -0.472  21.732 -36.420  1.00  0.00     0.163 HD
BRANCH  12  14
ATOM     14  C   UNL     1       0.019  20.056 -37.697  1.00  0.00     0.151 C 
BRANCH  14  15
ATOM     15  C   UNL     1       0.336  18.969 -36.707  1.00  0.00    -0.025 A 
ATOM     16  C   UNL     1      -0.601  18.621 -35.720  1.00  0.00     0.056 A 
ATOM     17  C   UNL     1       1.561  18.286 -36.764  1.00  0.00     0.009 A 
ATOM     18  C   UNL     1      -0.320  17.599 -34.793  1.00  0.00     0.160 A 
ATOM     19  C   UNL     1       1.845  17.272 -35.847  1.00  0.00     0.050 A 
ATOM     20  C   UNL     1       0.910  16.927 -34.864  1.00  0.00     0.157 A 
BRANCH  18  21
ATOM     21  O   UNL     1      -1.231  17.225 -33.793  1.00  0.00    -0.493 OA
ATOM     22  C   UNL     1      -2.315  18.034 -33.348  1.00  0.00     0.278 C 
ENDBRANCH  18  21
BRANCH  20  23
ATOM     23  O   UNL     1       1.196  15.916 -33.948  1.00  0.00    -0.504 OA
ATOM     24  H   UNL     1       1.976  15.987 -33.307  1.00  0.00     0.293 HD
ENDBRANCH  20  23
ENDBRANCH  14  15
ENDBRANCH  12  14
ENDBRANCH   9  10
ENDBRANCH   1   9
TORSDOF 10
ENDMDL
MODEL 6
REMARK VINA RESULT:    -6.194      2.660      7.181
REMARK INTER + INTRA:         -10.224
REMARK INTER:                  -8.407
REMARK INTRA:                  -1.817
REMARK UNBOUND:                -0.591
REMARK SMILES COc1cc(CNC(=O)CCCCC=CC(C)C)ccc1O
REMARK SMILES IDX 11 1 12 2 13 3 14 4 15 5 16 6 17 7 18 8 10 9 8 10 9 11 7 12
REMARK SMILES IDX 6 14 5 15 4 16 19 17 3 18 20 19 21 20 2 21 1 22 22 23
REMARK H PARENT 7 13 22 24
REMARK Flexibility Score: inf
ROOT
ATOM      1  C   UNL     1       3.401  21.074 -33.421  1.00  0.00     0.010 C 
ENDROOT
BRANCH   1   2
ATOM      2  C   UNL     1       3.167  22.178 -34.468  1.00  0.00     0.005 C 
BRANCH   2   3
ATOM      3  C   UNL     1       1.713  22.216 -34.957  1.00  0.00     0.027 C 
BRANCH   3   4
ATOM      4  C   UNL     1       1.623  22.608 -36.411  1.00  0.00    -0.031 C 
ATOM      5  C   UNL     1       1.181  21.837 -37.432  1.00  0.00    -0.028 C 
BRANCH   5   6
ATOM      6  C   UNL     1       0.597  20.436 -37.370  1.00  0.00     0.005 C 
ATOM      7  C   UNL     1       1.398  19.426 -38.200  1.00  0.00     0.012 C 
ATOM      8  C   UNL     1      -0.906  20.381 -37.668  1.00  0.00     0.012 C 
ENDBRANCH   5   6
ENDBRANCH   3   4
ENDBRANCH   2   3
ENDBRANCH   1   2
BRANCH   1   9
ATOM      9  C   UNL     1       4.296  19.947 -33.951  1.00  0.00     0.100 C 
BRANCH   9  10
ATOM     10  C   UNL     1       3.527  18.672 -34.147  1.00  0.00     0.220 C 
ATOM     11  O   UNL     1       4.041  17.578 -33.785  1.00  0.00    -0.275 OA
ATOM     12  N   UNL     1       2.203  18.704 -34.696  1.00  0.00    -0.352 N 
ATOM     13  H   UNL     1       1.782  19.626 -34.956  1.00  0.00     0.163 HD
BRANCH  12  14
ATOM     14  C   UNL     1       1.380  17.505 -34.832  1.00  0.00     0.151 C 
BRANCH  14  15
ATOM     15  C   UNL     1      -0.081  17.856 -34.781  1.00  0.00    -0.025 A 
ATOM     16  C   UNL     1      -0.978  17.270 -35.689  1.00  0.00     0.056 A 
ATOM     17  C   UNL     1      -0.565  18.761 -33.823  1.00  0.00     0.009 A 
ATOM     18  C   UNL     1      -2.350  17.583 -35.645  1.00  0.00     0.160 A 
ATOM     19  C   UNL     1      -1.924  19.074 -33.775  1.00  0.00     0.050 A 
ATOM     20  C   UNL     1      -2.816  18.490 -34.682  1.00  0.00     0.157 A 
BRANCH  18  21
ATOM     21  O   UNL     1      -3.275  17.017 -36.537  1.00  0.00    -0.493 OA
ATOM     22  C   UNL     1      -3.888  15.744 -36.361  1.00  0.00     0.278 C 
ENDBRANCH  18  21
BRANCH  20  23
ATOM     23  O   UNL     1      -4.173  18.806 -34.634  1.00  0.00    -0.504 OA
ATOM     24  H   UNL     1      -4.744  18.573 -33.831  1.00  0.00     0.293 HD
ENDBRANCH  20  23
ENDBRANCH  14  15
ENDBRANCH  12  14
ENDBRANCH   9  10
ENDBRANCH   1   9
TORSDOF 10
ENDMDL
MODEL 7
REMARK VINA RESULT:    -6.117      5.173      7.176
REMARK INTER + INTRA:         -10.105
REMARK INTER:                  -7.839
REMARK INTRA:                  -2.266
REMARK UNBOUND:                -0.591
REMARK SMILES COc1cc(CNC(=O)CCCCC=CC(C)C)ccc1O
REMARK SMILES IDX 11 1 12 2 13 3 14 4 15 5 16 6 17 7 18 8 10 9 8 10 9 11 7 12
REMARK SMILES IDX 6 14 5 15 4 16 19 17 3 18 20 19 21 20 2 21 1 22 22 23
REMARK H PARENT 7 13 22 24
REMARK Flexibility Score: inf
ROOT
ATOM      1  C   UNL     1       1.806  24.007 -36.374  1.00  0.00     0.010 C 
ENDROOT
BRANCH   1   2
ATOM      2  C   UNL     1       1.945  22.921 -37.456  1.00  0.00     0.005 C 
BRANCH   2   3
ATOM      3  C   UNL     1       0.931  21.783 -37.271  1.00  0.00     0.027 C 
BRANCH   3   4
ATOM      4  C   UNL     1       1.013  20.775 -38.390  1.00  0.00    -0.031 C 
ATOM      5  C   UNL     1       1.774  19.657 -38.418  1.00  0.00    -0.028 C 
BRANCH   5   6
ATOM      6  C   UNL     1       2.665  19.095 -37.323  1.00  0.00     0.005 C 
ATOM      7  C   UNL     1       4.003  19.836 -37.213  1.00  0.00     0.012 C 
ATOM      8  C   UNL     1       2.840  17.573 -37.392  1.00  0.00     0.012 C 
ENDBRANCH   5   6
ENDBRANCH   3   4
ENDBRANCH   2   3
ENDBRANCH   1   2
BRANCH   1   9
ATOM      9  C   UNL     1       3.140  24.316 -35.682  1.00  0.00     0.100 C 
BRANCH   9  10
ATOM     10  C   UNL     1       3.713  23.102 -35.010  1.00  0.00     0.220 C 
ATOM     11  O   UNL     1       4.912  22.781 -35.231  1.00  0.00    -0.275 OA
ATOM     12  N   UNL     1       2.917  22.343 -34.089  1.00  0.00    -0.352 N 
ATOM     13  H   UNL     1       1.935  22.648 -33.894  1.00  0.00     0.163 HD
BRANCH  12  14
ATOM     14  C   UNL     1       3.449  21.202 -33.347  1.00  0.00     0.151 C 
BRANCH  14  15
ATOM     15  C   UNL     1       2.642  19.964 -33.631  1.00  0.00    -0.025 A 
ATOM     16  C   UNL     1       3.229  18.696 -33.490  1.00  0.00     0.056 A 
ATOM     17  C   UNL     1       1.299  20.062 -34.025  1.00  0.00     0.009 A 
ATOM     18  C   UNL     1       2.483  17.530 -33.743  1.00  0.00     0.160 A 
ATOM     19  C   UNL     1       0.555  18.908 -34.277  1.00  0.00     0.050 A 
ATOM     20  C   UNL     1       1.141  17.644 -34.138  1.00  0.00     0.157 A 
BRANCH  18  21
ATOM     21  O   UNL     1       3.035  16.245 -33.614  1.00  0.00    -0.493 OA
ATOM     22  C   UNL     1       3.636  15.743 -32.424  1.00  0.00     0.278 C 
ENDBRANCH  18  21
BRANCH  20  23
ATOM     23  O   UNL     1       0.397  16.493 -34.392  1.00  0.00    -0.504 OA
ATOM     24  H   UNL     1      -0.526  16.360 -33.997  1.00  0.00     0.293 HD
ENDBRANCH  20  23
ENDBRANCH  14  15
ENDBRANCH  12  14
ENDBRANCH   9  10
ENDBRANCH   1   9
TORSDOF 10
ENDMDL
MODEL 8
REMARK VINA RESULT:    -6.110      3.953      7.838
REMARK INTER + INTRA:         -10.094
REMARK INTER:                  -8.191
REMARK INTRA:                  -1.902
REMARK UNBOUND:                -0.591
REMARK SMILES COc1cc(CNC(=O)CCCCC=CC(C)C)ccc1O
REMARK SMILES IDX 11 1 12 2 13 3 14 4 15 5 16 6 17 7 18 8 10 9 8 10 9 11 7 12
REMARK SMILES IDX 6 14 5 15 4 16 19 17 3 18 20 19 21 20 2 21 1 22 22 23
REMARK H PARENT 7 13 22 24
REMARK Flexibility Score: inf
ROOT
ATOM      1  C   UNL     1       3.517  23.685 -34.859  1.00  0.00     0.010 C 
ENDROOT
BRANCH   1   2
ATOM      2  C   UNL     1       3.701  24.632 -36.058  1.00  0.00     0.005 C 
BRANCH   2   3
ATOM      3  C   UNL     1       2.455  24.688 -36.952  1.00  0.00     0.027 C 
BRANCH   3   4
ATOM      4  C   UNL     1       1.472  23.597 -36.608  1.00  0.00    -0.031 C 
ATOM      5  C   UNL     1       1.275  22.442 -37.286  1.00  0.00    -0.028 C 
BRANCH   5   6
ATOM      6  C   UNL     1       2.030  21.918 -38.496  1.00  0.00     0.005 C 
ATOM      7  C   UNL     1       1.114  21.220 -39.507  1.00  0.00     0.012 C 
ATOM      8  C   UNL     1       3.260  21.075 -38.136  1.00  0.00     0.012 C 
ENDBRANCH   5   6
ENDBRANCH   3   4
ENDBRANCH   2   3
ENDBRANCH   1   2
BRANCH   1   9
ATOM      9  C   UNL     1       4.516  22.521 -34.874  1.00  0.00     0.100 C 
BRANCH   9  10
ATOM     10  C   UNL     1       3.884  21.239 -34.411  1.00  0.00     0.220 C 
ATOM     11  O   UNL     1       4.567  20.179 -34.408  1.00  0.00    -0.275 OA
ATOM     12  N   UNL     1       2.533  21.233 -33.932  1.00  0.00    -0.352 N 
ATOM     13  H   UNL     1       1.996  22.131 -33.909  1.00  0.00     0.163 HD
BRANCH  12  14
ATOM     14  C   UNL     1       1.897  20.032 -33.395  1.00  0.00     0.151 C 
BRANCH  14  15
ATOM     15  C   UNL     1       0.769  19.588 -34.285  1.00  0.00    -0.025 A 
ATOM     16  C   UNL     1      -0.498  19.326 -33.738  1.00  0.00     0.056 A 
ATOM     17  C   UNL     1       0.965  19.441 -35.667  1.00  0.00     0.009 A 
ATOM     18  C   UNL     1      -1.565  18.919 -34.561  1.00  0.00     0.160 A 
ATOM     19  C   UNL     1      -0.090  19.038 -36.488  1.00  0.00     0.050 A 
ATOM     20  C   UNL     1      -1.351  18.776 -35.941  1.00  0.00     0.157 A 
BRANCH  18  21
ATOM     21  O   UNL     1      -2.844  18.648 -34.050  1.00  0.00    -0.493 OA
ATOM     22  C   UNL     1      -3.131  17.629 -33.097  1.00  0.00     0.278 C 
ENDBRANCH  18  21
BRANCH  20  23
ATOM     23  O   UNL     1      -2.402  18.371 -36.762  1.00  0.00    -0.504 OA
ATOM     24  H   UNL     1      -2.289  17.628 -37.441  1.00  0.00     0.293 HD
ENDBRANCH  20  23
ENDBRANCH  14  15
ENDBRANCH  12  14
ENDBRANCH   9  10
ENDBRANCH   1   9
TORSDOF 10
ENDMDL
MODEL 9
REMARK VINA RESULT:    -6.097      4.782      7.227
REMARK INTER + INTRA:         -10.073
REMARK INTER:                  -7.907
REMARK INTRA:                  -2.166
REMARK UNBOUND:                -0.591
REMARK SMILES COc1cc(CNC(=O)CCCCC=CC(C)C)ccc1O
REMARK SMILES IDX 11 1 12 2 13 3 14 4 15 5 16 6 17 7 18 8 10 9 8 10 9 11 7 12
REMARK SMILES IDX 6 14 5 15 4 16 19 17 3 18 20 19 21 20 2 21 1 22 22 23
REMARK H PARENT 7 13 22 24
REMARK Flexibility Score: inf
ROOT
ATOM      1  C   UNL     1       2.069  24.062 -36.363  1.00  0.00     0.010 C 
ENDROOT
BRANCH   1   2
ATOM      2  C   UNL     1       2.526  24.016 -37.832  1.00  0.00     0.005 C 
BRANCH   2   3
ATOM      3  C   UNL     1       2.431  22.604 -38.426  1.00  0.00     0.027 C 
BRANCH   3   4
ATOM      4  C   UNL     1       1.474  21.735 -37.650  1.00  0.00    -0.031 C 
ATOM      5  C   UNL     1       1.620  20.419 -37.370  1.00  0.00    -0.028 C 
BRANCH   5   6
ATOM      6  C   UNL     1       2.797  19.513 -37.688  1.00  0.00     0.005 C 
ATOM      7  C   UNL     1       2.452  18.026 -37.547  1.00  0.00     0.012 C 
ATOM      8  C   UNL     1       4.084  19.891 -36.944  1.00  0.00     0.012 C 
ENDBRANCH   5   6
ENDBRANCH   3   4
ENDBRANCH   2   3
ENDBRANCH   1   2
BRANCH   1   9
ATOM      9  C   UNL     1       3.225  24.365 -35.400  1.00  0.00     0.100 C 
BRANCH   9  10
ATOM     10  C   UNL     1       3.796  23.110 -34.805  1.00  0.00     0.220 C 
ATOM     11  O   UNL     1       5.005  22.820 -35.017  1.00  0.00    -0.275 OA
ATOM     12  N   UNL     1       2.987  22.276 -33.965  1.00  0.00    -0.352 N 
ATOM     13  H   UNL     1       1.996  22.555 -33.773  1.00  0.00     0.163 HD
BRANCH  12  14
ATOM     14  C   UNL     1       3.514  21.090 -33.296  1.00  0.00     0.151 C 
BRANCH  14  15
ATOM     15  C   UNL     1       2.655  19.891 -33.590  1.00  0.00    -0.025 A 
ATOM     16  C   UNL     1       1.289  20.057 -33.869  1.00  0.00     0.056 A 
ATOM     17  C   UNL     1       3.208  18.601 -33.599  1.00  0.00     0.009 A 
ATOM     18  C   UNL     1       0.476  18.943 -34.156  1.00  0.00     0.160 A 
ATOM     19  C   UNL     1       2.406  17.494 -33.883  1.00  0.00     0.050 A 
ATOM     20  C   UNL     1       1.044  17.661 -34.160  1.00  0.00     0.157 A 
BRANCH  18  21
ATOM     21  O   UNL     1      -0.894  19.070 -34.439  1.00  0.00    -0.493 OA
ATOM     22  C   UNL     1      -1.917  19.144 -33.451  1.00  0.00     0.278 C 
ENDBRANCH  18  21
BRANCH  20  23
ATOM     23  O   UNL     1       0.244  16.554 -34.441  1.00  0.00    -0.504 OA
ATOM     24  H   UNL     1      -0.765  16.626 -34.484  1.00  0.00     0.293 HD
ENDBRANCH  20  23
ENDBRANCH  14  15
ENDBRANCH  12  14
ENDBRANCH   9  10
ENDBRANCH   1   9
TORSDOF 10
ENDMDL
