MODEL 1
REMARK VINA RESULT:    -3.112      0.000      0.000
REMARK INTER + INTRA:          -3.750
REMARK INTER:                  -3.658
REMARK INTRA:                  -0.092
REMARK UNBOUND:                -0.092
REMARK SMILES O=C([O-])CCC(=O)[O-]
REMARK SMILES IDX 4 1 2 2 1 3 3 4 5 5 6 6 7 7 8 8
REMARK H PARENT
REMARK Flexibility Score: inf
ROOT
ATOM      1  C   UNL     1       1.370   0.312 -22.330  1.00  0.00     0.059 C 
ENDROOT
BRANCH   1   2
ATOM      2  C   UNL     1       0.235   0.621 -23.258  1.00  0.00     0.042 C 
ATOM      3  O   UNL     1      -0.955   0.506 -22.863  1.00  0.00    -0.550 OA
ATOM      4  O   UNL     1       0.492   1.076 -24.545  1.00  0.00    -0.550 OA
ENDBRANCH   1   2
BRANCH   1   5
ATOM      5  C   UNL     1       2.215  -0.861 -22.841  1.00  0.00     0.059 C 
BRANCH   5   6
ATOM      6  C   UNL     1       1.980  -2.103 -22.038  1.00  0.00     0.042 C 
ATOM      7  O   UNL     1       0.950  -2.208 -21.321  1.00  0.00    -0.550 OA
ATOM      8  O   UNL     1       2.876  -3.162 -22.115  1.00  0.00    -0.550 OA
ENDBRANCH   5   6
ENDBRANCH   1   5
TORSDOF 3
ENDMDL
MODEL 2
REMARK VINA RESULT:    -3.090      0.097      3.779
REMARK INTER + INTRA:          -3.725
REMARK INTER:                  -3.633
REMARK INTRA:                  -0.092
REMARK UNBOUND:                -0.092
REMARK SMILES O=C([O-])CCC(=O)[O-]
REMARK SMILES IDX 4 1 2 2 1 3 3 4 5 5 6 6 7 7 8 8
REMARK H PARENT
REMARK Flexibility Score: inf
ROOT
ATOM      1  C   UNL     1       2.174  -0.767 -22.842  1.00  0.00     0.059 C 
ENDROOT
BRANCH   1   2
ATOM      2  C   UNL     1       1.967  -2.047 -22.091  1.00  0.00     0.042 C 
ATOM      3  O   UNL     1       0.948  -2.199 -21.368  1.00  0.00    -0.550 OA
ATOM      4  O   UNL     1       2.878  -3.087 -22.224  1.00  0.00    -0.550 OA
ENDBRANCH   1   2
BRANCH   1   5
ATOM      5  C   UNL     1       1.267   0.351 -22.314  1.00  0.00     0.059 C 
BRANCH   5   6
ATOM      6  C   UNL     1       0.144   0.646 -23.260  1.00  0.00     0.042 C 
ATOM      7  O   UNL     1      -1.051   0.508 -22.887  1.00  0.00    -0.550 OA
ATOM      8  O   UNL     1       0.415   1.116 -24.539  1.00  0.00    -0.550 OA
ENDBRANCH   5   6
ENDBRANCH   1   5
TORSDOF 3
ENDMDL
MODEL 3
REMARK VINA RESULT:    -3.027      1.960      2.480
REMARK INTER + INTRA:          -3.650
REMARK INTER:                  -3.527
REMARK INTRA:                  -0.123
REMARK UNBOUND:                -0.092
REMARK SMILES O=C([O-])CCC(=O)[O-]
REMARK SMILES IDX 4 1 2 2 1 3 3 4 5 5 6 6 7 7 8 8
REMARK H PARENT
REMARK Flexibility Score: inf
ROOT
ATOM      1  C   UNL     1       1.815   0.372 -23.510  1.00  0.00     0.059 C 
ENDROOT
BRANCH   1   2
ATOM      2  C   UNL     1       3.047   0.377 -24.363  1.00  0.00     0.042 C 
ATOM      3  O   UNL     1       3.293  -0.594 -25.125  1.00  0.00    -0.550 OA
ATOM      4  O   UNL     1       3.901   1.472 -24.346  1.00  0.00    -0.550 OA
ENDBRANCH   1   2
BRANCH   1   5
ATOM      5  C   UNL     1       2.121  -0.076 -22.077  1.00  0.00     0.059 C 
BRANCH   5   6
ATOM      6  C   UNL     1       1.816  -1.529 -21.874  1.00  0.00     0.042 C 
ATOM      7  O   UNL     1       0.703  -1.880 -21.399  1.00  0.00    -0.550 OA
ATOM      8  O   UNL     1       2.741  -2.494 -22.248  1.00  0.00    -0.550 OA
ENDBRANCH   5   6
ENDBRANCH   1   5
TORSDOF 3
ENDMDL
MODEL 4
REMARK VINA RESULT:    -2.936      7.218      8.487
REMARK INTER + INTRA:          -3.543
REMARK INTER:                  -3.515
REMARK INTRA:                  -0.028
REMARK UNBOUND:                -0.092
REMARK SMILES O=C([O-])CCC(=O)[O-]
REMARK SMILES IDX 4 1 2 2 1 3 3 4 5 5 6 6 7 7 8 8
REMARK H PARENT
REMARK Flexibility Score: inf
ROOT
ATOM      1  C   UNL     1      -6.438   2.959 -22.688  1.00  0.00     0.059 C 
ENDROOT
BRANCH   1   2
ATOM      2  C   UNL     1      -7.802   2.598 -23.194  1.00  0.00     0.042 C 
ATOM      3  O   UNL     1      -8.806   3.268 -22.838  1.00  0.00    -0.550 OA
ATOM      4  O   UNL     1      -7.957   1.549 -24.090  1.00  0.00    -0.550 OA
ENDBRANCH   1   2
BRANCH   1   5
ATOM      5  C   UNL     1      -5.929   1.941 -21.660  1.00  0.00     0.059 C 
BRANCH   5   6
ATOM      6  C   UNL     1      -4.885   2.534 -20.765  1.00  0.00     0.042 C 
ATOM      7  O   UNL     1      -3.972   3.255 -21.247  1.00  0.00    -0.550 OA
ATOM      8  O   UNL     1      -4.944   2.326 -19.393  1.00  0.00    -0.550 OA
ENDBRANCH   5   6
ENDBRANCH   1   5
TORSDOF 3
ENDMDL
MODEL 5
REMARK VINA RESULT:    -2.865      5.187      6.859
REMARK INTER + INTRA:          -3.460
REMARK INTER:                  -3.421
REMARK INTRA:                  -0.038
REMARK UNBOUND:                -0.092
REMARK SMILES O=C([O-])CCC(=O)[O-]
REMARK SMILES IDX 4 1 2 2 1 3 3 4 5 5 6 6 7 7 8 8
REMARK H PARENT
REMARK Flexibility Score: inf
ROOT
ATOM      1  C   UNL     1      -3.905   2.521 -21.876  1.00  0.00     0.059 C 
ENDROOT
BRANCH   1   2
ATOM      2  C   UNL     1      -4.871   3.028 -20.848  1.00  0.00     0.042 C 
ATOM      3  O   UNL     1      -5.659   3.968 -21.129  1.00  0.00    -0.550 OA
ATOM      4  O   UNL     1      -4.928   2.434 -19.594  1.00  0.00    -0.550 OA
ENDBRANCH   1   2
BRANCH   1   5
ATOM      5  C   UNL     1      -3.462   3.635 -22.832  1.00  0.00     0.059 C 
BRANCH   5   6
ATOM      6  C   UNL     1      -1.998   3.552 -23.138  1.00  0.00     0.042 C 
ATOM      7  O   UNL     1      -1.419   2.433 -23.162  1.00  0.00    -0.550 OA
ATOM      8  O   UNL     1      -1.283   4.703 -23.438  1.00  0.00    -0.550 OA
ENDBRANCH   5   6
ENDBRANCH   1   5
TORSDOF 3
ENDMDL
MODEL 6
REMARK VINA RESULT:    -2.858      7.015      8.972
REMARK INTER + INTRA:          -3.452
REMARK INTER:                  -3.328
REMARK INTRA:                  -0.124
REMARK UNBOUND:                -0.092
REMARK SMILES O=C([O-])CCC(=O)[O-]
REMARK SMILES IDX 4 1 2 2 1 3 3 4 5 5 6 6 7 7 8 8
REMARK H PARENT
REMARK Flexibility Score: inf
ROOT
ATOM      1  C   UNL     1      -5.694   3.966 -21.348  1.00  0.00     0.059 C 
ENDROOT
BRANCH   1   2
ATOM      2  C   UNL     1      -4.919   2.809 -20.793  1.00  0.00     0.042 C 
ATOM      3  O   UNL     1      -4.950   2.561 -19.560  1.00  0.00    -0.550 OA
ATOM      4  O   UNL     1      -4.197   1.983 -21.644  1.00  0.00    -0.550 OA
ENDBRANCH   1   2
BRANCH   1   5
ATOM      5  C   UNL     1      -6.107   3.722 -22.804  1.00  0.00     0.059 C 
BRANCH   5   6
ATOM      6  C   UNL     1      -7.458   3.081 -22.896  1.00  0.00     0.042 C 
ATOM      7  O   UNL     1      -7.558   1.828 -22.980  1.00  0.00    -0.550 OA
ATOM      8  O   UNL     1      -8.605   3.862 -22.847  1.00  0.00    -0.550 OA
ENDBRANCH   5   6
ENDBRANCH   1   5
TORSDOF 3
ENDMDL
MODEL 7
REMARK VINA RESULT:    -2.851      2.384      5.235
REMARK INTER + INTRA:          -3.443
REMARK INTER:                  -3.411
REMARK INTRA:                  -0.033
REMARK UNBOUND:                -0.092
REMARK SMILES O=C([O-])CCC(=O)[O-]
REMARK SMILES IDX 4 1 2 2 1 3 3 4 5 5 6 6 7 7 8 8
REMARK H PARENT
REMARK Flexibility Score: inf
ROOT
ATOM      1  C   UNL     1       3.523  -3.713 -21.755  1.00  0.00     0.059 C 
ENDROOT
BRANCH   1   2
ATOM      2  C   UNL     1       4.284  -4.854 -22.359  1.00  0.00     0.042 C 
ATOM      3  O   UNL     1       4.291  -5.020 -23.606  1.00  0.00    -0.550 OA
ATOM      4  O   UNL     1       5.018  -5.709 -21.547  1.00  0.00    -0.550 OA
ENDBRANCH   1   2
BRANCH   1   5
ATOM      5  C   UNL     1       2.743  -2.930 -22.816  1.00  0.00     0.059 C 
BRANCH   5   6
ATOM      6  C   UNL     1       2.043  -1.744 -22.226  1.00  0.00     0.042 C 
ATOM      7  O   UNL     1       2.426  -0.578 -22.509  1.00  0.00    -0.550 OA
ATOM      8  O   UNL     1       0.943  -1.925 -21.398  1.00  0.00    -0.550 OA
ENDBRANCH   5   6
ENDBRANCH   1   5
TORSDOF 3
ENDMDL
MODEL 8
REMARK VINA RESULT:    -2.845      5.148      6.906
REMARK INTER + INTRA:          -3.436
REMARK INTER:                  -3.401
REMARK INTRA:                  -0.035
REMARK UNBOUND:                -0.092
REMARK SMILES O=C([O-])CCC(=O)[O-]
REMARK SMILES IDX 4 1 2 2 1 3 3 4 5 5 6 6 7 7 8 8
REMARK H PARENT
REMARK Flexibility Score: inf
ROOT
ATOM      1  C   UNL     1      -3.407   3.673 -22.835  1.00  0.00     0.059 C 
ENDROOT
BRANCH   1   2
ATOM      2  C   UNL     1      -1.950   3.531 -23.159  1.00  0.00     0.042 C 
ATOM      3  O   UNL     1      -1.407   2.396 -23.146  1.00  0.00    -0.550 OA
ATOM      4  O   UNL     1      -1.204   4.647 -23.513  1.00  0.00    -0.550 OA
ENDBRANCH   1   2
BRANCH   1   5
ATOM      5  C   UNL     1      -3.887   2.563 -21.894  1.00  0.00     0.059 C 
BRANCH   5   6
ATOM      6  C   UNL     1      -4.893   3.071 -20.907  1.00  0.00     0.042 C 
ATOM      7  O   UNL     1      -4.920   2.607 -19.736  1.00  0.00    -0.550 OA
ATOM      8  O   UNL     1      -5.770   4.086 -21.265  1.00  0.00    -0.550 OA
ENDBRANCH   5   6
ENDBRANCH   1   5
TORSDOF 3
ENDMDL
MODEL 9
REMARK VINA RESULT:    -2.755      7.539      9.215
REMARK INTER + INTRA:          -3.331
REMARK INTER:                  -3.274
REMARK INTRA:                  -0.057
REMARK UNBOUND:                -0.092
REMARK SMILES O=C([O-])CCC(=O)[O-]
REMARK SMILES IDX 4 1 2 2 1 3 3 4 5 5 6 6 7 7 8 8
REMARK H PARENT
REMARK Flexibility Score: inf
ROOT
ATOM      1  C   UNL     1      -6.450   4.936 -22.087  1.00  0.00     0.059 C 
ENDROOT
BRANCH   1   2
ATOM      2  C   UNL     1      -7.928   5.182 -22.118  1.00  0.00     0.042 C 
ATOM      3  O   UNL     1      -8.396   6.277 -21.711  1.00  0.00    -0.550 OA
ATOM      4  O   UNL     1      -8.784   4.216 -22.633  1.00  0.00    -0.550 OA
ENDBRANCH   1   2
BRANCH   1   5
ATOM      5  C   UNL     1      -6.098   3.544 -22.625  1.00  0.00     0.059 C 
BRANCH   5   6
ATOM      6  C   UNL     1      -5.376   2.722 -21.602  1.00  0.00     0.042 C 
ATOM      7  O   UNL     1      -5.744   1.541 -21.365  1.00  0.00    -0.550 OA
ATOM      8  O   UNL     1      -4.271   3.244 -20.941  1.00  0.00    -0.550 OA
ENDBRANCH   5   6
ENDBRANCH   1   5
TORSDOF 3
ENDMDL
