MODEL 1
REMARK VINA RESULT:    -4.991      0.000      0.000
REMARK INTER + INTRA:         -17.580
REMARK INTER:                 -13.160
REMARK INTRA:                  -4.419
REMARK UNBOUND:                -4.419
REMARK SMILES CCCCCCCCCCCCCCCCCCCCCCCCCCCCCC(=O)[O-]
REMARK SMILES IDX 16 1 17 2 18 3 19 4 20 5 21 6 22 7 23 8 24 9 25 10 26 11
REMARK SMILES IDX 27 12 28 13 29 14 30 15 31 16 32 17 15 18 14 19 13 20 12 21
REMARK SMILES IDX 11 22 10 23 9 24 8 25 7 26 6 27 5 28 4 29 3 30 2 31 1 32
REMARK H PARENT
REMARK Flexibility Score: inf
ROOT
ATOM      1  C   UNL     1      -7.243   0.341  -8.646  1.00  0.00     0.000 C 
ENDROOT
BRANCH   1   2
ATOM      2  C   UNL     1      -6.979   1.728  -9.264  1.00  0.00     0.000 C 
BRANCH   2   3
ATOM      3  C   UNL     1      -5.498   2.080  -9.504  1.00  0.00     0.000 C 
BRANCH   3   4
ATOM      4  C   UNL     1      -5.094   2.238 -10.982  1.00  0.00     0.000 C 
BRANCH   4   5
ATOM      5  C   UNL     1      -3.690   1.690 -11.287  1.00  0.00     0.000 C 
BRANCH   5   6
ATOM      6  C   UNL     1      -3.349   0.415 -10.489  1.00  0.00     0.000 C 
BRANCH   6   7
ATOM      7  C   UNL     1      -2.846  -0.784 -11.324  1.00  0.00     0.000 C 
BRANCH   7   8
ATOM      8  C   UNL     1      -3.947  -1.581 -12.058  1.00  0.00     0.000 C 
BRANCH   8   9
ATOM      9  C   UNL     1      -3.894  -3.099 -11.821  1.00  0.00     0.000 C 
BRANCH   9  10
ATOM     10  C   UNL     1      -4.431  -3.536 -10.443  1.00  0.00     0.000 C 
BRANCH  10  11
ATOM     11  C   UNL     1      -4.970  -4.977 -10.465  1.00  0.00     0.000 C 
BRANCH  11  12
ATOM     12  C   UNL     1      -6.364  -5.099  -9.828  1.00  0.00     0.000 C 
BRANCH  12  13
ATOM     13  C   UNL     1      -6.605  -6.477  -9.196  1.00  0.00     0.006 C 
BRANCH  13  14
ATOM     14  C   UNL     1      -7.516  -6.365  -7.968  1.00  0.00     0.053 C 
BRANCH  14  15
ATOM     15  C   UNL     1      -6.949  -7.123  -6.807  1.00  0.00     0.041 C 
ATOM     16  O   UNL     1      -6.176  -8.097  -7.004  1.00  0.00    -0.550 OA
ATOM     17  O   UNL     1      -7.310  -6.785  -5.508  1.00  0.00    -0.550 OA
ENDBRANCH  14  15
ENDBRANCH  13  14
ENDBRANCH  12  13
ENDBRANCH  11  12
ENDBRANCH  10  11
ENDBRANCH   9  10
ENDBRANCH   8   9
ENDBRANCH   7   8
ENDBRANCH   6   7
ENDBRANCH   5   6
ENDBRANCH   4   5
ENDBRANCH   3   4
ENDBRANCH   2   3
ENDBRANCH   1   2
BRANCH   1  18
ATOM     18  C   UNL     1      -6.713  -0.842  -9.485  1.00  0.00     0.000 C 
BRANCH  18  19
ATOM     19  C   UNL     1      -7.138  -0.765 -10.963  1.00  0.00     0.000 C 
BRANCH  19  20
ATOM     20  C   UNL     1      -7.601  -2.126 -11.510  1.00  0.00     0.000 C 
BRANCH  20  21
ATOM     21  C   UNL     1      -8.504  -1.982 -12.744  1.00  0.00     0.000 C 
BRANCH  21  22
ATOM     22  C   UNL     1      -8.304  -3.157 -13.713  1.00  0.00     0.000 C 
BRANCH  22  23
ATOM     23  C   UNL     1      -6.823  -3.538 -13.878  1.00  0.00     0.000 C 
BRANCH  23  24
ATOM     24  C   UNL     1      -6.617  -5.057 -13.994  1.00  0.00    -0.000 C 
BRANCH  24  25
ATOM     25  C   UNL     1      -7.631  -5.865 -13.166  1.00  0.00    -0.000 C 
BRANCH  25  26
ATOM     26  C   UNL     1      -8.260  -7.047 -13.934  1.00  0.00    -0.000 C 
BRANCH  26  27
ATOM     27  C   UNL     1      -8.680  -6.653 -15.361  1.00  0.00    -0.000 C 
BRANCH  27  28
ATOM     28  C   UNL     1      -9.990  -5.852 -15.394  1.00  0.00    -0.000 C 
BRANCH  28  29
ATOM     29  C   UNL     1     -10.951  -6.240 -14.260  1.00  0.00    -0.000 C 
BRANCH  29  30
ATOM     30  C   UNL     1     -12.049  -5.181 -14.083  1.00  0.00    -0.000 C 
BRANCH  30  31
ATOM     31  C   UNL     1     -12.370  -4.437 -15.388  1.00  0.00    -0.003 C 
ATOM     32  C   UNL     1     -13.676  -3.645 -15.311  1.00  0.00     0.004 C 
ENDBRANCH  30  31
ENDBRANCH  29  30
ENDBRANCH  28  29
ENDBRANCH  27  28
ENDBRANCH  26  27
ENDBRANCH  25  26
ENDBRANCH  24  25
ENDBRANCH  23  24
ENDBRANCH  22  23
ENDBRANCH  21  22
ENDBRANCH  20  21
ENDBRANCH  19  20
ENDBRANCH  18  19
ENDBRANCH   1  18
TORSDOF 28
ENDMDL
MODEL 2
REMARK VINA RESULT:    -4.911      3.893      8.976
REMARK INTER + INTRA:         -17.368
REMARK INTER:                 -12.681
REMARK INTRA:                  -4.687
REMARK UNBOUND:                -4.419
REMARK SMILES CCCCCCCCCCCCCCCCCCCCCCCCCCCCCC(=O)[O-]
REMARK SMILES IDX 16 1 17 2 18 3 19 4 20 5 21 6 22 7 23 8 24 9 25 10 26 11
REMARK SMILES IDX 27 12 28 13 29 14 30 15 31 16 32 17 15 18 14 19 13 20 12 21
REMARK SMILES IDX 11 22 10 23 9 24 8 25 7 26 6 27 5 28 4 29 3 30 2 31 1 32
REMARK H PARENT
REMARK Flexibility Score: inf
ROOT
ATOM      1  C   UNL     1     -10.554  -4.303 -15.178  1.00  0.00     0.000 C 
ENDROOT
BRANCH   1   2
ATOM      2  C   UNL     1     -11.002  -5.754 -15.442  1.00  0.00     0.000 C 
BRANCH   2   3
ATOM      3  C   UNL     1     -10.804  -6.736 -14.271  1.00  0.00     0.000 C 
BRANCH   3   4
ATOM      4  C   UNL     1      -9.338  -7.003 -13.881  1.00  0.00     0.000 C 
BRANCH   4   5
ATOM      5  C   UNL     1      -8.448  -7.361 -15.083  1.00  0.00     0.000 C 
BRANCH   5   6
ATOM      6  C   UNL     1      -6.962  -7.007 -14.866  1.00  0.00     0.000 C 
BRANCH   6   7
ATOM      7  C   UNL     1      -6.546  -6.730 -13.404  1.00  0.00     0.000 C 
BRANCH   7   8
ATOM      8  C   UNL     1      -5.541  -5.572 -13.215  1.00  0.00     0.000 C 
BRANCH   8   9
ATOM      9  C   UNL     1      -4.231  -5.736 -14.003  1.00  0.00     0.000 C 
BRANCH   9  10
ATOM     10  C   UNL     1      -3.755  -4.446 -14.703  1.00  0.00     0.000 C 
BRANCH  10  11
ATOM     11  C   UNL     1      -4.543  -3.211 -14.232  1.00  0.00     0.000 C 
BRANCH  11  12
ATOM     12  C   UNL     1      -4.529  -2.070 -15.261  1.00  0.00     0.000 C 
BRANCH  12  13
ATOM     13  C   UNL     1      -4.035  -2.527 -16.642  1.00  0.00     0.006 C 
BRANCH  13  14
ATOM     14  C   UNL     1      -3.301  -1.392 -17.365  1.00  0.00     0.053 C 
BRANCH  14  15
ATOM     15  C   UNL     1      -1.868  -1.318 -16.932  1.00  0.00     0.041 C 
ATOM     16  O   UNL     1      -1.323  -2.309 -16.378  1.00  0.00    -0.550 OA
ATOM     17  O   UNL     1      -1.148  -0.141 -17.097  1.00  0.00    -0.550 OA
ENDBRANCH  14  15
ENDBRANCH  13  14
ENDBRANCH  12  13
ENDBRANCH  11  12
ENDBRANCH  10  11
ENDBRANCH   9  10
ENDBRANCH   8   9
ENDBRANCH   7   8
ENDBRANCH   6   7
ENDBRANCH   5   6
ENDBRANCH   4   5
ENDBRANCH   3   4
ENDBRANCH   2   3
ENDBRANCH   1   2
BRANCH   1  18
ATOM     18  C   UNL     1      -9.316  -3.861 -15.988  1.00  0.00     0.000 C 
BRANCH  18  19
ATOM     19  C   UNL     1      -8.097  -3.556 -15.099  1.00  0.00     0.000 C 
BRANCH  19  20
ATOM     20  C   UNL     1      -8.460  -3.508 -13.605  1.00  0.00     0.000 C 
BRANCH  20  21
ATOM     21  C   UNL     1      -8.060  -2.177 -12.951  1.00  0.00     0.000 C 
BRANCH  21  22
ATOM     22  C   UNL     1      -7.140  -2.412 -11.743  1.00  0.00     0.000 C 
BRANCH  22  23
ATOM     23  C   UNL     1      -6.774  -1.105 -11.019  1.00  0.00     0.000 C 
BRANCH  23  24
ATOM     24  C   UNL     1      -5.829  -1.338  -9.828  1.00  0.00    -0.000 C 
BRANCH  24  25
ATOM     25  C   UNL     1      -5.950  -0.253  -8.745  1.00  0.00    -0.000 C 
BRANCH  25  26
ATOM     26  C   UNL     1      -7.340   0.415  -8.686  1.00  0.00    -0.000 C 
BRANCH  26  27
ATOM     27  C   UNL     1      -7.285   1.904  -9.068  1.00  0.00    -0.000 C 
BRANCH  27  28
ATOM     28  C   UNL     1      -5.889   2.346  -9.533  1.00  0.00    -0.000 C 
BRANCH  28  29
ATOM     29  C   UNL     1      -5.799   2.519 -11.057  1.00  0.00    -0.000 C 
BRANCH  29  30
ATOM     30  C   UNL     1      -4.414   2.104 -11.576  1.00  0.00    -0.000 C 
BRANCH  30  31
ATOM     31  C   UNL     1      -3.416   1.826 -10.442  1.00  0.00    -0.003 C 
ATOM     32  C   UNL     1      -2.643   0.522 -10.641  1.00  0.00     0.004 C 
ENDBRANCH  30  31
ENDBRANCH  29  30
ENDBRANCH  28  29
ENDBRANCH  27  28
ENDBRANCH  26  27
ENDBRANCH  25  26
ENDBRANCH  24  25
ENDBRANCH  23  24
ENDBRANCH  22  23
ENDBRANCH  21  22
ENDBRANCH  20  21
ENDBRANCH  19  20
ENDBRANCH  18  19
ENDBRANCH   1  18
TORSDOF 28
ENDMDL
MODEL 3
REMARK VINA RESULT:    -4.845      4.296      8.981
REMARK INTER + INTRA:         -17.196
REMARK INTER:                 -13.507
REMARK INTRA:                  -3.690
REMARK UNBOUND:                -4.419
REMARK SMILES CCCCCCCCCCCCCCCCCCCCCCCCCCCCCC(=O)[O-]
REMARK SMILES IDX 16 1 17 2 18 3 19 4 20 5 21 6 22 7 23 8 24 9 25 10 26 11
REMARK SMILES IDX 27 12 28 13 29 14 30 15 31 16 32 17 15 18 14 19 13 20 12 21
REMARK SMILES IDX 11 22 10 23 9 24 8 25 7 26 6 27 5 28 4 29 3 30 2 31 1 32
REMARK H PARENT
REMARK Flexibility Score: inf
ROOT
ATOM      1  C   UNL     1     -10.172  -8.363 -13.902  1.00  0.00     0.000 C 
ENDROOT
BRANCH   1   2
ATOM      2  C   UNL     1     -10.706  -7.254 -14.830  1.00  0.00     0.000 C 
BRANCH   2   3
ATOM      3  C   UNL     1     -11.406  -6.075 -14.126  1.00  0.00     0.000 C 
BRANCH   3   4
ATOM      4  C   UNL     1     -11.783  -4.896 -15.042  1.00  0.00     0.000 C 
BRANCH   4   5
ATOM      5  C   UNL     1     -10.983  -4.872 -16.355  1.00  0.00     0.000 C 
BRANCH   5   6
ATOM      6  C   UNL     1      -9.885  -3.788 -16.377  1.00  0.00     0.000 C 
BRANCH   6   7
ATOM      7  C   UNL     1      -8.640  -4.077 -15.509  1.00  0.00     0.000 C 
BRANCH   7   8
ATOM      8  C   UNL     1      -8.570  -3.293 -14.179  1.00  0.00     0.000 C 
BRANCH   8   9
ATOM      9  C   UNL     1      -7.148  -3.116 -13.623  1.00  0.00     0.000 C 
BRANCH   9  10
ATOM     10  C   UNL     1      -6.033  -3.402 -14.650  1.00  0.00     0.000 C 
BRANCH  10  11
ATOM     11  C   UNL     1      -5.200  -2.146 -14.960  1.00  0.00     0.000 C 
BRANCH  11  12
ATOM     12  C   UNL     1      -3.890  -2.469 -15.696  1.00  0.00     0.000 C 
BRANCH  12  13
ATOM     13  C   UNL     1      -3.786  -1.762 -17.055  1.00  0.00     0.006 C 
BRANCH  13  14
ATOM     14  C   UNL     1      -2.345  -1.318 -17.334  1.00  0.00     0.053 C 
BRANCH  14  15
ATOM     15  C   UNL     1      -1.901  -1.757 -18.695  1.00  0.00     0.041 C 
ATOM     16  O   UNL     1      -0.691  -2.032 -18.908  1.00  0.00    -0.550 OA
ATOM     17  O   UNL     1      -2.813  -1.817 -19.742  1.00  0.00    -0.550 OA
ENDBRANCH  14  15
ENDBRANCH  13  14
ENDBRANCH  12  13
ENDBRANCH  11  12
ENDBRANCH  10  11
ENDBRANCH   9  10
ENDBRANCH   8   9
ENDBRANCH   7   8
ENDBRANCH   6   7
ENDBRANCH   5   6
ENDBRANCH   4   5
ENDBRANCH   3   4
ENDBRANCH   2   3
ENDBRANCH   1   2
BRANCH   1  18
ATOM     18  C   UNL     1      -8.635  -8.398 -13.770  1.00  0.00     0.000 C 
BRANCH  18  19
ATOM     19  C   UNL     1      -8.042  -7.052 -13.316  1.00  0.00     0.000 C 
BRANCH  19  20
ATOM     20  C   UNL     1      -6.505  -7.041 -13.375  1.00  0.00     0.000 C 
BRANCH  20  21
ATOM     21  C   UNL     1      -5.883  -6.260 -12.207  1.00  0.00     0.000 C 
BRANCH  21  22
ATOM     22  C   UNL     1      -6.503  -6.685 -10.868  1.00  0.00     0.000 C 
BRANCH  22  23
ATOM     23  C   UNL     1      -6.983  -5.485 -10.034  1.00  0.00     0.000 C 
BRANCH  23  24
ATOM     24  C   UNL     1      -6.259  -4.182 -10.410  1.00  0.00    -0.000 C 
BRANCH  24  25
ATOM     25  C   UNL     1      -5.182  -3.779  -9.388  1.00  0.00    -0.000 C 
BRANCH  25  26
ATOM     26  C   UNL     1      -4.391  -2.514  -9.786  1.00  0.00    -0.000 C 
BRANCH  26  27
ATOM     27  C   UNL     1      -4.893  -1.909 -11.109  1.00  0.00    -0.000 C 
BRANCH  27  28
ATOM     28  C   UNL     1      -5.349  -0.449 -10.958  1.00  0.00    -0.000 C 
BRANCH  28  29
ATOM     29  C   UNL     1      -6.807  -0.330 -10.490  1.00  0.00    -0.000 C 
BRANCH  29  30
ATOM     30  C   UNL     1      -6.972   0.826  -9.492  1.00  0.00    -0.000 C 
BRANCH  30  31
ATOM     31  C   UNL     1      -6.128   2.054  -9.866  1.00  0.00    -0.003 C 
ATOM     32  C   UNL     1      -6.703   2.827 -11.054  1.00  0.00     0.004 C 
ENDBRANCH  30  31
ENDBRANCH  29  30
ENDBRANCH  28  29
ENDBRANCH  27  28
ENDBRANCH  26  27
ENDBRANCH  25  26
ENDBRANCH  24  25
ENDBRANCH  23  24
ENDBRANCH  22  23
ENDBRANCH  21  22
ENDBRANCH  20  21
ENDBRANCH  19  20
ENDBRANCH  18  19
ENDBRANCH   1  18
TORSDOF 28
ENDMDL
MODEL 4
REMARK VINA RESULT:    -4.834      4.063      7.572
REMARK INTER + INTRA:         -17.166
REMARK INTER:                 -12.255
REMARK INTRA:                  -4.910
REMARK UNBOUND:                -4.419
REMARK SMILES CCCCCCCCCCCCCCCCCCCCCCCCCCCCCC(=O)[O-]
REMARK SMILES IDX 16 1 17 2 18 3 19 4 20 5 21 6 22 7 23 8 24 9 25 10 26 11
REMARK SMILES IDX 27 12 28 13 29 14 30 15 31 16 32 17 15 18 14 19 13 20 12 21
REMARK SMILES IDX 11 22 10 23 9 24 8 25 7 26 6 27 5 28 4 29 3 30 2 31 1 32
REMARK H PARENT
REMARK Flexibility Score: inf
ROOT
ATOM      1  C   UNL     1      -1.001  -0.394 -17.015  1.00  0.00     0.000 C 
ENDROOT
BRANCH   1   2
ATOM      2  C   UNL     1      -1.188  -1.231 -18.296  1.00  0.00     0.000 C 
BRANCH   2   3
ATOM      3  C   UNL     1      -2.610  -1.775 -18.536  1.00  0.00     0.000 C 
BRANCH   3   4
ATOM      4  C   UNL     1      -3.634  -1.437 -17.435  1.00  0.00     0.000 C 
BRANCH   4   5
ATOM      5  C   UNL     1      -3.833  -2.579 -16.424  1.00  0.00     0.000 C 
BRANCH   5   6
ATOM      6  C   UNL     1      -4.757  -2.196 -15.250  1.00  0.00     0.000 C 
BRANCH   6   7
ATOM      7  C   UNL     1      -5.780  -3.272 -14.824  1.00  0.00     0.000 C 
BRANCH   7   8
ATOM      8  C   UNL     1      -7.068  -2.730 -14.164  1.00  0.00     0.000 C 
BRANCH   8   9
ATOM      9  C   UNL     1      -8.272  -3.683 -14.248  1.00  0.00     0.000 C 
BRANCH   9  10
ATOM     10  C   UNL     1      -7.886  -5.175 -14.319  1.00  0.00     0.000 C 
BRANCH  10  11
ATOM     11  C   UNL     1      -8.938  -6.074 -13.648  1.00  0.00     0.000 C 
BRANCH  11  12
ATOM     12  C   UNL     1      -9.562  -7.086 -14.623  1.00  0.00     0.000 C 
BRANCH  12  13
ATOM     13  C   UNL     1     -11.020  -6.750 -14.970  1.00  0.00     0.006 C 
BRANCH  13  14
ATOM     14  C   UNL     1     -11.531  -5.583 -14.119  1.00  0.00     0.053 C 
BRANCH  14  15
ATOM     15  C   UNL     1     -12.169  -4.532 -14.975  1.00  0.00     0.041 C 
ATOM     16  O   UNL     1     -13.411  -4.331 -14.910  1.00  0.00    -0.550 OA
ATOM     17  O   UNL     1     -11.403  -3.806 -15.878  1.00  0.00    -0.550 OA
ENDBRANCH  14  15
ENDBRANCH  13  14
ENDBRANCH  12  13
ENDBRANCH  11  12
ENDBRANCH  10  11
ENDBRANCH   9  10
ENDBRANCH   8   9
ENDBRANCH   7   8
ENDBRANCH   6   7
ENDBRANCH   5   6
ENDBRANCH   4   5
ENDBRANCH   3   4
ENDBRANCH   2   3
ENDBRANCH   1   2
BRANCH   1  18
ATOM     18  C   UNL     1      -0.010  -0.999 -15.998  1.00  0.00     0.000 C 
BRANCH  18  19
ATOM     19  C   UNL     1      -0.613  -1.146 -14.590  1.00  0.00     0.000 C 
BRANCH  19  20
ATOM     20  C   UNL     1      -1.062  -2.587 -14.293  1.00  0.00     0.000 C 
BRANCH  20  21
ATOM     21  C   UNL     1      -1.609  -2.746 -12.867  1.00  0.00     0.000 C 
BRANCH  21  22
ATOM     22  C   UNL     1      -2.694  -3.832 -12.811  1.00  0.00     0.000 C 
BRANCH  22  23
ATOM     23  C   UNL     1      -2.866  -4.420 -11.400  1.00  0.00     0.000 C 
BRANCH  23  24
ATOM     24  C   UNL     1      -3.651  -5.742 -11.407  1.00  0.00    -0.000 C 
BRANCH  24  25
ATOM     25  C   UNL     1      -5.066  -5.596 -11.994  1.00  0.00    -0.000 C 
BRANCH  25  26
ATOM     26  C   UNL     1      -6.191  -5.739 -10.946  1.00  0.00    -0.000 C 
BRANCH  26  27
ATOM     27  C   UNL     1      -7.063  -4.475 -10.855  1.00  0.00    -0.000 C 
BRANCH  27  28
ATOM     28  C   UNL     1      -6.248  -3.214 -10.527  1.00  0.00    -0.000 C 
BRANCH  28  29
ATOM     29  C   UNL     1      -7.060  -1.922 -10.703  1.00  0.00    -0.000 C 
BRANCH  29  30
ATOM     30  C   UNL     1      -6.133  -0.712 -10.890  1.00  0.00    -0.000 C 
BRANCH  30  31
ATOM     31  C   UNL     1      -4.773  -1.096 -11.492  1.00  0.00    -0.003 C 
ATOM     32  C   UNL     1      -3.763   0.052 -11.450  1.00  0.00     0.004 C 
ENDBRANCH  30  31
ENDBRANCH  29  30
ENDBRANCH  28  29
ENDBRANCH  27  28
ENDBRANCH  26  27
ENDBRANCH  25  26
ENDBRANCH  24  25
ENDBRANCH  23  24
ENDBRANCH  22  23
ENDBRANCH  21  22
ENDBRANCH  20  21
ENDBRANCH  19  20
ENDBRANCH  18  19
ENDBRANCH   1  18
TORSDOF 28
ENDMDL
MODEL 5
REMARK VINA RESULT:    -4.785      3.708      6.357
REMARK INTER + INTRA:         -17.038
REMARK INTER:                 -12.882
REMARK INTRA:                  -4.156
REMARK UNBOUND:                -4.419
REMARK SMILES CCCCCCCCCCCCCCCCCCCCCCCCCCCCCC(=O)[O-]
REMARK SMILES IDX 16 1 17 2 18 3 19 4 20 5 21 6 22 7 23 8 24 9 25 10 26 11
REMARK SMILES IDX 27 12 28 13 29 14 30 15 31 16 32 17 15 18 14 19 13 20 12 21
REMARK SMILES IDX 11 22 10 23 9 24 8 25 7 26 6 27 5 28 4 29 3 30 2 31 1 32
REMARK H PARENT
REMARK Flexibility Score: inf
ROOT
ATOM      1  C   UNL     1      -3.997  -2.609 -16.343  1.00  0.00     0.000 C 
ENDROOT
BRANCH   1   2
ATOM      2  C   UNL     1      -3.619  -1.424 -17.254  1.00  0.00     0.000 C 
BRANCH   2   3
ATOM      3  C   UNL     1      -2.542  -1.717 -18.317  1.00  0.00     0.000 C 
BRANCH   3   4
ATOM      4  C   UNL     1      -1.163  -1.088 -18.041  1.00  0.00     0.000 C 
BRANCH   4   5
ATOM      5  C   UNL     1      -0.965  -0.688 -16.570  1.00  0.00     0.000 C 
BRANCH   5   6
ATOM      6  C   UNL     1      -0.290  -1.789 -15.725  1.00  0.00     0.000 C 
BRANCH   6   7
ATOM      7  C   UNL     1      -0.333  -1.581 -14.195  1.00  0.00     0.000 C 
BRANCH   7   8
ATOM      8  C   UNL     1      -0.290  -0.108 -13.731  1.00  0.00     0.000 C 
BRANCH   8   9
ATOM      9  C   UNL     1      -0.741   0.111 -12.277  1.00  0.00     0.000 C 
BRANCH   9  10
ATOM     10  C   UNL     1      -1.176   1.558 -11.967  1.00  0.00     0.000 C 
BRANCH  10  11
ATOM     11  C   UNL     1      -2.154   1.624 -10.781  1.00  0.00     0.000 C 
BRANCH  11  12
ATOM     12  C   UNL     1      -3.564   2.073 -11.199  1.00  0.00     0.000 C 
BRANCH  12  13
ATOM     13  C   UNL     1      -4.613   1.818 -10.107  1.00  0.00     0.006 C 
BRANCH  13  14
ATOM     14  C   UNL     1      -6.028   1.821 -10.695  1.00  0.00     0.053 C 
BRANCH  14  15
ATOM     15  C   UNL     1      -7.056   2.014  -9.623  1.00  0.00     0.041 C 
ATOM     16  O   UNL     1      -7.551   3.154  -9.419  1.00  0.00    -0.550 OA
ATOM     17  O   UNL     1      -7.434   0.947  -8.817  1.00  0.00    -0.550 OA
ENDBRANCH  14  15
ENDBRANCH  13  14
ENDBRANCH  12  13
ENDBRANCH  11  12
ENDBRANCH  10  11
ENDBRANCH   9  10
ENDBRANCH   8   9
ENDBRANCH   7   8
ENDBRANCH   6   7
ENDBRANCH   5   6
ENDBRANCH   4   5
ENDBRANCH   3   4
ENDBRANCH   2   3
ENDBRANCH   1   2
BRANCH   1  18
ATOM     18  C   UNL     1      -4.713  -2.205 -15.037  1.00  0.00     0.000 C 
BRANCH  18  19
ATOM     19  C   UNL     1      -3.800  -2.296 -13.801  1.00  0.00     0.000 C 
BRANCH  19  20
ATOM     20  C   UNL     1      -4.211  -1.308 -12.696  1.00  0.00     0.000 C 
BRANCH  20  21
ATOM     21  C   UNL     1      -3.767  -1.773 -11.302  1.00  0.00     0.000 C 
BRANCH  21  22
ATOM     22  C   UNL     1      -4.905  -2.509 -10.578  1.00  0.00     0.000 C 
BRANCH  22  23
ATOM     23  C   UNL     1      -6.255  -1.783 -10.714  1.00  0.00     0.000 C 
BRANCH  23  24
ATOM     24  C   UNL     1      -7.367  -2.706 -11.238  1.00  0.00    -0.000 C 
BRANCH  24  25
ATOM     25  C   UNL     1      -8.178  -2.077 -12.384  1.00  0.00    -0.000 C 
BRANCH  25  26
ATOM     26  C   UNL     1      -7.734  -2.540 -13.787  1.00  0.00    -0.000 C 
BRANCH  26  27
ATOM     27  C   UNL     1      -7.696  -4.074 -13.906  1.00  0.00    -0.000 C 
BRANCH  27  28
ATOM     28  C   UNL     1      -7.519  -4.552 -15.356  1.00  0.00    -0.000 C 
BRANCH  28  29
ATOM     29  C   UNL     1      -8.756  -5.290 -15.891  1.00  0.00    -0.000 C 
BRANCH  29  30
ATOM     30  C   UNL     1      -9.929  -5.184 -14.905  1.00  0.00    -0.000 C 
BRANCH  30  31
ATOM     31  C   UNL     1     -10.902  -4.051 -15.264  1.00  0.00    -0.003 C 
ATOM     32  C   UNL     1     -12.318  -4.556 -15.544  1.00  0.00     0.004 C 
ENDBRANCH  30  31
ENDBRANCH  29  30
ENDBRANCH  28  29
ENDBRANCH  27  28
ENDBRANCH  26  27
ENDBRANCH  25  26
ENDBRANCH  24  25
ENDBRANCH  23  24
ENDBRANCH  22  23
ENDBRANCH  21  22
ENDBRANCH  20  21
ENDBRANCH  19  20
ENDBRANCH  18  19
ENDBRANCH   1  18
TORSDOF 28
ENDMDL
MODEL 6
REMARK VINA RESULT:    -4.750      2.939      7.492
REMARK INTER + INTRA:         -16.945
REMARK INTER:                 -12.083
REMARK INTRA:                  -4.862
REMARK UNBOUND:                -4.419
REMARK SMILES CCCCCCCCCCCCCCCCCCCCCCCCCCCCCC(=O)[O-]
REMARK SMILES IDX 16 1 17 2 18 3 19 4 20 5 21 6 22 7 23 8 24 9 25 10 26 11
REMARK SMILES IDX 27 12 28 13 29 14 30 15 31 16 32 17 15 18 14 19 13 20 12 21
REMARK SMILES IDX 11 22 10 23 9 24 8 25 7 26 6 27 5 28 4 29 3 30 2 31 1 32
REMARK H PARENT
REMARK Flexibility Score: inf
ROOT
ATOM      1  C   UNL     1      -5.618  -2.880 -10.217  1.00  0.00     0.000 C 
ENDROOT
BRANCH   1   2
ATOM      2  C   UNL     1      -5.766  -4.411 -10.311  1.00  0.00     0.000 C 
BRANCH   2   3
ATOM      3  C   UNL     1      -7.195  -4.928 -10.572  1.00  0.00     0.000 C 
BRANCH   3   4
ATOM      4  C   UNL     1      -7.356  -5.796 -11.834  1.00  0.00     0.000 C 
BRANCH   4   5
ATOM      5  C   UNL     1      -6.236  -5.579 -12.864  1.00  0.00     0.000 C 
BRANCH   5   6
ATOM      6  C   UNL     1      -6.728  -4.914 -14.166  1.00  0.00     0.000 C 
BRANCH   6   7
ATOM      7  C   UNL     1      -8.098  -4.203 -14.079  1.00  0.00     0.000 C 
BRANCH   7   8
ATOM      8  C   UNL     1      -8.669  -3.711 -15.427  1.00  0.00     0.000 C 
BRANCH   8   9
ATOM      9  C   UNL     1     -10.191  -3.884 -15.570  1.00  0.00     0.000 C 
BRANCH   9  10
ATOM     10  C   UNL     1     -10.818  -4.812 -14.509  1.00  0.00     0.000 C 
BRANCH  10  11
ATOM     11  C   UNL     1     -10.862  -6.276 -14.979  1.00  0.00     0.000 C 
BRANCH  11  12
ATOM     12  C   UNL     1     -10.309  -7.253 -13.929  1.00  0.00     0.000 C 
BRANCH  12  13
ATOM     13  C   UNL     1      -9.119  -8.071 -14.452  1.00  0.00     0.006 C 
BRANCH  13  14
ATOM     14  C   UNL     1      -8.714  -7.613 -15.858  1.00  0.00     0.053 C 
BRANCH  14  15
ATOM     15  C   UNL     1      -7.450  -8.285 -16.299  1.00  0.00     0.041 C 
ATOM     16  O   UNL     1      -7.498  -9.395 -16.892  1.00  0.00    -0.550 OA
ATOM     17  O   UNL     1      -6.217  -7.711 -16.015  1.00  0.00    -0.550 OA
ENDBRANCH  14  15
ENDBRANCH  13  14
ENDBRANCH  12  13
ENDBRANCH  11  12
ENDBRANCH  10  11
ENDBRANCH   9  10
ENDBRANCH   8   9
ENDBRANCH   7   8
ENDBRANCH   6   7
ENDBRANCH   5   6
ENDBRANCH   4   5
ENDBRANCH   3   4
ENDBRANCH   2   3
ENDBRANCH   1   2
BRANCH   1  18
ATOM     18  C   UNL     1      -6.496  -2.092 -11.214  1.00  0.00     0.000 C 
BRANCH  18  19
ATOM     19  C   UNL     1      -7.224  -0.904 -10.561  1.00  0.00     0.000 C 
BRANCH  19  20
ATOM     20  C   UNL     1      -6.565  -0.468  -9.241  1.00  0.00     0.000 C 
BRANCH  20  21
ATOM     21  C   UNL     1      -6.963   0.959  -8.835  1.00  0.00     0.000 C 
BRANCH  21  22
ATOM     22  C   UNL     1      -6.450   1.985  -9.856  1.00  0.00     0.000 C 
BRANCH  22  23
ATOM     23  C   UNL     1      -4.916   2.100  -9.857  1.00  0.00     0.000 C 
BRANCH  23  24
ATOM     24  C   UNL     1      -4.302   1.764 -11.226  1.00  0.00    -0.000 C 
BRANCH  24  25
ATOM     25  C   UNL     1      -3.138   0.763 -11.132  1.00  0.00    -0.000 C 
BRANCH  25  26
ATOM     26  C   UNL     1      -3.412  -0.577 -11.846  1.00  0.00    -0.000 C 
BRANCH  26  27
ATOM     27  C   UNL     1      -2.186  -1.079 -12.628  1.00  0.00    -0.000 C 
BRANCH  27  28
ATOM     28  C   UNL     1      -2.537  -2.187 -13.634  1.00  0.00    -0.000 C 
BRANCH  28  29
ATOM     29  C   UNL     1      -4.043  -2.487 -13.683  1.00  0.00    -0.000 C 
BRANCH  29  30
ATOM     30  C   UNL     1      -4.643  -2.064 -15.032  1.00  0.00    -0.000 C 
BRANCH  30  31
ATOM     31  C   UNL     1      -3.859  -2.621 -16.230  1.00  0.00    -0.003 C 
ATOM     32  C   UNL     1      -3.491  -1.543 -17.249  1.00  0.00     0.004 C 
ENDBRANCH  30  31
ENDBRANCH  29  30
ENDBRANCH  28  29
ENDBRANCH  27  28
ENDBRANCH  26  27
ENDBRANCH  25  26
ENDBRANCH  24  25
ENDBRANCH  23  24
ENDBRANCH  22  23
ENDBRANCH  21  22
ENDBRANCH  20  21
ENDBRANCH  19  20
ENDBRANCH  18  19
ENDBRANCH   1  18
TORSDOF 28
ENDMDL
MODEL 7
REMARK VINA RESULT:    -4.721      2.773      7.113
REMARK INTER + INTRA:         -16.868
REMARK INTER:                 -11.028
REMARK INTRA:                  -5.840
REMARK UNBOUND:                -4.419
REMARK SMILES CCCCCCCCCCCCCCCCCCCCCCCCCCCCCC(=O)[O-]
REMARK SMILES IDX 16 1 17 2 18 3 19 4 20 5 21 6 22 7 23 8 24 9 25 10 26 11
REMARK SMILES IDX 27 12 28 13 29 14 30 15 31 16 32 17 15 18 14 19 13 20 12 21
REMARK SMILES IDX 11 22 10 23 9 24 8 25 7 26 6 27 5 28 4 29 3 30 2 31 1 32
REMARK H PARENT
REMARK Flexibility Score: inf
ROOT
ATOM      1  C   UNL     1     -11.870  -4.969 -14.727  1.00  0.00     0.000 C 
ENDROOT
BRANCH   1   2
ATOM      2  C   UNL     1     -11.315  -5.002 -16.165  1.00  0.00     0.000 C 
BRANCH   2   3
ATOM      3  C   UNL     1     -10.122  -4.066 -16.440  1.00  0.00     0.000 C 
BRANCH   3   4
ATOM      4  C   UNL     1      -8.737  -4.663 -16.130  1.00  0.00     0.000 C 
BRANCH   4   5
ATOM      5  C   UNL     1      -8.155  -4.176 -14.792  1.00  0.00     0.000 C 
BRANCH   5   6
ATOM      6  C   UNL     1      -7.301  -5.243 -14.077  1.00  0.00     0.000 C 
BRANCH   6   7
ATOM      7  C   UNL     1      -7.969  -5.937 -12.868  1.00  0.00     0.000 C 
BRANCH   7   8
ATOM      8  C   UNL     1      -7.037  -6.844 -12.034  1.00  0.00     0.000 C 
BRANCH   8   9
ATOM      9  C   UNL     1      -6.244  -6.103 -10.944  1.00  0.00     0.000 C 
BRANCH   9  10
ATOM     10  C   UNL     1      -6.992  -4.901 -10.332  1.00  0.00     0.000 C 
BRANCH  10  11
ATOM     11  C   UNL     1      -6.214  -3.586 -10.513  1.00  0.00     0.000 C 
BRANCH  11  12
ATOM     12  C   UNL     1      -6.813  -2.689 -11.608  1.00  0.00     0.000 C 
BRANCH  12  13
ATOM     13  C   UNL     1      -7.219  -1.305 -11.082  1.00  0.00     0.006 C 
BRANCH  13  14
ATOM     14  C   UNL     1      -5.997  -0.532 -10.571  1.00  0.00     0.053 C 
BRANCH  14  15
ATOM     15  C   UNL     1      -6.145  -0.190  -9.120  1.00  0.00     0.041 C 
ATOM     16  O   UNL     1      -5.182  -0.363  -8.327  1.00  0.00    -0.550 OA
ATOM     17  O   UNL     1      -7.360   0.275  -8.632  1.00  0.00    -0.550 OA
ENDBRANCH  14  15
ENDBRANCH  13  14
ENDBRANCH  12  13
ENDBRANCH  11  12
ENDBRANCH  10  11
ENDBRANCH   9  10
ENDBRANCH   8   9
ENDBRANCH   7   8
ENDBRANCH   6   7
ENDBRANCH   5   6
ENDBRANCH   4   5
ENDBRANCH   3   4
ENDBRANCH   2   3
ENDBRANCH   1   2
BRANCH   1  18
ATOM     18  C   UNL     1     -11.461  -6.179 -13.859  1.00  0.00     0.000 C 
BRANCH  18  19
ATOM     19  C   UNL     1     -10.785  -7.298 -14.672  1.00  0.00     0.000 C 
BRANCH  19  20
ATOM     20  C   UNL     1     -10.421  -8.513 -13.803  1.00  0.00     0.000 C 
BRANCH  20  21
ATOM     21  C   UNL     1      -9.454  -9.471 -14.515  1.00  0.00     0.000 C 
BRANCH  21  22
ATOM     22  C   UNL     1      -8.670  -8.742 -15.618  1.00  0.00     0.000 C 
BRANCH  22  23
ATOM     23  C   UNL     1      -7.168  -8.637 -15.301  1.00  0.00     0.000 C 
BRANCH  23  24
ATOM     24  C   UNL     1      -6.374  -7.977 -16.440  1.00  0.00    -0.000 C 
BRANCH  24  25
ATOM     25  C   UNL     1      -5.024  -7.403 -15.975  1.00  0.00    -0.000 C 
BRANCH  25  26
ATOM     26  C   UNL     1      -4.454  -8.095 -14.719  1.00  0.00    -0.000 C 
BRANCH  26  27
ATOM     27  C   UNL     1      -3.935  -7.082 -13.684  1.00  0.00    -0.000 C 
BRANCH  27  28
ATOM     28  C   UNL     1      -3.729  -5.679 -14.278  1.00  0.00    -0.000 C 
BRANCH  28  29
ATOM     29  C   UNL     1      -3.758  -4.575 -13.211  1.00  0.00    -0.000 C 
BRANCH  29  30
ATOM     30  C   UNL     1      -3.445  -3.204 -13.830  1.00  0.00    -0.000 C 
BRANCH  30  31
ATOM     31  C   UNL     1      -4.632  -2.624 -14.614  1.00  0.00    -0.003 C 
ATOM     32  C   UNL     1      -4.246  -2.174 -16.024  1.00  0.00     0.004 C 
ENDBRANCH  30  31
ENDBRANCH  29  30
ENDBRANCH  28  29
ENDBRANCH  27  28
ENDBRANCH  26  27
ENDBRANCH  25  26
ENDBRANCH  24  25
ENDBRANCH  23  24
ENDBRANCH  22  23
ENDBRANCH  21  22
ENDBRANCH  20  21
ENDBRANCH  19  20
ENDBRANCH  18  19
ENDBRANCH   1  18
TORSDOF 28
ENDMDL
MODEL 8
REMARK VINA RESULT:    -4.718      3.658      4.927
REMARK INTER + INTRA:         -16.860
REMARK INTER:                 -12.082
REMARK INTRA:                  -4.777
REMARK UNBOUND:                -4.419
REMARK SMILES CCCCCCCCCCCCCCCCCCCCCCCCCCCCCC(=O)[O-]
REMARK SMILES IDX 16 1 17 2 18 3 19 4 20 5 21 6 22 7 23 8 24 9 25 10 26 11
REMARK SMILES IDX 27 12 28 13 29 14 30 15 31 16 32 17 15 18 14 19 13 20 12 21
REMARK SMILES IDX 11 22 10 23 9 24 8 25 7 26 6 27 5 28 4 29 3 30 2 31 1 32
REMARK H PARENT
REMARK Flexibility Score: inf
ROOT
ATOM      1  C   UNL     1      -6.661   0.888 -10.360  1.00  0.00     0.000 C 
ENDROOT
BRANCH   1   2
ATOM      2  C   UNL     1      -6.089   2.120  -9.632  1.00  0.00     0.000 C 
BRANCH   2   3
ATOM      3  C   UNL     1      -5.940   1.981  -8.104  1.00  0.00     0.000 C 
BRANCH   3   4
ATOM      4  C   UNL     1      -4.501   2.123  -7.571  1.00  0.00     0.000 C 
BRANCH   4   5
ATOM      5  C   UNL     1      -3.472   1.325  -8.389  1.00  0.00     0.000 C 
BRANCH   5   6
ATOM      6  C   UNL     1      -2.414   2.217  -9.070  1.00  0.00     0.000 C 
BRANCH   6   7
ATOM      7  C   UNL     1      -2.189   1.958 -10.577  1.00  0.00     0.000 C 
BRANCH   7   8
ATOM      8  C   UNL     1      -3.136   0.917 -11.213  1.00  0.00     0.000 C 
BRANCH   8   9
ATOM      9  C   UNL     1      -2.439  -0.374 -11.673  1.00  0.00     0.000 C 
BRANCH   9  10
ATOM     10  C   UNL     1      -3.381  -1.591 -11.779  1.00  0.00     0.000 C 
BRANCH  10  11
ATOM     11  C   UNL     1      -4.218  -1.561 -13.069  1.00  0.00     0.000 C 
BRANCH  11  12
ATOM     12  C   UNL     1      -4.205  -2.904 -13.816  1.00  0.00     0.000 C 
BRANCH  12  13
ATOM     13  C   UNL     1      -4.895  -2.825 -15.186  1.00  0.00     0.006 C 
BRANCH  13  14
ATOM     14  C   UNL     1      -3.917  -3.175 -16.313  1.00  0.00     0.053 C 
BRANCH  14  15
ATOM     15  C   UNL     1      -3.119  -1.976 -16.725  1.00  0.00     0.041 C 
ATOM     16  O   UNL     1      -2.048  -1.693 -16.126  1.00  0.00    -0.550 OA
ATOM     17  O   UNL     1      -3.580  -1.144 -17.738  1.00  0.00    -0.550 OA
ENDBRANCH  14  15
ENDBRANCH  13  14
ENDBRANCH  12  13
ENDBRANCH  11  12
ENDBRANCH  10  11
ENDBRANCH   9  10
ENDBRANCH   8   9
ENDBRANCH   7   8
ENDBRANCH   6   7
ENDBRANCH   5   6
ENDBRANCH   4   5
ENDBRANCH   3   4
ENDBRANCH   2   3
ENDBRANCH   1   2
BRANCH   1  18
ATOM     18  C   UNL     1      -6.621  -0.416  -9.534  1.00  0.00     0.000 C 
BRANCH  18  19
ATOM     19  C   UNL     1      -6.692  -1.680 -10.409  1.00  0.00     0.000 C 
BRANCH  19  20
ATOM     20  C   UNL     1      -7.576  -1.482 -11.653  1.00  0.00     0.000 C 
BRANCH  20  21
ATOM     21  C   UNL     1      -7.670  -2.754 -12.510  1.00  0.00     0.000 C 
BRANCH  21  22
ATOM     22  C   UNL     1      -7.087  -3.964 -11.765  1.00  0.00     0.000 C 
BRANCH  22  23
ATOM     23  C   UNL     1      -7.428  -5.298 -12.451  1.00  0.00     0.000 C 
BRANCH  23  24
ATOM     24  C   UNL     1      -6.187  -5.989 -13.040  1.00  0.00    -0.000 C 
BRANCH  24  25
ATOM     25  C   UNL     1      -6.303  -6.240 -14.554  1.00  0.00    -0.000 C 
BRANCH  25  26
ATOM     26  C   UNL     1      -7.626  -6.916 -14.972  1.00  0.00    -0.000 C 
BRANCH  26  27
ATOM     27  C   UNL     1      -8.364  -6.119 -16.062  1.00  0.00    -0.000 C 
BRANCH  27  28
ATOM     28  C   UNL     1      -8.182  -4.600 -15.913  1.00  0.00    -0.000 C 
BRANCH  28  29
ATOM     29  C   UNL     1      -9.519  -3.849 -15.833  1.00  0.00    -0.000 C 
BRANCH  29  30
ATOM     30  C   UNL     1     -10.323  -4.285 -14.599  1.00  0.00    -0.000 C 
BRANCH  30  31
ATOM     31  C   UNL     1     -11.539  -5.152 -14.962  1.00  0.00    -0.003 C 
ATOM     32  C   UNL     1     -12.868  -4.482 -14.610  1.00  0.00     0.004 C 
ENDBRANCH  30  31
ENDBRANCH  29  30
ENDBRANCH  28  29
ENDBRANCH  27  28
ENDBRANCH  26  27
ENDBRANCH  25  26
ENDBRANCH  24  25
ENDBRANCH  23  24
ENDBRANCH  22  23
ENDBRANCH  21  22
ENDBRANCH  20  21
ENDBRANCH  19  20
ENDBRANCH  18  19
ENDBRANCH   1  18
TORSDOF 28
ENDMDL
MODEL 9
REMARK VINA RESULT:    -4.701      3.600      7.761
REMARK INTER + INTRA:         -16.815
REMARK INTER:                 -11.867
REMARK INTRA:                  -4.948
REMARK UNBOUND:                -4.419
REMARK SMILES CCCCCCCCCCCCCCCCCCCCCCCCCCCCCC(=O)[O-]
REMARK SMILES IDX 16 1 17 2 18 3 19 4 20 5 21 6 22 7 23 8 24 9 25 10 26 11
REMARK SMILES IDX 27 12 28 13 29 14 30 15 31 16 32 17 15 18 14 19 13 20 12 21
REMARK SMILES IDX 11 22 10 23 9 24 8 25 7 26 6 27 5 28 4 29 3 30 2 31 1 32
REMARK H PARENT
REMARK Flexibility Score: inf
ROOT
ATOM      1  C   UNL     1      -4.716  -2.002 -15.176  1.00  0.00     0.000 C 
ENDROOT
BRANCH   1   2
ATOM      2  C   UNL     1      -5.586  -2.983 -14.366  1.00  0.00     0.000 C 
BRANCH   2   3
ATOM      3  C   UNL     1      -7.109  -2.813 -14.528  1.00  0.00     0.000 C 
BRANCH   3   4
ATOM      4  C   UNL     1      -7.882  -2.562 -13.219  1.00  0.00     0.000 C 
BRANCH   4   5
ATOM      5  C   UNL     1      -7.071  -1.772 -12.179  1.00  0.00     0.000 C 
BRANCH   5   6
ATOM      6  C   UNL     1      -6.996  -2.472 -10.807  1.00  0.00     0.000 C 
BRANCH   6   7
ATOM      7  C   UNL     1      -5.887  -3.538 -10.658  1.00  0.00     0.000 C 
BRANCH   7   8
ATOM      8  C   UNL     1      -6.377  -4.943 -10.245  1.00  0.00     0.000 C 
BRANCH   8   9
ATOM      9  C   UNL     1      -7.189  -5.673 -11.328  1.00  0.00     0.000 C 
BRANCH   9  10
ATOM     10  C   UNL     1      -6.352  -6.122 -12.542  1.00  0.00     0.000 C 
BRANCH  10  11
ATOM     11  C   UNL     1      -7.223  -6.355 -13.789  1.00  0.00     0.000 C 
BRANCH  11  12
ATOM     12  C   UNL     1      -8.717  -6.109 -13.523  1.00  0.00     0.000 C 
BRANCH  12  13
ATOM     13  C   UNL     1      -9.532  -5.970 -14.817  1.00  0.00     0.006 C 
BRANCH  13  14
ATOM     14  C   UNL     1     -10.961  -5.503 -14.517  1.00  0.00     0.053 C 
BRANCH  14  15
ATOM     15  C   UNL     1     -11.389  -4.433 -15.474  1.00  0.00     0.041 C 
ATOM     16  O   UNL     1     -12.607  -4.297 -15.767  1.00  0.00    -0.550 OA
ATOM     17  O   UNL     1     -10.442  -3.617 -16.080  1.00  0.00    -0.550 OA
ENDBRANCH  14  15
ENDBRANCH  13  14
ENDBRANCH  12  13
ENDBRANCH  11  12
ENDBRANCH  10  11
ENDBRANCH   9  10
ENDBRANCH   8   9
ENDBRANCH   7   8
ENDBRANCH   6   7
ENDBRANCH   5   6
ENDBRANCH   4   5
ENDBRANCH   3   4
ENDBRANCH   2   3
ENDBRANCH   1   2
BRANCH   1  18
ATOM     18  C   UNL     1      -4.032  -2.628 -16.411  1.00  0.00     0.000 C 
BRANCH  18  19
ATOM     19  C   UNL     1      -3.251  -1.600 -17.248  1.00  0.00     0.000 C 
BRANCH  19  20
ATOM     20  C   UNL     1      -1.882  -1.263 -16.632  1.00  0.00     0.000 C 
BRANCH  20  21
ATOM     21  C   UNL     1      -1.086  -2.522 -16.256  1.00  0.00     0.000 C 
BRANCH  21  22
ATOM     22  C   UNL     1      -0.772  -2.545 -14.752  1.00  0.00     0.000 C 
BRANCH  22  23
ATOM     23  C   UNL     1      -1.021  -1.185 -14.078  1.00  0.00     0.000 C 
BRANCH  23  24
ATOM     24  C   UNL     1      -1.301  -1.319 -12.572  1.00  0.00    -0.000 C 
BRANCH  24  25
ATOM     25  C   UNL     1      -2.717  -1.838 -12.269  1.00  0.00    -0.000 C 
BRANCH  25  26
ATOM     26  C   UNL     1      -3.560  -0.876 -11.406  1.00  0.00    -0.000 C 
BRANCH  26  27
ATOM     27  C   UNL     1      -2.891   0.500 -11.249  1.00  0.00    -0.000 C 
BRANCH  27  28
ATOM     28  C   UNL     1      -3.733   1.478 -10.414  1.00  0.00    -0.000 C 
BRANCH  28  29
ATOM     29  C   UNL     1      -4.946   2.022 -11.184  1.00  0.00    -0.000 C 
BRANCH  29  30
ATOM     30  C   UNL     1      -6.253   1.419 -10.647  1.00  0.00    -0.000 C 
BRANCH  30  31
ATOM     31  C   UNL     1      -6.130   0.941  -9.192  1.00  0.00    -0.003 C 
ATOM     32  C   UNL     1      -7.448   0.404  -8.634  1.00  0.00     0.004 C 
ENDBRANCH  30  31
ENDBRANCH  29  30
ENDBRANCH  28  29
ENDBRANCH  27  28
ENDBRANCH  26  27
ENDBRANCH  25  26
ENDBRANCH  24  25
ENDBRANCH  23  24
ENDBRANCH  22  23
ENDBRANCH  21  22
ENDBRANCH  20  21
ENDBRANCH  19  20
ENDBRANCH  18  19
ENDBRANCH   1  18
TORSDOF 28
ENDMDL
