MODEL 1
REMARK VINA RESULT:    -3.410      0.000      0.000
REMARK INTER + INTRA:          -3.709
REMARK INTER:                  -3.709
REMARK INTRA:                   0.000
REMARK UNBOUND:                 0.000
REMARK SMILES Oc1cccc(O)c1O
REMARK SMILES IDX 4 1 5 2 6 3 8 4 2 5 3 6 7 7 1 9 9 11
REMARK H PARENT 7 8 1 10 9 12
REMARK Flexibility Score: inf
ROOT
ATOM      1  C   UNL     1     110.875 120.090 108.058  1.00  0.00     0.008 A 
ATOM      2  C   UNL     1     111.609 120.693 109.082  1.00  0.00     0.050 A 
ATOM      3  C   UNL     1     112.349 121.857 108.830  1.00  0.00     0.161 A 
ATOM      4  C   UNL     1     112.350 122.418 107.539  1.00  0.00     0.200 A 
ATOM      5  C   UNL     1     111.612 121.810 106.513  1.00  0.00     0.161 A 
ATOM      6  C   UNL     1     110.875 120.646 106.776  1.00  0.00     0.050 A 
ENDROOT
BRANCH   3   7
ATOM      7  O   UNL     1     113.082 122.456 109.852  1.00  0.00    -0.504 OA
ATOM      8  H   UNL     1     113.974 122.905 109.673  1.00  0.00     0.293 HD
ENDBRANCH   3   7
BRANCH   5   9
ATOM      9  O   UNL     1     111.614 122.368 105.236  1.00  0.00    -0.504 OA
ATOM     10  H   UNL     1     112.075 123.250 105.044  1.00  0.00     0.293 HD
ENDBRANCH   5   9
BRANCH   4  11
ATOM     11  O   UNL     1     113.079 123.575 107.261  1.00  0.00    -0.502 OA
ATOM     12  H   UNL     1     112.850 124.181 106.483  1.00  0.00     0.293 HD
ENDBRANCH   4  11
TORSDOF 3
ENDMDL
MODEL 2
REMARK VINA RESULT:    -3.388     13.511     14.014
REMARK INTER + INTRA:          -3.685
REMARK INTER:                  -3.685
REMARK INTRA:                   0.000
REMARK UNBOUND:                 0.000
REMARK SMILES Oc1cccc(O)c1O
REMARK SMILES IDX 4 1 5 2 6 3 8 4 2 5 3 6 7 7 1 9 9 11
REMARK H PARENT 7 8 1 10 9 12
REMARK Flexibility Score: inf
ROOT
ATOM      1  C   UNL     1     120.208 132.125 108.170  1.00  0.00     0.008 A 
ATOM      2  C   UNL     1     120.679 132.124 106.854  1.00  0.00     0.050 A 
ATOM      3  C   UNL     1     121.839 131.412 106.520  1.00  0.00     0.161 A 
ATOM      4  C   UNL     1     122.530 130.696 107.515  1.00  0.00     0.200 A 
ATOM      5  C   UNL     1     122.055 130.699 108.835  1.00  0.00     0.161 A 
ATOM      6  C   UNL     1     120.893 131.414 109.159  1.00  0.00     0.050 A 
ENDROOT
BRANCH   3   7
ATOM      7  O   UNL     1     122.308 131.413 105.208  1.00  0.00    -0.504 OA
ATOM      8  H   UNL     1     122.561 130.553 104.734  1.00  0.00     0.293 HD
ENDBRANCH   3   7
BRANCH   5   9
ATOM      9  O   UNL     1     122.741 129.988 109.818  1.00  0.00    -0.504 OA
ATOM     10  H   UNL     1     122.907 130.380 110.737  1.00  0.00     0.293 HD
ENDBRANCH   5   9
BRANCH   4  11
ATOM     11  O   UNL     1     123.688 129.979 107.209  1.00  0.00    -0.502 OA
ATOM     12  H   UNL     1     123.911 129.100 107.658  1.00  0.00     0.293 HD
ENDBRANCH   4  11
TORSDOF 3
ENDMDL
MODEL 3
REMARK VINA RESULT:    -3.387      1.254      2.189
REMARK INTER + INTRA:          -3.684
REMARK INTER:                  -3.684
REMARK INTRA:                   0.000
REMARK UNBOUND:                 0.000
REMARK SMILES Oc1cccc(O)c1O
REMARK SMILES IDX 4 1 5 2 6 3 8 4 2 5 3 6 7 7 1 9 9 11
REMARK H PARENT 7 8 1 10 9 12
REMARK Flexibility Score: inf
ROOT
ATOM      1  C   UNL     1     111.823 121.645 109.664  1.00  0.00     0.008 A 
ATOM      2  C   UNL     1     112.388 122.829 109.185  1.00  0.00     0.050 A 
ATOM      3  C   UNL     1     112.452 123.073 107.806  1.00  0.00     0.161 A 
ATOM      4  C   UNL     1     111.945 122.120 106.903  1.00  0.00     0.200 A 
ATOM      5  C   UNL     1     111.378 120.932 107.388  1.00  0.00     0.161 A 
ATOM      6  C   UNL     1     111.318 120.698 108.769  1.00  0.00     0.050 A 
ENDROOT
BRANCH   3   7
ATOM      7  O   UNL     1     113.018 124.254 107.329  1.00  0.00    -0.504 OA
ATOM      8  H   UNL     1     112.636 125.162 107.573  1.00  0.00     0.293 HD
ENDBRANCH   3   7
BRANCH   5   9
ATOM      9  O   UNL     1     110.876 119.990 106.492  1.00  0.00    -0.504 OA
ATOM     10  H   UNL     1     109.879 119.878 106.343  1.00  0.00     0.293 HD
ENDBRANCH   5   9
BRANCH   4  11
ATOM     11  O   UNL     1     111.998 122.338 105.526  1.00  0.00    -0.502 OA
ATOM     12  H   UNL     1     111.226 122.750 105.016  1.00  0.00     0.293 HD
ENDBRANCH   4  11
TORSDOF 3
ENDMDL
MODEL 4
REMARK VINA RESULT:    -3.382     13.267     13.627
REMARK INTER + INTRA:          -3.679
REMARK INTER:                  -3.679
REMARK INTRA:                   0.000
REMARK UNBOUND:                 0.000
REMARK SMILES Oc1cccc(O)c1O
REMARK SMILES IDX 4 1 5 2 6 3 8 4 2 5 3 6 7 7 1 9 9 11
REMARK H PARENT 7 8 1 10 9 12
REMARK Flexibility Score: inf
ROOT
ATOM      1  C   UNL     1     120.051 132.121 107.903  1.00  0.00     0.008 A 
ATOM      2  C   UNL     1     120.603 131.378 108.949  1.00  0.00     0.050 A 
ATOM      3  C   UNL     1     121.773 130.633 108.746  1.00  0.00     0.161 A 
ATOM      4  C   UNL     1     122.392 130.635 107.483  1.00  0.00     0.200 A 
ATOM      5  C   UNL     1     121.836 131.383 106.434  1.00  0.00     0.161 A 
ATOM      6  C   UNL     1     120.666 132.125 106.648  1.00  0.00     0.050 A 
ENDROOT
BRANCH   3   7
ATOM      7  O   UNL     1     122.321 129.891 109.791  1.00  0.00    -0.504 OA
ATOM      8  H   UNL     1     122.202 128.885 109.847  1.00  0.00     0.293 HD
ENDBRANCH   3   7
BRANCH   5   9
ATOM      9  O   UNL     1     122.452 131.385 105.184  1.00  0.00    -0.504 OA
ATOM     10  H   UNL     1     123.205 130.743 104.963  1.00  0.00     0.293 HD
ENDBRANCH   5   9
BRANCH   4  11
ATOM     11  O   UNL     1     123.557 129.902 107.254  1.00  0.00    -0.502 OA
ATOM     12  H   UNL     1     124.173 129.621 108.007  1.00  0.00     0.293 HD
ENDBRANCH   4  11
TORSDOF 3
ENDMDL
MODEL 5
REMARK VINA RESULT:    -3.347     13.279     13.928
REMARK INTER + INTRA:          -3.640
REMARK INTER:                  -3.640
REMARK INTRA:                   0.000
REMARK UNBOUND:                 0.000
REMARK SMILES Oc1cccc(O)c1O
REMARK SMILES IDX 4 1 5 2 6 3 8 4 2 5 3 6 7 7 1 9 9 11
REMARK H PARENT 7 8 1 10 9 12
REMARK Flexibility Score: inf
ROOT
ATOM      1  C   UNL     1     121.692 130.943 109.718  1.00  0.00     0.008 A 
ATOM      2  C   UNL     1     120.725 131.510 108.885  1.00  0.00     0.050 A 
ATOM      3  C   UNL     1     120.927 131.555 107.499  1.00  0.00     0.161 A 
ATOM      4  C   UNL     1     122.108 131.026 106.947  1.00  0.00     0.200 A 
ATOM      5  C   UNL     1     123.077 130.457 107.787  1.00  0.00     0.161 A 
ATOM      6  C   UNL     1     122.866 130.417 109.172  1.00  0.00     0.050 A 
ENDROOT
BRANCH   3   7
ATOM      7  O   UNL     1     119.961 132.122 106.668  1.00  0.00    -0.504 OA
ATOM      8  H   UNL     1     119.676 131.676 105.804  1.00  0.00     0.293 HD
ENDBRANCH   3   7
BRANCH   5   9
ATOM      9  O   UNL     1     124.246 129.933 107.237  1.00  0.00    -0.504 OA
ATOM     10  H   UNL     1     124.222 129.173 106.566  1.00  0.00     0.293 HD
ENDBRANCH   5   9
BRANCH   4  11
ATOM     11  O   UNL     1     122.333 131.058 105.570  1.00  0.00    -0.502 OA
ATOM     12  H   UNL     1     123.052 130.498 105.129  1.00  0.00     0.293 HD
ENDBRANCH   4  11
TORSDOF 3
ENDMDL
MODEL 6
REMARK VINA RESULT:    -3.314      1.241      2.694
REMARK INTER + INTRA:          -3.604
REMARK INTER:                  -3.604
REMARK INTRA:                   0.000
REMARK UNBOUND:                 0.000
REMARK SMILES Oc1cccc(O)c1O
REMARK SMILES IDX 4 1 5 2 6 3 8 4 2 5 3 6 7 7 1 9 9 11
REMARK H PARENT 7 8 1 10 9 12
REMARK Flexibility Score: inf
ROOT
ATOM      1  C   UNL     1     112.107 121.514 109.753  1.00  0.00     0.008 A 
ATOM      2  C   UNL     1     111.519 120.595 108.880  1.00  0.00     0.050 A 
ATOM      3  C   UNL     1     111.463 120.865 107.505  1.00  0.00     0.161 A 
ATOM      4  C   UNL     1     112.002 122.065 107.006  1.00  0.00     0.200 A 
ATOM      5  C   UNL     1     112.592 122.985 107.886  1.00  0.00     0.161 A 
ATOM      6  C   UNL     1     112.643 122.706 109.259  1.00  0.00     0.050 A 
ENDROOT
BRANCH   3   7
ATOM      7  O   UNL     1     110.875 119.948 106.635  1.00  0.00    -0.504 OA
ATOM      8  H   UNL     1     111.013 120.005 105.632  1.00  0.00     0.293 HD
ENDBRANCH   3   7
BRANCH   5   9
ATOM      9  O   UNL     1     113.126 124.172 107.388  1.00  0.00    -0.504 OA
ATOM     10  H   UNL     1     113.237 124.327 106.393  1.00  0.00     0.293 HD
ENDBRANCH   5   9
BRANCH   4  11
ATOM     11  O   UNL     1     111.959 122.357 105.642  1.00  0.00    -0.502 OA
ATOM     12  H   UNL     1     112.685 122.055 105.004  1.00  0.00     0.293 HD
ENDBRANCH   4  11
TORSDOF 3
ENDMDL
MODEL 7
REMARK VINA RESULT:    -3.310     13.344     13.875
REMARK INTER + INTRA:          -3.600
REMARK INTER:                  -3.600
REMARK INTRA:                   0.000
REMARK UNBOUND:                 0.000
REMARK SMILES Oc1cccc(O)c1O
REMARK SMILES IDX 4 1 5 2 6 3 8 4 2 5 3 6 7 7 1 9 9 11
REMARK H PARENT 7 8 1 10 9 12
REMARK Flexibility Score: inf
ROOT
ATOM      1  C   UNL     1     121.677 131.244 109.787  1.00  0.00     0.008 A 
ATOM      2  C   UNL     1     122.847 130.679 109.273  1.00  0.00     0.050 A 
ATOM      3  C   UNL     1     123.038 130.593 107.887  1.00  0.00     0.161 A 
ATOM      4  C   UNL     1     122.048 131.078 107.013  1.00  0.00     0.200 A 
ATOM      5  C   UNL     1     120.874 131.645 107.533  1.00  0.00     0.161 A 
ATOM      6  C   UNL     1     120.693 131.726 108.921  1.00  0.00     0.050 A 
ENDROOT
BRANCH   3   7
ATOM      7  O   UNL     1     124.205 130.028 107.375  1.00  0.00    -0.504 OA
ATOM      8  H   UNL     1     124.183 129.379 106.596  1.00  0.00     0.293 HD
ENDBRANCH   3   7
BRANCH   5   9
ATOM      9  O   UNL     1     119.896 132.125 106.666  1.00  0.00    -0.504 OA
ATOM     10  H   UNL     1     119.910 133.080 106.326  1.00  0.00     0.293 HD
ENDBRANCH   5   9
BRANCH   4  11
ATOM     11  O   UNL     1     122.214 131.004 105.629  1.00  0.00    -0.502 OA
ATOM     12  H   UNL     1     122.717 130.245 105.187  1.00  0.00     0.293 HD
ENDBRANCH   4  11
TORSDOF 3
ENDMDL
MODEL 8
REMARK VINA RESULT:    -3.219      0.914      2.887
REMARK INTER + INTRA:          -3.501
REMARK INTER:                  -3.501
REMARK INTRA:                   0.000
REMARK UNBOUND:                 0.000
REMARK SMILES Oc1cccc(O)c1O
REMARK SMILES IDX 4 1 5 2 6 3 8 4 2 5 3 6 7 7 1 9 9 11
REMARK H PARENT 7 8 1 10 9 12
REMARK Flexibility Score: inf
ROOT
ATOM      1  C   UNL     1     110.875 120.966 108.823  1.00  0.00     0.008 A 
ATOM      2  C   UNL     1     111.015 121.087 107.438  1.00  0.00     0.050 A 
ATOM      3  C   UNL     1     111.759 122.143 106.894  1.00  0.00     0.161 A 
ATOM      4  C   UNL     1     112.366 123.083 107.747  1.00  0.00     0.200 A 
ATOM      5  C   UNL     1     112.223 122.958 109.137  1.00  0.00     0.161 A 
ATOM      6  C   UNL     1     111.478 121.898 109.672  1.00  0.00     0.050 A 
ENDROOT
BRANCH   3   7
ATOM      7  O   UNL     1     111.897 122.263 105.512  1.00  0.00    -0.504 OA
ATOM      8  H   UNL     1     112.387 121.564 104.965  1.00  0.00     0.293 HD
ENDBRANCH   3   7
BRANCH   5   9
ATOM      9  O   UNL     1     112.827 123.890 109.980  1.00  0.00    -0.504 OA
ATOM     10  H   UNL     1     112.708 124.887 109.840  1.00  0.00     0.293 HD
ENDBRANCH   5   9
BRANCH   4  11
ATOM     11  O   UNL     1     113.111 124.144 107.231  1.00  0.00    -0.502 OA
ATOM     12  H   UNL     1     112.774 125.098 107.251  1.00  0.00     0.293 HD
ENDBRANCH   4  11
TORSDOF 3
ENDMDL
MODEL 9
REMARK VINA RESULT:    -2.957      8.118      8.839
REMARK INTER + INTRA:          -3.217
REMARK INTER:                  -3.217
REMARK INTRA:                   0.000
REMARK UNBOUND:                 0.000
REMARK SMILES Oc1cccc(O)c1O
REMARK SMILES IDX 4 1 5 2 6 3 8 4 2 5 3 6 7 7 1 9 9 11
REMARK H PARENT 7 8 1 10 9 12
REMARK Flexibility Score: inf
ROOT
ATOM      1  C   UNL     1     121.059 121.913 105.814  1.00  0.00     0.008 A 
ATOM      2  C   UNL     1     119.731 122.114 106.195  1.00  0.00     0.050 A 
ATOM      3  C   UNL     1     118.946 121.032 106.617  1.00  0.00     0.161 A 
ATOM      4  C   UNL     1     119.501 119.739 106.657  1.00  0.00     0.200 A 
ATOM      5  C   UNL     1     120.836 119.541 106.274  1.00  0.00     0.161 A 
ATOM      6  C   UNL     1     121.612 120.630 105.854  1.00  0.00     0.050 A 
ENDROOT
BRANCH   3   7
ATOM      7  O   UNL     1     117.620 121.234 106.996  1.00  0.00    -0.504 OA
ATOM      8  H   UNL     1     117.358 121.972 107.640  1.00  0.00     0.293 HD
ENDBRANCH   3   7
BRANCH   5   9
ATOM      9  O   UNL     1     121.383 118.260 106.315  1.00  0.00    -0.504 OA
ATOM     10  H   UNL     1     120.841 117.443 106.060  1.00  0.00     0.293 HD
ENDBRANCH   5   9
BRANCH   4  11
ATOM     11  O   UNL     1     118.741 118.645 107.073  1.00  0.00    -0.502 OA
ATOM     12  H   UNL     1     119.167 117.788 107.401  1.00  0.00     0.293 HD
ENDBRANCH   4  11
TORSDOF 3
ENDMDL
