MODEL 1
REMARK VINA RESULT:    -4.065      0.000      0.000
REMARK INTER + INTRA:          -6.120
REMARK INTER:                  -5.729
REMARK INTRA:                  -0.392
REMARK UNBOUND:                -0.392
REMARK SMILES CCCCCCCCC(=O)[O-]
REMARK SMILES IDX 6 1 7 2 8 3 9 4 10 5 11 6 5 7 4 8 3 9 2 10 1 11
REMARK H PARENT
REMARK Flexibility Score: inf
ROOT
ATOM      1  C   UNL     1      33.301   5.827  47.512  1.00  0.00     0.000 C 
ENDROOT
BRANCH   1   2
ATOM      2  C   UNL     1      34.212   5.881  46.277  1.00  0.00     0.006 C 
BRANCH   2   3
ATOM      3  C   UNL     1      33.583   6.679  45.125  1.00  0.00     0.053 C 
BRANCH   3   4
ATOM      4  C   UNL     1      34.156   8.058  45.027  1.00  0.00     0.041 C 
ATOM      5  O   UNL     1      34.668   8.457  43.947  1.00  0.00    -0.550 OA
ATOM      6  O   UNL     1      34.096   8.917  46.117  1.00  0.00    -0.550 OA
ENDBRANCH   3   4
ENDBRANCH   2   3
ENDBRANCH   1   2
BRANCH   1   7
ATOM      7  C   UNL     1      31.869   6.253  47.158  1.00  0.00     0.000 C 
BRANCH   7   8
ATOM      8  C   UNL     1      31.283   7.274  48.150  1.00  0.00    -0.000 C 
BRANCH   8   9
ATOM      9  C   UNL     1      29.795   7.071  48.491  1.00  0.00    -0.000 C 
BRANCH   9  10
ATOM     10  C   UNL     1      29.357   5.602  48.410  1.00  0.00    -0.003 C 
ATOM     11  C   UNL     1      28.052   5.459  47.633  1.00  0.00     0.004 C 
ENDBRANCH   9  10
ENDBRANCH   8   9
ENDBRANCH   7   8
ENDBRANCH   1   7
TORSDOF 7
ENDMDL
MODEL 2
REMARK VINA RESULT:    -4.024      2.068      3.400
REMARK INTER + INTRA:          -6.062
REMARK INTER:                  -5.457
REMARK INTRA:                  -0.606
REMARK UNBOUND:                -0.392
REMARK SMILES CCCCCCCCC(=O)[O-]
REMARK SMILES IDX 6 1 7 2 8 3 9 4 10 5 11 6 5 7 4 8 3 9 2 10 1 11
REMARK H PARENT
REMARK Flexibility Score: inf
ROOT
ATOM      1  C   UNL     1      31.341   6.245  47.252  1.00  0.00     0.000 C 
ENDROOT
BRANCH   1   2
ATOM      2  C   UNL     1      32.560   5.455  47.752  1.00  0.00     0.006 C 
BRANCH   2   3
ATOM      3  C   UNL     1      33.886   6.124  47.363  1.00  0.00     0.053 C 
BRANCH   3   4
ATOM      4  C   UNL     1      34.300   5.765  45.969  1.00  0.00     0.041 C 
ATOM      5  O   UNL     1      33.969   6.499  45.000  1.00  0.00    -0.550 OA
ATOM      6  O   UNL     1      35.082   4.639  45.743  1.00  0.00    -0.550 OA
ENDBRANCH   3   4
ENDBRANCH   2   3
ENDBRANCH   1   2
BRANCH   1   7
ATOM      7  C   UNL     1      30.330   6.470  48.386  1.00  0.00     0.000 C 
BRANCH   7   8
ATOM      8  C   UNL     1      30.191   7.952  48.781  1.00  0.00    -0.000 C 
BRANCH   8   9
ATOM      9  C   UNL     1      31.514   8.661  49.125  1.00  0.00    -0.000 C 
BRANCH   9  10
ATOM     10  C   UNL     1      31.793   9.877  48.230  1.00  0.00    -0.003 C 
ATOM     11  C   UNL     1      33.197   9.814  47.638  1.00  0.00     0.004 C 
ENDBRANCH   9  10
ENDBRANCH   8   9
ENDBRANCH   7   8
ENDBRANCH   1   7
TORSDOF 7
ENDMDL
MODEL 3
REMARK VINA RESULT:    -3.991      1.041      1.800
REMARK INTER + INTRA:          -6.016
REMARK INTER:                  -5.629
REMARK INTRA:                  -0.386
REMARK UNBOUND:                -0.392
REMARK SMILES CCCCCCCCC(=O)[O-]
REMARK SMILES IDX 6 1 7 2 8 3 9 4 10 5 11 6 5 7 4 8 3 9 2 10 1 11
REMARK H PARENT
REMARK Flexibility Score: inf
ROOT
ATOM      1  C   UNL     1      34.283   5.991  45.392  1.00  0.00     0.000 C 
ENDROOT
BRANCH   1   2
ATOM      2  C   UNL     1      33.497   7.095  44.670  1.00  0.00     0.006 C 
BRANCH   2   3
ATOM      3  C   UNL     1      34.418   8.159  44.057  1.00  0.00     0.053 C 
BRANCH   3   4
ATOM      4  C   UNL     1      34.304   9.471  44.771  1.00  0.00     0.041 C 
ATOM      5  O   UNL     1      34.170  10.539  44.117  1.00  0.00    -0.550 OA
ATOM      6  O   UNL     1      34.311   9.511  46.160  1.00  0.00    -0.550 OA
ENDBRANCH   3   4
ENDBRANCH   2   3
ENDBRANCH   1   2
BRANCH   1   7
ATOM      7  C   UNL     1      33.797   5.827  46.840  1.00  0.00     0.000 C 
BRANCH   7   8
ATOM      8  C   UNL     1      32.494   6.595  47.127  1.00  0.00    -0.000 C 
BRANCH   8   9
ATOM      9  C   UNL     1      31.365   5.752  47.747  1.00  0.00    -0.000 C 
BRANCH   9  10
ATOM     10  C   UNL     1      30.131   6.586  48.122  1.00  0.00    -0.003 C 
ATOM     11  C   UNL     1      28.879   5.718  48.189  1.00  0.00     0.004 C 
ENDBRANCH   9  10
ENDBRANCH   8   9
ENDBRANCH   7   8
ENDBRANCH   1   7
TORSDOF 7
ENDMDL
MODEL 4
REMARK VINA RESULT:    -3.925      1.485      2.211
REMARK INTER + INTRA:          -5.923
REMARK INTER:                  -5.525
REMARK INTRA:                  -0.398
REMARK UNBOUND:                -0.392
REMARK SMILES CCCCCCCCC(=O)[O-]
REMARK SMILES IDX 6 1 7 2 8 3 9 4 10 5 11 6 5 7 4 8 3 9 2 10 1 11
REMARK H PARENT
REMARK Flexibility Score: inf
ROOT
ATOM      1  C   UNL     1      32.366   9.423  47.953  1.00  0.00     0.000 C 
ENDROOT
BRANCH   1   2
ATOM      2  C   UNL     1      33.672   8.882  47.351  1.00  0.00     0.006 C 
BRANCH   2   3
ATOM      3  C   UNL     1      34.090   9.645  46.087  1.00  0.00     0.053 C 
BRANCH   3   4
ATOM      4  C   UNL     1      34.426   8.715  44.962  1.00  0.00     0.041 C 
ATOM      5  O   UNL     1      34.113   7.497  45.032  1.00  0.00    -0.550 OA
ATOM      6  O   UNL     1      35.054   9.199  43.822  1.00  0.00    -0.550 OA
ENDBRANCH   3   4
ENDBRANCH   2   3
ENDBRANCH   1   2
BRANCH   1   7
ATOM      7  C   UNL     1      31.425   8.275  48.346  1.00  0.00     0.000 C 
BRANCH   7   8
ATOM      8  C   UNL     1      31.939   6.895  47.893  1.00  0.00    -0.000 C 
BRANCH   8   9
ATOM      9  C   UNL     1      30.893   5.766  47.934  1.00  0.00    -0.000 C 
BRANCH   9  10
ATOM     10  C   UNL     1      29.569   6.199  48.579  1.00  0.00    -0.003 C 
ATOM     11  C   UNL     1      28.376   5.592  47.847  1.00  0.00     0.004 C 
ENDBRANCH   9  10
ENDBRANCH   8   9
ENDBRANCH   7   8
ENDBRANCH   1   7
TORSDOF 7
ENDMDL
MODEL 5
REMARK VINA RESULT:    -3.918      1.844      2.281
REMARK INTER + INTRA:          -5.913
REMARK INTER:                  -5.541
REMARK INTRA:                  -0.372
REMARK UNBOUND:                -0.392
REMARK SMILES CCCCCCCCC(=O)[O-]
REMARK SMILES IDX 6 1 7 2 8 3 9 4 10 5 11 6 5 7 4 8 3 9 2 10 1 11
REMARK H PARENT
REMARK Flexibility Score: inf
ROOT
ATOM      1  C   UNL     1      32.915   6.508  48.784  1.00  0.00     0.000 C 
ENDROOT
BRANCH   1   2
ATOM      2  C   UNL     1      34.265   6.328  48.074  1.00  0.00     0.006 C 
BRANCH   2   3
ATOM      3  C   UNL     1      34.409   4.937  47.441  1.00  0.00     0.053 C 
BRANCH   3   4
ATOM      4  C   UNL     1      34.680   5.021  45.971  1.00  0.00     0.041 C 
ATOM      5  O   UNL     1      35.296   4.091  45.386  1.00  0.00    -0.550 OA
ATOM      6  O   UNL     1      34.223   6.110  45.239  1.00  0.00    -0.550 OA
ENDBRANCH   3   4
ENDBRANCH   2   3
ENDBRANCH   1   2
BRANCH   1   7
ATOM      7  C   UNL     1      31.816   6.896  47.784  1.00  0.00     0.000 C 
BRANCH   7   8
ATOM      8  C   UNL     1      30.701   7.748  48.417  1.00  0.00    -0.000 C 
BRANCH   8   9
ATOM      9  C   UNL     1      29.592   6.947  49.125  1.00  0.00    -0.000 C 
BRANCH   9  10
ATOM     10  C   UNL     1      29.369   5.559  48.508  1.00  0.00    -0.003 C 
ATOM     11  C   UNL     1      28.106   5.533  47.654  1.00  0.00     0.004 C 
ENDBRANCH   9  10
ENDBRANCH   8   9
ENDBRANCH   7   8
ENDBRANCH   1   7
TORSDOF 7
ENDMDL
MODEL 6
REMARK VINA RESULT:    -3.835     15.935     17.128
REMARK INTER + INTRA:          -5.795
REMARK INTER:                  -5.120
REMARK INTRA:                  -0.675
REMARK UNBOUND:                -0.392
REMARK SMILES CCCCCCCCC(=O)[O-]
REMARK SMILES IDX 6 1 7 2 8 3 9 4 10 5 11 6 5 7 4 8 3 9 2 10 1 11
REMARK H PARENT
REMARK Flexibility Score: inf
ROOT
ATOM      1  C   UNL     1      22.031  10.026  35.633  1.00  0.00     0.000 C 
ENDROOT
BRANCH   1   2
ATOM      2  C   UNL     1      20.749   9.490  34.978  1.00  0.00     0.006 C 
BRANCH   2   3
ATOM      3  C   UNL     1      19.828   8.791  35.988  1.00  0.00     0.053 C 
BRANCH   3   4
ATOM      4  C   UNL     1      19.950   7.300  35.912  1.00  0.00     0.041 C 
ATOM      5  O   UNL     1      20.604   6.764  34.979  1.00  0.00    -0.550 OA
ATOM      6  O   UNL     1      19.369   6.503  36.891  1.00  0.00    -0.550 OA
ENDBRANCH   3   4
ENDBRANCH   2   3
ENDBRANCH   1   2
BRANCH   1   7
ATOM      7  C   UNL     1      22.461  11.353  34.992  1.00  0.00     0.000 C 
BRANCH   7   8
ATOM      8  C   UNL     1      21.657  12.560  35.510  1.00  0.00    -0.000 C 
BRANCH   8   9
ATOM      9  C   UNL     1      20.774  13.254  34.457  1.00  0.00    -0.000 C 
BRANCH   9  10
ATOM     10  C   UNL     1      19.275  13.158  34.776  1.00  0.00    -0.003 C 
ATOM     11  C   UNL     1      19.045  12.626  36.187  1.00  0.00     0.004 C 
ENDBRANCH   9  10
ENDBRANCH   8   9
ENDBRANCH   7   8
ENDBRANCH   1   7
TORSDOF 7
ENDMDL
MODEL 7
REMARK VINA RESULT:    -3.808     16.306     16.708
REMARK INTER + INTRA:          -5.757
REMARK INTER:                  -5.495
REMARK INTRA:                  -0.262
REMARK UNBOUND:                -0.392
REMARK SMILES CCCCCCCCC(=O)[O-]
REMARK SMILES IDX 6 1 7 2 8 3 9 4 10 5 11 6 5 7 4 8 3 9 2 10 1 11
REMARK H PARENT
REMARK Flexibility Score: inf
ROOT
ATOM      1  C   UNL     1      21.223  10.065  34.316  1.00  0.00     0.000 C 
ENDROOT
BRANCH   1   2
ATOM      2  C   UNL     1      22.391  11.053  34.452  1.00  0.00     0.006 C 
BRANCH   2   3
ATOM      3  C   UNL     1      22.158  12.079  35.570  1.00  0.00     0.053 C 
BRANCH   3   4
ATOM      4  C   UNL     1      21.061  13.038  35.224  1.00  0.00     0.041 C 
ATOM      5  O   UNL     1      21.196  13.834  34.258  1.00  0.00    -0.550 OA
ATOM      6  O   UNL     1      19.874  13.029  35.947  1.00  0.00    -0.550 OA
ENDBRANCH   3   4
ENDBRANCH   2   3
ENDBRANCH   1   2
BRANCH   1   7
ATOM      7  C   UNL     1      20.904   9.402  35.664  1.00  0.00     0.000 C 
BRANCH   7   8
ATOM      8  C   UNL     1      19.805   8.329  35.561  1.00  0.00    -0.000 C 
BRANCH   8   9
ATOM      9  C   UNL     1      19.331   7.751  36.908  1.00  0.00    -0.000 C 
BRANCH   9  10
ATOM     10  C   UNL     1      19.334   6.216  36.934  1.00  0.00    -0.003 C 
ATOM     11  C   UNL     1      17.997   5.655  36.463  1.00  0.00     0.004 C 
ENDBRANCH   9  10
ENDBRANCH   8   9
ENDBRANCH   7   8
ENDBRANCH   1   7
TORSDOF 7
ENDMDL
MODEL 8
REMARK VINA RESULT:    -3.778      2.957      5.758
REMARK INTER + INTRA:          -5.716
REMARK INTER:                  -5.372
REMARK INTRA:                  -0.344
REMARK UNBOUND:                -0.392
REMARK SMILES CCCCCCCCC(=O)[O-]
REMARK SMILES IDX 6 1 7 2 8 3 9 4 10 5 11 6 5 7 4 8 3 9 2 10 1 11
REMARK H PARENT
REMARK Flexibility Score: inf
ROOT
ATOM      1  C   UNL     1      32.363   9.521  48.039  1.00  0.00     0.000 C 
ENDROOT
BRANCH   1   2
ATOM      2  C   UNL     1      31.897   8.339  48.902  1.00  0.00     0.006 C 
BRANCH   2   3
ATOM      3  C   UNL     1      30.410   8.018  48.693  1.00  0.00     0.053 C 
BRANCH   3   4
ATOM      4  C   UNL     1      30.219   6.736  47.942  1.00  0.00     0.041 C 
ATOM      5  O   UNL     1      29.110   6.140  47.976  1.00  0.00    -0.550 OA
ATOM      6  O   UNL     1      31.255   6.216  47.176  1.00  0.00    -0.550 OA
ENDBRANCH   3   4
ENDBRANCH   2   3
ENDBRANCH   1   2
BRANCH   1   7
ATOM      7  C   UNL     1      33.633   9.160  47.253  1.00  0.00     0.000 C 
BRANCH   7   8
ATOM      8  C   UNL     1      34.615  10.339  47.124  1.00  0.00    -0.000 C 
BRANCH   8   9
ATOM      9  C   UNL     1      35.114  10.617  45.694  1.00  0.00    -0.000 C 
BRANCH   9  10
ATOM     10  C   UNL     1      34.670   9.546  44.686  1.00  0.00    -0.003 C 
ATOM     11  C   UNL     1      33.878  10.165  43.539  1.00  0.00     0.004 C 
ENDBRANCH   9  10
ENDBRANCH   8   9
ENDBRANCH   7   8
ENDBRANCH   1   7
TORSDOF 7
ENDMDL
MODEL 9
REMARK VINA RESULT:    -3.775      2.876      5.438
REMARK INTER + INTRA:          -5.712
REMARK INTER:                  -5.331
REMARK INTRA:                  -0.381
REMARK UNBOUND:                -0.392
REMARK SMILES CCCCCCCCC(=O)[O-]
REMARK SMILES IDX 6 1 7 2 8 3 9 4 10 5 11 6 5 7 4 8 3 9 2 10 1 11
REMARK H PARENT
REMARK Flexibility Score: inf
ROOT
ATOM      1  C   UNL     1      33.589   7.177  47.706  1.00  0.00     0.000 C 
ENDROOT
BRANCH   1   2
ATOM      2  C   UNL     1      32.546   6.748  48.750  1.00  0.00     0.006 C 
BRANCH   2   3
ATOM      3  C   UNL     1      31.131   7.216  48.384  1.00  0.00     0.053 C 
BRANCH   3   4
ATOM      4  C   UNL     1      30.229   6.063  48.068  1.00  0.00     0.041 C 
ATOM      5  O   UNL     1      29.018   6.265  47.782  1.00  0.00    -0.550 OA
ATOM      6  O   UNL     1      30.731   4.768  48.056  1.00  0.00    -0.550 OA
ENDBRANCH   3   4
ENDBRANCH   2   3
ENDBRANCH   1   2
BRANCH   1   7
ATOM      7  C   UNL     1      33.686   6.147  46.571  1.00  0.00     0.000 C 
BRANCH   7   8
ATOM      8  C   UNL     1      34.009   6.784  45.207  1.00  0.00    -0.000 C 
BRANCH   8   9
ATOM      9  C   UNL     1      34.093   8.322  45.211  1.00  0.00    -0.000 C 
BRANCH   9  10
ATOM     10  C   UNL     1      34.592   8.898  43.878  1.00  0.00    -0.003 C 
ATOM     11  C   UNL     1      34.009  10.284  43.625  1.00  0.00     0.004 C 
ENDBRANCH   9  10
ENDBRANCH   8   9
ENDBRANCH   7   8
ENDBRANCH   1   7
TORSDOF 7
ENDMDL
