MODEL 1
REMARK VINA RESULT:     1.268      0.000      0.000
REMARK INTER + INTRA:           2.434
REMARK INTER:                   1.935
REMARK INTRA:                   0.499
REMARK UNBOUND:                 0.499
REMARK SMILES CC(=O)CCC=C(C)CCC=C(C)CCC=C(C)C
REMARK SMILES IDX 10 1 11 2 12 3 13 4 14 5 15 6 16 7 18 8 17 9 19 10 9 11 7 12
REMARK SMILES IDX 6 13 8 14 5 15 4 16 2 17 3 18 1 19
REMARK H PARENT
REMARK Flexibility Score: inf
ROOT
ATOM      1  C   UNL     1      26.480  11.892  22.564  1.00  0.00     0.032 C 
ENDROOT
BRANCH   1   2
ATOM      2  C   UNL     1      27.341  11.860  23.802  1.00  0.00    -0.028 C 
ATOM      3  C   UNL     1      27.030  12.474  24.967  1.00  0.00    -0.077 C 
ATOM      4  C   UNL     1      25.724  13.211  25.158  1.00  0.00     0.039 C 
BRANCH   3   5
ATOM      5  C   UNL     1      28.002  12.392  26.123  1.00  0.00     0.034 C 
BRANCH   5   6
ATOM      6  C   UNL     1      28.946  11.196  25.954  1.00  0.00     0.032 C 
BRANCH   6   7
ATOM      7  C   UNL     1      28.293  10.095  25.154  1.00  0.00    -0.028 C 
ATOM      8  C   UNL     1      30.024   8.436  25.854  1.00  0.00     0.039 C 
ATOM      9  C   UNL     1      28.775   8.835  25.103  1.00  0.00    -0.080 C 
ATOM     10  C   UNL     1      28.041   7.813  24.275  1.00  0.00     0.039 C 
ENDBRANCH   6   7
ENDBRANCH   5   6
ENDBRANCH   3   5
ENDBRANCH   1   2
BRANCH   1  11
ATOM     11  C   UNL     1      27.287  11.486  21.326  1.00  0.00     0.034 C 
BRANCH  11  12
ATOM     12  C   UNL     1      28.658  12.119  21.354  1.00  0.00    -0.077 C 
ATOM     13  C   UNL     1      28.813  13.340  21.916  1.00  0.00    -0.028 C 
ATOM     14  C   UNL     1      29.831  11.326  20.827  1.00  0.00     0.039 C 
BRANCH  13  15
ATOM     15  C   UNL     1      30.124  14.085  21.987  1.00  0.00     0.035 C 
BRANCH  15  16
ATOM     16  C   UNL     1      29.885  15.592  22.129  1.00  0.00     0.079 C 
BRANCH  16  17
ATOM     17  C   UNL     1      29.872  15.995  23.580  1.00  0.00     0.130 C 
ATOM     18  O   UNL     1      29.671  17.163  23.878  1.00  0.00    -0.300 OA
ATOM     19  C   UNL     1      30.115  14.995  24.670  1.00  0.00     0.087 C 
ENDBRANCH  16  17
ENDBRANCH  15  16
ENDBRANCH  13  15
ENDBRANCH  11  12
ENDBRANCH   1  11
TORSDOF 9
ENDMDL
MODEL 2
REMARK VINA RESULT:     1.707      2.537      5.580
REMARK INTER + INTRA:           3.104
REMARK INTER:                   1.821
REMARK INTRA:                   1.283
REMARK UNBOUND:                 0.499
REMARK SMILES CC(=O)CCC=C(C)CCC=C(C)CCC=C(C)C
REMARK SMILES IDX 10 1 11 2 12 3 13 4 14 5 15 6 16 7 18 8 17 9 19 10 9 11 7 12
REMARK SMILES IDX 6 13 8 14 5 15 4 16 2 17 3 18 1 19
REMARK H PARENT
REMARK Flexibility Score: inf
ROOT
ATOM      1  C   UNL     1      27.164  11.949  21.782  1.00  0.00     0.032 C 
ENDROOT
BRANCH   1   2
ATOM      2  C   UNL     1      27.940  13.241  21.835  1.00  0.00    -0.028 C 
ATOM      3  C   UNL     1      29.199  13.397  21.367  1.00  0.00    -0.077 C 
ATOM      4  C   UNL     1      29.937  12.279  20.668  1.00  0.00     0.039 C 
BRANCH   3   5
ATOM      5  C   UNL     1      29.877  14.742  21.517  1.00  0.00     0.034 C 
BRANCH   5   6
ATOM      6  C   UNL     1      29.530  15.377  22.868  1.00  0.00     0.032 C 
BRANCH   6   7
ATOM      7  C   UNL     1      30.125  14.587  24.010  1.00  0.00    -0.028 C 
ATOM      8  C   UNL     1      27.869  14.105  24.969  1.00  0.00     0.039 C 
ATOM      9  C   UNL     1      29.377  14.004  24.970  1.00  0.00    -0.080 C 
ATOM     10  C   UNL     1      30.074  13.235  26.062  1.00  0.00     0.039 C 
ENDBRANCH   6   7
ENDBRANCH   5   6
ENDBRANCH   3   5
ENDBRANCH   1   2
BRANCH   1  11
ATOM     11  C   UNL     1      26.978  11.364  23.186  1.00  0.00     0.034 C 
BRANCH  11  12
ATOM     12  C   UNL     1      28.296  10.871  23.735  1.00  0.00    -0.077 C 
ATOM     13  C   UNL     1      28.428  10.673  25.067  1.00  0.00    -0.028 C 
ATOM     14  C   UNL     1      29.401  10.531  22.762  1.00  0.00     0.039 C 
BRANCH  13  15
ATOM     15  C   UNL     1      29.696  10.204  25.737  1.00  0.00     0.035 C 
BRANCH  15  16
ATOM     16  C   UNL     1      29.700   8.679  25.886  1.00  0.00     0.079 C 
BRANCH  16  17
ATOM     17  C   UNL     1      28.435   8.086  25.324  1.00  0.00     0.130 C 
ATOM     18  O   UNL     1      28.451   7.577  24.213  1.00  0.00    -0.300 OA
ATOM     19  C   UNL     1      27.149   8.117  26.095  1.00  0.00     0.087 C 
ENDBRANCH  16  17
ENDBRANCH  15  16
ENDBRANCH  13  15
ENDBRANCH  11  12
ENDBRANCH   1  11
TORSDOF 9
ENDMDL
MODEL 3
REMARK VINA RESULT:     2.052      2.555      5.352
REMARK INTER + INTRA:           3.630
REMARK INTER:                   0.277
REMARK INTRA:                   3.353
REMARK UNBOUND:                 0.499
REMARK SMILES CC(=O)CCC=C(C)CCC=C(C)CCC=C(C)C
REMARK SMILES IDX 10 1 11 2 12 3 13 4 14 5 15 6 16 7 18 8 17 9 19 10 9 11 7 12
REMARK SMILES IDX 6 13 8 14 5 15 4 16 2 17 3 18 1 19
REMARK H PARENT
REMARK Flexibility Score: inf
ROOT
ATOM      1  C   UNL     1      26.614  12.426  22.715  1.00  0.00     0.032 C 
ENDROOT
BRANCH   1   2
ATOM      2  C   UNL     1      27.621  13.263  23.462  1.00  0.00    -0.028 C 
ATOM      3  C   UNL     1      27.784  13.247  24.805  1.00  0.00    -0.077 C 
ATOM      4  C   UNL     1      26.996  12.313  25.695  1.00  0.00     0.039 C 
BRANCH   3   5
ATOM      5  C   UNL     1      28.810  14.166  25.432  1.00  0.00     0.034 C 
BRANCH   5   6
ATOM      6  C   UNL     1      30.119  14.142  24.636  1.00  0.00     0.032 C 
BRANCH   6   7
ATOM      7  C   UNL     1      30.122  15.203  23.560  1.00  0.00    -0.028 C 
ATOM      8  C   UNL     1      30.074  13.488  21.744  1.00  0.00     0.039 C 
ATOM      9  C   UNL     1      30.100  14.914  22.242  1.00  0.00    -0.080 C 
ATOM     10  C   UNL     1      30.102  16.051  21.253  1.00  0.00     0.039 C 
ENDBRANCH   6   7
ENDBRANCH   5   6
ENDBRANCH   3   5
ENDBRANCH   1   2
BRANCH   1  11
ATOM     11  C   UNL     1      26.981  10.939  22.783  1.00  0.00     0.034 C 
BRANCH  11  12
ATOM     12  C   UNL     1      28.412  10.766  23.236  1.00  0.00    -0.077 C 
ATOM     13  C   UNL     1      28.681  10.668  24.559  1.00  0.00    -0.028 C 
ATOM     14  C   UNL     1      29.490  10.622  22.187  1.00  0.00     0.039 C 
BRANCH  13  15
ATOM     15  C   UNL     1      30.067  10.515  25.137  1.00  0.00     0.035 C 
BRANCH  15  16
ATOM     16  C   UNL     1      30.122   9.330  26.108  1.00  0.00     0.079 C 
BRANCH  16  17
ATOM     17  C   UNL     1      29.243   8.207  25.628  1.00  0.00     0.130 C 
ATOM     18  O   UNL     1      29.690   7.389  24.838  1.00  0.00    -0.300 OA
ATOM     19  C   UNL     1      27.822   8.075  26.089  1.00  0.00     0.087 C 
ENDBRANCH  16  17
ENDBRANCH  15  16
ENDBRANCH  13  15
ENDBRANCH  11  12
ENDBRANCH   1  11
TORSDOF 9
ENDMDL
MODEL 4
REMARK VINA RESULT:     2.777      1.677      5.158
REMARK INTER + INTRA:           4.737
REMARK INTER:                   2.235
REMARK INTRA:                   2.502
REMARK UNBOUND:                 0.499
REMARK SMILES CC(=O)CCC=C(C)CCC=C(C)CCC=C(C)C
REMARK SMILES IDX 10 1 11 2 12 3 13 4 14 5 15 6 16 7 18 8 17 9 19 10 9 11 7 12
REMARK SMILES IDX 6 13 8 14 5 15 4 16 2 17 3 18 1 19
REMARK H PARENT
REMARK Flexibility Score: inf
ROOT
ATOM      1  C   UNL     1      27.481   8.731  23.723  1.00  0.00     0.032 C 
ENDROOT
BRANCH   1   2
ATOM      2  C   UNL     1      28.645   9.230  22.904  1.00  0.00    -0.028 C 
ATOM      3  C   UNL     1      28.746  10.482  22.401  1.00  0.00    -0.077 C 
ATOM      4  C   UNL     1      27.706  11.542  22.680  1.00  0.00     0.039 C 
BRANCH   3   5
ATOM      5  C   UNL     1      29.954  10.842  21.563  1.00  0.00     0.034 C 
BRANCH   5   6
ATOM      6  C   UNL     1      29.958  12.339  21.233  1.00  0.00     0.032 C 
BRANCH   6   7
ATOM      7  C   UNL     1      30.039  13.174  22.489  1.00  0.00    -0.028 C 
ATOM      8  C   UNL     1      29.967  15.304  21.186  1.00  0.00     0.039 C 
ATOM      9  C   UNL     1      30.042  14.523  22.477  1.00  0.00    -0.080 C 
ATOM     10  C   UNL     1      30.123  15.258  23.791  1.00  0.00     0.039 C 
ENDBRANCH   6   7
ENDBRANCH   5   6
ENDBRANCH   3   5
ENDBRANCH   1   2
BRANCH   1  11
ATOM     11  C   UNL     1      27.850   8.657  25.209  1.00  0.00     0.034 C 
BRANCH  11  12
ATOM     12  C   UNL     1      28.663   9.864  25.615  1.00  0.00    -0.077 C 
ATOM     13  C   UNL     1      28.050  11.063  25.745  1.00  0.00    -0.028 C 
ATOM     14  C   UNL     1      30.125   9.672  25.945  1.00  0.00     0.039 C 
BRANCH  13  15
ATOM     15  C   UNL     1      28.755  12.343  26.123  1.00  0.00     0.035 C 
BRANCH  15  16
ATOM     16  C   UNL     1      27.964  13.563  25.637  1.00  0.00     0.079 C 
BRANCH  16  17
ATOM     17  C   UNL     1      26.614  13.148  25.115  1.00  0.00     0.130 C 
ATOM     18  O   UNL     1      26.521  12.684  23.989  1.00  0.00    -0.300 OA
ATOM     19  C   UNL     1      25.374  13.303  25.945  1.00  0.00     0.087 C 
ENDBRANCH  16  17
ENDBRANCH  15  16
ENDBRANCH  13  15
ENDBRANCH  11  12
ENDBRANCH   1  11
TORSDOF 9
ENDMDL
MODEL 5
REMARK VINA RESULT:     3.593      2.420      5.503
REMARK INTER + INTRA:           5.983
REMARK INTER:                   1.640
REMARK INTRA:                   4.343
REMARK UNBOUND:                 0.499
REMARK SMILES CC(=O)CCC=C(C)CCC=C(C)CCC=C(C)C
REMARK SMILES IDX 10 1 11 2 12 3 13 4 14 5 15 6 16 7 18 8 17 9 19 10 9 11 7 12
REMARK SMILES IDX 6 13 8 14 5 15 4 16 2 17 3 18 1 19
REMARK H PARENT
REMARK Flexibility Score: inf
ROOT
ATOM      1  C   UNL     1      26.402  12.561  22.413  1.00  0.00     0.032 C 
ENDROOT
BRANCH   1   2
ATOM      2  C   UNL     1      27.744  13.152  22.059  1.00  0.00    -0.028 C 
ATOM      3  C   UNL     1      28.825  12.426  21.691  1.00  0.00    -0.077 C 
ATOM      4  C   UNL     1      28.765  10.924  21.532  1.00  0.00     0.039 C 
BRANCH   3   5
ATOM      5  C   UNL     1      30.125  13.143  21.396  1.00  0.00     0.034 C 
BRANCH   5   6
ATOM      6  C   UNL     1      30.088  14.577  21.937  1.00  0.00     0.032 C 
BRANCH   6   7
ATOM      7  C   UNL     1      30.026  14.588  23.447  1.00  0.00    -0.028 C 
ATOM      8  C   UNL     1      30.091  12.093  23.557  1.00  0.00     0.039 C 
ATOM      9  C   UNL     1      30.028  13.463  24.192  1.00  0.00    -0.080 C 
ATOM     10  C   UNL     1      29.966  13.590  25.693  1.00  0.00     0.039 C 
ENDBRANCH   6   7
ENDBRANCH   5   6
ENDBRANCH   3   5
ENDBRANCH   1   2
BRANCH   1  11
ATOM     11  C   UNL     1      25.867  13.164  23.717  1.00  0.00     0.034 C 
BRANCH  11  12
ATOM     12  C   UNL     1      26.496  12.487  24.912  1.00  0.00    -0.077 C 
ATOM     13  C   UNL     1      26.810  11.173  24.841  1.00  0.00    -0.028 C 
ATOM     14  C   UNL     1      26.834  13.327  26.122  1.00  0.00     0.039 C 
BRANCH  13  15
ATOM     15  C   UNL     1      27.421  10.382  25.972  1.00  0.00     0.035 C 
BRANCH  15  16
ATOM     16  C   UNL     1      28.864   9.986  25.639  1.00  0.00     0.079 C 
BRANCH  16  17
ATOM     17  C   UNL     1      28.921   8.579  25.106  1.00  0.00     0.130 C 
ATOM     18  O   UNL     1      28.006   8.162  24.411  1.00  0.00    -0.300 OA
ATOM     19  C   UNL     1      30.072   7.671  25.419  1.00  0.00     0.087 C 
ENDBRANCH  16  17
ENDBRANCH  15  16
ENDBRANCH  13  15
ENDBRANCH  11  12
ENDBRANCH   1  11
TORSDOF 9
ENDMDL
