MODEL 1
REMARK VINA RESULT:    -3.337      0.000      0.000
REMARK INTER + INTRA:          -5.684
REMARK INTER:                  -5.093
REMARK INTRA:                  -0.591
REMARK UNBOUND:                -0.591
REMARK SMILES CCCCCCCCCCC(=O)[O-]
REMARK SMILES IDX 7 1 8 2 9 3 10 4 11 5 12 6 13 7 6 8 5 9 4 10 3 11 2 12 1 13
REMARK H PARENT
REMARK Flexibility Score: inf
ROOT
ATOM      1  C   UNL     1       8.732   4.383   0.938  1.00  0.00     0.000 C 
ENDROOT
BRANCH   1   2
ATOM      2  C   UNL     1      10.089   3.957   1.517  1.00  0.00     0.000 C 
BRANCH   2   3
ATOM      3  C   UNL     1      10.125   2.478   1.944  1.00  0.00     0.006 C 
BRANCH   3   4
ATOM      4  C   UNL     1      10.012   2.262   3.463  1.00  0.00     0.053 C 
BRANCH   4   5
ATOM      5  C   UNL     1       9.738   0.835   3.827  1.00  0.00     0.041 C 
ATOM      6  O   UNL     1       9.799  -0.067   2.950  1.00  0.00    -0.550 OA
ATOM      7  O   UNL     1       9.384   0.504   5.129  1.00  0.00    -0.550 OA
ENDBRANCH   4   5
ENDBRANCH   3   4
ENDBRANCH   2   3
ENDBRANCH   1   2
BRANCH   1   8
ATOM      8  C   UNL     1       8.449   5.862   1.233  1.00  0.00     0.000 C 
BRANCH   8   9
ATOM      9  C   UNL     1       9.130   6.303   2.538  1.00  0.00    -0.000 C 
BRANCH   9  10
ATOM     10  C   UNL     1       8.207   6.194   3.764  1.00  0.00    -0.000 C 
BRANCH  10  11
ATOM     11  C   UNL     1       8.635   7.040   4.977  1.00  0.00    -0.000 C 
BRANCH  11  12
ATOM     12  C   UNL     1       9.962   7.780   4.754  1.00  0.00    -0.003 C 
ATOM     13  C   UNL     1       9.743   9.286   4.659  1.00  0.00     0.004 C 
ENDBRANCH  11  12
ENDBRANCH  10  11
ENDBRANCH   9  10
ENDBRANCH   8   9
ENDBRANCH   1   8
TORSDOF 9
ENDMDL
MODEL 2
REMARK VINA RESULT:    -3.129     21.452     22.537
REMARK INTER + INTRA:          -5.367
REMARK INTER:                  -4.641
REMARK INTRA:                  -0.725
REMARK UNBOUND:                -0.591
REMARK SMILES CCCCCCCCCCC(=O)[O-]
REMARK SMILES IDX 7 1 8 2 9 3 10 4 11 5 12 6 13 7 6 8 5 9 4 10 3 11 2 12 1 13
REMARK H PARENT
REMARK Flexibility Score: inf
ROOT
ATOM      1  C   UNL     1      -5.562  -6.747  -8.698  1.00  0.00     0.000 C 
ENDROOT
BRANCH   1   2
ATOM      2  C   UNL     1      -4.303  -7.442  -9.236  1.00  0.00     0.000 C 
BRANCH   2   3
ATOM      3  C   UNL     1      -4.461  -8.969  -9.357  1.00  0.00     0.006 C 
BRANCH   3   4
ATOM      4  C   UNL     1      -3.519  -9.770  -8.440  1.00  0.00     0.053 C 
BRANCH   4   5
ATOM      5  C   UNL     1      -3.769  -9.512  -6.986  1.00  0.00     0.041 C 
ATOM      6  O   UNL     1      -2.915  -8.898  -6.293  1.00  0.00    -0.550 OA
ATOM      7  O   UNL     1      -4.932  -9.978  -6.386  1.00  0.00    -0.550 OA
ENDBRANCH   4   5
ENDBRANCH   3   4
ENDBRANCH   2   3
ENDBRANCH   1   2
BRANCH   1   8
ATOM      8  C   UNL     1      -6.317  -6.028  -9.823  1.00  0.00     0.000 C 
BRANCH   8   9
ATOM      9  C   UNL     1      -7.803  -6.417  -9.825  1.00  0.00    -0.000 C 
BRANCH   9  10
ATOM     10  C   UNL     1      -8.391  -6.546  -8.409  1.00  0.00    -0.000 C 
BRANCH  10  11
ATOM     11  C   UNL     1      -9.491  -5.525  -8.066  1.00  0.00    -0.000 C 
BRANCH  11  12
ATOM     12  C   UNL     1      -9.172  -4.699  -6.811  1.00  0.00    -0.003 C 
ATOM     13  C   UNL     1      -7.729  -4.911  -6.365  1.00  0.00     0.004 C 
ENDBRANCH  11  12
ENDBRANCH  10  11
ENDBRANCH   9  10
ENDBRANCH   8   9
ENDBRANCH   1   8
TORSDOF 9
ENDMDL
MODEL 3
REMARK VINA RESULT:    -3.085     21.890     23.206
REMARK INTER + INTRA:          -5.299
REMARK INTER:                  -4.255
REMARK INTRA:                  -1.044
REMARK UNBOUND:                -0.591
REMARK SMILES CCCCCCCCCCC(=O)[O-]
REMARK SMILES IDX 7 1 8 2 9 3 10 4 11 5 12 6 13 7 6 8 5 9 4 10 3 11 2 12 1 13
REMARK H PARENT
REMARK Flexibility Score: inf
ROOT
ATOM      1  C   UNL     1      -5.723  -5.817  -9.196  1.00  0.00     0.000 C 
ENDROOT
BRANCH   1   2
ATOM      2  C   UNL     1      -6.931  -6.476  -9.878  1.00  0.00     0.000 C 
BRANCH   2   3
ATOM      3  C   UNL     1      -8.214  -6.407  -9.029  1.00  0.00     0.006 C 
BRANCH   3   4
ATOM      4  C   UNL     1      -7.972  -6.544  -7.516  1.00  0.00     0.053 C 
BRANCH   4   5
ATOM      5  C   UNL     1      -8.229  -5.271  -6.770  1.00  0.00     0.041 C 
ATOM      6  O   UNL     1      -9.409  -4.878  -6.572  1.00  0.00    -0.550 OA
ATOM      7  O   UNL     1      -7.165  -4.500  -6.320  1.00  0.00    -0.550 OA
ENDBRANCH   4   5
ENDBRANCH   3   4
ENDBRANCH   2   3
ENDBRANCH   1   2
BRANCH   1   8
ATOM      8  C   UNL     1      -4.407  -6.400  -9.726  1.00  0.00     0.000 C 
BRANCH   8   9
ATOM      9  C   UNL     1      -4.437  -7.935  -9.704  1.00  0.00    -0.000 C 
BRANCH   9  10
ATOM     10  C   UNL     1      -3.774  -8.531  -8.450  1.00  0.00    -0.000 C 
BRANCH  10  11
ATOM     11  C   UNL     1      -4.731  -9.267  -7.495  1.00  0.00    -0.000 C 
BRANCH  11  12
ATOM     12  C   UNL     1      -5.950  -9.867  -8.213  1.00  0.00    -0.003 C 
ATOM     13  C   UNL     1      -7.128 -10.025  -7.257  1.00  0.00     0.004 C 
ENDBRANCH  11  12
ENDBRANCH  10  11
ENDBRANCH   9  10
ENDBRANCH   8   9
ENDBRANCH   1   8
TORSDOF 9
ENDMDL
MODEL 4
REMARK VINA RESULT:    -3.000      2.080      3.338
REMARK INTER + INTRA:          -5.170
REMARK INTER:                  -4.083
REMARK INTRA:                  -1.087
REMARK UNBOUND:                -0.591
REMARK SMILES CCCCCCCCCCC(=O)[O-]
REMARK SMILES IDX 7 1 8 2 9 3 10 4 11 5 12 6 13 7 6 8 5 9 4 10 3 11 2 12 1 13
REMARK H PARENT
REMARK Flexibility Score: inf
ROOT
ATOM      1  C   UNL     1       6.494   6.057   3.443  1.00  0.00     0.000 C 
ENDROOT
BRANCH   1   2
ATOM      2  C   UNL     1       6.610   5.801   1.934  1.00  0.00     0.000 C 
BRANCH   2   3
ATOM      3  C   UNL     1       8.053   5.922   1.411  1.00  0.00     0.006 C 
BRANCH   3   4
ATOM      4  C   UNL     1       9.089   5.151   2.249  1.00  0.00     0.053 C 
BRANCH   4   5
ATOM      5  C   UNL     1       9.685   3.992   1.511  1.00  0.00     0.041 C 
ATOM      6  O   UNL     1       9.783   4.019   0.256  1.00  0.00    -0.550 OA
ATOM      7  O   UNL     1      10.103   2.865   2.208  1.00  0.00    -0.550 OA
ENDBRANCH   4   5
ENDBRANCH   3   4
ENDBRANCH   2   3
ENDBRANCH   1   2
BRANCH   1   8
ATOM      8  C   UNL     1       6.318   7.553   3.735  1.00  0.00     0.000 C 
BRANCH   8   9
ATOM      9  C   UNL     1       7.157   7.979   4.949  1.00  0.00    -0.000 C 
BRANCH   9  10
ATOM     10  C   UNL     1       8.175   6.909   5.381  1.00  0.00    -0.000 C 
BRANCH  10  11
ATOM     11  C   UNL     1       9.637   7.213   5.006  1.00  0.00    -0.000 C 
BRANCH  11  12
ATOM     12  C   UNL     1       9.856   8.674   4.587  1.00  0.00    -0.003 C 
ATOM     13  C   UNL     1      10.101   8.786   3.086  1.00  0.00     0.004 C 
ENDBRANCH  11  12
ENDBRANCH  10  11
ENDBRANCH   9  10
ENDBRANCH   8   9
ENDBRANCH   1   8
TORSDOF 9
ENDMDL
MODEL 5
REMARK VINA RESULT:    -2.978      3.274      5.432
REMARK INTER + INTRA:          -5.136
REMARK INTER:                  -4.527
REMARK INTRA:                  -0.609
REMARK UNBOUND:                -0.591
REMARK SMILES CCCCCCCCCCC(=O)[O-]
REMARK SMILES IDX 7 1 8 2 9 3 10 4 11 5 12 6 13 7 6 8 5 9 4 10 3 11 2 12 1 13
REMARK H PARENT
REMARK Flexibility Score: inf
ROOT
ATOM      1  C   UNL     1       6.309   5.740   2.023  1.00  0.00     0.000 C 
ENDROOT
BRANCH   1   2
ATOM      2  C   UNL     1       6.308   6.235   3.476  1.00  0.00     0.000 C 
BRANCH   2   3
ATOM      3  C   UNL     1       7.718   6.302   4.092  1.00  0.00     0.006 C 
BRANCH   3   4
ATOM      4  C   UNL     1       7.902   7.440   5.113  1.00  0.00     0.053 C 
BRANCH   4   5
ATOM      5  C   UNL     1       9.303   7.966   5.147  1.00  0.00     0.041 C 
ATOM      6  O   UNL     1      10.110   7.570   6.029  1.00  0.00    -0.550 OA
ATOM      7  O   UNL     1       9.711   8.920   4.223  1.00  0.00    -0.550 OA
ENDBRANCH   4   5
ENDBRANCH   3   4
ENDBRANCH   2   3
ENDBRANCH   1   2
BRANCH   1   8
ATOM      8  C   UNL     1       7.630   6.088   1.325  1.00  0.00     0.000 C 
BRANCH   8   9
ATOM      9  C   UNL     1       8.327   4.822   0.803  1.00  0.00    -0.000 C 
BRANCH   9  10
ATOM     10  C   UNL     1       9.644   4.515   1.537  1.00  0.00    -0.000 C 
BRANCH  10  11
ATOM     11  C   UNL     1       9.898   3.023   1.823  1.00  0.00    -0.000 C 
BRANCH  11  12
ATOM     12  C   UNL     1      10.125   2.728   3.312  1.00  0.00    -0.003 C 
ATOM     13  C   UNL     1      10.068   4.007   4.141  1.00  0.00     0.004 C 
ENDBRANCH  11  12
ENDBRANCH  10  11
ENDBRANCH   9  10
ENDBRANCH   8   9
ENDBRANCH   1   8
TORSDOF 9
ENDMDL
MODEL 6
REMARK VINA RESULT:    -2.976      3.979      5.718
REMARK INTER + INTRA:          -5.133
REMARK INTER:                  -4.499
REMARK INTRA:                  -0.635
REMARK UNBOUND:                -0.591
REMARK SMILES CCCCCCCCCCC(=O)[O-]
REMARK SMILES IDX 7 1 8 2 9 3 10 4 11 5 12 6 13 7 6 8 5 9 4 10 3 11 2 12 1 13
REMARK H PARENT
REMARK Flexibility Score: inf
ROOT
ATOM      1  C   UNL     1       9.292   5.037   4.019  1.00  0.00     0.000 C 
ENDROOT
BRANCH   1   2
ATOM      2  C   UNL     1      10.125   6.209   4.558  1.00  0.00     0.000 C 
BRANCH   2   3
ATOM      3  C   UNL     1       9.431   6.965   5.706  1.00  0.00     0.006 C 
BRANCH   3   4
ATOM      4  C   UNL     1       7.913   7.133   5.516  1.00  0.00     0.053 C 
BRANCH   4   5
ATOM      5  C   UNL     1       7.544   8.474   4.961  1.00  0.00     0.041 C 
ATOM      6  O   UNL     1       6.334   8.816   4.874  1.00  0.00    -0.550 OA
ATOM      7  O   UNL     1       8.534   9.337   4.509  1.00  0.00    -0.550 OA
ENDBRANCH   4   5
ENDBRANCH   3   4
ENDBRANCH   2   3
ENDBRANCH   1   2
BRANCH   1   8
ATOM      8  C   UNL     1      10.125   4.158   3.078  1.00  0.00     0.000 C 
BRANCH   8   9
ATOM      9  C   UNL     1      10.069   4.687   1.637  1.00  0.00    -0.000 C 
BRANCH   9  10
ATOM     10  C   UNL     1       9.041   5.817   1.451  1.00  0.00    -0.000 C 
BRANCH  10  11
ATOM     11  C   UNL     1       7.683   5.373   0.877  1.00  0.00    -0.000 C 
BRANCH  11  12
ATOM     12  C   UNL     1       6.522   6.277   1.315  1.00  0.00    -0.003 C 
ATOM     13  C   UNL     1       6.023   5.897   2.705  1.00  0.00     0.004 C 
ENDBRANCH  11  12
ENDBRANCH  10  11
ENDBRANCH   9  10
ENDBRANCH   8   9
ENDBRANCH   1   8
TORSDOF 9
ENDMDL
MODEL 7
REMARK VINA RESULT:    -2.950      2.773      4.378
REMARK INTER + INTRA:          -5.093
REMARK INTER:                  -4.124
REMARK INTRA:                  -0.969
REMARK UNBOUND:                -0.591
REMARK SMILES CCCCCCCCCCC(=O)[O-]
REMARK SMILES IDX 7 1 8 2 9 3 10 4 11 5 12 6 13 7 6 8 5 9 4 10 3 11 2 12 1 13
REMARK H PARENT
REMARK Flexibility Score: inf
ROOT
ATOM      1  C   UNL     1       9.480   6.734   5.630  1.00  0.00     0.000 C 
ENDROOT
BRANCH   1   2
ATOM      2  C   UNL     1       9.894   5.457   4.884  1.00  0.00     0.000 C 
BRANCH   2   3
ATOM      3  C   UNL     1      10.125   5.686   3.380  1.00  0.00     0.006 C 
BRANCH   3   4
ATOM      4  C   UNL     1       9.750   4.481   2.498  1.00  0.00     0.053 C 
BRANCH   4   5
ATOM      5  C   UNL     1       9.284   4.885   1.133  1.00  0.00     0.041 C 
ATOM      6  O   UNL     1       9.370   4.080   0.168  1.00  0.00    -0.550 OA
ATOM      7  O   UNL     1       8.783   6.162   0.918  1.00  0.00    -0.550 OA
ENDBRANCH   4   5
ENDBRANCH   3   4
ENDBRANCH   2   3
ENDBRANCH   1   2
BRANCH   1   8
ATOM      8  C   UNL     1       9.891   7.987   4.846  1.00  0.00     0.000 C 
BRANCH   8   9
ATOM      9  C   UNL     1       8.659   8.807   4.435  1.00  0.00    -0.000 C 
BRANCH   9  10
ATOM     10  C   UNL     1       7.360   8.313   5.096  1.00  0.00    -0.000 C 
BRANCH  10  11
ATOM     11  C   UNL     1       6.296   7.778   4.119  1.00  0.00    -0.000 C 
BRANCH  11  12
ATOM     12  C   UNL     1       6.501   6.299   3.761  1.00  0.00    -0.003 C 
ATOM     13  C   UNL     1       5.820   5.953   2.441  1.00  0.00     0.004 C 
ENDBRANCH  11  12
ENDBRANCH  10  11
ENDBRANCH   9  10
ENDBRANCH   8   9
ENDBRANCH   1   8
TORSDOF 9
ENDMDL
MODEL 8
REMARK VINA RESULT:    -2.948     21.547     23.318
REMARK INTER + INTRA:          -5.090
REMARK INTER:                  -4.141
REMARK INTRA:                  -0.950
REMARK UNBOUND:                -0.591
REMARK SMILES CCCCCCCCCCC(=O)[O-]
REMARK SMILES IDX 7 1 8 2 9 3 10 4 11 5 12 6 13 7 6 8 5 9 4 10 3 11 2 12 1 13
REMARK H PARENT
REMARK Flexibility Score: inf
ROOT
ATOM      1  C   UNL     1      -6.618  -6.357  -8.071  1.00  0.00     0.000 C 
ENDROOT
BRANCH   1   2
ATOM      2  C   UNL     1      -8.135  -6.446  -8.290  1.00  0.00     0.000 C 
BRANCH   2   3
ATOM      3  C   UNL     1      -8.624  -7.883  -8.545  1.00  0.00     0.006 C 
BRANCH   3   4
ATOM      4  C   UNL     1      -7.674  -8.971  -8.014  1.00  0.00     0.053 C 
BRANCH   4   5
ATOM      5  C   UNL     1      -8.115  -9.533  -6.698  1.00  0.00     0.041 C 
ATOM      6  O   UNL     1      -9.256 -10.053  -6.578  1.00  0.00    -0.550 OA
ATOM      7  O   UNL     1      -7.278  -9.456  -5.592  1.00  0.00    -0.550 OA
ENDBRANCH   4   5
ENDBRANCH   3   4
ENDBRANCH   2   3
ENDBRANCH   1   2
BRANCH   1   8
ATOM      8  C   UNL     1      -5.896  -5.983  -9.372  1.00  0.00     0.000 C 
BRANCH   8   9
ATOM      9  C   UNL     1      -4.496  -6.613  -9.424  1.00  0.00    -0.000 C 
BRANCH   9  10
ATOM     10  C   UNL     1      -4.509  -8.066  -9.931  1.00  0.00    -0.000 C 
BRANCH  10  11
ATOM     11  C   UNL     1      -3.753  -9.072  -9.044  1.00  0.00    -0.000 C 
BRANCH  11  12
ATOM     12  C   UNL     1      -4.199  -9.029  -7.575  1.00  0.00    -0.003 C 
ATOM     13  C   UNL     1      -2.999  -9.056  -6.635  1.00  0.00     0.004 C 
ENDBRANCH  11  12
ENDBRANCH  10  11
ENDBRANCH   9  10
ENDBRANCH   8   9
ENDBRANCH   1   8
TORSDOF 9
ENDMDL
