MODEL 1
REMARK VINA RESULT:    -5.142      0.000      0.000
REMARK INTER + INTRA:          -5.615
REMARK INTER:                  -5.593
REMARK INTRA:                  -0.023
REMARK UNBOUND:                -0.023
REMARK SMILES CC1(C)[C@@H]2CC=C(CO)[C@H]1C2
REMARK SMILES IDX 8 1 7 2 1 3 2 4 4 5 3 6 10 7 5 8 11 9 6 10 9 11
REMARK H PARENT 9 12
REMARK Flexibility Score: inf
ROOT
ATOM      1  C   UNL     1       2.457   0.438  -7.661  1.00  0.00     0.187 C 
ENDROOT
BRANCH   1   2
ATOM      2  C   UNL     1       3.154   0.389  -8.992  1.00  0.00    -0.045 C 
ATOM      3  C   UNL     1       2.644  -1.961 -12.064  1.00  0.00     0.012 C 
ATOM      4  C   UNL     1       3.388  -1.142 -10.979  1.00  0.00    -0.026 C 
ATOM      5  C   UNL     1       4.082   0.117 -11.567  1.00  0.00    -0.000 C 
ATOM      6  C   UNL     1       4.232  -2.125 -10.120  1.00  0.00     0.012 C 
ATOM      7  C   UNL     1       2.450  -0.144 -10.249  1.00  0.00     0.023 C 
ATOM      8  C   UNL     1       5.100   0.712 -10.534  1.00  0.00     0.031 C 
ATOM      9  C   UNL     1       2.765   0.890 -11.349  1.00  0.00     0.013 C 
ATOM     10  C   UNL     1       4.439   0.824  -9.146  1.00  0.00    -0.025 C 
ENDBRANCH   1   2
BRANCH   1  11
ATOM     11  O   UNL     1       2.750   1.640  -7.003  1.00  0.00    -0.392 OA
ATOM     12  H   UNL     1       2.119   2.319  -7.361  1.00  0.00     0.211 HD
ENDBRANCH   1  11
TORSDOF 2
ENDMDL
MODEL 2
REMARK VINA RESULT:    -5.048      1.000      2.406
REMARK INTER + INTRA:          -5.514
REMARK INTER:                  -5.468
REMARK INTRA:                  -0.045
REMARK UNBOUND:                -0.023
REMARK SMILES CC1(C)[C@@H]2CC=C(CO)[C@H]1C2
REMARK SMILES IDX 8 1 7 2 1 3 2 4 4 5 3 6 10 7 5 8 11 9 6 10 9 11
REMARK H PARENT 9 12
REMARK Flexibility Score: inf
ROOT
ATOM      1  C   UNL     1       2.547   0.399  -7.299  1.00  0.00     0.187 C 
ENDROOT
BRANCH   1   2
ATOM      2  C   UNL     1       3.257  -0.016  -8.557  1.00  0.00    -0.045 C 
ATOM      3  C   UNL     1       4.159   2.001 -11.772  1.00  0.00     0.012 C 
ATOM      4  C   UNL     1       3.659   0.824 -10.898  1.00  0.00    -0.026 C 
ATOM      5  C   UNL     1       4.650  -0.373 -10.903  1.00  0.00    -0.000 C 
ATOM      6  C   UNL     1       2.167   0.556 -11.248  1.00  0.00     0.012 C 
ATOM      7  C   UNL     1       4.047   0.992  -9.405  1.00  0.00     0.023 C 
ATOM      8  C   UNL     1       3.962  -1.654 -10.316  1.00  0.00     0.031 C 
ATOM      9  C   UNL     1       5.383   0.289  -9.718  1.00  0.00     0.013 C 
ATOM     10  C   UNL     1       3.240  -1.309  -8.998  1.00  0.00    -0.025 C 
ENDBRANCH   1   2
BRANCH   1  11
ATOM     11  O   UNL     1       2.838   1.736  -6.995  1.00  0.00    -0.392 OA
ATOM     12  H   UNL     1       2.433   1.919  -6.107  1.00  0.00     0.211 HD
ENDBRANCH   1  11
TORSDOF 2
ENDMDL
MODEL 3
REMARK VINA RESULT:    -4.878      1.467      2.580
REMARK INTER + INTRA:          -5.329
REMARK INTER:                  -5.281
REMARK INTRA:                  -0.048
REMARK UNBOUND:                -0.023
REMARK SMILES CC1(C)[C@@H]2CC=C(CO)[C@H]1C2
REMARK SMILES IDX 8 1 7 2 1 3 2 4 4 5 3 6 10 7 5 8 11 9 6 10 9 11
REMARK H PARENT 9 12
REMARK Flexibility Score: inf
ROOT
ATOM      1  C   UNL     1       4.507   2.021 -10.498  1.00  0.00     0.187 C 
ENDROOT
BRANCH   1   2
ATOM      2  C   UNL     1       3.996   0.610 -10.425  1.00  0.00    -0.045 C 
ATOM      3  C   UNL     1       0.363  -0.788 -10.172  1.00  0.00     0.012 C 
ATOM      4  C   UNL     1       1.876  -0.637  -9.877  1.00  0.00    -0.026 C 
ATOM      5  C   UNL     1       2.707  -1.821 -10.444  1.00  0.00    -0.000 C 
ATOM      6  C   UNL     1       2.045  -0.260  -8.378  1.00  0.00     0.012 C 
ATOM      7  C   UNL     1       2.599   0.231 -10.940  1.00  0.00     0.023 C 
ATOM      8  C   UNL     1       4.150  -1.819  -9.831  1.00  0.00     0.031 C 
ATOM      9  C   UNL     1       2.816  -1.047 -11.774  1.00  0.00     0.013 C 
ATOM     10  C   UNL     1       4.753  -0.402  -9.905  1.00  0.00    -0.025 C 
ENDBRANCH   1   2
BRANCH   1  11
ATOM     11  O   UNL     1       4.520   2.600  -9.222  1.00  0.00    -0.392 OA
ATOM     12  H   UNL     1       3.735   3.207  -9.179  1.00  0.00     0.211 HD
ENDBRANCH   1  11
TORSDOF 2
ENDMDL
MODEL 4
REMARK VINA RESULT:    -4.534      2.314      3.585
REMARK INTER + INTRA:          -4.954
REMARK INTER:                  -4.931
REMARK INTRA:                  -0.023
REMARK UNBOUND:                -0.023
REMARK SMILES CC1(C)[C@@H]2CC=C(CO)[C@H]1C2
REMARK SMILES IDX 8 1 7 2 1 3 2 4 4 5 3 6 10 7 5 8 11 9 6 10 9 11
REMARK H PARENT 9 12
REMARK Flexibility Score: inf
ROOT
ATOM      1  C   UNL     1       4.381   1.093 -11.909  1.00  0.00     0.187 C 
ENDROOT
BRANCH   1   2
ATOM      2  C   UNL     1       3.428   0.015 -11.471  1.00  0.00    -0.045 C 
ATOM      3  C   UNL     1       2.523  -1.314  -7.917  1.00  0.00     0.012 C 
ATOM      4  C   UNL     1       2.884  -1.348  -9.424  1.00  0.00    -0.026 C 
ATOM      5  C   UNL     1       1.673  -1.755 -10.308  1.00  0.00    -0.000 C 
ATOM      6  C   UNL     1       4.220  -2.125  -9.588  1.00  0.00     0.012 C 
ATOM      7  C   UNL     1       2.756   0.047 -10.091  1.00  0.00     0.023 C 
ATOM      8  C   UNL     1       2.152  -2.121 -11.755  1.00  0.00     0.031 C 
ATOM      9  C   UNL     1       1.271  -0.267 -10.364  1.00  0.00     0.013 C 
ATOM     10  C   UNL     1       3.111  -1.035 -12.284  1.00  0.00    -0.025 C 
ENDBRANCH   1   2
BRANCH   1  11
ATOM     11  O   UNL     1       4.591   1.023 -13.292  1.00  0.00    -0.392 OA
ATOM     12  H   UNL     1       5.572   0.942 -13.425  1.00  0.00     0.211 HD
ENDBRANCH   1  11
TORSDOF 2
ENDMDL
MODEL 5
REMARK VINA RESULT:    -4.293     14.175     15.697
REMARK INTER + INTRA:          -4.692
REMARK INTER:                  -4.632
REMARK INTRA:                  -0.060
REMARK UNBOUND:                -0.023
REMARK SMILES CC1(C)[C@@H]2CC=C(CO)[C@H]1C2
REMARK SMILES IDX 8 1 7 2 1 3 2 4 4 5 3 6 10 7 5 8 11 9 6 10 9 11
REMARK H PARENT 9 12
REMARK Flexibility Score: inf
ROOT
ATOM      1  C   UNL     1      -4.215  11.417 -11.828  1.00  0.00     0.187 C 
ENDROOT
BRANCH   1   2
ATOM      2  C   UNL     1      -4.460  11.756 -13.273  1.00  0.00    -0.045 C 
ATOM      3  C   UNL     1      -3.476  14.893 -15.371  1.00  0.00     0.012 C 
ATOM      4  C   UNL     1      -4.351  13.737 -14.823  1.00  0.00    -0.026 C 
ATOM      5  C   UNL     1      -4.578  12.622 -15.881  1.00  0.00    -0.000 C 
ATOM      6  C   UNL     1      -5.590  14.357 -14.117  1.00  0.00     0.012 C 
ATOM      7  C   UNL     1      -3.516  12.680 -14.054  1.00  0.00     0.023 C 
ATOM      8  C   UNL     1      -5.735  11.666 -15.426  1.00  0.00     0.031 C 
ATOM      9  C   UNL     1      -3.272  11.959 -15.395  1.00  0.00     0.013 C 
ATOM     10  C   UNL     1      -5.528  11.249 -13.957  1.00  0.00    -0.025 C 
ENDBRANCH   1   2
BRANCH   1  11
ATOM     11  O   UNL     1      -3.708  12.532 -11.148  1.00  0.00    -0.392 OA
ATOM     12  H   UNL     1      -3.442  13.191 -11.842  1.00  0.00     0.211 HD
ENDBRANCH   1  11
TORSDOF 2
ENDMDL
MODEL 6
REMARK VINA RESULT:    -4.169     14.652     15.977
REMARK INTER + INTRA:          -4.557
REMARK INTER:                  -4.514
REMARK INTRA:                  -0.044
REMARK UNBOUND:                -0.023
REMARK SMILES CC1(C)[C@@H]2CC=C(CO)[C@H]1C2
REMARK SMILES IDX 8 1 7 2 1 3 2 4 4 5 3 6 10 7 5 8 11 9 6 10 9 11
REMARK H PARENT 9 12
REMARK Flexibility Score: inf
ROOT
ATOM      1  C   UNL     1      -2.621  12.080 -15.587  1.00  0.00     0.187 C 
ENDROOT
BRANCH   1   2
ATOM      2  C   UNL     1      -3.812  12.033 -14.671  1.00  0.00    -0.045 C 
ATOM      3  C   UNL     1      -7.478  13.270 -15.171  1.00  0.00     0.012 C 
ATOM      4  C   UNL     1      -6.118  13.028 -14.469  1.00  0.00    -0.026 C 
ATOM      5  C   UNL     1      -6.220  11.964 -13.341  1.00  0.00    -0.000 C 
ATOM      6  C   UNL     1      -5.490  14.410 -14.134  1.00  0.00     0.012 C 
ATOM      7  C   UNL     1      -5.247  11.985 -15.218  1.00  0.00     0.023 C 
ATOM      8  C   UNL     1      -4.941  12.005 -12.436  1.00  0.00     0.031 C 
ATOM      9  C   UNL     1      -5.947  10.879 -14.403  1.00  0.00     0.013 C 
ATOM     10  C   UNL     1      -3.673  12.020 -13.312  1.00  0.00    -0.025 C 
ENDBRANCH   1   2
BRANCH   1  11
ATOM     11  O   UNL     1      -2.972  11.623 -16.864  1.00  0.00    -0.392 OA
ATOM     12  H   UNL     1      -2.267  10.979 -17.137  1.00  0.00     0.211 HD
ENDBRANCH   1  11
TORSDOF 2
ENDMDL
MODEL 7
REMARK VINA RESULT:    -4.033     14.542     15.741
REMARK INTER + INTRA:          -4.409
REMARK INTER:                  -4.383
REMARK INTRA:                  -0.026
REMARK UNBOUND:                -0.023
REMARK SMILES CC1(C)[C@@H]2CC=C(CO)[C@H]1C2
REMARK SMILES IDX 8 1 7 2 1 3 2 4 4 5 3 6 10 7 5 8 11 9 6 10 9 11
REMARK H PARENT 9 12
REMARK Flexibility Score: inf
ROOT
ATOM      1  C   UNL     1      -5.491  12.532 -11.125  1.00  0.00     0.187 C 
ENDROOT
BRANCH   1   2
ATOM      2  C   UNL     1      -5.025  12.556 -12.554  1.00  0.00    -0.045 C 
ATOM      3  C   UNL     1      -7.026  12.775 -15.896  1.00  0.00     0.012 C 
ATOM      4  C   UNL     1      -5.958  12.298 -14.880  1.00  0.00    -0.026 C 
ATOM      5  C   UNL     1      -4.533  12.793 -15.250  1.00  0.00    -0.000 C 
ATOM      6  C   UNL     1      -6.175  10.780 -14.622  1.00  0.00     0.012 C 
ATOM      7  C   UNL     1      -5.845  13.244 -13.656  1.00  0.00     0.023 C 
ATOM      8  C   UNL     1      -3.452  12.012 -14.425  1.00  0.00     0.031 C 
ATOM      9  C   UNL     1      -4.821  14.080 -14.450  1.00  0.00     0.013 C 
ATOM     10  C   UNL     1      -3.849  11.977 -12.936  1.00  0.00    -0.025 C 
ENDBRANCH   1   2
BRANCH   1  11
ATOM     11  O   UNL     1      -4.612  13.263 -10.315  1.00  0.00    -0.392 OA
ATOM     12  H   UNL     1      -4.468  14.134 -10.770  1.00  0.00     0.211 HD
ENDBRANCH   1  11
TORSDOF 2
ENDMDL
MODEL 8
REMARK VINA RESULT:    -4.004     15.228     16.525
REMARK INTER + INTRA:          -4.377
REMARK INTER:                  -4.355
REMARK INTRA:                  -0.023
REMARK UNBOUND:                -0.023
REMARK SMILES CC1(C)[C@@H]2CC=C(CO)[C@H]1C2
REMARK SMILES IDX 8 1 7 2 1 3 2 4 4 5 3 6 10 7 5 8 11 9 6 10 9 11
REMARK H PARENT 9 12
REMARK Flexibility Score: inf
ROOT
ATOM      1  C   UNL     1      -5.402  15.679 -14.133  1.00  0.00     0.187 C 
ENDROOT
BRANCH   1   2
ATOM      2  C   UNL     1      -4.896  14.411 -14.763  1.00  0.00    -0.045 C 
ATOM      3  C   UNL     1      -6.222  10.747 -14.566  1.00  0.00     0.012 C 
ATOM      4  C   UNL     1      -5.207  11.918 -14.573  1.00  0.00    -0.026 C 
ATOM      5  C   UNL     1      -4.360  11.953 -15.875  1.00  0.00    -0.000 C 
ATOM      6  C   UNL     1      -4.469  11.932 -13.205  1.00  0.00     0.012 C 
ATOM      7  C   UNL     1      -5.838  13.241 -15.084  1.00  0.00     0.023 C 
ATOM      8  C   UNL     1      -3.127  12.906 -15.699  1.00  0.00     0.031 C 
ATOM      9  C   UNL     1      -5.466  12.814 -16.518  1.00  0.00     0.013 C 
ATOM     10  C   UNL     1      -3.579  14.246 -15.087  1.00  0.00    -0.025 C 
ENDBRANCH   1   2
BRANCH   1  11
ATOM     11  O   UNL     1      -4.382  16.638 -14.084  1.00  0.00    -0.392 OA
ATOM     12  H   UNL     1      -3.661  16.255 -13.519  1.00  0.00     0.211 HD
ENDBRANCH   1  11
TORSDOF 2
ENDMDL
MODEL 9
REMARK VINA RESULT:    -3.978     14.330     15.755
REMARK INTER + INTRA:          -4.350
REMARK INTER:                  -4.300
REMARK INTRA:                  -0.050
REMARK UNBOUND:                -0.023
REMARK SMILES CC1(C)[C@@H]2CC=C(CO)[C@H]1C2
REMARK SMILES IDX 8 1 7 2 1 3 2 4 4 5 3 6 10 7 5 8 11 9 6 10 9 11
REMARK H PARENT 9 12
REMARK Flexibility Score: inf
ROOT
ATOM      1  C   UNL     1      -4.591  11.545 -11.524  1.00  0.00     0.187 C 
ENDROOT
BRANCH   1   2
ATOM      2  C   UNL     1      -5.323  11.954 -12.772  1.00  0.00    -0.045 C 
ATOM      3  C   UNL     1      -4.187  12.019 -16.503  1.00  0.00     0.012 C 
ATOM      4  C   UNL     1      -4.846  12.497 -15.185  1.00  0.00    -0.026 C 
ATOM      5  C   UNL     1      -6.398  12.453 -15.255  1.00  0.00    -0.000 C 
ATOM      6  C   UNL     1      -4.159  13.822 -14.749  1.00  0.00     0.012 C 
ATOM      7  C   UNL     1      -4.974  11.355 -14.143  1.00  0.00     0.023 C 
ATOM      8  C   UNL     1      -7.021  13.263 -14.066  1.00  0.00     0.031 C 
ATOM      9  C   UNL     1      -6.332  10.988 -14.774  1.00  0.00     0.013 C 
ATOM     10  C   UNL     1      -6.338  12.868 -12.742  1.00  0.00    -0.025 C 
ENDBRANCH   1   2
BRANCH   1  11
ATOM     11  O   UNL     1      -3.679  12.541 -11.149  1.00  0.00    -0.392 OA
ATOM     12  H   UNL     1      -4.216  13.296 -10.793  1.00  0.00     0.211 HD
ENDBRANCH   1  11
TORSDOF 2
ENDMDL
