MODEL 1
REMARK VINA RESULT:    62.628      0.000      0.000
REMARK INTER + INTRA:          68.127
REMARK INTER:                  68.119
REMARK INTRA:                   0.007
REMARK UNBOUND:                 0.007
REMARK SMILES CC1(C)CC[C@]2(C(=O)[O-])CC[C@]3(C)C(=CC[C@H]4[C@@]5(C)CC[C@H](O)C(C)(C)[C@H]5CC[C@@]43C)[C@@H]2C1
REMARK SMILES IDX 6 1 5 2 10 3 32 4 4 5 11 6 14 7 33 8 2 9 12 10 15 11 1 12
REMARK SMILES IDX 3 13 13 14 30 15 16 16 17 17 29 18 31 19 18 20 28 21 27 22
REMARK SMILES IDX 20 23 19 24 24 25 21 26 22 27 25 28 26 29 7 30 8 31 9 32
REMARK SMILES IDX 23 33
REMARK H PARENT 23 34
REMARK Flexibility Score: inf
ROOT
ATOM      1  C   UNL     1     -51.208 121.474 -10.671  1.00  0.00     0.017 C 
ATOM      2  C   UNL     1     -49.944 121.814 -11.545  1.00  0.00     0.014 C 
ATOM      3  C   UNL     1     -52.337 120.931 -11.599  1.00  0.00     0.014 C 
ATOM      4  C   UNL     1     -51.663 122.742  -9.842  1.00  0.00     0.028 C 
ATOM      5  C   UNL     1     -48.899 122.606 -10.746  1.00  0.00     0.007 C 
ATOM      6  C   UNL     1     -53.237 122.043 -12.124  1.00  0.00     0.013 C 
ATOM      7  C   UNL     1     -53.193 122.871  -9.734  1.00  0.00    -0.064 C 
ATOM      8  C   UNL     1     -50.999 124.052 -10.303  1.00  0.00     0.015 C 
ATOM      9  C   UNL     1     -49.438 123.994 -10.250  1.00  0.00    -0.035 C 
ATOM     10  C   UNL     1     -54.093 122.735 -10.993  1.00  0.00    -0.006 C 
ATOM     11  C   UNL     1     -53.725 122.932  -8.497  1.00  0.00    -0.027 C 
ATOM     12  C   UNL     1     -48.875 125.125 -11.158  1.00  0.00     0.011 C 
ATOM     13  C   UNL     1     -48.956 124.226  -8.804  1.00  0.00     0.011 C 
ATOM     14  C   UNL     1     -54.363 124.181 -11.497  1.00  0.00     0.017 C 
ATOM     15  C   UNL     1     -55.513 121.959 -10.644  1.00  0.00    -0.020 C 
ATOM     16  C   UNL     1     -55.002 122.205  -8.171  1.00  0.00     0.032 C 
ATOM     17  C   UNL     1     -55.359 121.184  -9.292  1.00  0.00     0.006 C 
ATOM     18  C   UNL     1     -55.902 120.904 -11.725  1.00  0.00     0.008 C 
ATOM     19  C   UNL     1     -56.723 122.955 -10.500  1.00  0.00     0.012 C 
ATOM     20  C   UNL     1     -56.475 120.077  -8.910  1.00  0.00    -0.025 C 
ATOM     21  C   UNL     1     -57.269 120.282 -11.499  1.00  0.00     0.005 C 
ATOM     22  C   UNL     1     -57.477 119.630 -10.105  1.00  0.00     0.003 C 
ATOM     23  C   UNL     1     -57.301 120.513  -7.662  1.00  0.00     0.010 C 
ATOM     24  C   UNL     1     -55.665 118.809  -8.487  1.00  0.00     0.012 C 
ATOM     25  C   UNL     1     -59.034 119.498  -9.724  1.00  0.00    -0.006 C 
ATOM     26  C   UNL     1     -58.369 119.507  -7.207  1.00  0.00     0.033 C 
ATOM     27  C   UNL     1     -59.175 118.812  -8.333  1.00  0.00     0.120 C 
ATOM     28  C   UNL     1     -59.823 120.841  -9.723  1.00  0.00     0.014 C 
ATOM     29  C   UNL     1     -59.762 118.601 -10.768  1.00  0.00     0.014 C 
ENDROOT
BRANCH   1  30
ATOM     30  C   UNL     1     -50.862 120.348  -9.689  1.00  0.00     0.048 C 
ATOM     31  O   UNL     1     -51.791 119.668  -9.191  1.00  0.00    -0.550 OA
ATOM     32  O   UNL     1     -49.544 120.031  -9.364  1.00  0.00    -0.550 OA
ENDBRANCH   1  30
BRANCH  27  33
ATOM     33  O   UNL     1     -58.770 117.457  -8.414  1.00  0.00    -0.393 OA
ATOM     34  H   UNL     1     -59.578 116.919  -8.631  1.00  0.00     0.210 HD
ENDBRANCH  27  33
TORSDOF 2
ENDMDL
MODEL 2
REMARK VINA RESULT:    64.112      1.987      7.845
REMARK INTER + INTRA:          69.742
REMARK INTER:                  69.989
REMARK INTRA:                  -0.247
REMARK UNBOUND:                 0.007
REMARK SMILES CC1(C)CC[C@]2(C(=O)[O-])CC[C@]3(C)C(=CC[C@H]4[C@@]5(C)CC[C@H](O)C(C)(C)[C@H]5CC[C@@]43C)[C@@H]2C1
REMARK SMILES IDX 6 1 5 2 10 3 32 4 4 5 11 6 14 7 33 8 2 9 12 10 15 11 1 12
REMARK SMILES IDX 3 13 13 14 30 15 16 16 17 17 29 18 31 19 18 20 28 21 27 22
REMARK SMILES IDX 20 23 19 24 24 25 21 26 22 27 25 28 26 29 7 30 8 31 9 32
REMARK SMILES IDX 23 33
REMARK H PARENT 23 34
REMARK Flexibility Score: inf
ROOT
ATOM      1  C   UNL     1     -57.422 121.245  -9.234  1.00  0.00     0.017 C 
ATOM      2  C   UNL     1     -58.953 121.062  -9.550  1.00  0.00     0.014 C 
ATOM      3  C   UNL     1     -56.781 122.151 -10.330  1.00  0.00     0.014 C 
ATOM      4  C   UNL     1     -56.709 119.838  -9.120  1.00  0.00     0.028 C 
ATOM      5  C   UNL     1     -59.584 119.967  -8.678  1.00  0.00     0.007 C 
ATOM      6  C   UNL     1     -56.246 121.343 -11.506  1.00  0.00     0.013 C 
ATOM      7  C   UNL     1     -55.290 119.834  -9.715  1.00  0.00    -0.064 C 
ATOM      8  C   UNL     1     -57.564 118.669  -9.643  1.00  0.00     0.015 C 
ATOM      9  C   UNL     1     -58.944 118.554  -8.919  1.00  0.00    -0.035 C 
ATOM     10  C   UNL     1     -55.016 120.431 -11.123  1.00  0.00    -0.006 C 
ATOM     11  C   UNL     1     -54.279 119.456  -8.907  1.00  0.00    -0.027 C 
ATOM     12  C   UNL     1     -59.892 117.699  -9.809  1.00  0.00     0.011 C 
ATOM     13  C   UNL     1     -58.764 117.851  -7.559  1.00  0.00     0.011 C 
ATOM     14  C   UNL     1     -55.053 119.237 -12.120  1.00  0.00     0.017 C 
ATOM     15  C   UNL     1     -53.552 121.202 -11.182  1.00  0.00    -0.020 C 
ATOM     16  C   UNL     1     -52.956 120.174  -8.941  1.00  0.00     0.032 C 
ATOM     17  C   UNL     1     -53.074 121.514  -9.725  1.00  0.00     0.006 C 
ATOM     18  C   UNL     1     -53.623 122.566 -11.935  1.00  0.00     0.008 C 
ATOM     19  C   UNL     1     -52.443 120.333 -11.884  1.00  0.00     0.012 C 
ATOM     20  C   UNL     1     -51.856 122.559  -9.524  1.00  0.00    -0.025 C 
ATOM     21  C   UNL     1     -52.267 123.223 -12.125  1.00  0.00     0.005 C 
ATOM     22  C   UNL     1     -51.450 123.442 -10.823  1.00  0.00     0.003 C 
ATOM     23  C   UNL     1     -50.592 121.851  -8.948  1.00  0.00     0.010 C 
ATOM     24  C   UNL     1     -52.348 123.555  -8.424  1.00  0.00     0.012 C 
ATOM     25  C   UNL     1     -49.877 123.606 -11.115  1.00  0.00    -0.006 C 
ATOM     26  C   UNL     1     -49.390 122.773  -8.696  1.00  0.00     0.033 C 
ATOM     27  C   UNL     1     -49.119 123.851  -9.777  1.00  0.00     0.120 C 
ATOM     28  C   UNL     1     -49.224 122.410 -11.869  1.00  0.00     0.014 C 
ATOM     29  C   UNL     1     -49.632 124.843 -12.029  1.00  0.00     0.014 C 
ENDROOT
BRANCH   1  30
ATOM     30  C   UNL     1     -57.261 121.984  -7.900  1.00  0.00     0.048 C 
ATOM     31  O   UNL     1     -56.424 121.560  -7.068  1.00  0.00    -0.550 OA
ATOM     32  O   UNL     1     -57.989 123.134  -7.601  1.00  0.00    -0.550 OA
ENDBRANCH   1  30
BRANCH  27  33
ATOM     33  O   UNL     1     -49.460 125.121  -9.249  1.00  0.00    -0.393 OA
ATOM     34  H   UNL     1     -49.624 125.727 -10.020  1.00  0.00     0.210 HD
ENDBRANCH  27  33
TORSDOF 2
ENDMDL
