MODEL 1
REMARK VINA RESULT:    -4.366      0.000      0.000
REMARK INTER + INTRA:          -7.476
REMARK INTER:                  -6.664
REMARK INTRA:                  -0.813
REMARK UNBOUND:                -0.813
REMARK SMILES O=C([O-])CCCCCCCCC(=O)[O-]
REMARK SMILES IDX 7 1 6 2 5 3 4 4 2 5 1 6 3 7 8 8 9 9 10 10 11 11 12 12 13 13
REMARK SMILES IDX 14 14
REMARK H PARENT
REMARK Flexibility Score: inf
ROOT
ATOM      1  C   UNL     1       4.703   9.052  30.283  1.00  0.00     0.000 C 
ENDROOT
BRANCH   1   2
ATOM      2  C   UNL     1       4.447   9.340  28.799  1.00  0.00     0.000 C 
BRANCH   2   3
ATOM      3  C   UNL     1       5.726   9.159  27.974  1.00  0.00     0.006 C 
BRANCH   3   4
ATOM      4  C   UNL     1       6.544   7.969  28.481  1.00  0.00     0.053 C 
BRANCH   4   5
ATOM      5  C   UNL     1       7.948   8.041  27.967  1.00  0.00     0.041 C 
ATOM      6  O   UNL     1       8.819   7.236  28.388  1.00  0.00    -0.550 OA
ATOM      7  O   UNL     1       8.305   9.029  27.058  1.00  0.00    -0.550 OA
ENDBRANCH   4   5
ENDBRANCH   3   4
ENDBRANCH   2   3
ENDBRANCH   1   2
BRANCH   1   8
ATOM      8  C   UNL     1       3.929  10.029  31.176  1.00  0.00     0.000 C 
BRANCH   8   9
ATOM      9  C   UNL     1       4.866  10.738  32.160  1.00  0.00     0.000 C 
BRANCH   9  10
ATOM     10  C   UNL     1       6.218  11.056  31.503  1.00  0.00     0.006 C 
BRANCH  10  11
ATOM     11  C   UNL     1       7.382  10.325  32.185  1.00  0.00     0.053 C 
BRANCH  11  12
ATOM     12  C   UNL     1       8.487  10.017  31.222  1.00  0.00     0.041 C 
ATOM     13  O   UNL     1       8.579  10.655  30.139  1.00  0.00    -0.550 OA
ATOM     14  O   UNL     1       9.395   9.005  31.503  1.00  0.00    -0.550 OA
ENDBRANCH  11  12
ENDBRANCH  10  11
ENDBRANCH   9  10
ENDBRANCH   8   9
ENDBRANCH   1   8
TORSDOF 9
ENDMDL
MODEL 2
REMARK VINA RESULT:    -4.275      1.451      2.498
REMARK INTER + INTRA:          -7.338
REMARK INTER:                  -6.451
REMARK INTRA:                  -0.887
REMARK UNBOUND:                -0.813
REMARK SMILES O=C([O-])CCCCCCCCC(=O)[O-]
REMARK SMILES IDX 7 1 6 2 5 3 4 4 2 5 1 6 3 7 8 8 9 9 10 10 11 11 12 12 13 13
REMARK SMILES IDX 14 14
REMARK H PARENT
REMARK Flexibility Score: inf
ROOT
ATOM      1  C   UNL     1       4.823  10.403  31.763  1.00  0.00     0.000 C 
ENDROOT
BRANCH   1   2
ATOM      2  C   UNL     1       4.107   9.603  30.668  1.00  0.00     0.000 C 
BRANCH   2   3
ATOM      3  C   UNL     1       5.107   9.053  29.644  1.00  0.00     0.006 C 
BRANCH   3   4
ATOM      4  C   UNL     1       4.708   9.446  28.220  1.00  0.00     0.053 C 
BRANCH   4   5
ATOM      5  C   UNL     1       5.917   9.819  27.421  1.00  0.00     0.041 C 
ATOM      6  O   UNL     1       6.521   8.948  26.742  1.00  0.00    -0.550 OA
ATOM      7  O   UNL     1       6.405  11.119  27.465  1.00  0.00    -0.550 OA
ENDBRANCH   4   5
ENDBRANCH   3   4
ENDBRANCH   2   3
ENDBRANCH   1   2
BRANCH   1   8
ATOM      8  C   UNL     1       6.218  10.842  31.301  1.00  0.00     0.000 C 
BRANCH   8   9
ATOM      9  C   UNL     1       7.281  10.493  32.349  1.00  0.00     0.000 C 
BRANCH   9  10
ATOM     10  C   UNL     1       8.552   9.944  31.684  1.00  0.00     0.006 C 
BRANCH  10  11
ATOM     11  C   UNL     1       8.462   9.968  30.152  1.00  0.00     0.053 C 
BRANCH  11  12
ATOM     12  C   UNL     1       9.131   8.777  29.536  1.00  0.00     0.041 C 
ATOM     13  O   UNL     1      10.363   8.807  29.276  1.00  0.00    -0.550 OA
ATOM     14  O   UNL     1       8.388   7.648  29.218  1.00  0.00    -0.550 OA
ENDBRANCH  11  12
ENDBRANCH  10  11
ENDBRANCH   9  10
ENDBRANCH   8   9
ENDBRANCH   1   8
TORSDOF 9
ENDMDL
MODEL 3
REMARK VINA RESULT:    -4.257      0.965      3.864
REMARK INTER + INTRA:          -7.309
REMARK INTER:                  -6.310
REMARK INTRA:                  -0.999
REMARK UNBOUND:                -0.813
REMARK SMILES O=C([O-])CCCCCCCCC(=O)[O-]
REMARK SMILES IDX 7 1 6 2 5 3 4 4 2 5 1 6 3 7 8 8 9 9 10 10 11 11 12 12 13 13
REMARK SMILES IDX 14 14
REMARK H PARENT
REMARK Flexibility Score: inf
ROOT
ATOM      1  C   UNL     1       4.127   9.557  30.619  1.00  0.00     0.000 C 
ENDROOT
BRANCH   1   2
ATOM      2  C   UNL     1       4.778  10.316  31.781  1.00  0.00     0.000 C 
BRANCH   2   3
ATOM      3  C   UNL     1       6.127  10.913  31.363  1.00  0.00     0.006 C 
BRANCH   3   4
ATOM      4  C   UNL     1       7.268  10.338  32.207  1.00  0.00     0.053 C 
BRANCH   4   5
ATOM      5  C   UNL     1       8.510  10.200  31.384  1.00  0.00     0.041 C 
ATOM      6  O   UNL     1       8.852  11.118  30.593  1.00  0.00    -0.550 OA
ATOM      7  O   UNL     1       9.266   9.037  31.455  1.00  0.00    -0.550 OA
ENDBRANCH   4   5
ENDBRANCH   3   4
ENDBRANCH   2   3
ENDBRANCH   1   2
BRANCH   1   8
ATOM      8  C   UNL     1       5.009   9.607  29.366  1.00  0.00     0.000 C 
BRANCH   8   9
ATOM      9  C   UNL     1       5.336   8.195  28.866  1.00  0.00     0.000 C 
BRANCH   9  10
ATOM     10  C   UNL     1       6.854   7.973  28.795  1.00  0.00     0.006 C 
BRANCH  10  11
ATOM     11  C   UNL     1       7.562   9.058  27.974  1.00  0.00     0.053 C 
BRANCH  11  12
ATOM     12  C   UNL     1       8.951   8.647  27.589  1.00  0.00     0.041 C 
ATOM     13  O   UNL     1       9.939   9.343  27.944  1.00  0.00    -0.550 OA
ATOM     14  O   UNL     1       9.151   7.516  26.808  1.00  0.00    -0.550 OA
ENDBRANCH  11  12
ENDBRANCH  10  11
ENDBRANCH   9  10
ENDBRANCH   8   9
ENDBRANCH   1   8
TORSDOF 9
ENDMDL
MODEL 4
REMARK VINA RESULT:    -4.199      1.950      4.492
REMARK INTER + INTRA:          -7.221
REMARK INTER:                  -6.341
REMARK INTRA:                  -0.880
REMARK UNBOUND:                -0.813
REMARK SMILES O=C([O-])CCCCCCCCC(=O)[O-]
REMARK SMILES IDX 7 1 6 2 5 3 4 4 2 5 1 6 3 7 8 8 9 9 10 10 11 11 12 12 13 13
REMARK SMILES IDX 14 14
REMARK H PARENT
REMARK Flexibility Score: inf
ROOT
ATOM      1  C   UNL     1       8.485  10.964  31.476  1.00  0.00     0.000 C 
ENDROOT
BRANCH   1   2
ATOM      2  C   UNL     1       7.245  10.417  32.191  1.00  0.00     0.000 C 
BRANCH   2   3
ATOM      3  C   UNL     1       5.965  11.062  31.647  1.00  0.00     0.006 C 
BRANCH   3   4
ATOM      4  C   UNL     1       4.857  10.021  31.469  1.00  0.00     0.053 C 
BRANCH   4   5
ATOM      5  C   UNL     1       4.974   9.354  30.135  1.00  0.00     0.041 C 
ATOM      6  O   UNL     1       4.597   8.163  29.986  1.00  0.00    -0.550 OA
ATOM      7  O   UNL     1       5.545  10.034  29.066  1.00  0.00    -0.550 OA
ENDBRANCH   4   5
ENDBRANCH   3   4
ENDBRANCH   2   3
ENDBRANCH   1   2
BRANCH   1   8
ATOM      8  C   UNL     1       8.840  10.106  30.255  1.00  0.00     0.000 C 
BRANCH   8   9
ATOM      9  C   UNL     1       9.454   8.768  30.682  1.00  0.00     0.000 C 
BRANCH   9  10
ATOM     10  C   UNL     1       9.357   7.732  29.551  1.00  0.00     0.006 C 
BRANCH  10  11
ATOM     11  C   UNL     1       8.492   8.226  28.384  1.00  0.00     0.053 C 
BRANCH  11  12
ATOM     12  C   UNL     1       7.436   7.230  28.013  1.00  0.00     0.041 C 
ATOM     13  O   UNL     1       6.753   7.390  26.967  1.00  0.00    -0.550 OA
ATOM     14  O   UNL     1       7.182   6.143  28.841  1.00  0.00    -0.550 OA
ENDBRANCH  11  12
ENDBRANCH  10  11
ENDBRANCH   9  10
ENDBRANCH   8   9
ENDBRANCH   1   8
TORSDOF 9
ENDMDL
MODEL 5
REMARK VINA RESULT:    -4.195      2.186      3.655
REMARK INTER + INTRA:          -7.214
REMARK INTER:                  -6.673
REMARK INTRA:                  -0.542
REMARK UNBOUND:                -0.813
REMARK SMILES O=C([O-])CCCCCCCCC(=O)[O-]
REMARK SMILES IDX 7 1 6 2 5 3 4 4 2 5 1 6 3 7 8 8 9 9 10 10 11 11 12 12 13 13
REMARK SMILES IDX 14 14
REMARK H PARENT
REMARK Flexibility Score: inf
ROOT
ATOM      1  C   UNL     1       9.194   9.284  31.378  1.00  0.00     0.000 C 
ENDROOT
BRANCH   1   2
ATOM      2  C   UNL     1       9.000   8.638  30.001  1.00  0.00     0.000 C 
BRANCH   2   3
ATOM      3  C   UNL     1      10.177   8.958  29.072  1.00  0.00     0.006 C 
BRANCH   3   4
ATOM      4  C   UNL     1      10.055   8.198  27.749  1.00  0.00     0.053 C 
BRANCH   4   5
ATOM      5  C   UNL     1       9.636   9.123  26.650  1.00  0.00     0.041 C 
ATOM      6  O   UNL     1       9.406   8.675  25.497  1.00  0.00    -0.550 OA
ATOM      7  O   UNL     1       9.547  10.489  26.888  1.00  0.00    -0.550 OA
ENDBRANCH   4   5
ENDBRANCH   3   4
ENDBRANCH   2   3
ENDBRANCH   1   2
BRANCH   1   8
ATOM      8  C   UNL     1       8.405  10.595  31.487  1.00  0.00     0.000 C 
BRANCH   8   9
ATOM      9  C   UNL     1       7.204  10.440  32.427  1.00  0.00     0.000 C 
BRANCH   9  10
ATOM     10  C   UNL     1       5.958  11.125  31.846  1.00  0.00     0.006 C 
BRANCH  10  11
ATOM     11  C   UNL     1       4.824  10.129  31.569  1.00  0.00     0.053 C 
BRANCH  11  12
ATOM     12  C   UNL     1       4.994   9.445  30.248  1.00  0.00     0.041 C 
ATOM     13  O   UNL     1       4.522   8.291  30.067  1.00  0.00    -0.550 OA
ATOM     14  O   UNL     1       5.704  10.065  29.228  1.00  0.00    -0.550 OA
ENDBRANCH  11  12
ENDBRANCH  10  11
ENDBRANCH   9  10
ENDBRANCH   8   9
ENDBRANCH   1   8
TORSDOF 9
ENDMDL
MODEL 6
REMARK VINA RESULT:    -4.190      2.248      5.469
REMARK INTER + INTRA:          -7.207
REMARK INTER:                  -6.502
REMARK INTRA:                  -0.705
REMARK UNBOUND:                -0.813
REMARK SMILES O=C([O-])CCCCCCCCC(=O)[O-]
REMARK SMILES IDX 7 1 6 2 5 3 4 4 2 5 1 6 3 7 8 8 9 9 10 10 11 11 12 12 13 13
REMARK SMILES IDX 14 14
REMARK H PARENT
REMARK Flexibility Score: inf
ROOT
ATOM      1  C   UNL     1       9.164   8.383  30.112  1.00  0.00     0.000 C 
ENDROOT
BRANCH   1   2
ATOM      2  C   UNL     1       9.204   9.243  31.380  1.00  0.00     0.000 C 
BRANCH   2   3
ATOM      3  C   UNL     1       8.321  10.487  31.231  1.00  0.00     0.006 C 
BRANCH   3   4
ATOM      4  C   UNL     1       7.276  10.557  32.348  1.00  0.00     0.053 C 
BRANCH   4   5
ATOM      5  C   UNL     1       5.898  10.399  31.787  1.00  0.00     0.041 C 
ATOM      6  O   UNL     1       5.718   9.761  30.717  1.00  0.00    -0.550 OA
ATOM      7  O   UNL     1       4.817  10.999  32.421  1.00  0.00    -0.550 OA
ENDBRANCH   4   5
ENDBRANCH   3   4
ENDBRANCH   2   3
ENDBRANCH   1   2
BRANCH   1   8
ATOM      8  C   UNL     1       9.995   9.016  28.990  1.00  0.00     0.000 C 
BRANCH   8   9
ATOM      9  C   UNL     1       9.128   9.312  27.761  1.00  0.00     0.000 C 
BRANCH   9  10
ATOM     10  C   UNL     1       7.713   8.739  27.933  1.00  0.00     0.006 C 
BRANCH  10  11
ATOM     11  C   UNL     1       7.270   7.910  26.720  1.00  0.00     0.053 C 
BRANCH  11  12
ATOM     12  C   UNL     1       6.926   6.503  27.104  1.00  0.00     0.041 C 
ATOM     13  O   UNL     1       6.340   5.749  26.283  1.00  0.00    -0.550 OA
ATOM     14  O   UNL     1       7.221   6.037  28.379  1.00  0.00    -0.550 OA
ENDBRANCH  11  12
ENDBRANCH  10  11
ENDBRANCH   9  10
ENDBRANCH   8   9
ENDBRANCH   1   8
TORSDOF 9
ENDMDL
MODEL 7
REMARK VINA RESULT:    -4.121      1.774      2.155
REMARK INTER + INTRA:          -7.102
REMARK INTER:                  -6.453
REMARK INTRA:                  -0.649
REMARK UNBOUND:                -0.813
REMARK SMILES O=C([O-])CCCCCCCCC(=O)[O-]
REMARK SMILES IDX 7 1 6 2 5 3 4 4 2 5 1 6 3 7 8 8 9 9 10 10 11 11 12 12 13 13
REMARK SMILES IDX 14 14
REMARK H PARENT
REMARK Flexibility Score: inf
ROOT
ATOM      1  C   UNL     1       5.353   9.920  28.485  1.00  0.00     0.000 C 
ENDROOT
BRANCH   1   2
ATOM      2  C   UNL     1       6.464   9.578  27.487  1.00  0.00     0.000 C 
BRANCH   2   3
ATOM      3  C   UNL     1       6.746   8.071  27.471  1.00  0.00     0.006 C 
BRANCH   3   4
ATOM      4  C   UNL     1       7.505   7.666  26.204  1.00  0.00     0.053 C 
BRANCH   4   5
ATOM      5  C   UNL     1       7.257   6.226  25.882  1.00  0.00     0.041 C 
ATOM      6  O   UNL     1       6.263   5.629  26.370  1.00  0.00    -0.550 OA
ATOM      7  O   UNL     1       8.153   5.530  25.081  1.00  0.00    -0.550 OA
ENDBRANCH   4   5
ENDBRANCH   3   4
ENDBRANCH   2   3
ENDBRANCH   1   2
BRANCH   1   8
ATOM      8  C   UNL     1       5.313   8.907  29.635  1.00  0.00     0.000 C 
BRANCH   8   9
ATOM      9  C   UNL     1       5.020   9.599  30.971  1.00  0.00     0.000 C 
BRANCH   9  10
ATOM     10  C   UNL     1       5.999  10.756  31.219  1.00  0.00     0.006 C 
BRANCH  10  11
ATOM     11  C   UNL     1       7.181  10.337  32.103  1.00  0.00     0.053 C 
BRANCH  11  12
ATOM     12  C   UNL     1       8.402  10.031  31.291  1.00  0.00     0.041 C 
ATOM     13  O   UNL     1       8.616  10.646  30.212  1.00  0.00    -0.550 OA
ATOM     14  O   UNL     1       9.285   9.042  31.706  1.00  0.00    -0.550 OA
ENDBRANCH  11  12
ENDBRANCH  10  11
ENDBRANCH   9  10
ENDBRANCH   8   9
ENDBRANCH   1   8
TORSDOF 9
ENDMDL
MODEL 8
REMARK VINA RESULT:    -4.113      3.330      6.254
REMARK INTER + INTRA:          -7.090
REMARK INTER:                  -6.086
REMARK INTRA:                  -1.003
REMARK UNBOUND:                -0.813
REMARK SMILES O=C([O-])CCCCCCCCC(=O)[O-]
REMARK SMILES IDX 7 1 6 2 5 3 4 4 2 5 1 6 3 7 8 8 9 9 10 10 11 11 12 12 13 13
REMARK SMILES IDX 14 14
REMARK H PARENT
REMARK Flexibility Score: inf
ROOT
ATOM      1  C   UNL     1      11.118   5.916  26.893  1.00  0.00     0.000 C 
ENDROOT
BRANCH   1   2
ATOM      2  C   UNL     1      11.319   7.378  27.310  1.00  0.00     0.000 C 
BRANCH   2   3
ATOM      3  C   UNL     1      10.890   7.599  28.765  1.00  0.00     0.006 C 
BRANCH   3   4
ATOM      4  C   UNL     1      10.162   8.937  28.926  1.00  0.00     0.053 C 
BRANCH   4   5
ATOM      5  C   UNL     1       9.179   8.867  30.052  1.00  0.00     0.041 C 
ATOM      6  O   UNL     1       9.570   8.605  31.219  1.00  0.00    -0.550 OA
ATOM      7  O   UNL     1       7.824   9.043  29.802  1.00  0.00    -0.550 OA
ENDBRANCH   4   5
ENDBRANCH   3   4
ENDBRANCH   2   3
ENDBRANCH   1   2
BRANCH   1   8
ATOM      8  C   UNL     1      10.463   5.107  28.018  1.00  0.00     0.000 C 
BRANCH   8   9
ATOM      9  C   UNL     1       9.458   4.095  27.457  1.00  0.00     0.000 C 
BRANCH   9  10
ATOM     10  C   UNL     1       8.091   4.237  28.144  1.00  0.00     0.006 C 
BRANCH  10  11
ATOM     11  C   UNL     1       7.709   5.704  28.379  1.00  0.00     0.053 C 
BRANCH  11  12
ATOM     12  C   UNL     1       7.162   6.342  27.139  1.00  0.00     0.041 C 
ATOM     13  O   UNL     1       7.502   7.515  26.829  1.00  0.00    -0.550 OA
ATOM     14  O   UNL     1       6.252   5.657  26.345  1.00  0.00    -0.550 OA
ENDBRANCH  11  12
ENDBRANCH  10  11
ENDBRANCH   9  10
ENDBRANCH   8   9
ENDBRANCH   1   8
TORSDOF 9
ENDMDL
MODEL 9
REMARK VINA RESULT:    -4.067      2.517      4.597
REMARK INTER + INTRA:          -7.020
REMARK INTER:                  -6.033
REMARK INTRA:                  -0.987
REMARK UNBOUND:                -0.813
REMARK SMILES O=C([O-])CCCCCCCCC(=O)[O-]
REMARK SMILES IDX 7 1 6 2 5 3 4 4 2 5 1 6 3 7 8 8 9 9 10 10 11 11 12 12 13 13
REMARK SMILES IDX 14 14
REMARK H PARENT
REMARK Flexibility Score: inf
ROOT
ATOM      1  C   UNL     1       9.990   8.204  26.220  1.00  0.00     0.000 C 
ENDROOT
BRANCH   1   2
ATOM      2  C   UNL     1       9.010   7.364  25.392  1.00  0.00     0.000 C 
BRANCH   2   3
ATOM      3  C   UNL     1       7.558   7.713  25.736  1.00  0.00     0.006 C 
BRANCH   3   4
ATOM      4  C   UNL     1       7.183   7.196  27.128  1.00  0.00     0.053 C 
BRANCH   4   5
ATOM      5  C   UNL     1       6.377   8.218  27.866  1.00  0.00     0.041 C 
ATOM      6  O   UNL     1       5.921   7.959  29.010  1.00  0.00    -0.550 OA
ATOM      7  O   UNL     1       6.090   9.439  27.270  1.00  0.00    -0.550 OA
ENDBRANCH   4   5
ENDBRANCH   3   4
ENDBRANCH   2   3
ENDBRANCH   1   2
BRANCH   1   8
ATOM      8  C   UNL     1      11.042   7.316  26.896  1.00  0.00     0.000 C 
BRANCH   8   9
ATOM      9  C   UNL     1      11.207   7.684  28.374  1.00  0.00     0.000 C 
BRANCH   9  10
ATOM     10  C   UNL     1      10.279   8.846  28.760  1.00  0.00     0.006 C 
BRANCH  10  11
ATOM     11  C   UNL     1       9.461   8.541  30.023  1.00  0.00     0.053 C 
BRANCH  11  12
ATOM     12  C   UNL     1       8.682   9.736  30.482  1.00  0.00     0.041 C 
ATOM     13  O   UNL     1       8.343  10.626  29.657  1.00  0.00    -0.550 OA
ATOM     14  O   UNL     1       8.360   9.883  31.825  1.00  0.00    -0.550 OA
ENDBRANCH  11  12
ENDBRANCH  10  11
ENDBRANCH   9  10
ENDBRANCH   8   9
ENDBRANCH   1   8
TORSDOF 9
ENDMDL
