MODEL 1
REMARK VINA RESULT:    -4.441      0.000      0.000
REMARK INTER + INTRA:          -7.854
REMARK INTER:                  -6.778
REMARK INTRA:                  -1.076
REMARK UNBOUND:                -1.076
REMARK SMILES CCCCCCCCCCC(=O)[O-]
REMARK SMILES IDX 7 1 8 2 9 3 10 4 11 5 12 6 13 7 6 8 5 9 4 10 3 11 2 12 1 13
REMARK H PARENT
REMARK Flexibility Score: inf
ROOT
ATOM      1  C   UNL     1       7.540  11.306   8.058  1.00  0.00     0.000 C 
ENDROOT
BRANCH   1   2
ATOM      2  C   UNL     1       6.608  12.196   8.898  1.00  0.00     0.000 C 
BRANCH   2   3
ATOM      3  C   UNL     1       5.162  12.210   8.369  1.00  0.00     0.006 C 
BRANCH   3   4
ATOM      4  C   UNL     1       4.241  11.158   9.010  1.00  0.00     0.053 C 
BRANCH   4   5
ATOM      5  C   UNL     1       3.812  10.111   8.029  1.00  0.00     0.041 C 
ATOM      6  O   UNL     1       2.769  10.275   7.345  1.00  0.00    -0.550 OA
ATOM      7  O   UNL     1       4.585   8.972   7.846  1.00  0.00    -0.550 OA
ENDBRANCH   4   5
ENDBRANCH   3   4
ENDBRANCH   2   3
ENDBRANCH   1   2
BRANCH   1   8
ATOM      8  C   UNL     1       8.876  11.994   7.731  1.00  0.00     0.000 C 
BRANCH   8   9
ATOM      9  C   UNL     1       9.445  11.568   6.366  1.00  0.00    -0.000 C 
BRANCH   9  10
ATOM     10  C   UNL     1       8.375  10.954   5.448  1.00  0.00    -0.000 C 
BRANCH  10  11
ATOM     11  C   UNL     1       7.862  11.949   4.393  1.00  0.00    -0.000 C 
BRANCH  11  12
ATOM     12  C   UNL     1       6.382  12.313   4.597  1.00  0.00    -0.003 C 
ATOM     13  C   UNL     1       5.508  11.090   4.877  1.00  0.00     0.004 C 
ENDBRANCH  11  12
ENDBRANCH  10  11
ENDBRANCH   9  10
ENDBRANCH   8   9
ENDBRANCH   1   8
TORSDOF 9
ENDMDL
MODEL 2
REMARK VINA RESULT:    -4.390      1.330      3.001
REMARK INTER + INTRA:          -7.776
REMARK INTER:                  -6.583
REMARK INTRA:                  -1.192
REMARK UNBOUND:                -1.076
REMARK SMILES CCCCCCCCCCC(=O)[O-]
REMARK SMILES IDX 7 1 8 2 9 3 10 4 11 5 12 6 13 7 6 8 5 9 4 10 3 11 2 12 1 13
REMARK H PARENT
REMARK Flexibility Score: inf
ROOT
ATOM      1  C   UNL     1       5.853  11.523   4.470  1.00  0.00     0.000 C 
ENDROOT
BRANCH   1   2
ATOM      2  C   UNL     1       5.066  10.901   5.636  1.00  0.00     0.000 C 
BRANCH   2   3
ATOM      3  C   UNL     1       5.503  11.447   7.008  1.00  0.00     0.006 C 
BRANCH   3   4
ATOM      4  C   UNL     1       5.804  10.363   8.057  1.00  0.00     0.053 C 
BRANCH   4   5
ATOM      5  C   UNL     1       4.556   9.725   8.582  1.00  0.00     0.041 C 
ATOM      6  O   UNL     1       4.173   8.616   8.127  1.00  0.00    -0.550 OA
ATOM      7  O   UNL     1       3.835  10.339   9.598  1.00  0.00    -0.550 OA
ENDBRANCH   4   5
ENDBRANCH   3   4
ENDBRANCH   2   3
ENDBRANCH   1   2
BRANCH   1   8
ATOM      8  C   UNL     1       6.509  12.861   4.849  1.00  0.00     0.000 C 
BRANCH   8   9
ATOM      9  C   UNL     1       8.037  12.846   4.668  1.00  0.00    -0.000 C 
BRANCH   9  10
ATOM     10  C   UNL     1       8.622  11.426   4.728  1.00  0.00    -0.000 C 
BRANCH  10  11
ATOM     11  C   UNL     1       9.075  11.034   6.146  1.00  0.00    -0.000 C 
BRANCH  11  12
ATOM     12  C   UNL     1       9.615  12.232   6.943  1.00  0.00    -0.003 C 
ATOM     13  C   UNL     1       8.906  12.415   8.285  1.00  0.00     0.004 C 
ENDBRANCH  11  12
ENDBRANCH  10  11
ENDBRANCH   9  10
ENDBRANCH   8   9
ENDBRANCH   1   8
TORSDOF 9
ENDMDL
MODEL 3
REMARK VINA RESULT:    -4.334      3.255      5.929
REMARK INTER + INTRA:          -7.690
REMARK INTER:                  -7.267
REMARK INTRA:                  -0.423
REMARK UNBOUND:                -1.076
REMARK SMILES CCCCCCCCCCC(=O)[O-]
REMARK SMILES IDX 7 1 8 2 9 3 10 4 11 5 12 6 13 7 6 8 5 9 4 10 3 11 2 12 1 13
REMARK H PARENT
REMARK Flexibility Score: inf
ROOT
ATOM      1  C   UNL     1       4.722  10.417   6.796  1.00  0.00     0.000 C 
ENDROOT
BRANCH   1   2
ATOM      2  C   UNL     1       6.167  10.720   6.365  1.00  0.00     0.000 C 
BRANCH   2   3
ATOM      3  C   UNL     1       6.341  12.153   5.828  1.00  0.00     0.006 C 
BRANCH   3   4
ATOM      4  C   UNL     1       6.727  12.232   4.342  1.00  0.00     0.053 C 
BRANCH   4   5
ATOM      5  C   UNL     1       8.212  12.242   4.146  1.00  0.00     0.041 C 
ATOM      6  O   UNL     1       8.698  12.151   2.989  1.00  0.00    -0.550 OA
ATOM      7  O   UNL     1       9.057  12.385   5.239  1.00  0.00    -0.550 OA
ENDBRANCH   4   5
ENDBRANCH   3   4
ENDBRANCH   2   3
ENDBRANCH   1   2
BRANCH   1   8
ATOM      8  C   UNL     1       4.648   9.710   8.159  1.00  0.00     0.000 C 
BRANCH   8   9
ATOM      9  C   UNL     1       4.342  10.679   9.315  1.00  0.00    -0.000 C 
BRANCH   9  10
ATOM     10  C   UNL     1       3.306  11.747   8.929  1.00  0.00    -0.000 C 
BRANCH  10  11
ATOM     11  C   UNL     1       1.860  11.236   9.047  1.00  0.00    -0.000 C 
BRANCH  11  12
ATOM     12  C   UNL     1       1.004  12.102   9.986  1.00  0.00    -0.003 C 
ATOM     13  C   UNL     1       0.064  13.039   9.229  1.00  0.00     0.004 C 
ENDBRANCH  11  12
ENDBRANCH  10  11
ENDBRANCH   9  10
ENDBRANCH   8   9
ENDBRANCH   1   8
TORSDOF 9
ENDMDL
MODEL 4
REMARK VINA RESULT:    -4.269      2.882      5.633
REMARK INTER + INTRA:          -7.590
REMARK INTER:                  -7.040
REMARK INTRA:                  -0.550
REMARK UNBOUND:                -1.076
REMARK SMILES CCCCCCCCCCC(=O)[O-]
REMARK SMILES IDX 7 1 8 2 9 3 10 4 11 5 12 6 13 7 6 8 5 9 4 10 3 11 2 12 1 13
REMARK H PARENT
REMARK Flexibility Score: inf
ROOT
ATOM      1  C   UNL     1       5.577  10.861   6.693  1.00  0.00     0.000 C 
ENDROOT
BRANCH   1   2
ATOM      2  C   UNL     1       5.373  10.891   5.169  1.00  0.00     0.000 C 
BRANCH   2   3
ATOM      3  C   UNL     1       6.097  12.070   4.493  1.00  0.00     0.006 C 
BRANCH   3   4
ATOM      4  C   UNL     1       7.348  12.561   5.241  1.00  0.00     0.053 C 
BRANCH   4   5
ATOM      5  C   UNL     1       8.585  11.841   4.802  1.00  0.00     0.041 C 
ATOM      6  O   UNL     1       9.050  10.900   5.496  1.00  0.00    -0.550 OA
ATOM      7  O   UNL     1       9.205  12.189   3.608  1.00  0.00    -0.550 OA
ENDBRANCH   4   5
ENDBRANCH   3   4
ENDBRANCH   2   3
ENDBRANCH   1   2
BRANCH   1   8
ATOM      8  C   UNL     1       4.734   9.776   7.381  1.00  0.00     0.000 C 
BRANCH   8   9
ATOM      9  C   UNL     1       4.512  10.055   8.878  1.00  0.00    -0.000 C 
BRANCH   9  10
ATOM     10  C   UNL     1       4.616  11.551   9.219  1.00  0.00    -0.000 C 
BRANCH  10  11
ATOM     11  C   UNL     1       3.261  12.274   9.121  1.00  0.00    -0.000 C 
BRANCH  11  12
ATOM     12  C   UNL     1       2.079  11.359   9.479  1.00  0.00    -0.003 C 
ATOM     13  C   UNL     1       0.821  12.142   9.856  1.00  0.00     0.004 C 
ENDBRANCH  11  12
ENDBRANCH  10  11
ENDBRANCH   9  10
ENDBRANCH   8   9
ENDBRANCH   1   8
TORSDOF 9
ENDMDL
MODEL 5
REMARK VINA RESULT:    -4.056      1.733      3.044
REMARK INTER + INTRA:          -7.266
REMARK INTER:                  -6.430
REMARK INTRA:                  -0.835
REMARK UNBOUND:                -1.076
REMARK SMILES CCCCCCCCCCC(=O)[O-]
REMARK SMILES IDX 7 1 8 2 9 3 10 4 11 5 12 6 13 7 6 8 5 9 4 10 3 11 2 12 1 13
REMARK H PARENT
REMARK Flexibility Score: inf
ROOT
ATOM      1  C   UNL     1       4.669  10.886   6.199  1.00  0.00     0.000 C 
ENDROOT
BRANCH   1   2
ATOM      2  C   UNL     1       5.294  10.159   7.401  1.00  0.00     0.000 C 
BRANCH   2   3
ATOM      3  C   UNL     1       4.627  10.534   8.737  1.00  0.00     0.006 C 
BRANCH   3   4
ATOM      4  C   UNL     1       3.251  11.207   8.594  1.00  0.00     0.053 C 
BRANCH   4   5
ATOM      5  C   UNL     1       2.339  10.871   9.733  1.00  0.00     0.041 C 
ATOM      6  O   UNL     1       1.308  11.561   9.943  1.00  0.00    -0.550 OA
ATOM      7  O   UNL     1       2.610   9.773  10.541  1.00  0.00    -0.550 OA
ENDBRANCH   4   5
ENDBRANCH   3   4
ENDBRANCH   2   3
ENDBRANCH   1   2
BRANCH   1   8
ATOM      8  C   UNL     1       5.547  10.808   4.939  1.00  0.00     0.000 C 
BRANCH   8   9
ATOM      9  C   UNL     1       6.058  12.186   4.484  1.00  0.00    -0.000 C 
BRANCH   9  10
ATOM     10  C   UNL     1       7.384  12.573   5.158  1.00  0.00    -0.000 C 
BRANCH  10  11
ATOM     11  C   UNL     1       8.523  11.594   4.822  1.00  0.00    -0.000 C 
BRANCH  11  12
ATOM     12  C   UNL     1       9.036  10.841   6.060  1.00  0.00    -0.003 C 
ATOM     13  C   UNL     1       8.703  11.560   7.367  1.00  0.00     0.004 C 
ENDBRANCH  11  12
ENDBRANCH  10  11
ENDBRANCH   9  10
ENDBRANCH   8   9
ENDBRANCH   1   8
TORSDOF 9
ENDMDL
MODEL 6
REMARK VINA RESULT:    -3.974      2.248      3.402
REMARK INTER + INTRA:          -7.140
REMARK INTER:                  -6.608
REMARK INTRA:                  -0.532
REMARK UNBOUND:                -1.076
REMARK SMILES CCCCCCCCCCC(=O)[O-]
REMARK SMILES IDX 7 1 8 2 9 3 10 4 11 5 12 6 13 7 6 8 5 9 4 10 3 11 2 12 1 13
REMARK H PARENT
REMARK Flexibility Score: inf
ROOT
ATOM      1  C   UNL     1       5.164   9.936   7.565  1.00  0.00     0.000 C 
ENDROOT
BRANCH   1   2
ATOM      2  C   UNL     1       3.901   9.446   8.294  1.00  0.00     0.000 C 
BRANCH   2   3
ATOM      3  C   UNL     1       3.269  10.532   9.185  1.00  0.00     0.006 C 
BRANCH   3   4
ATOM      4  C   UNL     1       2.049  11.233   8.564  1.00  0.00     0.053 C 
BRANCH   4   5
ATOM      5  C   UNL     1       1.072  11.689   9.603  1.00  0.00     0.041 C 
ATOM      6  O   UNL     1       1.108  11.202  10.763  1.00  0.00    -0.550 OA
ATOM      7  O   UNL     1       0.144  12.678   9.299  1.00  0.00    -0.550 OA
ENDBRANCH   4   5
ENDBRANCH   3   4
ENDBRANCH   2   3
ENDBRANCH   1   2
BRANCH   1   8
ATOM      8  C   UNL     1       5.576  11.355   7.988  1.00  0.00     0.000 C 
BRANCH   8   9
ATOM      9  C   UNL     1       6.088  12.201   6.809  1.00  0.00    -0.000 C 
BRANCH   9  10
ATOM     10  C   UNL     1       5.777  11.561   5.447  1.00  0.00    -0.000 C 
BRANCH  10  11
ATOM     11  C   UNL     1       6.748  12.019   4.345  1.00  0.00    -0.000 C 
BRANCH  11  12
ATOM     12  C   UNL     1       8.209  11.658   4.661  1.00  0.00    -0.003 C 
ATOM     13  C   UNL     1       9.209  12.516   3.887  1.00  0.00     0.004 C 
ENDBRANCH  11  12
ENDBRANCH  10  11
ENDBRANCH   9  10
ENDBRANCH   8   9
ENDBRANCH   1   8
TORSDOF 9
ENDMDL
MODEL 7
REMARK VINA RESULT:    -3.913      2.478      5.131
REMARK INTER + INTRA:          -7.048
REMARK INTER:                  -6.622
REMARK INTRA:                  -0.425
REMARK UNBOUND:                -1.076
REMARK SMILES CCCCCCCCCCC(=O)[O-]
REMARK SMILES IDX 7 1 8 2 9 3 10 4 11 5 12 6 13 7 6 8 5 9 4 10 3 11 2 12 1 13
REMARK H PARENT
REMARK Flexibility Score: inf
ROOT
ATOM      1  C   UNL     1       6.533  12.487   8.962  1.00  0.00     0.000 C 
ENDROOT
BRANCH   1   2
ATOM      2  C   UNL     1       7.066  12.602   7.524  1.00  0.00     0.000 C 
BRANCH   2   3
ATOM      3  C   UNL     1       7.940  11.402   7.114  1.00  0.00     0.006 C 
BRANCH   3   4
ATOM      4  C   UNL     1       7.359  10.552   5.972  1.00  0.00     0.053 C 
BRANCH   4   5
ATOM      5  C   UNL     1       6.151  11.188   5.356  1.00  0.00     0.041 C 
ATOM      6  O   UNL     1       4.998  10.859   5.738  1.00  0.00    -0.550 OA
ATOM      7  O   UNL     1       6.302  12.169   4.383  1.00  0.00    -0.550 OA
ENDBRANCH   4   5
ENDBRANCH   3   4
ENDBRANCH   2   3
ENDBRANCH   1   2
BRANCH   1   8
ATOM      8  C   UNL     1       5.006  12.316   9.013  1.00  0.00     0.000 C 
BRANCH   8   9
ATOM      9  C   UNL     1       4.579  10.856   9.246  1.00  0.00    -0.000 C 
BRANCH   9  10
ATOM     10  C   UNL     1       3.125  10.739   9.733  1.00  0.00    -0.000 C 
BRANCH  10  11
ATOM     11  C   UNL     1       2.204  11.794   9.096  1.00  0.00    -0.000 C 
BRANCH  11  12
ATOM     12  C   UNL     1       0.922  12.026   9.912  1.00  0.00    -0.003 C 
ATOM     13  C   UNL     1      -0.089  12.910   9.183  1.00  0.00     0.004 C 
ENDBRANCH  11  12
ENDBRANCH  10  11
ENDBRANCH   9  10
ENDBRANCH   8   9
ENDBRANCH   1   8
TORSDOF 9
ENDMDL
MODEL 8
REMARK VINA RESULT:    -3.286      2.704      5.177
REMARK INTER + INTRA:          -6.091
REMARK INTER:                  -5.504
REMARK INTRA:                  -0.587
REMARK UNBOUND:                -1.076
REMARK SMILES CCCCCCCCCCC(=O)[O-]
REMARK SMILES IDX 7 1 8 2 9 3 10 4 11 5 12 6 13 7 6 8 5 9 4 10 3 11 2 12 1 13
REMARK H PARENT
REMARK Flexibility Score: inf
ROOT
ATOM      1  C   UNL     1       6.945  10.873   7.399  1.00  0.00     0.000 C 
ENDROOT
BRANCH   1   2
ATOM      2  C   UNL     1       8.371  10.916   6.824  1.00  0.00     0.000 C 
BRANCH   2   3
ATOM      3  C   UNL     1       8.811  12.337   6.426  1.00  0.00     0.006 C 
BRANCH   3   4
ATOM      4  C   UNL     1       7.798  13.095   5.551  1.00  0.00     0.053 C 
BRANCH   4   5
ATOM      5  C   UNL     1       7.499  12.366   4.278  1.00  0.00     0.041 C 
ATOM      6  O   UNL     1       6.342  11.923   4.059  1.00  0.00    -0.550 OA
ATOM      7  O   UNL     1       8.491  12.207   3.318  1.00  0.00    -0.550 OA
ENDBRANCH   4   5
ENDBRANCH   3   4
ENDBRANCH   2   3
ENDBRANCH   1   2
BRANCH   1   8
ATOM      8  C   UNL     1       6.832  11.595   8.751  1.00  0.00     0.000 C 
BRANCH   8   9
ATOM      9  C   UNL     1       5.467  12.278   8.949  1.00  0.00    -0.000 C 
BRANCH   9  10
ATOM     10  C   UNL     1       4.351  11.609   8.130  1.00  0.00    -0.000 C 
BRANCH  10  11
ATOM     11  C   UNL     1       3.062  11.408   8.946  1.00  0.00    -0.000 C 
BRANCH  11  12
ATOM     12  C   UNL     1       3.084  10.111   9.771  1.00  0.00    -0.003 C 
ATOM     13  C   UNL     1       1.979  10.064  10.826  1.00  0.00     0.004 C 
ENDBRANCH  11  12
ENDBRANCH  10  11
ENDBRANCH   9  10
ENDBRANCH   8   9
ENDBRANCH   1   8
TORSDOF 9
ENDMDL
