MODEL 1
REMARK VINA RESULT:    -4.206      0.000      0.000
REMARK INTER + INTRA:          -6.915
REMARK INTER:                  -6.418
REMARK INTRA:                  -0.496
REMARK UNBOUND:                -0.496
REMARK SMILES CC1=CCC[C@H](C)C(=O)C[C@H](C(C)C)C(=O)C1
REMARK SMILES IDX 8 1 9 2 6 3 7 4 5 5 4 6 3 7 2 8 1 9 10 11 11 12 15 13 16 14
REMARK SMILES IDX 17 15 12 17 13 18 14 19
REMARK H PARENT
REMARK Flexibility Score: 70.00
ROOT
ATOM      1  C   UNL     1      17.792 -30.733  22.795  1.00  0.00     0.136 C 
ATOM      2  O   UNL     1      18.788 -30.702  23.505  1.00  0.00    -0.299 OA
ENDROOT
BRANCH   1   3
ATOM      3  C   UNL     1      17.939 -30.538  21.304  1.00  0.00     0.053 C 
ATOM      4  C   UNL     1      18.582 -29.182  20.992  1.00  0.00     0.016 C 
BRANCH   3   5
ATOM      5  C   UNL     1      18.770 -31.710  20.713  1.00  0.00     0.015 C 
BRANCH   5   6
ATOM      6  C   UNL     1      17.985 -33.015  20.502  1.00  0.00     0.028 C 
BRANCH   6   7
ATOM      7  C   UNL     1      18.143 -34.062  21.583  1.00  0.00    -0.028 C 
ATOM      8  C   UNL     1      17.156 -34.599  22.341  1.00  0.00    -0.070 CG0
ATOM      9  C   UNL     1      17.566 -35.514  23.467  1.00  0.00     0.039 C 
ATOM     10  G   UNL     1      15.680 -34.299  22.140  1.00  0.00     0.000 G0
ENDBRANCH   6   7
ENDBRANCH   5   6
ENDBRANCH   3   5
ENDBRANCH   1   3
BRANCH   1  11
ATOM     11  C   UNL     1      16.444 -30.966  23.441  1.00  0.00     0.087 C 
BRANCH  11  12
ATOM     12  C   UNL     1      15.389 -31.655  22.524  1.00  0.00     0.066 C 
BRANCH  12  13
ATOM     13  C   UNL     1      15.132 -33.112  22.911  1.00  0.00     0.140 C 
ATOM     14  O   UNL     1      14.431 -33.342  23.886  1.00  0.00    -0.299 OA
BRANCH  13  15
ATOM     15  C   UNL     1      15.676 -34.307  22.140  1.00  0.00     0.106 CG0
ATOM     16  G   UNL     1      17.156 -34.591  22.339  1.00  0.00     0.000 G0
ENDBRANCH  13  15
ENDBRANCH  12  13
BRANCH  12  17
ATOM     17  C   UNL     1      14.074 -30.810  22.463  1.00  0.00    -0.006 C 
ATOM     18  C   UNL     1      13.143 -31.165  21.288  1.00  0.00     0.008 C 
ATOM     19  C   UNL     1      14.369 -29.304  22.440  1.00  0.00     0.008 C 
ENDBRANCH  12  17
ENDBRANCH  11  12
ENDBRANCH   1  11
TORSDOF 1
ENDMDL
MODEL 2
REMARK VINA RESULT:    -4.126      1.781      3.727
REMARK INTER + INTRA:          -6.794
REMARK INTER:                  -6.421
REMARK INTRA:                  -0.372
REMARK UNBOUND:                -0.496
REMARK SMILES CC1=CCC[C@H](C)C(=O)C[C@H](C(C)C)C(=O)C1
REMARK SMILES IDX 8 1 9 2 6 3 7 4 5 5 4 6 3 7 2 8 1 9 10 11 11 12 15 13 16 14
REMARK SMILES IDX 17 15 12 17 13 18 14 19
REMARK H PARENT
REMARK Flexibility Score: 70.00
ROOT
ATOM      1  C   UNL     1      15.402 -33.908  22.001  1.00  0.00     0.136 C 
ATOM      2  O   UNL     1      15.187 -33.971  23.204  1.00  0.00    -0.299 OA
ENDROOT
BRANCH   1   3
ATOM      3  C   UNL     1      15.984 -35.107  21.289  1.00  0.00     0.053 C 
ATOM      4  C   UNL     1      15.685 -35.046  19.786  1.00  0.00     0.016 C 
BRANCH   3   5
ATOM      5  C   UNL     1      17.512 -35.174  21.562  1.00  0.00     0.015 C 
BRANCH   5   6
ATOM      6  C   UNL     1      18.348 -34.125  20.813  1.00  0.00     0.028 C 
BRANCH   6   7
ATOM      7  C   UNL     1      19.021 -33.079  21.675  1.00  0.00    -0.028 C 
ATOM      8  C   UNL     1      18.758 -31.749  21.688  1.00  0.00    -0.070 CG0
ATOM      9  C   UNL     1      19.662 -30.872  22.517  1.00  0.00     0.039 C 
ATOM     10  G   UNL     1      17.640 -31.102  20.888  1.00  0.00     0.000 G0
ENDBRANCH   6   7
ENDBRANCH   5   6
ENDBRANCH   3   5
ENDBRANCH   1   3
BRANCH   1  11
ATOM     11  C   UNL     1      15.076 -32.625  21.268  1.00  0.00     0.087 C 
BRANCH  11  12
ATOM     12  C   UNL     1      15.250 -31.327  22.110  1.00  0.00     0.066 C 
BRANCH  12  13
ATOM     13  C   UNL     1      16.480 -30.516  21.699  1.00  0.00     0.140 C 
ATOM     14  O   UNL     1      16.558 -29.351  22.059  1.00  0.00    -0.299 OA
BRANCH  13  15
ATOM     15  C   UNL     1      17.636 -31.078  20.884  1.00  0.00     0.106 CG0
ATOM     16  G   UNL     1      18.742 -31.739  21.690  1.00  0.00     0.000 G0
ENDBRANCH  13  15
ENDBRANCH  12  13
BRANCH  12  17
ATOM     17  C   UNL     1      13.937 -30.475  22.091  1.00  0.00    -0.006 C 
ATOM     18  C   UNL     1      13.375 -30.139  23.486  1.00  0.00     0.008 C 
ATOM     19  C   UNL     1      12.842 -31.142  21.248  1.00  0.00     0.008 C 
ENDBRANCH  12  17
ENDBRANCH  11  12
ENDBRANCH   1  11
TORSDOF 1
ENDMDL
MODEL 3
REMARK VINA RESULT:    -4.016      2.155      4.599
REMARK INTER + INTRA:          -6.626
REMARK INTER:                  -6.595
REMARK INTRA:                  -0.031
REMARK UNBOUND:                -0.496
REMARK SMILES CC1=CCC[C@H](C)C(=O)C[C@H](C(C)C)C(=O)C1
REMARK SMILES IDX 8 1 9 2 6 3 7 4 5 5 4 6 3 7 2 8 1 9 10 11 11 12 15 13 16 14
REMARK SMILES IDX 17 15 12 17 13 18 14 19
REMARK H PARENT
REMARK Flexibility Score: 70.00
ROOT
ATOM      1  C   UNL     1      14.606 -32.772  21.790  1.00  0.00     0.136 C 
ATOM      2  O   UNL     1      13.891 -32.075  21.083  1.00  0.00    -0.299 OA
ENDROOT
BRANCH   1   3
ATOM      3  C   UNL     1      14.790 -32.407  23.245  1.00  0.00     0.053 C 
ATOM      4  C   UNL     1      13.631 -31.533  23.739  1.00  0.00     0.016 C 
BRANCH   3   5
ATOM      5  C   UNL     1      14.922 -33.705  24.087  1.00  0.00     0.015 C 
BRANCH   5   6
ATOM      6  C   UNL     1      16.361 -34.081  24.472  1.00  0.00     0.028 C 
BRANCH   6   7
ATOM      7  C   UNL     1      17.374 -32.958  24.417  1.00  0.00    -0.028 C 
ATOM      8  C   UNL     1      18.286 -32.738  23.439  1.00  0.00    -0.070 CG0
ATOM      9  C   UNL     1      19.301 -31.645  23.670  1.00  0.00     0.039 C 
ATOM     10  G   UNL     1      18.364 -33.550  22.158  1.00  0.00     0.000 G0
ENDBRANCH   6   7
ENDBRANCH   5   6
ENDBRANCH   3   5
ENDBRANCH   1   3
BRANCH   1  11
ATOM     11  C   UNL     1      15.282 -33.979  21.179  1.00  0.00     0.087 C 
BRANCH  11  12
ATOM     12  C   UNL     1      16.467 -33.652  20.222  1.00  0.00     0.066 C 
BRANCH  12  13
ATOM     13  C   UNL     1      17.627 -32.954  20.936  1.00  0.00     0.140 C 
ATOM     14  O   UNL     1      17.972 -31.848  20.545  1.00  0.00    -0.299 OA
BRANCH  13  15
ATOM     15  C   UNL     1      18.371 -33.541  22.127  1.00  0.00     0.106 CG0
ATOM     16  G   UNL     1      18.277 -32.738  23.414  1.00  0.00     0.000 G0
ENDBRANCH  13  15
ENDBRANCH  12  13
BRANCH  12  17
ATOM     17  C   UNL     1      16.924 -34.933  19.448  1.00  0.00    -0.006 C 
ATOM     18  C   UNL     1      16.821 -36.238  20.261  1.00  0.00     0.008 C 
ATOM     19  C   UNL     1      18.349 -34.785  18.901  1.00  0.00     0.008 C 
ENDBRANCH  12  17
ENDBRANCH  11  12
ENDBRANCH   1  11
TORSDOF 1
ENDMDL
MODEL 4
REMARK VINA RESULT:    -3.993      2.616      4.748
REMARK INTER + INTRA:          -6.590
REMARK INTER:                  -6.092
REMARK INTRA:                  -0.499
REMARK UNBOUND:                -0.496
REMARK SMILES CC1=CCC[C@H](C)C(=O)C[C@H](C(C)C)C(=O)C1
REMARK SMILES IDX 8 1 9 2 6 3 7 4 5 5 4 6 3 7 2 8 1 9 10 11 11 12 15 13 16 14
REMARK SMILES IDX 17 15 12 17 13 18 14 19
REMARK H PARENT
REMARK Flexibility Score: 70.00
ROOT
ATOM      1  C   UNL     1      16.726 -33.044  23.228  1.00  0.00     0.136 C 
ATOM      2  O   UNL     1      16.892 -31.872  23.537  1.00  0.00    -0.299 OA
ENDROOT
BRANCH   1   3
ATOM      3  C   UNL     1      15.325 -33.552  22.979  1.00  0.00     0.053 C 
ATOM      4  C   UNL     1      14.352 -33.006  24.031  1.00  0.00     0.016 C 
BRANCH   3   5
ATOM      5  C   UNL     1      14.885 -33.162  21.541  1.00  0.00     0.015 C 
BRANCH   5   6
ATOM      6  C   UNL     1      14.982 -34.295  20.507  1.00  0.00     0.028 C 
BRANCH   6   7
ATOM      7  C   UNL     1      16.241 -34.316  19.667  1.00  0.00    -0.028 C 
ATOM      8  C   UNL     1      17.273 -35.189  19.777  1.00  0.00    -0.070 CG0
ATOM      9  C   UNL     1      18.497 -34.924  18.937  1.00  0.00     0.039 C 
ATOM     10  G   UNL     1      17.274 -36.381  20.719  1.00  0.00     0.000 G0
ENDBRANCH   6   7
ENDBRANCH   5   6
ENDBRANCH   3   5
ENDBRANCH   1   3
BRANCH   1  11
ATOM     11  C   UNL     1      17.935 -33.946  23.106  1.00  0.00     0.087 C 
BRANCH  11  12
ATOM     12  C   UNL     1      17.630 -35.469  23.216  1.00  0.00     0.066 C 
BRANCH  12  13
ATOM     13  C   UNL     1      18.095 -36.256  21.990  1.00  0.00     0.140 C 
ATOM     14  O   UNL     1      19.179 -36.819  22.035  1.00  0.00    -0.299 OA
BRANCH  13  15
ATOM     15  C   UNL     1      17.279 -36.404  20.713  1.00  0.00     0.106 CG0
ATOM     16  G   UNL     1      17.272 -35.190  19.799  1.00  0.00     0.000 G0
ENDBRANCH  13  15
ENDBRANCH  12  13
BRANCH  12  17
ATOM     17  C   UNL     1      18.199 -36.052  24.553  1.00  0.00    -0.006 C 
ATOM     18  C   UNL     1      17.214 -36.009  25.737  1.00  0.00     0.008 C 
ATOM     19  C   UNL     1      19.510 -35.364  24.956  1.00  0.00     0.008 C 
ENDBRANCH  12  17
ENDBRANCH  11  12
ENDBRANCH   1  11
TORSDOF 1
ENDMDL
MODEL 5
REMARK VINA RESULT:    -3.972      2.118      3.341
REMARK INTER + INTRA:          -6.558
REMARK INTER:                  -6.197
REMARK INTRA:                  -0.361
REMARK UNBOUND:                -0.496
REMARK SMILES CC1=CCC[C@H](C)C(=O)C[C@H](C(C)C)C(=O)C1
REMARK SMILES IDX 8 1 9 2 6 3 7 4 5 5 4 6 3 7 2 8 1 9 10 11 11 12 15 13 16 14
REMARK SMILES IDX 17 15 12 17 13 18 14 19
REMARK H PARENT
REMARK Flexibility Score: 70.00
ROOT
ATOM      1  C   UNL     1      15.941 -34.200  20.428  1.00  0.00     0.136 C 
ATOM      2  O   UNL     1      14.921 -34.775  20.781  1.00  0.00    -0.299 OA
ENDROOT
BRANCH   1   3
ATOM      3  C   UNL     1      16.873 -34.878  19.452  1.00  0.00     0.053 C 
ATOM      4  C   UNL     1      18.047 -33.960  19.091  1.00  0.00     0.016 C 
BRANCH   3   5
ATOM      5  C   UNL     1      17.368 -36.219  20.062  1.00  0.00     0.015 C 
BRANCH   5   6
ATOM      6  C   UNL     1      18.433 -36.074  21.160  1.00  0.00     0.028 C 
BRANCH   6   7
ATOM      7  C   UNL     1      17.927 -36.147  22.585  1.00  0.00    -0.028 C 
ATOM      8  C   UNL     1      17.938 -35.147  23.500  1.00  0.00    -0.070 CG0
ATOM      9  C   UNL     1      17.524 -35.491  24.909  1.00  0.00     0.039 C 
ATOM     10  G   UNL     1      18.379 -33.726  23.192  1.00  0.00     0.000 G0
ENDBRANCH   6   7
ENDBRANCH   5   6
ENDBRANCH   3   5
ENDBRANCH   1   3
BRANCH   1  11
ATOM     11  C   UNL     1      16.233 -32.824  20.986  1.00  0.00     0.087 C 
BRANCH  11  12
ATOM     12  C   UNL     1      16.000 -32.675  22.519  1.00  0.00     0.066 C 
BRANCH  12  13
ATOM     13  C   UNL     1      17.305 -32.650  23.315  1.00  0.00     0.140 C 
ATOM     14  O   UNL     1      17.489 -31.737  24.106  1.00  0.00    -0.299 OA
BRANCH  13  15
ATOM     15  C   UNL     1      18.391 -33.712  23.204  1.00  0.00     0.106 CG0
ATOM     16  G   UNL     1      17.943 -35.135  23.494  1.00  0.00     0.000 G0
ENDBRANCH  13  15
ENDBRANCH  12  13
BRANCH  12  17
ATOM     17  C   UNL     1      15.089 -31.439  22.822  1.00  0.00    -0.006 C 
ATOM     18  C   UNL     1      13.906 -31.736  23.763  1.00  0.00     0.008 C 
ATOM     19  C   UNL     1      14.564 -30.793  21.533  1.00  0.00     0.008 C 
ENDBRANCH  12  17
ENDBRANCH  11  12
ENDBRANCH   1  11
TORSDOF 1
ENDMDL
MODEL 6
REMARK VINA RESULT:    -3.972      1.981      4.885
REMARK INTER + INTRA:          -6.558
REMARK INTER:                  -6.508
REMARK INTRA:                  -0.050
REMARK UNBOUND:                -0.496
REMARK SMILES CC1=CCC[C@H](C)C(=O)C[C@H](C(C)C)C(=O)C1
REMARK SMILES IDX 8 1 9 2 6 3 7 4 5 5 4 6 3 7 2 8 1 9 10 11 11 12 15 13 16 14
REMARK SMILES IDX 17 15 12 17 13 18 14 19
REMARK H PARENT
REMARK Flexibility Score: 70.00
ROOT
ATOM      1  C   UNL     1      14.287 -32.886  21.107  1.00  0.00     0.136 C 
ATOM      2  O   UNL     1      13.885 -33.139  19.979  1.00  0.00    -0.299 OA
ENDROOT
BRANCH   1   3
ATOM      3  C   UNL     1      14.040 -31.514  21.689  1.00  0.00     0.053 C 
ATOM      4  C   UNL     1      12.653 -30.994  21.292  1.00  0.00     0.016 C 
BRANCH   3   5
ATOM      5  C   UNL     1      14.203 -31.574  23.233  1.00  0.00     0.015 C 
BRANCH   5   6
ATOM      6  C   UNL     1      15.495 -30.938  23.771  1.00  0.00     0.028 C 
BRANCH   6   7
ATOM      7  C   UNL     1      16.358 -30.232  22.747  1.00  0.00    -0.028 C 
ATOM      8  C   UNL     1      17.412 -30.758  22.076  1.00  0.00    -0.070 CG0
ATOM      9  C   UNL     1      18.224 -29.821  21.218  1.00  0.00     0.039 C 
ATOM     10  G   UNL     1      17.834 -32.214  22.175  1.00  0.00     0.000 G0
ENDBRANCH   6   7
ENDBRANCH   5   6
ENDBRANCH   3   5
ENDBRANCH   1   3
BRANCH   1  11
ATOM     11  C   UNL     1      15.020 -33.960  21.879  1.00  0.00     0.087 C 
BRANCH  11  12
ATOM     12  C   UNL     1      16.415 -34.345  21.303  1.00  0.00     0.066 C 
BRANCH  12  13
ATOM     13  C   UNL     1      17.307 -33.128  21.052  1.00  0.00     0.140 C 
ATOM     14  O   UNL     1      17.598 -32.846  19.899  1.00  0.00    -0.299 OA
BRANCH  13  15
ATOM     15  C   UNL     1      17.840 -32.221  22.153  1.00  0.00     0.106 CG0
ATOM     16  G   UNL     1      17.418 -30.764  22.059  1.00  0.00     0.000 G0
ENDBRANCH  13  15
ENDBRANCH  12  13
BRANCH  12  17
ATOM     17  C   UNL     1      17.109 -35.420  22.205  1.00  0.00    -0.006 C 
ATOM     18  C   UNL     1      17.042 -35.123  23.715  1.00  0.00     0.008 C 
ATOM     19  C   UNL     1      18.570 -35.645  21.794  1.00  0.00     0.008 C 
ENDBRANCH  12  17
ENDBRANCH  11  12
ENDBRANCH   1  11
TORSDOF 1
ENDMDL
MODEL 7
REMARK VINA RESULT:    -3.965      2.163      4.656
REMARK INTER + INTRA:          -6.547
REMARK INTER:                  -6.152
REMARK INTRA:                  -0.396
REMARK UNBOUND:                -0.496
REMARK SMILES CC1=CCC[C@H](C)C(=O)C[C@H](C(C)C)C(=O)C1
REMARK SMILES IDX 8 1 9 2 6 3 7 4 5 5 4 6 3 7 2 8 1 9 10 11 11 12 15 13 16 14
REMARK SMILES IDX 17 15 12 17 13 18 14 19
REMARK H PARENT
REMARK Flexibility Score: 70.00
ROOT
ATOM      1  C   UNL     1      14.819 -33.306  21.696  1.00  0.00     0.136 C 
ATOM      2  O   UNL     1      14.314 -33.196  20.587  1.00  0.00    -0.299 OA
ENDROOT
BRANCH   1   3
ATOM      3  C   UNL     1      14.513 -32.272  22.754  1.00  0.00     0.053 C 
ATOM      4  C   UNL     1      14.640 -32.875  24.159  1.00  0.00     0.016 C 
BRANCH   3   5
ATOM      5  C   UNL     1      15.459 -31.054  22.571  1.00  0.00     0.015 C 
BRANCH   5   6
ATOM      6  C   UNL     1      16.511 -30.882  23.679  1.00  0.00     0.028 C 
BRANCH   6   7
ATOM      7  C   UNL     1      17.955 -30.927  23.230  1.00  0.00    -0.028 C 
ATOM      8  C   UNL     1      18.792 -31.991  23.301  1.00  0.00    -0.070 CG0
ATOM      9  C   UNL     1      20.238 -31.762  22.938  1.00  0.00     0.039 C 
ATOM     10  G   UNL     1      18.362 -33.374  23.760  1.00  0.00     0.000 G0
ENDBRANCH   6   7
ENDBRANCH   5   6
ENDBRANCH   3   5
ENDBRANCH   1   3
BRANCH   1  11
ATOM     11  C   UNL     1      15.736 -34.478  21.968  1.00  0.00     0.087 C 
BRANCH  11  12
ATOM     12  C   UNL     1      17.212 -34.275  21.511  1.00  0.00     0.066 C 
BRANCH  12  13
ATOM     13  C   UNL     1      18.210 -34.411  22.662  1.00  0.00     0.140 C 
ATOM     14  O   UNL     1      18.935 -35.395  22.692  1.00  0.00    -0.299 OA
BRANCH  13  15
ATOM     15  C   UNL     1      18.380 -33.380  23.769  1.00  0.00     0.106 CG0
ATOM     16  G   UNL     1      18.791 -31.992  23.309  1.00  0.00     0.000 G0
ENDBRANCH  13  15
ENDBRANCH  12  13
BRANCH  12  17
ATOM     17  C   UNL     1      17.552 -35.214  20.307  1.00  0.00    -0.006 C 
ATOM     18  C   UNL     1      18.215 -34.503  19.112  1.00  0.00     0.008 C 
ATOM     19  C   UNL     1      16.316 -35.982  19.821  1.00  0.00     0.008 C 
ENDBRANCH  12  17
ENDBRANCH  11  12
ENDBRANCH   1  11
TORSDOF 1
ENDMDL
MODEL 8
REMARK VINA RESULT:    -3.931      1.802      4.126
REMARK INTER + INTRA:          -6.496
REMARK INTER:                  -6.200
REMARK INTRA:                  -0.297
REMARK UNBOUND:                -0.496
REMARK SMILES CC1=CCC[C@H](C)C(=O)C[C@H](C(C)C)C(=O)C1
REMARK SMILES IDX 8 1 9 2 6 3 7 4 5 5 4 6 3 7 2 8 1 9 10 11 11 12 15 13 16 14
REMARK SMILES IDX 17 15 12 17 13 18 14 19
REMARK H PARENT
REMARK Flexibility Score: 70.00
ROOT
ATOM      1  C   UNL     1      18.240 -32.062  21.026  1.00  0.00     0.136 C 
ATOM      2  O   UNL     1      17.644 -31.065  20.641  1.00  0.00    -0.299 OA
ENDROOT
BRANCH   1   3
ATOM      3  C   UNL     1      19.293 -31.926  22.101  1.00  0.00     0.053 C 
ATOM      4  C   UNL     1      20.475 -31.086  21.602  1.00  0.00     0.016 C 
BRANCH   3   5
ATOM      5  C   UNL     1      18.651 -31.305  23.372  1.00  0.00     0.015 C 
BRANCH   5   6
ATOM      6  C   UNL     1      17.501 -32.124  23.980  1.00  0.00     0.028 C 
BRANCH   6   7
ATOM      7  C   UNL     1      16.111 -31.558  23.782  1.00  0.00    -0.028 C 
ATOM      8  C   UNL     1      15.042 -32.203  23.255  1.00  0.00    -0.070 CG0
ATOM      9  C   UNL     1      13.795 -31.391  23.009  1.00  0.00     0.039 C 
ATOM     10  G   UNL     1      15.048 -33.672  22.868  1.00  0.00     0.000 G0
ENDBRANCH   6   7
ENDBRANCH   5   6
ENDBRANCH   3   5
ENDBRANCH   1   3
BRANCH   1  11
ATOM     11  C   UNL     1      17.899 -33.400  20.408  1.00  0.00     0.087 C 
BRANCH  11  12
ATOM     12  C   UNL     1      17.146 -34.385  21.351  1.00  0.00     0.066 C 
BRANCH  12  13
ATOM     13  C   UNL     1      15.671 -34.021  21.529  1.00  0.00     0.140 C 
ATOM     14  O   UNL     1      14.946 -34.025  20.545  1.00  0.00    -0.299 OA
BRANCH  13  15
ATOM     15  C   UNL     1      15.035 -33.675  22.868  1.00  0.00     0.106 CG0
ATOM     16  G   UNL     1      15.035 -32.198  23.228  1.00  0.00     0.000 G0
ENDBRANCH  13  15
ENDBRANCH  12  13
BRANCH  12  17
ATOM     17  C   UNL     1      17.346 -35.864  20.880  1.00  0.00    -0.006 C 
ATOM     18  C   UNL     1      18.411 -36.646  21.671  1.00  0.00     0.008 C 
ATOM     19  C   UNL     1      17.666 -35.941  19.381  1.00  0.00     0.008 C 
ENDBRANCH  12  17
ENDBRANCH  11  12
ENDBRANCH   1  11
TORSDOF 1
ENDMDL
MODEL 9
REMARK VINA RESULT:    -3.826      2.078      3.937
REMARK INTER + INTRA:          -6.335
REMARK INTER:                  -6.256
REMARK INTRA:                  -0.079
REMARK UNBOUND:                -0.496
REMARK SMILES CC1=CCC[C@H](C)C(=O)C[C@H](C(C)C)C(=O)C1
REMARK SMILES IDX 8 1 9 2 6 3 7 4 5 5 4 6 3 7 2 8 1 9 10 11 11 12 15 13 16 14
REMARK SMILES IDX 17 15 12 17 13 18 14 19
REMARK H PARENT
REMARK Flexibility Score: 70.00
ROOT
ATOM      1  C   UNL     1      16.073 -30.511  23.122  1.00  0.00     0.136 C 
ATOM      2  O   UNL     1      16.390 -29.699  22.263  1.00  0.00    -0.299 OA
ENDROOT
BRANCH   1   3
ATOM      3  C   UNL     1      14.613 -30.685  23.472  1.00  0.00     0.053 C 
ATOM      4  C   UNL     1      13.779 -29.519  22.928  1.00  0.00     0.016 C 
BRANCH   3   5
ATOM      5  C   UNL     1      14.112 -32.048  22.920  1.00  0.00     0.015 C 
BRANCH   5   6
ATOM      6  C   UNL     1      14.120 -32.166  21.388  1.00  0.00     0.028 C 
BRANCH   6   7
ATOM      7  C   UNL     1      14.612 -33.485  20.831  1.00  0.00    -0.028 C 
ATOM      8  C   UNL     1      15.890 -33.801  20.507  1.00  0.00    -0.070 CG0
ATOM      9  C   UNL     1      16.124 -35.123  19.820  1.00  0.00     0.039 C 
ATOM     10  G   UNL     1      17.076 -32.887  20.763  1.00  0.00     0.000 G0
ENDBRANCH   6   7
ENDBRANCH   5   6
ENDBRANCH   3   5
ENDBRANCH   1   3
BRANCH   1  11
ATOM     11  C   UNL     1      17.159 -31.312  23.805  1.00  0.00     0.087 C 
BRANCH  11  12
ATOM     12  C   UNL     1      17.166 -32.831  23.461  1.00  0.00     0.066 C 
BRANCH  12  13
ATOM     13  C   UNL     1      17.798 -33.126  22.099  1.00  0.00     0.140 C 
ATOM     14  O   UNL     1      18.925 -33.597  22.068  1.00  0.00    -0.299 OA
BRANCH  13  15
ATOM     15  C   UNL     1      17.098 -32.891  20.768  1.00  0.00     0.106 CG0
ATOM     16  G   UNL     1      15.903 -33.788  20.493  1.00  0.00     0.000 G0
ENDBRANCH  13  15
ENDBRANCH  12  13
BRANCH  12  17
ATOM     17  C   UNL     1      17.823 -33.657  24.617  1.00  0.00    -0.006 C 
ATOM     18  C   UNL     1      16.900 -34.718  25.246  1.00  0.00     0.008 C 
ATOM     19  C   UNL     1      18.376 -32.744  25.720  1.00  0.00     0.008 C 
ENDBRANCH  12  17
ENDBRANCH  11  12
ENDBRANCH   1  11
TORSDOF 1
ENDMDL
