MODEL 1
REMARK VINA RESULT:    -3.415      0.000      0.000
REMARK INTER + INTRA:          -3.981
REMARK INTER:                  -4.812
REMARK INTRA:                   0.831
REMARK UNBOUND:                 0.831
REMARK SMILES CC1=CCC(=C(C)C)C(=O)CC(C)=CCC1
REMARK SMILES IDX 12 1 14 2 13 3 15 4 16 5 2 6 1 7 3 8 11 10 9 11 10 12 5 13
REMARK SMILES IDX 6 14 7 15 8 16 4 17
REMARK H PARENT
REMARK Flexibility Score: 60.00
ROOT
ATOM      1  C   UNL     1      27.787 -42.496 -22.542  1.00  0.00    -0.070 C 
ATOM      2  C   UNL     1      27.067 -41.357 -22.418  1.00  0.00    -0.027 C 
ATOM      3  C   UNL     1      27.868 -43.121 -23.913  1.00  0.00     0.039 C 
ENDROOT
BRANCH   2   4
ATOM      4  C   UNL     1      26.939 -40.511 -21.173  1.00  0.00     0.032 C 
BRANCH   4   5
ATOM      5  C   UNL     1      25.489 -40.430 -20.659  1.00  0.00     0.034 C 
BRANCH   5   6
ATOM      6  C   UNL     1      24.838 -41.797 -20.563  1.00  0.00    -0.077 C 
ATOM      7  C   UNL     1      23.652 -42.088 -21.446  1.00  0.00     0.039 C 
ATOM      8  C   UNL     1      25.246 -42.763 -19.709  1.00  0.00    -0.023 CG0
ATOM      9  G   UNL     1      26.387 -42.648 -18.727  1.00  0.00     0.000 G0
ENDBRANCH   5   6
ENDBRANCH   4   5
ENDBRANCH   2   4
BRANCH   1  10
ATOM     10  C   UNL     1      28.564 -43.134 -21.401  1.00  0.00     0.111 C 
BRANCH  10  11
ATOM     11  C   UNL     1      27.665 -43.960 -20.514  1.00  0.00     0.163 C 
ATOM     12  O   UNL     1      27.040 -44.923 -21.034  1.00  0.00    -0.294 OA
BRANCH  11  13
ATOM     13  C   UNL     1      27.466 -43.635 -19.067  1.00  0.00    -0.002 C 
ATOM     14  C   UNL     1      28.276 -44.153 -18.094  1.00  0.00    -0.069 C 
ATOM     15  C   UNL     1      29.463 -45.025 -18.435  1.00  0.00     0.039 C 
ATOM     16  C   UNL     1      28.042 -43.850 -16.630  1.00  0.00     0.039 C 
BRANCH  13  17
ATOM     17  C   UNL     1      26.367 -42.643 -18.728  1.00  0.00     0.066 CG0
ATOM     18  G   UNL     1      25.248 -42.756 -19.735  1.00  0.00     0.000 G0
ENDBRANCH  13  17
ENDBRANCH  11  13
ENDBRANCH  10  11
ENDBRANCH   1  10
TORSDOF 0
ENDMDL
MODEL 2
REMARK VINA RESULT:    -3.325      1.791      4.270
REMARK INTER + INTRA:          -3.855
REMARK INTER:                  -4.211
REMARK INTRA:                   0.355
REMARK UNBOUND:                 0.831
REMARK SMILES CC1=CCC(=C(C)C)C(=O)CC(C)=CCC1
REMARK SMILES IDX 12 1 14 2 13 3 15 4 16 5 2 6 1 7 3 8 11 10 9 11 10 12 5 13
REMARK SMILES IDX 6 14 7 15 8 16 4 17
REMARK H PARENT
REMARK Flexibility Score: 60.00
ROOT
ATOM      1  C   UNL     1      28.289 -44.617 -18.191  1.00  0.00    -0.070 C 
ATOM      2  C   UNL     1      27.672 -44.746 -16.993  1.00  0.00    -0.027 C 
ATOM      3  C   UNL     1      29.655 -45.240 -18.340  1.00  0.00     0.039 C 
ENDROOT
BRANCH   2   4
ATOM      4  C   UNL     1      26.270 -44.297 -16.656  1.00  0.00     0.032 C 
BRANCH   4   5
ATOM      5  C   UNL     1      26.148 -42.765 -16.558  1.00  0.00     0.034 C 
BRANCH   5   6
ATOM      6  C   UNL     1      25.049 -42.220 -17.452  1.00  0.00    -0.077 C 
ATOM      7  C   UNL     1      23.650 -42.750 -17.269  1.00  0.00     0.039 C 
ATOM      8  C   UNL     1      25.258 -41.303 -18.423  1.00  0.00    -0.023 CG0
ATOM      9  G   UNL     1      26.588 -40.682 -18.779  1.00  0.00     0.000 G0
ENDBRANCH   5   6
ENDBRANCH   4   5
ENDBRANCH   2   4
BRANCH   1  10
ATOM     10  C   UNL     1      27.658 -43.943 -19.398  1.00  0.00     0.111 C 
BRANCH  10  11
ATOM     11  C   UNL     1      28.171 -42.535 -19.578  1.00  0.00     0.163 C 
ATOM     12  O   UNL     1      29.397 -42.320 -19.381  1.00  0.00    -0.294 OA
BRANCH  11  13
ATOM     13  C   UNL     1      27.261 -41.399 -19.929  1.00  0.00    -0.002 C 
ATOM     14  C   UNL     1      26.977 -41.080 -21.227  1.00  0.00    -0.069 C 
ATOM     15  C   UNL     1      27.509 -41.902 -22.380  1.00  0.00     0.039 C 
ATOM     16  C   UNL     1      26.088 -39.905 -21.574  1.00  0.00     0.039 C 
BRANCH  13  17
ATOM     17  C   UNL     1      26.605 -40.660 -18.776  1.00  0.00     0.066 CG0
ATOM     18  G   UNL     1      25.283 -41.307 -18.440  1.00  0.00     0.000 G0
ENDBRANCH  13  17
ENDBRANCH  11  13
ENDBRANCH  10  11
ENDBRANCH   1  10
TORSDOF 0
ENDMDL
MODEL 3
REMARK VINA RESULT:    -3.278      1.653      2.669
REMARK INTER + INTRA:          -3.788
REMARK INTER:                  -4.632
REMARK INTRA:                   0.844
REMARK UNBOUND:                 0.831
REMARK SMILES CC1=CCC(=C(C)C)C(=O)CC(C)=CCC1
REMARK SMILES IDX 12 1 14 2 13 3 15 4 16 5 2 6 1 7 3 8 11 10 9 11 10 12 5 13
REMARK SMILES IDX 6 14 7 15 8 16 4 17
REMARK H PARENT
REMARK Flexibility Score: 60.00
ROOT
ATOM      1  C   UNL     1      28.136 -44.394 -20.431  1.00  0.00    -0.070 C 
ATOM      2  C   UNL     1      28.652 -43.599 -21.397  1.00  0.00    -0.027 C 
ATOM      3  C   UNL     1      29.110 -45.132 -19.545  1.00  0.00     0.039 C 
ENDROOT
BRANCH   2   4
ATOM      4  C   UNL     1      27.873 -42.694 -22.322  1.00  0.00     0.032 C 
BRANCH   4   5
ATOM      5  C   UNL     1      28.014 -41.206 -21.952  1.00  0.00     0.034 C 
BRANCH   5   6
ATOM      6  C   UNL     1      26.815 -40.693 -21.176  1.00  0.00    -0.077 C 
ATOM      7  C   UNL     1      25.715 -39.998 -21.938  1.00  0.00     0.039 C 
ATOM      8  C   UNL     1      26.688 -40.800 -19.835  1.00  0.00    -0.023 CG0
ATOM      9  G   UNL     1      27.694 -41.429 -18.901  1.00  0.00     0.000 G0
ENDBRANCH   5   6
ENDBRANCH   4   5
ENDBRANCH   2   4
BRANCH   1  10
ATOM     10  C   UNL     1      26.648 -44.529 -20.153  1.00  0.00     0.111 C 
BRANCH  10  11
ATOM     11  C   UNL     1      26.175 -43.498 -19.157  1.00  0.00     0.163 C 
ATOM     12  O   UNL     1      24.937 -43.269 -19.083  1.00  0.00    -0.294 OA
BRANCH  11  13
ATOM     13  C   UNL     1      27.130 -42.721 -18.307  1.00  0.00    -0.002 C 
ATOM     14  C   UNL     1      27.529 -43.169 -17.079  1.00  0.00    -0.069 C 
ATOM     15  C   UNL     1      27.084 -44.511 -16.542  1.00  0.00     0.039 C 
ATOM     16  C   UNL     1      28.465 -42.357 -16.209  1.00  0.00     0.039 C 
BRANCH  13  17
ATOM     17  C   UNL     1      27.699 -41.444 -18.900  1.00  0.00     0.066 CG0
ATOM     18  G   UNL     1      26.688 -40.819 -19.833  1.00  0.00     0.000 G0
ENDBRANCH  13  17
ENDBRANCH  11  13
ENDBRANCH  10  11
ENDBRANCH   1  10
TORSDOF 0
ENDMDL
MODEL 4
REMARK VINA RESULT:    -3.223      2.241      5.342
REMARK INTER + INTRA:          -3.711
REMARK INTER:                  -4.083
REMARK INTRA:                   0.372
REMARK UNBOUND:                 0.831
REMARK SMILES CC1=CCC(=C(C)C)C(=O)CC(C)=CCC1
REMARK SMILES IDX 12 1 14 2 13 3 15 4 16 5 2 6 1 7 3 8 11 10 9 11 10 12 5 13
REMARK SMILES IDX 6 14 7 15 8 16 4 17
REMARK H PARENT
REMARK Flexibility Score: 60.00
ROOT
ATOM      1  C   UNL     1      25.028 -43.082 -17.058  1.00  0.00    -0.070 C 
ATOM      2  C   UNL     1      25.789 -43.901 -16.293  1.00  0.00    -0.027 C 
ATOM      3  C   UNL     1      23.887 -42.363 -16.383  1.00  0.00     0.039 C 
ENDROOT
BRANCH   2   4
ATOM      4  C   UNL     1      27.036 -44.632 -16.732  1.00  0.00     0.032 C 
BRANCH   4   5
ATOM      5  C   UNL     1      28.263 -43.706 -16.824  1.00  0.00     0.034 C 
BRANCH   5   6
ATOM      6  C   UNL     1      29.009 -43.873 -18.135  1.00  0.00    -0.077 C 
ATOM      7  C   UNL     1      29.669 -45.198 -18.419  1.00  0.00     0.039 C 
ATOM      8  C   UNL     1      29.138 -42.890 -19.054  1.00  0.00    -0.023 CG0
ATOM      9  G   UNL     1      28.580 -41.492 -18.935  1.00  0.00     0.000 G0
ENDBRANCH   5   6
ENDBRANCH   4   5
ENDBRANCH   2   4
BRANCH   1  10
ATOM     10  C   UNL     1      25.302 -42.803 -18.527  1.00  0.00     0.111 C 
BRANCH  10  11
ATOM     11  C   UNL     1      26.035 -41.497 -18.715  1.00  0.00     0.163 C 
ATOM     12  O   UNL     1      25.583 -40.474 -18.133  1.00  0.00    -0.294 OA
BRANCH  11  13
ATOM     13  C   UNL     1      27.235 -41.383 -19.601  1.00  0.00    -0.002 C 
ATOM     14  C   UNL     1      27.120 -41.144 -20.942  1.00  0.00    -0.069 C 
ATOM     15  C   UNL     1      25.775 -40.907 -21.592  1.00  0.00     0.039 C 
ATOM     16  C   UNL     1      28.338 -41.069 -21.837  1.00  0.00     0.039 C 
BRANCH  13  17
ATOM     17  C   UNL     1      28.597 -41.473 -18.933  1.00  0.00     0.066 CG0
ATOM     18  G   UNL     1      29.134 -42.879 -19.054  1.00  0.00     0.000 G0
ENDBRANCH  13  17
ENDBRANCH  11  13
ENDBRANCH  10  11
ENDBRANCH   1  10
TORSDOF 0
ENDMDL
MODEL 5
REMARK VINA RESULT:    -3.220      1.695      4.324
REMARK INTER + INTRA:          -3.707
REMARK INTER:                  -4.652
REMARK INTRA:                   0.945
REMARK UNBOUND:                 0.831
REMARK SMILES CC1=CCC(=C(C)C)C(=O)CC(C)=CCC1
REMARK SMILES IDX 12 1 14 2 13 3 15 4 16 5 2 6 1 7 3 8 11 10 9 11 10 12 5 13
REMARK SMILES IDX 6 14 7 15 8 16 4 17
REMARK H PARENT
REMARK Flexibility Score: 60.00
ROOT
ATOM      1  C   UNL     1      25.299 -44.117 -20.739  1.00  0.00    -0.070 C 
ATOM      2  C   UNL     1      25.262 -43.939 -19.397  1.00  0.00    -0.027 C 
ATOM      3  C   UNL     1      24.082 -43.704 -21.529  1.00  0.00     0.039 C 
ENDROOT
BRANCH   2   4
ATOM      4  C   UNL     1      26.398 -44.181 -18.432  1.00  0.00     0.032 C 
BRANCH   4   5
ATOM      5  C   UNL     1      26.848 -42.895 -17.713  1.00  0.00     0.034 C 
BRANCH   5   6
ATOM      6  C   UNL     1      28.233 -42.452 -18.148  1.00  0.00    -0.077 C 
ATOM      7  C   UNL     1      29.397 -42.747 -17.237  1.00  0.00     0.039 C 
ATOM      8  C   UNL     1      28.480 -41.782 -19.296  1.00  0.00    -0.023 CG0
ATOM      9  G   UNL     1      27.446 -41.367 -20.315  1.00  0.00     0.000 G0
ENDBRANCH   5   6
ENDBRANCH   4   5
ENDBRANCH   2   4
BRANCH   1  10
ATOM     10  C   UNL     1      26.513 -44.642 -21.489  1.00  0.00     0.111 C 
BRANCH  10  11
ATOM     11  C   UNL     1      27.691 -43.707 -21.360  1.00  0.00     0.163 C 
ATOM     12  O   UNL     1      28.804 -44.198 -21.030  1.00  0.00    -0.294 OA
BRANCH  11  13
ATOM     13  C   UNL     1      27.556 -42.231 -21.562  1.00  0.00    -0.002 C 
ATOM     14  C   UNL     1      27.482 -41.679 -22.810  1.00  0.00    -0.069 C 
ATOM     15  C   UNL     1      27.459 -42.537 -24.055  1.00  0.00     0.039 C 
ATOM     16  C   UNL     1      27.385 -40.181 -23.006  1.00  0.00     0.039 C 
BRANCH  13  17
ATOM     17  C   UNL     1      27.429 -41.373 -20.315  1.00  0.00     0.066 CG0
ATOM     18  G   UNL     1      28.494 -41.762 -19.317  1.00  0.00     0.000 G0
ENDBRANCH  13  17
ENDBRANCH  11  13
ENDBRANCH  10  11
ENDBRANCH   1  10
TORSDOF 0
ENDMDL
MODEL 6
REMARK VINA RESULT:    -3.157     11.365     12.988
REMARK INTER + INTRA:          -3.618
REMARK INTER:                  -4.026
REMARK INTRA:                   0.407
REMARK UNBOUND:                 0.831
REMARK SMILES CC1=CCC(=C(C)C)C(=O)CC(C)=CCC1
REMARK SMILES IDX 12 1 14 2 13 3 15 4 16 5 2 6 1 7 3 8 11 10 9 11 10 12 5 13
REMARK SMILES IDX 6 14 7 15 8 16 4 17
REMARK H PARENT
REMARK Flexibility Score: 60.00
ROOT
ATOM      1  C   UNL     1      28.664 -33.264 -15.303  1.00  0.00    -0.070 C 
ATOM      2  C   UNL     1      29.417 -33.978 -14.434  1.00  0.00    -0.027 C 
ATOM      3  C   UNL     1      28.588 -33.759 -16.727  1.00  0.00     0.039 C 
ENDROOT
BRANCH   2   4
ATOM      4  C   UNL     1      29.550 -33.728 -12.951  1.00  0.00     0.032 C 
BRANCH   4   5
ATOM      5  C   UNL     1      28.356 -34.279 -12.149  1.00  0.00     0.034 C 
BRANCH   5   6
ATOM      6  C   UNL     1      27.792 -33.252 -11.184  1.00  0.00    -0.077 C 
ATOM      7  C   UNL     1      28.642 -32.827 -10.014  1.00  0.00     0.039 C 
ATOM      8  C   UNL     1      26.557 -32.714 -11.299  1.00  0.00    -0.023 CG0
ATOM      9  G   UNL     1      25.550 -33.038 -12.377  1.00  0.00     0.000 G0
ENDBRANCH   5   6
ENDBRANCH   4   5
ENDBRANCH   2   4
BRANCH   1  10
ATOM     10  C   UNL     1      27.847 -32.044 -14.909  1.00  0.00     0.111 C 
BRANCH  10  11
ATOM     11  C   UNL     1      26.390 -32.389 -14.722  1.00  0.00     0.163 C 
ATOM     12  O   UNL     1      25.796 -32.985 -15.662  1.00  0.00    -0.294 OA
BRANCH  11  13
ATOM     13  C   UNL     1      25.636 -32.003 -13.489  1.00  0.00    -0.002 C 
ATOM     14  C   UNL     1      24.999 -30.798 -13.383  1.00  0.00    -0.069 C 
ATOM     15  C   UNL     1      24.958 -29.820 -14.535  1.00  0.00     0.039 C 
ATOM     16  C   UNL     1      24.272 -30.400 -12.116  1.00  0.00     0.039 C 
BRANCH  13  17
ATOM     17  C   UNL     1      25.547 -33.039 -12.382  1.00  0.00     0.066 CG0
ATOM     18  G   UNL     1      26.552 -32.720 -11.301  1.00  0.00     0.000 G0
ENDBRANCH  13  17
ENDBRANCH  11  13
ENDBRANCH  10  11
ENDBRANCH   1  10
TORSDOF 0
ENDMDL
MODEL 7
REMARK VINA RESULT:    -3.101      1.571      2.184
REMARK INTER + INTRA:          -3.539
REMARK INTER:                  -4.067
REMARK INTRA:                   0.528
REMARK UNBOUND:                 0.831
REMARK SMILES CC1=CCC(=C(C)C)C(=O)CC(C)=CCC1
REMARK SMILES IDX 12 1 14 2 13 3 15 4 16 5 2 6 1 7 3 8 11 10 9 11 10 12 5 13
REMARK SMILES IDX 6 14 7 15 8 16 4 17
REMARK H PARENT
REMARK Flexibility Score: 60.00
ROOT
ATOM      1  C   UNL     1      28.150 -42.268 -21.443  1.00  0.00    -0.070 C 
ATOM      2  C   UNL     1      27.254 -41.513 -22.121  1.00  0.00    -0.027 C 
ATOM      3  C   UNL     1      28.680 -43.502 -22.131  1.00  0.00     0.039 C 
ENDROOT
BRANCH   2   4
ATOM      4  C   UNL     1      26.677 -40.191 -21.672  1.00  0.00     0.032 C 
BRANCH   4   5
ATOM      5  C   UNL     1      25.362 -40.355 -20.887  1.00  0.00     0.034 C 
BRANCH   5   6
ATOM      6  C   UNL     1      25.478 -39.842 -19.464  1.00  0.00    -0.077 C 
ATOM      7  C   UNL     1      25.362 -38.358 -19.227  1.00  0.00     0.039 C 
ATOM      8  C   UNL     1      25.704 -40.639 -18.396  1.00  0.00    -0.023 CG0
ATOM      9  G   UNL     1      25.882 -42.138 -18.435  1.00  0.00     0.000 G0
ENDBRANCH   5   6
ENDBRANCH   4   5
ENDBRANCH   2   4
BRANCH   1  10
ATOM     10  C   UNL     1      28.693 -41.906 -20.071  1.00  0.00     0.111 C 
BRANCH  10  11
ATOM     11  C   UNL     1      28.256 -42.899 -19.022  1.00  0.00     0.163 C 
ATOM     12  O   UNL     1      28.722 -44.069 -19.081  1.00  0.00    -0.294 OA
BRANCH  11  13
ATOM     13  C   UNL     1      27.260 -42.545 -17.963  1.00  0.00    -0.002 C 
ATOM     14  C   UNL     1      27.597 -42.514 -16.639  1.00  0.00    -0.069 C 
ATOM     15  C   UNL     1      29.015 -42.764 -16.177  1.00  0.00     0.039 C 
ATOM     16  C   UNL     1      26.573 -42.193 -15.571  1.00  0.00     0.039 C 
BRANCH  13  17
ATOM     17  C   UNL     1      25.869 -42.148 -18.429  1.00  0.00     0.066 CG0
ATOM     18  G   UNL     1      25.731 -40.645 -18.399  1.00  0.00     0.000 G0
ENDBRANCH  13  17
ENDBRANCH  11  13
ENDBRANCH  10  11
ENDBRANCH   1  10
TORSDOF 0
ENDMDL
MODEL 8
REMARK VINA RESULT:    -3.060      1.836      2.668
REMARK INTER + INTRA:          -3.482
REMARK INTER:                  -4.093
REMARK INTRA:                   0.611
REMARK UNBOUND:                 0.831
REMARK SMILES CC1=CCC(=C(C)C)C(=O)CC(C)=CCC1
REMARK SMILES IDX 12 1 14 2 13 3 15 4 16 5 2 6 1 7 3 8 11 10 9 11 10 12 5 13
REMARK SMILES IDX 6 14 7 15 8 16 4 17
REMARK H PARENT
REMARK Flexibility Score: 60.00
ROOT
ATOM      1  C   UNL     1      25.656 -44.393 -22.609  1.00  0.00    -0.070 C 
ATOM      2  C   UNL     1      26.041 -43.509 -23.560  1.00  0.00    -0.027 C 
ATOM      3  C   UNL     1      24.262 -44.961 -22.712  1.00  0.00     0.039 C 
ENDROOT
BRANCH   2   4
ATOM      4  C   UNL     1      27.414 -42.901 -23.712  1.00  0.00     0.032 C 
BRANCH   4   5
ATOM      5  C   UNL     1      27.396 -41.364 -23.607  1.00  0.00     0.034 C 
BRANCH   5   6
ATOM      6  C   UNL     1      26.625 -40.882 -22.392  1.00  0.00    -0.077 C 
ATOM      7  C   UNL     1      25.449 -39.964 -22.610  1.00  0.00     0.039 C 
ATOM      8  C   UNL     1      26.947 -41.209 -21.121  1.00  0.00    -0.023 CG0
ATOM      9  G   UNL     1      28.104 -42.084 -20.701  1.00  0.00     0.000 G0
ENDBRANCH   5   6
ENDBRANCH   4   5
ENDBRANCH   2   4
BRANCH   1  10
ATOM     10  C   UNL     1      26.566 -44.887 -21.496  1.00  0.00     0.111 C 
BRANCH  10  11
ATOM     11  C   UNL     1      26.457 -44.020 -20.266  1.00  0.00     0.163 C 
ATOM     12  O   UNL     1      25.347 -43.971 -19.671  1.00  0.00    -0.294 OA
BRANCH  11  13
ATOM     13  C   UNL     1      27.604 -43.193 -19.776  1.00  0.00    -0.002 C 
ATOM     14  C   UNL     1      28.226 -43.457 -18.588  1.00  0.00    -0.069 C 
ATOM     15  C   UNL     1      27.837 -44.646 -17.737  1.00  0.00     0.039 C 
ATOM     16  C   UNL     1      29.360 -42.592 -18.081  1.00  0.00     0.039 C 
BRANCH  13  17
ATOM     17  C   UNL     1      28.098 -42.087 -20.692  1.00  0.00     0.066 CG0
ATOM     18  G   UNL     1      26.937 -41.220 -21.118  1.00  0.00     0.000 G0
ENDBRANCH  13  17
ENDBRANCH  11  13
ENDBRANCH  10  11
ENDBRANCH   1  10
TORSDOF 0
ENDMDL
MODEL 9
REMARK VINA RESULT:    -3.056     11.715     13.089
REMARK INTER + INTRA:          -3.476
REMARK INTER:                  -4.138
REMARK INTRA:                   0.662
REMARK UNBOUND:                 0.831
REMARK SMILES CC1=CCC(=C(C)C)C(=O)CC(C)=CCC1
REMARK SMILES IDX 12 1 14 2 13 3 15 4 16 5 2 6 1 7 3 8 11 10 9 11 10 12 5 13
REMARK SMILES IDX 6 14 7 15 8 16 4 17
REMARK H PARENT
REMARK Flexibility Score: 60.00
ROOT
ATOM      1  C   UNL     1      29.397 -35.682 -11.844  1.00  0.00    -0.070 C 
ATOM      2  C   UNL     1      29.681 -35.298 -13.111  1.00  0.00    -0.027 C 
ATOM      3  C   UNL     1      29.155 -37.152 -11.601  1.00  0.00     0.039 C 
ENDROOT
BRANCH   2   4
ATOM      4  C   UNL     1      30.058 -33.907 -13.560  1.00  0.00     0.032 C 
BRANCH   4   5
ATOM      5  C   UNL     1      29.102 -33.351 -14.632  1.00  0.00     0.034 C 
BRANCH   5   6
ATOM      6  C   UNL     1      27.660 -33.334 -14.160  1.00  0.00    -0.077 C 
ATOM      7  C   UNL     1      26.626 -34.044 -14.995  1.00  0.00     0.039 C 
ATOM      8  C   UNL     1      27.244 -32.695 -13.044  1.00  0.00    -0.023 CG0
ATOM      9  G   UNL     1      28.121 -31.905 -12.101  1.00  0.00     0.000 G0
ENDBRANCH   5   6
ENDBRANCH   4   5
ENDBRANCH   2   4
BRANCH   1  10
ATOM     10  C   UNL     1      29.376 -34.732 -10.658  1.00  0.00     0.111 C 
BRANCH  10  11
ATOM     11  C   UNL     1      28.066 -33.987 -10.568  1.00  0.00     0.163 C 
ATOM     12  O   UNL     1      27.010 -34.659 -10.426  1.00  0.00    -0.294 OA
BRANCH  11  13
ATOM     13  C   UNL     1      27.993 -32.498 -10.693  1.00  0.00    -0.002 C 
ATOM     14  C   UNL     1      27.879 -31.688  -9.597  1.00  0.00    -0.069 C 
ATOM     15  C   UNL     1      27.896 -32.249  -8.193  1.00  0.00     0.039 C 
ATOM     16  C   UNL     1      27.766 -30.185  -9.736  1.00  0.00     0.039 C 
BRANCH  13  17
ATOM     17  C   UNL     1      28.124 -31.915 -12.090  1.00  0.00     0.066 CG0
ATOM     18  G   UNL     1      27.240 -32.680 -13.046  1.00  0.00     0.000 G0
ENDBRANCH  13  17
ENDBRANCH  11  13
ENDBRANCH  10  11
ENDBRANCH   1  10
TORSDOF 0
ENDMDL
