MODEL 1
REMARK VINA RESULT:    -6.062      0.000      0.000
REMARK INTER + INTRA:         -10.279
REMARK INTER:                  -9.252
REMARK INTRA:                  -1.027
REMARK UNBOUND:                -1.027
REMARK SMILES OC[C@@H]1O[C@@H](O[C@@]2(CO)O[C@@H](CO)[C@H](O)[C@H]2O)[C@@H](O)[C@@H](O)[C@@H]1O
REMARK SMILES IDX 6 1 5 2 3 3 22 4 4 5 20 6 18 7 2 8 1 9 23 11 21 13 19 15
REMARK SMILES IDX 7 17 16 18 10 19 14 20 11 21 8 22 9 23 17 25 15 27 12 29
REMARK SMILES IDX 13 30
REMARK H PARENT 1 10 23 12 21 14 19 16 9 24 17 26 15 28 13 31
REMARK Flexibility Score: inf
ROOT
ATOM      1  O   UNL     1     234.933 240.016 236.124  1.00  0.00    -0.313 OA
ENDROOT
BRANCH   1   2
ATOM      2  C   UNL     1     234.878 239.420 237.421  1.00  0.00     0.285 C 
ATOM      3  C   UNL     1     233.553 239.952 239.349  1.00  0.00     0.178 C 
ATOM      4  C   UNL     1     234.565 239.200 240.233  1.00  0.00     0.177 C 
ATOM      5  O   UNL     1     233.575 239.494 238.009  1.00  0.00    -0.341 OA
ATOM      6  C   UNL     1     235.997 239.584 239.814  1.00  0.00     0.179 C 
ATOM      7  C   UNL     1     236.126 239.832 238.272  1.00  0.00     0.202 C 
BRANCH   3   8
ATOM      8  C   UNL     1     232.127 239.785 239.887  1.00  0.00     0.191 C 
BRANCH   8   9
ATOM      9  O   UNL     1     231.685 238.466 239.699  1.00  0.00    -0.394 OA
ATOM     10  H   UNL     1     230.795 238.537 239.264  1.00  0.00     0.210 HD
ENDBRANCH   8   9
ENDBRANCH   3   8
BRANCH   4  11
ATOM     11  O   UNL     1     234.359 237.807 240.193  1.00  0.00    -0.387 OA
ATOM     12  H   UNL     1     234.952 237.389 240.868  1.00  0.00     0.211 HD
ENDBRANCH   4  11
BRANCH   6  13
ATOM     13  O   UNL     1     236.439 240.700 240.556  1.00  0.00    -0.387 OA
ATOM     14  H   UNL     1     237.222 240.411 241.099  1.00  0.00     0.211 HD
ENDBRANCH   6  13
BRANCH   7  15
ATOM     15  O   UNL     1     236.483 241.162 237.985  1.00  0.00    -0.385 OA
ATOM     16  H   UNL     1     237.296 241.129 237.411  1.00  0.00     0.211 HD
ENDBRANCH   7  15
ENDBRANCH   1   2
BRANCH   1  17
ATOM     17  C   UNL     1     234.925 239.126 235.005  1.00  0.00     0.224 C 
ATOM     18  C   UNL     1     235.949 239.635 233.971  1.00  0.00     0.208 C 
ATOM     19  O   UNL     1     233.682 239.096 234.335  1.00  0.00    -0.337 OA
ATOM     20  C   UNL     1     235.366 239.202 232.637  1.00  0.00     0.180 C 
ATOM     21  C   UNL     1     233.935 238.784 232.982  1.00  0.00     0.179 C 
BRANCH  17  22
ATOM     22  C   UNL     1     235.293 237.695 235.486  1.00  0.00     0.225 C 
BRANCH  22  23
ATOM     23  O   UNL     1     236.620 237.373 235.156  1.00  0.00    -0.391 OA
ATOM     24  H   UNL     1     237.048 238.205 234.816  1.00  0.00     0.210 HD
ENDBRANCH  22  23
ENDBRANCH  17  22
BRANCH  18  25
ATOM     25  O   UNL     1     236.019 241.043 233.996  1.00  0.00    -0.385 OA
ATOM     26  H   UNL     1     235.142 241.367 234.335  1.00  0.00     0.211 HD
ENDBRANCH  18  25
BRANCH  20  27
ATOM     27  O   UNL     1     236.076 238.107 232.114  1.00  0.00    -0.387 OA
ATOM     28  H   UNL     1     235.804 238.021 231.158  1.00  0.00     0.211 HD
ENDBRANCH  20  27
BRANCH  21  29
ATOM     29  C   UNL     1     232.878 239.435 232.085  1.00  0.00     0.191 C 
BRANCH  29  30
ATOM     30  O   UNL     1     232.467 238.550 231.076  1.00  0.00    -0.394 OA
ATOM     31  H   UNL     1     232.338 239.093 230.242  1.00  0.00     0.210 HD
ENDBRANCH  29  30
ENDBRANCH  21  29
ENDBRANCH   1  17
TORSDOF 13
ENDMDL
MODEL 2
REMARK VINA RESULT:    -5.961      1.100      2.350
REMARK INTER + INTRA:         -10.124
REMARK INTER:                  -9.031
REMARK INTRA:                  -1.093
REMARK UNBOUND:                -1.027
REMARK SMILES OC[C@@H]1O[C@@H](O[C@@]2(CO)O[C@@H](CO)[C@H](O)[C@H]2O)[C@@H](O)[C@@H](O)[C@@H]1O
REMARK SMILES IDX 6 1 5 2 3 3 22 4 4 5 20 6 18 7 2 8 1 9 23 11 21 13 19 15
REMARK SMILES IDX 7 17 16 18 10 19 14 20 11 21 8 22 9 23 17 25 15 27 12 29
REMARK SMILES IDX 13 30
REMARK H PARENT 1 10 23 12 21 14 19 16 9 24 17 26 15 28 13 31
REMARK Flexibility Score: inf
ROOT
ATOM      1  O   UNL     1     234.884 240.066 236.027  1.00  0.00    -0.313 OA
ENDROOT
BRANCH   1   2
ATOM      2  C   UNL     1     234.882 239.470 237.326  1.00  0.00     0.285 C 
ATOM      3  C   UNL     1     233.582 239.952 239.283  1.00  0.00     0.178 C 
ATOM      4  C   UNL     1     234.643 239.243 240.145  1.00  0.00     0.177 C 
ATOM      5  O   UNL     1     233.591 239.493 237.943  1.00  0.00    -0.341 OA
ATOM      6  C   UNL     1     236.048 239.684 239.692  1.00  0.00     0.179 C 
ATOM      7  C   UNL     1     236.131 239.933 238.148  1.00  0.00     0.202 C 
BRANCH   3   8
ATOM      8  C   UNL     1     232.176 239.730 239.854  1.00  0.00     0.191 C 
BRANCH   8   9
ATOM      9  O   UNL     1     231.789 238.390 239.690  1.00  0.00    -0.394 OA
ATOM     10  H   UNL     1     232.450 237.990 239.067  1.00  0.00     0.210 HD
ENDBRANCH   8   9
ENDBRANCH   3   8
BRANCH   4  11
ATOM     11  O   UNL     1     234.491 237.843 240.111  1.00  0.00    -0.387 OA
ATOM     12  H   UNL     1     234.210 237.543 241.012  1.00  0.00     0.211 HD
ENDBRANCH   4  11
BRANCH   6  13
ATOM     13  O   UNL     1     236.461 240.818 240.422  1.00  0.00    -0.387 OA
ATOM     14  H   UNL     1     236.065 240.753 241.333  1.00  0.00     0.211 HD
ENDBRANCH   6  13
BRANCH   7  15
ATOM     15  O   UNL     1     236.428 241.277 237.851  1.00  0.00    -0.385 OA
ATOM     16  H   UNL     1     235.565 241.727 237.638  1.00  0.00     0.211 HD
ENDBRANCH   7  15
ENDBRANCH   1   2
BRANCH   1  17
ATOM     17  C   UNL     1     235.613 239.381 235.006  1.00  0.00     0.224 C 
ATOM     18  C   UNL     1     234.651 239.079 233.840  1.00  0.00     0.208 C 
ATOM     19  O   UNL     1     236.111 238.129 235.430  1.00  0.00    -0.337 OA
ATOM     20  C   UNL     1     235.191 237.789 233.247  1.00  0.00     0.180 C 
ATOM     21  C   UNL     1     236.191 237.295 234.295  1.00  0.00     0.179 C 
BRANCH  17  22
ATOM     22  C   UNL     1     236.791 240.276 234.530  1.00  0.00     0.225 C 
BRANCH  22  23
ATOM     23  O   UNL     1     236.533 241.633 234.786  1.00  0.00    -0.391 OA
ATOM     24  H   UNL     1     237.308 241.987 235.300  1.00  0.00     0.210 HD
ENDBRANCH  22  23
ENDBRANCH  17  22
BRANCH  18  25
ATOM     25  O   UNL     1     233.348 238.841 234.324  1.00  0.00    -0.385 OA
ATOM     26  H   UNL     1     233.430 238.165 235.047  1.00  0.00     0.211 HD
ENDBRANCH  18  25
BRANCH  20  27
ATOM     27  O   UNL     1     235.849 238.036 232.030  1.00  0.00    -0.387 OA
ATOM     28  H   UNL     1     235.609 238.964 231.758  1.00  0.00     0.211 HD
ENDBRANCH  20  27
BRANCH  21  29
ATOM     29  C   UNL     1     235.978 235.833 234.699  1.00  0.00     0.191 C 
BRANCH  29  30
ATOM     30  O   UNL     1     236.406 234.967 233.681  1.00  0.00    -0.394 OA
ATOM     31  H   UNL     1     235.775 234.187 233.673  1.00  0.00     0.210 HD
ENDBRANCH  29  30
ENDBRANCH  21  29
ENDBRANCH   1  17
TORSDOF 13
ENDMDL
MODEL 3
REMARK VINA RESULT:    -5.686      2.036      6.878
REMARK INTER + INTRA:          -9.704
REMARK INTER:                  -9.252
REMARK INTRA:                  -0.452
REMARK UNBOUND:                -1.027
REMARK SMILES OC[C@@H]1O[C@@H](O[C@@]2(CO)O[C@@H](CO)[C@H](O)[C@H]2O)[C@@H](O)[C@@H](O)[C@@H]1O
REMARK SMILES IDX 6 1 5 2 3 3 22 4 4 5 20 6 18 7 2 8 1 9 23 11 21 13 19 15
REMARK SMILES IDX 7 17 16 18 10 19 14 20 11 21 8 22 9 23 17 25 15 27 12 29
REMARK SMILES IDX 13 30
REMARK H PARENT 1 10 23 12 21 14 19 16 9 24 17 26 15 28 13 31
REMARK Flexibility Score: inf
ROOT
ATOM      1  O   UNL     1     233.889 240.254 238.465  1.00  0.00    -0.313 OA
ENDROOT
BRANCH   1   2
ATOM      2  C   UNL     1     234.701 239.448 237.609  1.00  0.00     0.285 C 
ATOM      3  C   UNL     1     235.617 239.880 235.434  1.00  0.00     0.178 C 
ATOM      4  C   UNL     1     235.782 238.365 235.219  1.00  0.00     0.177 C 
ATOM      5  O   UNL     1     235.600 240.224 236.808  1.00  0.00    -0.341 OA
ATOM      6  C   UNL     1     234.506 237.639 235.687  1.00  0.00     0.179 C 
ATOM      7  C   UNL     1     233.846 238.327 236.930  1.00  0.00     0.202 C 
BRANCH   3   8
ATOM      8  C   UNL     1     236.758 240.655 234.763  1.00  0.00     0.191 C 
BRANCH   8   9
ATOM      9  O   UNL     1     236.447 242.022 234.695  1.00  0.00    -0.394 OA
ATOM     10  H   UNL     1     235.544 242.075 234.284  1.00  0.00     0.210 HD
ENDBRANCH   8   9
ENDBRANCH   3   8
BRANCH   4  11
ATOM     11  O   UNL     1     236.936 237.869 235.857  1.00  0.00    -0.387 OA
ATOM     12  H   UNL     1     237.590 237.619 235.156  1.00  0.00     0.211 HD
ENDBRANCH   4  11
BRANCH   6  13
ATOM     13  O   UNL     1     233.594 237.518 234.618  1.00  0.00    -0.387 OA
ATOM     14  H   UNL     1     234.082 237.736 233.778  1.00  0.00     0.211 HD
ENDBRANCH   6  13
BRANCH   7  15
ATOM     15  O   UNL     1     232.561 238.819 236.634  1.00  0.00    -0.385 OA
ATOM     16  H   UNL     1     231.919 238.331 237.219  1.00  0.00     0.211 HD
ENDBRANCH   7  15
ENDBRANCH   1   2
BRANCH   1  17
ATOM     17  C   UNL     1     233.677 239.771 239.793  1.00  0.00     0.224 C 
ATOM     18  C   UNL     1     232.159 239.700 240.049  1.00  0.00     0.208 C 
ATOM     19  O   UNL     1     234.195 240.637 240.783  1.00  0.00    -0.337 OA
ATOM     20  C   UNL     1     232.027 239.960 241.539  1.00  0.00     0.180 C 
ATOM     21  C   UNL     1     233.411 240.472 241.944  1.00  0.00     0.179 C 
BRANCH  17  22
ATOM     22  C   UNL     1     234.327 238.367 239.938  1.00  0.00     0.225 C 
BRANCH  22  23
ATOM     23  O   UNL     1     233.359 237.385 240.210  1.00  0.00    -0.391 OA
ATOM     24  H   UNL     1     232.924 237.155 239.346  1.00  0.00     0.210 HD
ENDBRANCH  22  23
ENDBRANCH  17  22
BRANCH  18  25
ATOM     25  O   UNL     1     231.492 240.727 239.351  1.00  0.00    -0.385 OA
ATOM     26  H   UNL     1     231.354 241.469 239.998  1.00  0.00     0.211 HD
ENDBRANCH  18  25
BRANCH  20  27
ATOM     27  O   UNL     1     231.731 238.772 242.229  1.00  0.00    -0.387 OA
ATOM     28  H   UNL     1     231.253 238.178 241.586  1.00  0.00     0.211 HD
ENDBRANCH  20  27
BRANCH  21  29
ATOM     29  C   UNL     1     233.366 241.781 242.739  1.00  0.00     0.191 C 
BRANCH  29  30
ATOM     30  O   UNL     1     232.274 242.568 242.344  1.00  0.00    -0.394 OA
ATOM     31  H   UNL     1     232.155 243.280 243.041  1.00  0.00     0.210 HD
ENDBRANCH  29  30
ENDBRANCH  21  29
ENDBRANCH   1  17
TORSDOF 13
ENDMDL
MODEL 4
REMARK VINA RESULT:    -5.675      1.627      3.178
REMARK INTER + INTRA:          -9.688
REMARK INTER:                  -8.444
REMARK INTRA:                  -1.243
REMARK UNBOUND:                -1.027
REMARK SMILES OC[C@@H]1O[C@@H](O[C@@]2(CO)O[C@@H](CO)[C@H](O)[C@H]2O)[C@@H](O)[C@@H](O)[C@@H]1O
REMARK SMILES IDX 6 1 5 2 3 3 22 4 4 5 20 6 18 7 2 8 1 9 23 11 21 13 19 15
REMARK SMILES IDX 7 17 16 18 10 19 14 20 11 21 8 22 9 23 17 25 15 27 12 29
REMARK SMILES IDX 13 30
REMARK H PARENT 1 10 23 12 21 14 19 16 9 24 17 26 15 28 13 31
REMARK Flexibility Score: inf
ROOT
ATOM      1  O   UNL     1     235.372 238.316 236.463  1.00  0.00    -0.313 OA
ENDROOT
BRANCH   1   2
ATOM      2  C   UNL     1     235.576 239.068 237.661  1.00  0.00     0.285 C 
ATOM      3  C   UNL     1     235.882 238.366 239.933  1.00  0.00     0.178 C 
ATOM      4  C   UNL     1     235.467 239.771 240.408  1.00  0.00     0.177 C 
ATOM      5  O   UNL     1     236.394 238.380 238.613  1.00  0.00    -0.341 OA
ATOM      6  C   UNL     1     234.227 240.233 239.618  1.00  0.00     0.179 C 
ATOM      7  C   UNL     1     234.237 239.725 238.136  1.00  0.00     0.202 C 
BRANCH   3   8
ATOM      8  C   UNL     1     236.956 237.774 240.855  1.00  0.00     0.191 C 
BRANCH   8   9
ATOM      9  O   UNL     1     236.987 238.465 242.077  1.00  0.00    -0.394 OA
ATOM     10  H   UNL     1     237.671 239.176 241.969  1.00  0.00     0.210 HD
ENDBRANCH   8   9
ENDBRANCH   3   8
BRANCH   4  11
ATOM     11  O   UNL     1     236.529 240.690 240.309  1.00  0.00    -0.387 OA
ATOM     12  H   UNL     1     237.340 240.263 240.687  1.00  0.00     0.211 HD
ENDBRANCH   4  11
BRANCH   6  13
ATOM     13  O   UNL     1     233.049 239.844 240.289  1.00  0.00    -0.387 OA
ATOM     14  H   UNL     1     233.277 239.714 241.250  1.00  0.00     0.211 HD
ENDBRANCH   6  13
BRANCH   7  15
ATOM     15  O   UNL     1     233.159 238.859 237.873  1.00  0.00    -0.385 OA
ATOM     16  H   UNL     1     232.557 239.328 237.233  1.00  0.00     0.211 HD
ENDBRANCH   7  15
ENDBRANCH   1   2
BRANCH   1  17
ATOM     17  C   UNL     1     235.785 238.930 235.239  1.00  0.00     0.224 C 
ATOM     18  C   UNL     1     234.531 239.444 234.505  1.00  0.00     0.208 C 
ATOM     19  O   UNL     1     236.407 238.023 234.352  1.00  0.00    -0.337 OA
ATOM     20  C   UNL     1     234.897 239.335 233.036  1.00  0.00     0.180 C 
ATOM     21  C   UNL     1     236.168 238.482 233.039  1.00  0.00     0.179 C 
BRANCH  17  22
ATOM     22  C   UNL     1     236.757 240.100 235.555  1.00  0.00     0.225 C 
BRANCH  22  23
ATOM     23  O   UNL     1     236.179 241.341 235.236  1.00  0.00    -0.391 OA
ATOM     24  H   UNL     1     236.446 241.981 235.948  1.00  0.00     0.210 HD
ENDBRANCH  22  23
ENDBRANCH  17  22
BRANCH  18  25
ATOM     25  O   UNL     1     233.430 238.601 234.759  1.00  0.00    -0.385 OA
ATOM     26  H   UNL     1     232.827 239.094 235.376  1.00  0.00     0.211 HD
ENDBRANCH  18  25
BRANCH  20  27
ATOM     27  O   UNL     1     235.169 240.602 232.493  1.00  0.00    -0.387 OA
ATOM     28  H   UNL     1     235.148 241.249 233.251  1.00  0.00     0.211 HD
ENDBRANCH  20  27
BRANCH  21  29
ATOM     29  C   UNL     1     236.108 237.296 232.070  1.00  0.00     0.191 C 
BRANCH  29  30
ATOM     30  O   UNL     1     236.056 236.081 232.771  1.00  0.00    -0.394 OA
ATOM     31  H   UNL     1     236.445 235.378 232.171  1.00  0.00     0.210 HD
ENDBRANCH  29  30
ENDBRANCH  21  29
ENDBRANCH   1  17
TORSDOF 13
ENDMDL
MODEL 5
REMARK VINA RESULT:    -5.643      1.252      6.416
REMARK INTER + INTRA:          -9.639
REMARK INTER:                  -8.458
REMARK INTRA:                  -1.181
REMARK UNBOUND:                -1.027
REMARK SMILES OC[C@@H]1O[C@@H](O[C@@]2(CO)O[C@@H](CO)[C@H](O)[C@H]2O)[C@@H](O)[C@@H](O)[C@@H]1O
REMARK SMILES IDX 6 1 5 2 3 3 22 4 4 5 20 6 18 7 2 8 1 9 23 11 21 13 19 15
REMARK SMILES IDX 7 17 16 18 10 19 14 20 11 21 8 22 9 23 17 25 15 27 12 29
REMARK SMILES IDX 13 30
REMARK H PARENT 1 10 23 12 21 14 19 16 9 24 17 26 15 28 13 31
REMARK Flexibility Score: inf
ROOT
ATOM      1  O   UNL     1     234.090 238.719 236.652  1.00  0.00    -0.313 OA
ENDROOT
BRANCH   1   2
ATOM      2  C   UNL     1     234.797 238.841 235.415  1.00  0.00     0.285 C 
ATOM      3  C   UNL     1     234.072 238.552 233.147  1.00  0.00     0.178 C 
ATOM      4  C   UNL     1     235.538 238.355 232.720  1.00  0.00     0.177 C 
ATOM      5  O   UNL     1     233.964 239.299 234.346  1.00  0.00    -0.341 OA
ATOM      6  C   UNL     1     236.241 237.414 233.717  1.00  0.00     0.179 C 
ATOM      7  C   UNL     1     235.726 237.602 235.185  1.00  0.00     0.202 C 
BRANCH   3   8
ATOM      8  C   UNL     1     233.279 239.282 232.057  1.00  0.00     0.191 C 
BRANCH   8   9
ATOM      9  O   UNL     1     233.938 239.180 230.821  1.00  0.00    -0.394 OA
ATOM     10  H   UNL     1     234.866 239.495 230.982  1.00  0.00     0.210 HD
ENDBRANCH   8   9
ENDBRANCH   3   8
BRANCH   4  11
ATOM     11  O   UNL     1     236.213 239.584 232.588  1.00  0.00    -0.387 OA
ATOM     12  H   UNL     1     236.690 239.581 231.719  1.00  0.00     0.211 HD
ENDBRANCH   4  11
BRANCH   6  13
ATOM     13  O   UNL     1     236.116 236.074 233.294  1.00  0.00    -0.387 OA
ATOM     14  H   UNL     1     236.294 235.490 234.080  1.00  0.00     0.211 HD
ENDBRANCH   6  13
BRANCH   7  15
ATOM     15  O   UNL     1     235.102 236.439 235.673  1.00  0.00    -0.385 OA
ATOM     16  H   UNL     1     235.825 235.826 235.980  1.00  0.00     0.211 HD
ENDBRANCH   7  15
ENDBRANCH   1   2
BRANCH   1  17
ATOM     17  C   UNL     1     234.504 239.578 237.717  1.00  0.00     0.224 C 
ATOM     18  C   UNL     1     235.373 238.759 238.692  1.00  0.00     0.208 C 
ATOM     19  O   UNL     1     233.421 240.066 238.482  1.00  0.00    -0.337 OA
ATOM     20  C   UNL     1     235.110 239.402 240.043  1.00  0.00     0.180 C 
ATOM     21  C   UNL     1     233.894 240.297 239.791  1.00  0.00     0.179 C 
BRANCH  17  22
ATOM     22  C   UNL     1     235.308 240.771 237.131  1.00  0.00     0.225 C 
BRANCH  22  23
ATOM     23  O   UNL     1     236.663 240.698 237.496  1.00  0.00    -0.391 OA
ATOM     24  H   UNL     1     237.105 241.519 237.148  1.00  0.00     0.210 HD
ENDBRANCH  22  23
ENDBRANCH  17  22
BRANCH  18  25
ATOM     25  O   UNL     1     234.936 237.420 238.739  1.00  0.00    -0.385 OA
ATOM     26  H   UNL     1     234.274 237.360 239.478  1.00  0.00     0.211 HD
ENDBRANCH  18  25
BRANCH  20  27
ATOM     27  O   UNL     1     236.207 240.182 240.447  1.00  0.00    -0.387 OA
ATOM     28  H   UNL     1     236.937 239.546 240.686  1.00  0.00     0.211 HD
ENDBRANCH  20  27
BRANCH  21  29
ATOM     29  C   UNL     1     232.764 240.089 240.804  1.00  0.00     0.191 C 
BRANCH  29  30
ATOM     30  O   UNL     1     231.511 240.198 240.182  1.00  0.00    -0.394 OA
ATOM     31  H   UNL     1     230.837 240.373 240.905  1.00  0.00     0.210 HD
ENDBRANCH  29  30
ENDBRANCH  21  29
ENDBRANCH   1  17
TORSDOF 13
ENDMDL
MODEL 6
REMARK VINA RESULT:    -5.562      3.904      8.830
REMARK INTER + INTRA:          -9.515
REMARK INTER:                  -8.314
REMARK INTRA:                  -1.202
REMARK UNBOUND:                -1.027
REMARK SMILES OC[C@@H]1O[C@@H](O[C@@]2(CO)O[C@@H](CO)[C@H](O)[C@H]2O)[C@@H](O)[C@@H](O)[C@@H]1O
REMARK SMILES IDX 6 1 5 2 3 3 22 4 4 5 20 6 18 7 2 8 1 9 23 11 21 13 19 15
REMARK SMILES IDX 7 17 16 18 10 19 14 20 11 21 8 22 9 23 17 25 15 27 12 29
REMARK SMILES IDX 13 30
REMARK H PARENT 1 10 23 12 21 14 19 16 9 24 17 26 15 28 13 31
REMARK Flexibility Score: inf
ROOT
ATOM      1  O   UNL     1     236.609 238.631 231.045  1.00  0.00    -0.313 OA
ENDROOT
BRANCH   1   2
ATOM      2  C   UNL     1     236.994 238.190 229.741  1.00  0.00     0.285 C 
ATOM      3  C   UNL     1     239.120 237.505 228.869  1.00  0.00     0.178 C 
ATOM      4  C   UNL     1     238.608 237.780 227.444  1.00  0.00     0.177 C 
ATOM      5  O   UNL     1     238.063 237.239 229.773  1.00  0.00    -0.341 OA
ATOM      6  C   UNL     1     237.855 239.124 227.420  1.00  0.00     0.179 C 
ATOM      7  C   UNL     1     237.074 239.398 228.750  1.00  0.00     0.202 C 
BRANCH   3   8
ATOM      8  C   UNL     1     240.075 236.304 228.885  1.00  0.00     0.191 C 
BRANCH   8   9
ATOM      9  O   UNL     1     240.618 236.096 227.607  1.00  0.00    -0.394 OA
ATOM     10  H   UNL     1     241.255 236.843 227.457  1.00  0.00     0.210 HD
ENDBRANCH   8   9
ENDBRANCH   3   8
BRANCH   4  11
ATOM     11  O   UNL     1     237.813 236.721 226.962  1.00  0.00    -0.387 OA
ATOM     12  H   UNL     1     237.021 237.112 226.512  1.00  0.00     0.211 HD
ENDBRANCH   4  11
BRANCH   6  13
ATOM     13  O   UNL     1     238.746 240.175 227.118  1.00  0.00    -0.387 OA
ATOM     14  H   UNL     1     239.559 240.055 227.680  1.00  0.00     0.211 HD
ENDBRANCH   6  13
BRANCH   7  15
ATOM     15  O   UNL     1     237.564 240.535 229.419  1.00  0.00    -0.385 OA
ATOM     16  H   UNL     1     236.842 240.850 230.028  1.00  0.00     0.211 HD
ENDBRANCH   7  15
ENDBRANCH   1   2
BRANCH   1  17
ATOM     17  C   UNL     1     235.247 238.417 231.421  1.00  0.00     0.224 C 
ATOM     18  C   UNL     1     234.481 239.745 231.252  1.00  0.00     0.208 C 
ATOM     19  O   UNL     1     235.101 238.058 232.780  1.00  0.00    -0.337 OA
ATOM     20  C   UNL     1     233.405 239.684 232.322  1.00  0.00     0.180 C 
ATOM     21  C   UNL     1     233.835 238.512 233.207  1.00  0.00     0.179 C 
BRANCH  17  22
ATOM     22  C   UNL     1     234.634 237.309 230.521  1.00  0.00     0.225 C 
BRANCH  22  23
ATOM     23  O   UNL     1     233.624 237.829 229.693  1.00  0.00    -0.391 OA
ATOM     24  H   UNL     1     233.807 237.508 228.769  1.00  0.00     0.210 HD
ENDBRANCH  22  23
ENDBRANCH  17  22
BRANCH  18  25
ATOM     25  O   UNL     1     235.326 240.840 231.526  1.00  0.00    -0.385 OA
ATOM     26  H   UNL     1     234.907 241.346 232.272  1.00  0.00     0.211 HD
ENDBRANCH  18  25
BRANCH  20  27
ATOM     27  O   UNL     1     232.147 239.421 231.751  1.00  0.00    -0.387 OA
ATOM     28  H   UNL     1     231.638 240.278 231.774  1.00  0.00     0.211 HD
ENDBRANCH  20  27
BRANCH  21  29
ATOM     29  C   UNL     1     233.875 238.858 234.699  1.00  0.00     0.191 C 
BRANCH  29  30
ATOM     30  O   UNL     1     233.350 237.808 235.469  1.00  0.00    -0.394 OA
ATOM     31  H   UNL     1     232.872 238.223 236.246  1.00  0.00     0.210 HD
ENDBRANCH  29  30
ENDBRANCH  21  29
ENDBRANCH   1  17
TORSDOF 13
ENDMDL
MODEL 7
REMARK VINA RESULT:    -5.527      3.057      5.776
REMARK INTER + INTRA:          -9.462
REMARK INTER:                  -8.357
REMARK INTRA:                  -1.105
REMARK UNBOUND:                -1.027
REMARK SMILES OC[C@@H]1O[C@@H](O[C@@]2(CO)O[C@@H](CO)[C@H](O)[C@H]2O)[C@@H](O)[C@@H](O)[C@@H]1O
REMARK SMILES IDX 6 1 5 2 3 3 22 4 4 5 20 6 18 7 2 8 1 9 23 11 21 13 19 15
REMARK SMILES IDX 7 17 16 18 10 19 14 20 11 21 8 22 9 23 17 25 15 27 12 29
REMARK SMILES IDX 13 30
REMARK H PARENT 1 10 23 12 21 14 19 16 9 24 17 26 15 28 13 31
REMARK Flexibility Score: inf
ROOT
ATOM      1  O   UNL     1     235.531 238.181 240.810  1.00  0.00    -0.313 OA
ENDROOT
BRANCH   1   2
ATOM      2  C   UNL     1     236.540 237.487 240.073  1.00  0.00     0.285 C 
ATOM      3  C   UNL     1     237.535 235.330 240.404  1.00  0.00     0.178 C 
ATOM      4  C   UNL     1     238.735 235.768 239.544  1.00  0.00     0.177 C 
ATOM      5  O   UNL     1     236.365 236.067 240.099  1.00  0.00    -0.341 OA
ATOM      6  C   UNL     1     239.167 237.190 239.953  1.00  0.00     0.179 C 
ATOM      7  C   UNL     1     237.954 238.089 240.370  1.00  0.00     0.202 C 
BRANCH   3   8
ATOM      8  C   UNL     1     237.230 233.842 240.198  1.00  0.00     0.191 C 
BRANCH   8   9
ATOM      9  O   UNL     1     236.195 233.680 239.263  1.00  0.00    -0.394 OA
ATOM     10  H   UNL     1     235.696 232.870 239.548  1.00  0.00     0.210 HD
ENDBRANCH   8   9
ENDBRANCH   3   8
BRANCH   4  11
ATOM     11  O   UNL     1     238.450 235.678 238.167  1.00  0.00    -0.387 OA
ATOM     12  H   UNL     1     239.246 235.300 237.713  1.00  0.00     0.211 HD
ENDBRANCH   4  11
BRANCH   6  13
ATOM     13  O   UNL     1     240.140 237.128 240.972  1.00  0.00    -0.387 OA
ATOM     14  H   UNL     1     240.250 236.173 241.229  1.00  0.00     0.211 HD
ENDBRANCH   6  13
BRANCH   7  15
ATOM     15  O   UNL     1     238.034 238.481 241.719  1.00  0.00    -0.385 OA
ATOM     16  H   UNL     1     237.292 239.126 241.881  1.00  0.00     0.211 HD
ENDBRANCH   7  15
ENDBRANCH   1   2
BRANCH   1  17
ATOM     17  C   UNL     1     234.810 239.200 240.113  1.00  0.00     0.224 C 
ATOM     18  C   UNL     1     233.303 238.901 240.238  1.00  0.00     0.208 C 
ATOM     19  O   UNL     1     235.087 239.219 238.728  1.00  0.00    -0.337 OA
ATOM     20  C   UNL     1     232.715 239.451 238.950  1.00  0.00     0.180 C 
ATOM     21  C   UNL     1     233.940 239.714 238.072  1.00  0.00     0.179 C 
BRANCH  17  22
ATOM     22  C   UNL     1     235.151 240.584 240.732  1.00  0.00     0.225 C 
BRANCH  22  23
ATOM     23  O   UNL     1     236.442 240.999 240.367  1.00  0.00    -0.391 OA
ATOM     24  H   UNL     1     237.084 240.506 240.946  1.00  0.00     0.210 HD
ENDBRANCH  22  23
ENDBRANCH  17  22
BRANCH  18  25
ATOM     25  O   UNL     1     233.077 237.510 240.278  1.00  0.00    -0.385 OA
ATOM     26  H   UNL     1     233.898 237.076 239.924  1.00  0.00     0.211 HD
ENDBRANCH  18  25
BRANCH  20  27
ATOM     27  O   UNL     1     232.025 240.652 239.189  1.00  0.00    -0.387 OA
ATOM     28  H   UNL     1     231.053 240.447 239.099  1.00  0.00     0.211 HD
ENDBRANCH  20  27
BRANCH  21  29
ATOM     29  C   UNL     1     233.828 239.102 236.672  1.00  0.00     0.191 C 
BRANCH  29  30
ATOM     30  O   UNL     1     232.599 238.444 236.512  1.00  0.00    -0.394 OA
ATOM     31  H   UNL     1     232.503 237.807 237.280  1.00  0.00     0.210 HD
ENDBRANCH  29  30
ENDBRANCH  21  29
ENDBRANCH   1  17
TORSDOF 13
ENDMDL
MODEL 8
REMARK VINA RESULT:    -5.392      2.300      4.548
REMARK INTER + INTRA:          -9.256
REMARK INTER:                  -8.168
REMARK INTRA:                  -1.088
REMARK UNBOUND:                -1.027
REMARK SMILES OC[C@@H]1O[C@@H](O[C@@]2(CO)O[C@@H](CO)[C@H](O)[C@H]2O)[C@@H](O)[C@@H](O)[C@@H]1O
REMARK SMILES IDX 6 1 5 2 3 3 22 4 4 5 20 6 18 7 2 8 1 9 23 11 21 13 19 15
REMARK SMILES IDX 7 17 16 18 10 19 14 20 11 21 8 22 9 23 17 25 15 27 12 29
REMARK SMILES IDX 13 30
REMARK H PARENT 1 10 23 12 21 14 19 16 9 24 17 26 15 28 13 31
REMARK Flexibility Score: inf
ROOT
ATOM      1  O   UNL     1     235.714 238.774 232.672  1.00  0.00    -0.313 OA
ENDROOT
BRANCH   1   2
ATOM      2  C   UNL     1     234.883 238.593 233.821  1.00  0.00     0.285 C 
ATOM      3  C   UNL     1     235.147 239.321 236.091  1.00  0.00     0.178 C 
ATOM      4  C   UNL     1     234.147 238.239 236.539  1.00  0.00     0.177 C 
ATOM      5  O   UNL     1     234.960 239.691 234.737  1.00  0.00    -0.341 OA
ATOM      6  C   UNL     1     234.473 236.913 235.824  1.00  0.00     0.179 C 
ATOM      7  C   UNL     1     235.005 237.131 234.367  1.00  0.00     0.202 C 
BRANCH   3   8
ATOM      8  C   UNL     1     235.009 240.582 236.953  1.00  0.00     0.191 C 
BRANCH   8   9
ATOM      9  O   UNL     1     234.214 240.319 238.081  1.00  0.00    -0.394 OA
ATOM     10  H   UNL     1     233.308 240.658 237.859  1.00  0.00     0.210 HD
ENDBRANCH   8   9
ENDBRANCH   3   8
BRANCH   4  11
ATOM     11  O   UNL     1     232.814 238.640 236.325  1.00  0.00    -0.387 OA
ATOM     12  H   UNL     1     232.221 237.899 236.611  1.00  0.00     0.211 HD
ENDBRANCH   4  11
BRANCH   6  13
ATOM     13  O   UNL     1     235.378 236.154 236.596  1.00  0.00    -0.387 OA
ATOM     14  H   UNL     1     236.297 236.472 236.385  1.00  0.00     0.211 HD
ENDBRANCH   6  13
BRANCH   7  15
ATOM     15  O   UNL     1     236.328 236.674 234.219  1.00  0.00    -0.385 OA
ATOM     16  H   UNL     1     236.746 237.218 233.497  1.00  0.00     0.211 HD
ENDBRANCH   7  15
ENDBRANCH   1   2
BRANCH   1  17
ATOM     17  C   UNL     1     235.059 238.803 231.402  1.00  0.00     0.224 C 
ATOM     18  C   UNL     1     235.041 237.372 230.831  1.00  0.00     0.208 C 
ATOM     19  O   UNL     1     235.742 239.591 230.449  1.00  0.00    -0.337 OA
ATOM     20  C   UNL     1     235.093 237.578 229.327  1.00  0.00     0.180 C 
ATOM     21  C   UNL     1     235.460 239.056 229.174  1.00  0.00     0.179 C 
BRANCH  17  22
ATOM     22  C   UNL     1     233.613 239.342 231.584  1.00  0.00     0.225 C 
BRANCH  22  23
ATOM     23  O   UNL     1     232.662 238.386 231.190  1.00  0.00    -0.391 OA
ATOM     24  H   UNL     1     232.833 238.178 230.232  1.00  0.00     0.210 HD
ENDBRANCH  22  23
ENDBRANCH  17  22
BRANCH  18  25
ATOM     25  O   UNL     1     236.196 236.667 231.228  1.00  0.00    -0.385 OA
ATOM     26  H   UNL     1     236.955 237.306 231.174  1.00  0.00     0.211 HD
ENDBRANCH  18  25
BRANCH  20  27
ATOM     27  O   UNL     1     233.838 237.330 228.745  1.00  0.00    -0.387 OA
ATOM     28  H   UNL     1     233.976 236.619 228.060  1.00  0.00     0.211 HD
ENDBRANCH  20  27
BRANCH  21  29
ATOM     29  C   UNL     1     236.642 239.296 228.229  1.00  0.00     0.191 C 
BRANCH  29  30
ATOM     30  O   UNL     1     236.852 240.669 228.030  1.00  0.00    -0.394 OA
ATOM     31  H   UNL     1     236.734 240.847 227.051  1.00  0.00     0.210 HD
ENDBRANCH  29  30
ENDBRANCH  21  29
ENDBRANCH   1  17
TORSDOF 13
ENDMDL
MODEL 9
REMARK VINA RESULT:    -5.391      3.802      6.317
REMARK INTER + INTRA:          -9.254
REMARK INTER:                  -8.300
REMARK INTRA:                  -0.954
REMARK UNBOUND:                -1.027
REMARK SMILES OC[C@@H]1O[C@@H](O[C@@]2(CO)O[C@@H](CO)[C@H](O)[C@H]2O)[C@@H](O)[C@@H](O)[C@@H]1O
REMARK SMILES IDX 6 1 5 2 3 3 22 4 4 5 20 6 18 7 2 8 1 9 23 11 21 13 19 15
REMARK SMILES IDX 7 17 16 18 10 19 14 20 11 21 8 22 9 23 17 25 15 27 12 29
REMARK SMILES IDX 13 30
REMARK H PARENT 1 10 23 12 21 14 19 16 9 24 17 26 15 28 13 31
REMARK Flexibility Score: inf
ROOT
ATOM      1  O   UNL     1     235.874 237.533 240.935  1.00  0.00    -0.313 OA
ENDROOT
BRANCH   1   2
ATOM      2  C   UNL     1     236.950 236.700 240.498  1.00  0.00     0.285 C 
ATOM      3  C   UNL     1     238.098 234.900 241.591  1.00  0.00     0.178 C 
ATOM      4  C   UNL     1     239.281 235.087 240.624  1.00  0.00     0.177 C 
ATOM      5  O   UNL     1     236.883 235.378 241.044  1.00  0.00    -0.341 OA
ATOM      6  C   UNL     1     239.594 236.589 240.482  1.00  0.00     0.179 C 
ATOM      7  C   UNL     1     238.307 237.479 240.547  1.00  0.00     0.202 C 
BRANCH   3   8
ATOM      8  C   UNL     1     237.911 233.420 241.946  1.00  0.00     0.191 C 
BRANCH   8   9
ATOM      9  O   UNL     1     237.221 233.292 243.162  1.00  0.00    -0.394 OA
ATOM     10  H   UNL     1     237.905 233.394 243.875  1.00  0.00     0.210 HD
ENDBRANCH   8   9
ENDBRANCH   3   8
BRANCH   4  11
ATOM     11  O   UNL     1     239.038 234.477 239.378  1.00  0.00    -0.387 OA
ATOM     12  H   UNL     1     238.210 233.939 239.457  1.00  0.00     0.211 HD
ENDBRANCH   4  11
BRANCH   6  13
ATOM     13  O   UNL     1     240.544 236.982 241.448  1.00  0.00    -0.387 OA
ATOM     14  H   UNL     1     241.165 236.217 241.591  1.00  0.00     0.211 HD
ENDBRANCH   6  13
BRANCH   7  15
ATOM     15  O   UNL     1     238.323 238.342 241.658  1.00  0.00    -0.385 OA
ATOM     16  H   UNL     1     239.093 238.963 241.535  1.00  0.00     0.211 HD
ENDBRANCH   7  15
ENDBRANCH   1   2
BRANCH   1  17
ATOM     17  C   UNL     1     235.015 238.060 239.921  1.00  0.00     0.224 C 
ATOM     18  C   UNL     1     235.333 239.558 239.744  1.00  0.00     0.208 C 
ATOM     19  O   UNL     1     233.647 237.994 240.269  1.00  0.00    -0.337 OA
ATOM     20  C   UNL     1     234.005 240.166 239.328  1.00  0.00     0.180 C 
ATOM     21  C   UNL     1     232.990 239.057 239.615  1.00  0.00     0.179 C 
BRANCH  17  22
ATOM     22  C   UNL     1     235.253 237.285 238.595  1.00  0.00     0.225 C 
BRANCH  22  23
ATOM     23  O   UNL     1     235.858 238.107 237.629  1.00  0.00    -0.391 OA
ATOM     24  H   UNL     1     235.486 239.022 237.747  1.00  0.00     0.210 HD
ENDBRANCH  22  23
ENDBRANCH  17  22
BRANCH  18  25
ATOM     25  O   UNL     1     235.725 240.128 240.972  1.00  0.00    -0.385 OA
ATOM     26  H   UNL     1     235.942 239.374 241.582  1.00  0.00     0.211 HD
ENDBRANCH  18  25
BRANCH  20  27
ATOM     27  O   UNL     1     234.006 240.478 237.958  1.00  0.00    -0.387 OA
ATOM     28  H   UNL     1     234.734 239.940 237.542  1.00  0.00     0.211 HD
ENDBRANCH  20  27
BRANCH  21  29
ATOM     29  C   UNL     1     231.792 239.528 240.446  1.00  0.00     0.191 C 
BRANCH  29  30
ATOM     30  O   UNL     1     230.869 238.486 240.625  1.00  0.00    -0.394 OA
ATOM     31  H   UNL     1     231.354 237.738 241.084  1.00  0.00     0.210 HD
ENDBRANCH  29  30
ENDBRANCH  21  29
ENDBRANCH   1  17
TORSDOF 13
ENDMDL
