MODEL 1
REMARK VINA RESULT:    -4.966      0.000      0.000
REMARK INTER + INTRA:          -7.876
REMARK INTER:                  -6.708
REMARK INTRA:                  -1.168
REMARK UNBOUND:                -1.168
REMARK SMILES CC(=O)CCC=C(C)CCC=C(C)C
REMARK SMILES IDX 7 1 6 2 8 3 9 4 10 5 11 6 13 7 12 8 14 9 5 10 4 11 2 12 3 13
REMARK SMILES IDX 1 14
REMARK H PARENT
REMARK Flexibility Score: inf
ROOT
ATOM      1  C   UNL     1      34.767  39.688  83.937  1.00  0.00    -0.077 C 
ATOM      2  C   UNL     1      34.428  40.303  82.781  1.00  0.00    -0.028 C 
ATOM      3  C   UNL     1      33.872  39.727  85.154  1.00  0.00     0.039 C 
ENDROOT
BRANCH   1   4
ATOM      4  C   UNL     1      36.090  38.955  84.021  1.00  0.00     0.034 C 
BRANCH   4   5
ATOM      5  C   UNL     1      37.088  39.676  84.938  1.00  0.00     0.032 C 
BRANCH   5   6
ATOM      6  C   UNL     1      37.740  40.849  84.244  1.00  0.00    -0.028 C 
ATOM      7  C   UNL     1      36.394  42.555  85.488  1.00  0.00     0.039 C 
ATOM      8  C   UNL     1      37.419  42.142  84.457  1.00  0.00    -0.080 C 
ATOM      9  C   UNL     1      38.125  43.200  83.648  1.00  0.00     0.039 C 
ENDBRANCH   5   6
ENDBRANCH   4   5
ENDBRANCH   1   4
BRANCH   2  10
ATOM     10  C   UNL     1      33.130  41.038  82.555  1.00  0.00     0.035 C 
BRANCH  10  11
ATOM     11  C   UNL     1      33.288  42.529  82.871  1.00  0.00     0.079 C 
BRANCH  11  12
ATOM     12  C   UNL     1      31.990  43.107  83.369  1.00  0.00     0.130 C 
ATOM     13  O   UNL     1      31.470  44.029  82.760  1.00  0.00    -0.300 OA
ATOM     14  C   UNL     1      31.315  42.568  84.595  1.00  0.00     0.087 C 
ENDBRANCH  11  12
ENDBRANCH  10  11
ENDBRANCH   2  10
TORSDOF 6
ENDMDL
MODEL 2
REMARK VINA RESULT:    -4.909      2.556      4.585
REMARK INTER + INTRA:          -7.799
REMARK INTER:                  -6.471
REMARK INTRA:                  -1.327
REMARK UNBOUND:                -1.168
REMARK SMILES CC(=O)CCC=C(C)CCC=C(C)C
REMARK SMILES IDX 7 1 6 2 8 3 9 4 10 5 11 6 13 7 12 8 14 9 5 10 4 11 2 12 3 13
REMARK SMILES IDX 1 14
REMARK H PARENT
REMARK Flexibility Score: inf
ROOT
ATOM      1  C   UNL     1      32.898  40.480  84.216  1.00  0.00    -0.077 C 
ATOM      2  C   UNL     1      34.196  40.137  84.045  1.00  0.00    -0.028 C 
ATOM      3  C   UNL     1      32.141  40.133  85.478  1.00  0.00     0.039 C 
ENDROOT
BRANCH   1   4
ATOM      4  C   UNL     1      32.177  41.215  83.105  1.00  0.00     0.034 C 
BRANCH   4   5
ATOM      5  C   UNL     1      32.030  42.712  83.410  1.00  0.00     0.032 C 
BRANCH   5   6
ATOM      6  C   UNL     1      33.201  43.509  82.885  1.00  0.00    -0.028 C 
ATOM      7  C   UNL     1      34.269  43.749  85.137  1.00  0.00     0.039 C 
ATOM      8  C   UNL     1      34.196  44.006  83.651  1.00  0.00    -0.080 C 
ATOM      9  C   UNL     1      35.272  44.826  82.986  1.00  0.00     0.039 C 
ENDBRANCH   5   6
ENDBRANCH   4   5
ENDBRANCH   1   4
BRANCH   2  10
ATOM     10  C   UNL     1      35.036  39.433  85.081  1.00  0.00     0.035 C 
BRANCH  10  11
ATOM     11  C   UNL     1      36.101  40.377  85.649  1.00  0.00     0.079 C 
BRANCH  11  12
ATOM     12  C   UNL     1      37.159  40.666  84.618  1.00  0.00     0.130 C 
ATOM     13  O   UNL     1      37.774  39.740  84.111  1.00  0.00    -0.300 OA
ATOM     14  C   UNL     1      37.472  42.070  84.192  1.00  0.00     0.087 C 
ENDBRANCH  11  12
ENDBRANCH  10  11
ENDBRANCH   2  10
TORSDOF 6
ENDMDL
MODEL 3
REMARK VINA RESULT:    -4.845      2.267      4.771
REMARK INTER + INTRA:          -7.712
REMARK INTER:                  -6.393
REMARK INTRA:                  -1.320
REMARK UNBOUND:                -1.168
REMARK SMILES CC(=O)CCC=C(C)CCC=C(C)C
REMARK SMILES IDX 7 1 6 2 8 3 9 4 10 5 11 6 13 7 12 8 14 9 5 10 4 11 2 12 3 13
REMARK SMILES IDX 1 14
REMARK H PARENT
REMARK Flexibility Score: inf
ROOT
ATOM      1  C   UNL     1      35.239  40.820  83.254  1.00  0.00    -0.077 C 
ATOM      2  C   UNL     1      35.965  41.867  83.707  1.00  0.00    -0.028 C 
ATOM      3  C   UNL     1      35.424  39.424  83.804  1.00  0.00     0.039 C 
ENDROOT
BRANCH   1   4
ATOM      4  C   UNL     1      34.225  41.047  82.151  1.00  0.00     0.034 C 
BRANCH   4   5
ATOM      5  C   UNL     1      32.800  40.699  82.603  1.00  0.00     0.032 C 
BRANCH   5   6
ATOM      6  C   UNL     1      32.251  41.724  83.567  1.00  0.00    -0.028 C 
ATOM      7  C   UNL     1      32.207  40.135  85.502  1.00  0.00     0.039 C 
ATOM      8  C   UNL     1      31.952  41.479  84.860  1.00  0.00    -0.080 C 
ATOM      9  C   UNL     1      31.362  42.594  85.685  1.00  0.00     0.039 C 
ENDBRANCH   5   6
ENDBRANCH   4   5
ENDBRANCH   1   4
BRANCH   2  10
ATOM     10  C   UNL     1      36.982  41.785  84.818  1.00  0.00     0.035 C 
BRANCH  10  11
ATOM     11  C   UNL     1      36.603  42.719  85.971  1.00  0.00     0.079 C 
BRANCH  11  12
ATOM     12  C   UNL     1      35.635  42.043  86.906  1.00  0.00     0.130 C 
ATOM     13  O   UNL     1      35.706  40.835  87.076  1.00  0.00    -0.300 OA
ATOM     14  C   UNL     1      34.587  42.824  87.643  1.00  0.00     0.087 C 
ENDBRANCH  11  12
ENDBRANCH  10  11
ENDBRANCH   2  10
TORSDOF 6
ENDMDL
MODEL 4
REMARK VINA RESULT:    -4.780      2.589      4.706
REMARK INTER + INTRA:          -7.625
REMARK INTER:                  -6.134
REMARK INTRA:                  -1.490
REMARK UNBOUND:                -1.168
REMARK SMILES CC(=O)CCC=C(C)CCC=C(C)C
REMARK SMILES IDX 7 1 6 2 8 3 9 4 10 5 11 6 13 7 12 8 14 9 5 10 4 11 2 12 3 13
REMARK SMILES IDX 1 14
REMARK H PARENT
REMARK Flexibility Score: inf
ROOT
ATOM      1  C   UNL     1      33.087  40.526  83.904  1.00  0.00    -0.077 C 
ATOM      2  C   UNL     1      33.695  39.942  84.962  1.00  0.00    -0.028 C 
ATOM      3  C   UNL     1      33.770  40.652  82.561  1.00  0.00     0.039 C 
ENDROOT
BRANCH   1   4
ATOM      4  C   UNL     1      31.689  41.086  84.073  1.00  0.00     0.034 C 
BRANCH   4   5
ATOM      5  C   UNL     1      31.662  42.272  85.047  1.00  0.00     0.032 C 
BRANCH   5   6
ATOM      6  C   UNL     1      32.495  43.428  84.545  1.00  0.00    -0.028 C 
ATOM      7  C   UNL     1      34.132  43.293  86.436  1.00  0.00     0.039 C 
ATOM      8  C   UNL     1      33.586  43.916  85.173  1.00  0.00    -0.080 C 
ATOM      9  C   UNL     1      34.285  45.110  84.573  1.00  0.00     0.039 C 
ENDBRANCH   5   6
ENDBRANCH   4   5
ENDBRANCH   1   4
BRANCH   2  10
ATOM     10  C   UNL     1      35.068  39.318  84.920  1.00  0.00     0.035 C 
BRANCH  10  11
ATOM     11  C   UNL     1      36.103  40.241  85.570  1.00  0.00     0.079 C 
BRANCH  11  12
ATOM     12  C   UNL     1      37.033  40.811  84.531  1.00  0.00     0.130 C 
ATOM     13  O   UNL     1      37.928  40.114  84.078  1.00  0.00    -0.300 OA
ATOM     14  C   UNL     1      36.878  42.217  84.032  1.00  0.00     0.087 C 
ENDBRANCH  11  12
ENDBRANCH  10  11
ENDBRANCH   2  10
TORSDOF 6
ENDMDL
MODEL 5
REMARK VINA RESULT:    -4.754      1.855      3.913
REMARK INTER + INTRA:          -7.590
REMARK INTER:                  -6.055
REMARK INTRA:                  -1.536
REMARK UNBOUND:                -1.168
REMARK SMILES CC(=O)CCC=C(C)CCC=C(C)C
REMARK SMILES IDX 7 1 6 2 8 3 9 4 10 5 11 6 13 7 12 8 14 9 5 10 4 11 2 12 3 13
REMARK SMILES IDX 1 14
REMARK H PARENT
REMARK Flexibility Score: inf
ROOT
ATOM      1  C   UNL     1      36.364  41.847  85.292  1.00  0.00    -0.077 C 
ATOM      2  C   UNL     1      36.830  42.113  84.050  1.00  0.00    -0.028 C 
ATOM      3  C   UNL     1      36.015  42.949  86.266  1.00  0.00     0.039 C 
ENDROOT
BRANCH   1   4
ATOM      4  C   UNL     1      36.206  40.404  85.727  1.00  0.00     0.034 C 
BRANCH   4   5
ATOM      5  C   UNL     1      35.347  39.599  84.740  1.00  0.00     0.032 C 
BRANCH   5   6
ATOM      6  C   UNL     1      33.890  39.987  84.821  1.00  0.00    -0.028 C 
ATOM      7  C   UNL     1      33.785  40.755  82.439  1.00  0.00     0.039 C 
ATOM      8  C   UNL     1      33.184  40.535  83.808  1.00  0.00    -0.080 C 
ATOM      9  C   UNL     1      31.748  40.916  84.058  1.00  0.00     0.039 C 
ENDBRANCH   5   6
ENDBRANCH   4   5
ENDBRANCH   1   4
BRANCH   2  10
ATOM     10  C   UNL     1      37.004  43.500  83.482  1.00  0.00     0.035 C 
BRANCH  10  11
ATOM     11  C   UNL     1      35.855  43.845  82.531  1.00  0.00     0.079 C 
BRANCH  11  12
ATOM     12  C   UNL     1      34.882  44.785  83.193  1.00  0.00     0.130 C 
ATOM     13  O   UNL     1      35.160  45.971  83.287  1.00  0.00    -0.300 OA
ATOM     14  C   UNL     1      33.570  44.298  83.734  1.00  0.00     0.087 C 
ENDBRANCH  11  12
ENDBRANCH  10  11
ENDBRANCH   2  10
TORSDOF 6
ENDMDL
MODEL 6
REMARK VINA RESULT:    -4.738      2.238      4.667
REMARK INTER + INTRA:          -7.568
REMARK INTER:                  -6.149
REMARK INTRA:                  -1.419
REMARK UNBOUND:                -1.168
REMARK SMILES CC(=O)CCC=C(C)CCC=C(C)C
REMARK SMILES IDX 7 1 6 2 8 3 9 4 10 5 11 6 13 7 12 8 14 9 5 10 4 11 2 12 3 13
REMARK SMILES IDX 1 14
REMARK H PARENT
REMARK Flexibility Score: inf
ROOT
ATOM      1  C   UNL     1      33.170  42.748  85.453  1.00  0.00    -0.077 C 
ATOM      2  C   UNL     1      34.318  43.081  86.087  1.00  0.00    -0.028 C 
ATOM      3  C   UNL     1      32.681  43.504  84.239  1.00  0.00     0.039 C 
ENDROOT
BRANCH   1   4
ATOM      4  C   UNL     1      32.342  41.596  85.984  1.00  0.00     0.034 C 
BRANCH   4   5
ATOM      5  C   UNL     1      32.395  40.375  85.054  1.00  0.00     0.032 C 
BRANCH   5   6
ATOM      6  C   UNL     1      33.758  39.723  85.062  1.00  0.00    -0.028 C 
ATOM      7  C   UNL     1      34.316  40.462  82.736  1.00  0.00     0.039 C 
ATOM      8  C   UNL     1      34.617  39.728  84.021  1.00  0.00    -0.080 C 
ATOM      9  C   UNL     1      35.922  38.987  84.164  1.00  0.00     0.039 C 
ENDBRANCH   5   6
ENDBRANCH   4   5
ENDBRANCH   1   4
BRANCH   2  10
ATOM     10  C   UNL     1      35.248  44.183  85.645  1.00  0.00     0.035 C 
BRANCH  10  11
ATOM     11  C   UNL     1      36.672  43.650  85.460  1.00  0.00     0.079 C 
BRANCH  11  12
ATOM     12  C   UNL     1      36.843  43.059  84.085  1.00  0.00     0.130 C 
ATOM     13  O   UNL     1      37.507  42.043  83.945  1.00  0.00    -0.300 OA
ATOM     14  C   UNL     1      36.207  43.688  82.880  1.00  0.00     0.087 C 
ENDBRANCH  11  12
ENDBRANCH  10  11
ENDBRANCH   2  10
TORSDOF 6
ENDMDL
MODEL 7
REMARK VINA RESULT:    -4.695      1.816      3.957
REMARK INTER + INTRA:          -7.510
REMARK INTER:                  -6.169
REMARK INTRA:                  -1.341
REMARK UNBOUND:                -1.168
REMARK SMILES CC(=O)CCC=C(C)CCC=C(C)C
REMARK SMILES IDX 7 1 6 2 8 3 9 4 10 5 11 6 13 7 12 8 14 9 5 10 4 11 2 12 3 13
REMARK SMILES IDX 1 14
REMARK H PARENT
REMARK Flexibility Score: inf
ROOT
ATOM      1  C   UNL     1      36.910  41.085  84.967  1.00  0.00    -0.077 C 
ATOM      2  C   UNL     1      36.278  41.195  86.158  1.00  0.00    -0.028 C 
ATOM      3  C   UNL     1      37.434  42.295  84.227  1.00  0.00     0.039 C 
ENDROOT
BRANCH   1   4
ATOM      4  C   UNL     1      37.080  39.713  84.346  1.00  0.00     0.034 C 
BRANCH   4   5
ATOM      5  C   UNL     1      35.729  39.054  84.034  1.00  0.00     0.032 C 
BRANCH   5   6
ATOM      6  C   UNL     1      34.805  39.993  83.295  1.00  0.00    -0.028 C 
ATOM      7  C   UNL     1      33.031  39.915  85.061  1.00  0.00     0.039 C 
ATOM      8  C   UNL     1      33.581  40.364  83.728  1.00  0.00    -0.080 C 
ATOM      9  C   UNL     1      32.754  41.269  82.851  1.00  0.00     0.039 C 
ENDBRANCH   5   6
ENDBRANCH   4   5
ENDBRANCH   1   4
BRANCH   2  10
ATOM     10  C   UNL     1      36.071  42.493  86.898  1.00  0.00     0.035 C 
BRANCH  10  11
ATOM     11  C   UNL     1      34.627  42.610  87.395  1.00  0.00     0.079 C 
BRANCH  11  12
ATOM     12  C   UNL     1      33.751  43.234  86.341  1.00  0.00     0.130 C 
ATOM     13  O   UNL     1      32.540  43.087  86.401  1.00  0.00    -0.300 OA
ATOM     14  C   UNL     1      34.334  44.041  85.219  1.00  0.00     0.087 C 
ENDBRANCH  11  12
ENDBRANCH  10  11
ENDBRANCH   2  10
TORSDOF 6
ENDMDL
MODEL 8
REMARK VINA RESULT:    -4.662      1.608      2.687
REMARK INTER + INTRA:          -7.465
REMARK INTER:                  -6.221
REMARK INTRA:                  -1.244
REMARK UNBOUND:                -1.168
REMARK SMILES CC(=O)CCC=C(C)CCC=C(C)C
REMARK SMILES IDX 7 1 6 2 8 3 9 4 10 5 11 6 13 7 12 8 14 9 5 10 4 11 2 12 3 13
REMARK SMILES IDX 1 14
REMARK H PARENT
REMARK Flexibility Score: inf
ROOT
ATOM      1  C   UNL     1      36.023  40.371  83.895  1.00  0.00    -0.077 C 
ATOM      2  C   UNL     1      35.074  40.976  83.143  1.00  0.00    -0.028 C 
ATOM      3  C   UNL     1      35.853  38.959  84.406  1.00  0.00     0.039 C 
ENDROOT
BRANCH   1   4
ATOM      4  C   UNL     1      37.281  41.135  84.250  1.00  0.00     0.034 C 
BRANCH   4   5
ATOM      5  C   UNL     1      36.965  42.514  84.846  1.00  0.00     0.032 C 
BRANCH   5   6
ATOM      6  C   UNL     1      36.118  42.405  86.092  1.00  0.00    -0.028 C 
ATOM      7  C   UNL     1      34.309  43.889  85.200  1.00  0.00     0.039 C 
ATOM      8  C   UNL     1      34.941  43.040  86.277  1.00  0.00    -0.080 C 
ATOM      9  C   UNL     1      34.235  42.872  87.599  1.00  0.00     0.039 C 
ENDBRANCH   5   6
ENDBRANCH   4   5
ENDBRANCH   1   4
BRANCH   2  10
ATOM     10  C   UNL     1      33.793  40.319  82.694  1.00  0.00     0.035 C 
BRANCH  10  11
ATOM     11  C   UNL     1      32.609  41.280  82.843  1.00  0.00     0.079 C 
BRANCH  11  12
ATOM     12  C   UNL     1      31.998  41.162  84.214  1.00  0.00     0.130 C 
ATOM     13  O   UNL     1      31.124  41.944  84.553  1.00  0.00    -0.300 OA
ATOM     14  C   UNL     1      32.436  40.095  85.174  1.00  0.00     0.087 C 
ENDBRANCH  11  12
ENDBRANCH  10  11
ENDBRANCH   2  10
TORSDOF 6
ENDMDL
MODEL 9
REMARK VINA RESULT:    -3.690      1.108      1.783
REMARK INTER + INTRA:          -6.153
REMARK INTER:                  -4.753
REMARK INTRA:                  -1.400
REMARK UNBOUND:                -1.168
REMARK SMILES CC(=O)CCC=C(C)CCC=C(C)C
REMARK SMILES IDX 7 1 6 2 8 3 9 4 10 5 11 6 13 7 12 8 14 9 5 10 4 11 2 12 3 13
REMARK SMILES IDX 1 14
REMARK H PARENT
REMARK Flexibility Score: inf
ROOT
ATOM      1  C   UNL     1      34.711  39.689  83.924  1.00  0.00    -0.077 C 
ATOM      2  C   UNL     1      33.938  39.684  85.035  1.00  0.00    -0.028 C 
ATOM      3  C   UNL     1      34.307  40.438  82.675  1.00  0.00     0.039 C 
ENDROOT
BRANCH   1   4
ATOM      4  C   UNL     1      36.007  38.905  83.925  1.00  0.00     0.034 C 
BRANCH   4   5
ATOM      5  C   UNL     1      37.056  39.534  84.854  1.00  0.00     0.032 C 
BRANCH   5   6
ATOM      6  C   UNL     1      37.687  40.760  84.238  1.00  0.00    -0.028 C 
ATOM      7  C   UNL     1      36.581  42.342  85.834  1.00  0.00     0.039 C 
ATOM      8  C   UNL     1      37.460  42.027  84.646  1.00  0.00    -0.080 C 
ATOM      9  C   UNL     1      38.125  43.153  83.896  1.00  0.00     0.039 C 
ENDBRANCH   5   6
ENDBRANCH   4   5
ENDBRANCH   1   4
BRANCH   2  10
ATOM     10  C   UNL     1      32.643  40.446  85.177  1.00  0.00     0.035 C 
BRANCH  10  11
ATOM     11  C   UNL     1      32.875  41.785  85.882  1.00  0.00     0.079 C 
BRANCH  11  12
ATOM     12  C   UNL     1      32.492  42.932  84.984  1.00  0.00     0.130 C 
ATOM     13  O   UNL     1      31.318  43.255  84.889  1.00  0.00    -0.300 OA
ATOM     14  C   UNL     1      33.525  43.694  84.207  1.00  0.00     0.087 C 
ENDBRANCH  11  12
ENDBRANCH  10  11
ENDBRANCH   2  10
TORSDOF 6
ENDMDL
