MODEL 1
REMARK VINA RESULT:    -6.345      0.000      0.000
REMARK INTER + INTRA:          -8.574
REMARK INTER:                  -7.829
REMARK INTRA:                  -0.745
REMARK UNBOUND:                -0.745
REMARK SMILES CC(C)=CCC[C@@H](C)c1ccc(C)cc1
REMARK SMILES IDX 6 1 7 2 8 3 9 4 13 5 12 6 11 7 14 8 10 9 15 10 5 11 4 12
REMARK SMILES IDX 2 13 1 14 3 15
REMARK H PARENT
REMARK Flexibility Score: inf
ROOT
ATOM      1  C   UNL     1       4.481   3.679  16.320  1.00  0.00     0.012 C 
ENDROOT
BRANCH   1   2
ATOM      2  C   UNL     1       5.849   4.375  16.512  1.00  0.00     0.016 C 
ATOM      3  C   UNL     1       5.927   5.657  15.674  1.00  0.00     0.013 C 
BRANCH   2   4
ATOM      4  C   UNL     1       6.140   4.674  17.973  1.00  0.00    -0.045 A 
ATOM      5  C   UNL     1       7.001   5.492  22.125  1.00  0.00     0.044 C 
ATOM      6  C   UNL     1       6.689   5.183  20.691  1.00  0.00    -0.051 A 
ATOM      7  C   UNL     1       7.624   4.506  19.894  1.00  0.00     0.004 A 
ATOM      8  C   UNL     1       5.488   5.625  20.117  1.00  0.00     0.004 A 
ATOM      9  C   UNL     1       7.350   4.248  18.549  1.00  0.00     0.004 A 
ATOM     10  C   UNL     1       5.213   5.368  18.772  1.00  0.00     0.004 A 
ENDBRANCH   2   4
ENDBRANCH   1   2
BRANCH   1  11
ATOM     11  C   UNL     1       4.393   2.294  16.987  1.00  0.00     0.028 C 
BRANCH  11  12
ATOM     12  C   UNL     1       5.640   1.472  16.766  1.00  0.00    -0.028 C 
ATOM     13  C   UNL     1       5.805   0.198  17.185  1.00  0.00    -0.080 C 
ATOM     14  C   UNL     1       4.750  -0.525  17.988  1.00  0.00     0.039 C 
ATOM     15  C   UNL     1       7.096  -0.504  16.853  1.00  0.00     0.039 C 
ENDBRANCH  11  12
ENDBRANCH   1  11
TORSDOF 4
ENDMDL
MODEL 2
REMARK VINA RESULT:    -6.226      3.147      4.799
REMARK INTER + INTRA:          -8.427
REMARK INTER:                  -7.190
REMARK INTRA:                  -1.236
REMARK UNBOUND:                -0.745
REMARK SMILES CC(C)=CCC[C@@H](C)c1ccc(C)cc1
REMARK SMILES IDX 6 1 7 2 8 3 9 4 13 5 12 6 11 7 14 8 10 9 15 10 5 11 4 12
REMARK SMILES IDX 2 13 1 14 3 15
REMARK H PARENT
REMARK Flexibility Score: inf
ROOT
ATOM      1  C   UNL     1       8.910   5.230  17.664  1.00  0.00     0.012 C 
ENDROOT
BRANCH   1   2
ATOM      2  C   UNL     1       8.045   6.232  16.863  1.00  0.00     0.016 C 
ATOM      3  C   UNL     1       6.727   5.581  16.425  1.00  0.00     0.013 C 
BRANCH   2   4
ATOM      4  C   UNL     1       7.775   7.508  17.643  1.00  0.00    -0.045 A 
ATOM      5  C   UNL     1       6.961  11.123  19.861  1.00  0.00     0.044 C 
ATOM      6  C   UNL     1       7.232   9.880  19.066  1.00  0.00    -0.051 A 
ATOM      7  C   UNL     1       6.296   8.835  19.049  1.00  0.00     0.004 A 
ATOM      8  C   UNL     1       8.449   9.725  18.389  1.00  0.00     0.004 A 
ATOM      9  C   UNL     1       6.563   7.662  18.338  1.00  0.00     0.004 A 
ATOM     10  C   UNL     1       8.717   8.553  17.678  1.00  0.00     0.004 A 
ENDBRANCH   2   4
ENDBRANCH   1   2
BRANCH   1  11
ATOM     11  C   UNL     1       8.093   4.126  18.359  1.00  0.00     0.028 C 
BRANCH  11  12
ATOM     12  C   UNL     1       7.864   4.421  19.823  1.00  0.00    -0.028 C 
ATOM     13  C   UNL     1       6.648   4.555  20.398  1.00  0.00    -0.080 C 
ATOM     14  C   UNL     1       5.369   4.477  19.598  1.00  0.00     0.039 C 
ATOM     15  C   UNL     1       6.581   4.811  21.881  1.00  0.00     0.039 C 
ENDBRANCH  11  12
ENDBRANCH   1  11
TORSDOF 4
ENDMDL
MODEL 3
REMARK VINA RESULT:    -6.223      2.381      4.424
REMARK INTER + INTRA:          -8.423
REMARK INTER:                  -7.214
REMARK INTRA:                  -1.209
REMARK UNBOUND:                -0.745
REMARK SMILES CC(C)=CCC[C@@H](C)c1ccc(C)cc1
REMARK SMILES IDX 6 1 7 2 8 3 9 4 13 5 12 6 11 7 14 8 10 9 15 10 5 11 4 12
REMARK SMILES IDX 2 13 1 14 3 15
REMARK H PARENT
REMARK Flexibility Score: inf
ROOT
ATOM      1  C   UNL     1       5.692   4.080  19.553  1.00  0.00     0.012 C 
ENDROOT
BRANCH   1   2
ATOM      2  C   UNL     1       7.065   4.651  19.979  1.00  0.00     0.016 C 
ATOM      3  C   UNL     1       8.148   4.275  18.960  1.00  0.00     0.013 C 
BRANCH   2   4
ATOM      4  C   UNL     1       7.023   6.156  20.180  1.00  0.00    -0.045 A 
ATOM      5  C   UNL     1       6.934  10.441  20.715  1.00  0.00     0.044 C 
ATOM      6  C   UNL     1       6.993   8.952  20.540  1.00  0.00    -0.051 A 
ATOM      7  C   UNL     1       7.410   8.400  19.320  1.00  0.00     0.004 A 
ATOM      8  C   UNL     1       6.568   8.102  21.571  1.00  0.00     0.004 A 
ATOM      9  C   UNL     1       7.432   7.014  19.144  1.00  0.00     0.004 A 
ATOM     10  C   UNL     1       6.589   6.717  21.396  1.00  0.00     0.004 A 
ENDBRANCH   2   4
ENDBRANCH   1   2
BRANCH   1  11
ATOM     11  C   UNL     1       5.556   3.866  18.035  1.00  0.00     0.028 C 
BRANCH  11  12
ATOM     12  C   UNL     1       4.659   4.897  17.391  1.00  0.00    -0.028 C 
ATOM     13  C   UNL     1       5.029   5.711  16.378  1.00  0.00    -0.080 C 
ATOM     14  C   UNL     1       6.431   5.707  15.817  1.00  0.00     0.039 C 
ATOM     15  C   UNL     1       4.007   6.663  15.813  1.00  0.00     0.039 C 
ENDBRANCH  11  12
ENDBRANCH   1  11
TORSDOF 4
ENDMDL
MODEL 4
REMARK VINA RESULT:    -6.222      2.506      4.595
REMARK INTER + INTRA:          -8.422
REMARK INTER:                  -7.396
REMARK INTRA:                  -1.026
REMARK UNBOUND:                -0.745
REMARK SMILES CC(C)=CCC[C@@H](C)c1ccc(C)cc1
REMARK SMILES IDX 6 1 7 2 8 3 9 4 13 5 12 6 11 7 14 8 10 9 15 10 5 11 4 12
REMARK SMILES IDX 2 13 1 14 3 15
REMARK H PARENT
REMARK Flexibility Score: inf
ROOT
ATOM      1  C   UNL     1       8.088   4.517  19.756  1.00  0.00     0.012 C 
ENDROOT
BRANCH   1   2
ATOM      2  C   UNL     1       6.831   5.187  20.361  1.00  0.00     0.016 C 
ATOM      3  C   UNL     1       6.610   4.718  21.805  1.00  0.00     0.013 C 
BRANCH   2   4
ATOM      4  C   UNL     1       6.903   6.703  20.298  1.00  0.00    -0.045 A 
ATOM      5  C   UNL     1       7.079  11.016  20.158  1.00  0.00     0.044 C 
ATOM      6  C   UNL     1       6.990   9.519  20.197  1.00  0.00    -0.051 A 
ATOM      7  C   UNL     1       6.600   8.865  21.375  1.00  0.00     0.004 A 
ATOM      8  C   UNL     1       7.359   8.760  19.078  1.00  0.00     0.004 A 
ATOM      9  C   UNL     1       6.550   7.469  21.423  1.00  0.00     0.004 A 
ATOM     10  C   UNL     1       7.310   7.365  19.125  1.00  0.00     0.004 A 
ENDBRANCH   2   4
ENDBRANCH   1   2
BRANCH   1  11
ATOM     11  C   UNL     1       7.847   3.888  18.372  1.00  0.00     0.028 C 
BRANCH  11  12
ATOM     12  C   UNL     1       6.380   3.658  18.096  1.00  0.00    -0.028 C 
ATOM     13  C   UNL     1       5.673   4.281  17.127  1.00  0.00    -0.080 C 
ATOM     14  C   UNL     1       6.288   5.338  16.240  1.00  0.00     0.039 C 
ATOM     15  C   UNL     1       4.222   3.915  16.950  1.00  0.00     0.039 C 
ENDBRANCH  11  12
ENDBRANCH   1  11
TORSDOF 4
ENDMDL
MODEL 5
REMARK VINA RESULT:    -6.218      2.348      4.024
REMARK INTER + INTRA:          -8.417
REMARK INTER:                  -7.449
REMARK INTRA:                  -0.968
REMARK UNBOUND:                -0.745
REMARK SMILES CC(C)=CCC[C@@H](C)c1ccc(C)cc1
REMARK SMILES IDX 6 1 7 2 8 3 9 4 13 5 12 6 11 7 14 8 10 9 15 10 5 11 4 12
REMARK SMILES IDX 2 13 1 14 3 15
REMARK H PARENT
REMARK Flexibility Score: inf
ROOT
ATOM      1  C   UNL     1       5.671   4.223  19.487  1.00  0.00     0.012 C 
ENDROOT
BRANCH   1   2
ATOM      2  C   UNL     1       7.086   4.801  19.724  1.00  0.00     0.016 C 
ATOM      3  C   UNL     1       8.016   4.452  18.555  1.00  0.00     0.013 C 
BRANCH   2   4
ATOM      4  C   UNL     1       7.061   6.302  19.955  1.00  0.00    -0.045 A 
ATOM      5  C   UNL     1       6.958  10.564  20.648  1.00  0.00     0.044 C 
ATOM      6  C   UNL     1       6.967   9.085  20.395  1.00  0.00    -0.051 A 
ATOM      7  C   UNL     1       6.516   8.197  21.382  1.00  0.00     0.004 A 
ATOM      8  C   UNL     1       7.486   8.576  19.196  1.00  0.00     0.004 A 
ATOM      9  C   UNL     1       6.557   6.817  21.162  1.00  0.00     0.004 A 
ATOM     10  C   UNL     1       7.527   7.198  18.975  1.00  0.00     0.004 A 
ENDBRANCH   2   4
ENDBRANCH   1   2
BRANCH   1  11
ATOM     11  C   UNL     1       4.888   4.942  18.373  1.00  0.00     0.028 C 
BRANCH  11  12
ATOM     12  C   UNL     1       4.604   4.037  17.198  1.00  0.00    -0.028 C 
ATOM     13  C   UNL     1       5.092   4.222  15.951  1.00  0.00    -0.080 C 
ATOM     14  C   UNL     1       5.944   5.416  15.592  1.00  0.00     0.039 C 
ATOM     15  C   UNL     1       4.750   3.208  14.890  1.00  0.00     0.039 C 
ENDBRANCH  11  12
ENDBRANCH   1  11
TORSDOF 4
ENDMDL
MODEL 6
REMARK VINA RESULT:    -6.158      2.474      3.529
REMARK INTER + INTRA:          -8.342
REMARK INTER:                  -7.744
REMARK INTRA:                  -0.598
REMARK UNBOUND:                -0.745
REMARK SMILES CC(C)=CCC[C@@H](C)c1ccc(C)cc1
REMARK SMILES IDX 6 1 7 2 8 3 9 4 13 5 12 6 11 7 14 8 10 9 15 10 5 11 4 12
REMARK SMILES IDX 2 13 1 14 3 15
REMARK H PARENT
REMARK Flexibility Score: inf
ROOT
ATOM      1  C   UNL     1       6.519   4.766  18.174  1.00  0.00     0.012 C 
ENDROOT
BRANCH   1   2
ATOM      2  C   UNL     1       7.074   5.058  19.588  1.00  0.00     0.016 C 
ATOM      3  C   UNL     1       8.498   4.506  19.735  1.00  0.00     0.013 C 
BRANCH   2   4
ATOM      4  C   UNL     1       7.041   6.540  19.922  1.00  0.00    -0.045 A 
ATOM      5  C   UNL     1       6.975  10.760  20.835  1.00  0.00     0.044 C 
ATOM      6  C   UNL     1       7.025   9.293  20.529  1.00  0.00    -0.051 A 
ATOM      7  C   UNL     1       7.444   8.849  19.266  1.00  0.00     0.004 A 
ATOM      8  C   UNL     1       6.592   8.357  21.479  1.00  0.00     0.004 A 
ATOM      9  C   UNL     1       7.458   7.484  18.967  1.00  0.00     0.004 A 
ATOM     10  C   UNL     1       6.605   6.992  21.181  1.00  0.00     0.004 A 
ENDBRANCH   2   4
ENDBRANCH   1   2
BRANCH   1  11
ATOM     11  C   UNL     1       5.035   4.357  18.165  1.00  0.00     0.028 C 
BRANCH  11  12
ATOM     12  C   UNL     1       4.853   2.863  18.295  1.00  0.00    -0.028 C 
ATOM     13  C   UNL     1       4.763   2.007  17.253  1.00  0.00    -0.080 C 
ATOM     14  C   UNL     1       4.777   2.482  15.820  1.00  0.00     0.039 C 
ATOM     15  C   UNL     1       4.621   0.535  17.546  1.00  0.00     0.039 C 
ENDBRANCH  11  12
ENDBRANCH   1  11
TORSDOF 4
ENDMDL
MODEL 7
REMARK VINA RESULT:    -6.138      1.584      4.760
REMARK INTER + INTRA:          -8.318
REMARK INTER:                  -7.174
REMARK INTRA:                  -1.143
REMARK UNBOUND:                -0.745
REMARK SMILES CC(C)=CCC[C@@H](C)c1ccc(C)cc1
REMARK SMILES IDX 6 1 7 2 8 3 9 4 13 5 12 6 11 7 14 8 10 9 15 10 5 11 4 12
REMARK SMILES IDX 2 13 1 14 3 15
REMARK H PARENT
REMARK Flexibility Score: inf
ROOT
ATOM      1  C   UNL     1       6.557   5.843  15.792  1.00  0.00     0.012 C 
ENDROOT
BRANCH   1   2
ATOM      2  C   UNL     1       5.268   5.596  16.611  1.00  0.00     0.016 C 
ATOM      3  C   UNL     1       4.040   6.131  15.865  1.00  0.00     0.013 C 
BRANCH   2   4
ATOM      4  C   UNL     1       5.083   4.128  16.959  1.00  0.00    -0.045 A 
ATOM      5  C   UNL     1       4.568  -0.034  17.991  1.00  0.00     0.044 C 
ATOM      6  C   UNL     1       4.776   1.409  17.635  1.00  0.00    -0.051 A 
ATOM      7  C   UNL     1       4.766   2.392  18.635  1.00  0.00     0.004 A 
ATOM      8  C   UNL     1       4.917   1.792  16.293  1.00  0.00     0.004 A 
ATOM      9  C   UNL     1       4.925   3.740  18.300  1.00  0.00     0.004 A 
ATOM     10  C   UNL     1       5.075   3.139  15.958  1.00  0.00     0.004 A 
ENDBRANCH   2   4
ENDBRANCH   1   2
BRANCH   1  11
ATOM     11  C   UNL     1       7.728   6.388  16.630  1.00  0.00     0.028 C 
BRANCH  11  12
ATOM     12  C   UNL     1       8.237   5.374  17.627  1.00  0.00    -0.028 C 
ATOM     13  C   UNL     1       7.998   5.417  18.957  1.00  0.00    -0.080 C 
ATOM     14  C   UNL     1       7.226   6.547  19.596  1.00  0.00     0.039 C 
ATOM     15  C   UNL     1       8.543   4.309  19.819  1.00  0.00     0.039 C 
ENDBRANCH  11  12
ENDBRANCH   1  11
TORSDOF 4
ENDMDL
MODEL 8
REMARK VINA RESULT:    -6.065      2.627      4.559
REMARK INTER + INTRA:          -8.228
REMARK INTER:                  -6.733
REMARK INTRA:                  -1.496
REMARK UNBOUND:                -0.745
REMARK SMILES CC(C)=CCC[C@@H](C)c1ccc(C)cc1
REMARK SMILES IDX 6 1 7 2 8 3 9 4 13 5 12 6 11 7 14 8 10 9 15 10 5 11 4 12
REMARK SMILES IDX 2 13 1 14 3 15
REMARK H PARENT
REMARK Flexibility Score: inf
ROOT
ATOM      1  C   UNL     1       6.000   4.192  19.384  1.00  0.00     0.012 C 
ENDROOT
BRANCH   1   2
ATOM      2  C   UNL     1       7.532   4.394  19.322  1.00  0.00     0.016 C 
ATOM      3  C   UNL     1       8.184   3.326  18.434  1.00  0.00     0.013 C 
BRANCH   2   4
ATOM      4  C   UNL     1       7.908   5.786  18.843  1.00  0.00    -0.045 A 
ATOM      5  C   UNL     1       9.017   9.726  17.465  1.00  0.00     0.044 C 
ATOM      6  C   UNL     1       8.652   8.360  17.965  1.00  0.00    -0.051 A 
ATOM      7  C   UNL     1       9.281   7.223  17.437  1.00  0.00     0.004 A 
ATOM      8  C   UNL     1       7.634   8.204  18.917  1.00  0.00     0.004 A 
ATOM      9  C   UNL     1       8.916   5.947  17.877  1.00  0.00     0.004 A 
ATOM     10  C   UNL     1       7.269   6.930  19.357  1.00  0.00     0.004 A 
ENDBRANCH   2   4
ENDBRANCH   1   2
BRANCH   1  11
ATOM     11  C   UNL     1       5.364   3.858  18.023  1.00  0.00     0.028 C 
BRANCH  11  12
ATOM     12  C   UNL     1       4.531   4.998  17.486  1.00  0.00    -0.028 C 
ATOM     13  C   UNL     1       4.839   5.725  16.390  1.00  0.00    -0.080 C 
ATOM     14  C   UNL     1       6.111   5.498  15.609  1.00  0.00     0.039 C 
ATOM     15  C   UNL     1       3.884   6.807  15.956  1.00  0.00     0.039 C 
ENDBRANCH  11  12
ENDBRANCH   1  11
TORSDOF 4
ENDMDL
MODEL 9
REMARK VINA RESULT:    -6.049      2.648      4.857
REMARK INTER + INTRA:          -8.208
REMARK INTER:                  -6.841
REMARK INTRA:                  -1.366
REMARK UNBOUND:                -0.745
REMARK SMILES CC(C)=CCC[C@@H](C)c1ccc(C)cc1
REMARK SMILES IDX 6 1 7 2 8 3 9 4 13 5 12 6 11 7 14 8 10 9 15 10 5 11 4 12
REMARK SMILES IDX 2 13 1 14 3 15
REMARK H PARENT
REMARK Flexibility Score: inf
ROOT
ATOM      1  C   UNL     1       6.330   4.360  19.950  1.00  0.00     0.012 C 
ENDROOT
BRANCH   1   2
ATOM      2  C   UNL     1       6.368   5.767  20.592  1.00  0.00     0.016 C 
ATOM      3  C   UNL     1       6.974   5.703  22.000  1.00  0.00     0.013 C 
BRANCH   2   4
ATOM      4  C   UNL     1       7.121   6.769  19.733  1.00  0.00    -0.045 A 
ATOM      5  C   UNL     1       9.226   9.649  17.298  1.00  0.00     0.044 C 
ATOM      6  C   UNL     1       8.475   8.644  18.122  1.00  0.00    -0.051 A 
ATOM      7  C   UNL     1       7.470   9.065  19.006  1.00  0.00     0.004 A 
ATOM      8  C   UNL     1       8.816   7.286  18.064  1.00  0.00     0.004 A 
ATOM      9  C   UNL     1       6.795   8.134  19.800  1.00  0.00     0.004 A 
ATOM     10  C   UNL     1       8.142   6.355  18.857  1.00  0.00     0.004 A 
ENDBRANCH   2   4
ENDBRANCH   1   2
BRANCH   1  11
ATOM     11  C   UNL     1       5.155   4.157  18.975  1.00  0.00     0.028 C 
BRANCH  11  12
ATOM     12  C   UNL     1       5.571   4.337  17.535  1.00  0.00    -0.028 C 
ATOM     13  C   UNL     1       5.279   5.421  16.781  1.00  0.00    -0.080 C 
ATOM     14  C   UNL     1       4.437   6.560  17.306  1.00  0.00     0.039 C 
ATOM     15  C   UNL     1       5.798   5.471  15.367  1.00  0.00     0.039 C 
ENDBRANCH  11  12
ENDBRANCH   1  11
TORSDOF 4
ENDMDL
