MODEL 1
REMARK VINA RESULT:     3.215      0.000      0.000
REMARK INTER + INTRA:           4.005
REMARK INTER:                   4.155
REMARK INTRA:                  -0.150
REMARK UNBOUND:                -0.150
REMARK SMILES CCCCCCC(=O)[O-]
REMARK SMILES IDX 5 1 6 2 7 3 8 4 9 5 4 6 3 7 2 8 1 9
REMARK H PARENT
REMARK Flexibility Score: inf
ROOT
ATOM      1  C   UNL     1      17.120  17.445  17.003  1.00  0.00     0.006 C 
ENDROOT
BRANCH   1   2
ATOM      2  C   UNL     1      16.469  17.456  15.614  1.00  0.00     0.053 C 
BRANCH   2   3
ATOM      3  C   UNL     1      17.489  17.354  14.521  1.00  0.00     0.041 C 
ATOM      4  O   UNL     1      17.835  16.228  14.078  1.00  0.00    -0.550 OA
ATOM      5  O   UNL     1      18.033  18.507  13.968  1.00  0.00    -0.550 OA
ENDBRANCH   2   3
ENDBRANCH   1   2
BRANCH   1   6
ATOM      6  C   UNL     1      16.080  17.379  18.132  1.00  0.00     0.000 C 
BRANCH   6   7
ATOM      7  C   UNL     1      16.686  17.851  19.463  1.00  0.00    -0.000 C 
BRANCH   7   8
ATOM      8  C   UNL     1      17.919  17.032  19.873  1.00  0.00    -0.003 C 
ATOM      9  C   UNL     1      19.115  17.909  20.243  1.00  0.00     0.004 C 
ENDBRANCH   7   8
ENDBRANCH   6   7
ENDBRANCH   1   6
TORSDOF 5
ENDMDL
MODEL 2
REMARK VINA RESULT:     3.862      3.076      4.925
REMARK INTER + INTRA:           4.841
REMARK INTER:                   4.970
REMARK INTRA:                  -0.129
REMARK UNBOUND:                -0.150
REMARK SMILES CCCCCCC(=O)[O-]
REMARK SMILES IDX 5 1 6 2 7 3 8 4 9 5 4 6 3 7 2 8 1 9
REMARK H PARENT
REMARK Flexibility Score: inf
ROOT
ATOM      1  C   UNL     1      17.230  17.432  17.093  1.00  0.00     0.006 C 
ENDROOT
BRANCH   1   2
ATOM      2  C   UNL     1      16.480  17.801  18.379  1.00  0.00     0.053 C 
BRANCH   2   3
ATOM      3  C   UNL     1      17.008  17.051  19.564  1.00  0.00     0.041 C 
ATOM      4  O   UNL     1      16.376  16.065  20.024  1.00  0.00    -0.550 OA
ATOM      5  O   UNL     1      18.216  17.423  20.140  1.00  0.00    -0.550 OA
ENDBRANCH   2   3
ENDBRANCH   1   2
BRANCH   1   6
ATOM      6  C   UNL     1      16.418  17.762  15.831  1.00  0.00     0.000 C 
BRANCH   6   7
ATOM      7  C   UNL     1      16.950  16.984  14.617  1.00  0.00    -0.000 C 
BRANCH   7   8
ATOM      8  C   UNL     1      18.067  17.737  13.878  1.00  0.00    -0.003 C 
ATOM      9  C   UNL     1      17.964  19.253  14.036  1.00  0.00     0.004 C 
ENDBRANCH   7   8
ENDBRANCH   6   7
ENDBRANCH   1   6
TORSDOF 5
ENDMDL
MODEL 3
REMARK VINA RESULT:     3.991      3.018      4.925
REMARK INTER + INTRA:           5.007
REMARK INTER:                   5.165
REMARK INTRA:                  -0.158
REMARK UNBOUND:                -0.150
REMARK SMILES CCCCCCC(=O)[O-]
REMARK SMILES IDX 5 1 6 2 7 3 8 4 9 5 4 6 3 7 2 8 1 9
REMARK H PARENT
REMARK Flexibility Score: inf
ROOT
ATOM      1  C   UNL     1      16.118  17.483  17.821  1.00  0.00     0.006 C 
ENDROOT
BRANCH   1   2
ATOM      2  C   UNL     1      16.559  18.078  19.164  1.00  0.00     0.053 C 
BRANCH   2   3
ATOM      3  C   UNL     1      17.516  17.177  19.884  1.00  0.00     0.041 C 
ATOM      4  O   UNL     1      17.162  16.017  20.223  1.00  0.00    -0.550 OA
ATOM      5  O   UNL     1      18.810  17.607  20.150  1.00  0.00    -0.550 OA
ENDBRANCH   2   3
ENDBRANCH   1   2
BRANCH   1   6
ATOM      6  C   UNL     1      17.259  17.460  16.793  1.00  0.00     0.000 C 
BRANCH   6   7
ATOM      7  C   UNL     1      16.740  17.812  15.390  1.00  0.00    -0.000 C 
BRANCH   7   8
ATOM      8  C   UNL     1      17.735  17.435  14.282  1.00  0.00    -0.003 C 
ATOM      9  C   UNL     1      17.695  15.948  13.930  1.00  0.00     0.004 C 
ENDBRANCH   7   8
ENDBRANCH   6   7
ENDBRANCH   1   6
TORSDOF 5
ENDMDL
MODEL 4
REMARK VINA RESULT:     4.866      3.213      5.031
REMARK INTER + INTRA:           6.138
REMARK INTER:                   6.101
REMARK INTRA:                   0.037
REMARK UNBOUND:                -0.150
REMARK SMILES CCCCCCC(=O)[O-]
REMARK SMILES IDX 5 1 6 2 7 3 8 4 9 5 4 6 3 7 2 8 1 9
REMARK H PARENT
REMARK Flexibility Score: inf
ROOT
ATOM      1  C   UNL     1      16.689  17.669  18.302  1.00  0.00     0.006 C 
ENDROOT
BRANCH   1   2
ATOM      2  C   UNL     1      17.170  16.862  19.515  1.00  0.00     0.053 C 
BRANCH   2   3
ATOM      3  C   UNL     1      18.350  17.505  20.178  1.00  0.00     0.041 C 
ATOM      4  O   UNL     1      18.272  17.893  21.373  1.00  0.00    -0.550 OA
ATOM      5  O   UNL     1      19.546  17.644  19.486  1.00  0.00    -0.550 OA
ENDBRANCH   2   3
ENDBRANCH   1   2
BRANCH   1   6
ATOM      6  C   UNL     1      17.513  17.368  17.040  1.00  0.00     0.000 C 
BRANCH   6   7
ATOM      7  C   UNL     1      16.642  17.475  15.779  1.00  0.00    -0.000 C 
BRANCH   7   8
ATOM      8  C   UNL     1      17.458  17.325  14.485  1.00  0.00    -0.003 C 
ATOM      9  C   UNL     1      18.005  18.657  13.973  1.00  0.00     0.004 C 
ENDBRANCH   7   8
ENDBRANCH   6   7
ENDBRANCH   1   6
TORSDOF 5
ENDMDL
MODEL 5
REMARK VINA RESULT:     6.198      3.955      5.123
REMARK INTER + INTRA:           7.860
REMARK INTER:                   7.998
REMARK INTRA:                  -0.138
REMARK UNBOUND:                -0.150
REMARK SMILES CCCCCCC(=O)[O-]
REMARK SMILES IDX 5 1 6 2 7 3 8 4 9 5 4 6 3 7 2 8 1 9
REMARK H PARENT
REMARK Flexibility Score: inf
ROOT
ATOM      1  C   UNL     1      17.176  17.534  19.354  1.00  0.00     0.006 C 
ENDROOT
BRANCH   1   2
ATOM      2  C   UNL     1      18.173  17.111  20.440  1.00  0.00     0.053 C 
BRANCH   2   3
ATOM      3  C   UNL     1      19.379  18.002  20.464  1.00  0.00     0.041 C 
ATOM      4  O   UNL     1      19.476  18.914  21.326  1.00  0.00    -0.550 OA
ATOM      5  O   UNL     1      20.410  17.801  19.556  1.00  0.00    -0.550 OA
ENDBRANCH   2   3
ENDBRANCH   1   2
BRANCH   1   6
ATOM      6  C   UNL     1      15.927  16.640  19.332  1.00  0.00     0.000 C 
BRANCH   6   7
ATOM      7  C   UNL     1      16.124  15.401  20.220  1.00  0.00    -0.000 C 
BRANCH   7   8
ATOM      8  C   UNL     1      14.792  14.768  20.653  1.00  0.00    -0.003 C 
ATOM      9  C   UNL     1      14.720  13.273  20.348  1.00  0.00     0.004 C 
ENDBRANCH   7   8
ENDBRANCH   6   7
ENDBRANCH   1   6
TORSDOF 5
ENDMDL
