MODEL 1
REMARK VINA RESULT:     9.017      0.000      0.000
REMARK INTER + INTRA:          16.223
REMARK INTER:                  12.707
REMARK INTRA:                   3.515
REMARK UNBOUND:                 3.515
REMARK SMILES C[C@@H](CO)CCC(=O)[C@H](C)[C@H]1C(=O)C[C@H]2[C@@H]3CC=C4C[C@H](O)CC[C@]4(C)[C@H]3CC[C@]12C
REMARK SMILES IDX 6 1 5 2 2 3 1 4 3 5 4 6 7 8 8 9 9 10 10 11 11 12 12 13 30 14
REMARK SMILES IDX 13 15 14 16 15 17 29 18 31 19 16 20 28 21 27 22 17 23 25 24
REMARK SMILES IDX 18 25 19 26 24 27 26 28 20 29 23 30 21 31 22 32
REMARK H PARENT 4 7 22 33
REMARK Flexibility Score: inf
ROOT
ATOM      1  C   UNL     1       7.204 -35.192  16.335  1.00  0.00     0.076 C 
ENDROOT
BRANCH   1   2
ATOM      2  C   UNL     1       6.940 -36.323  17.342  1.00  0.00     0.013 C 
BRANCH   2   3
ATOM      3  C   UNL     1       7.378 -35.968  18.782  1.00  0.00     0.012 C 
ATOM      4  C   UNL     1       8.149 -37.125  19.444  1.00  0.00     0.010 C 
BRANCH   3   5
ATOM      5  C   UNL     1       8.244 -34.690  18.760  1.00  0.00     0.159 C 
BRANCH   5   6
ATOM      6  O   UNL     1       7.912 -33.839  19.825  1.00  0.00    -0.396 OA
ATOM      7  H   UNL     1       7.333 -34.363  20.439  1.00  0.00     0.210 HD
ENDBRANCH   5   6
ENDBRANCH   3   5
ENDBRANCH   2   3
ENDBRANCH   1   2
BRANCH   1   8
ATOM      8  C   UNL     1       6.689 -35.563  14.968  1.00  0.00     0.136 C 
ATOM      9  O   UNL     1       5.907 -36.498  14.863  1.00  0.00    -0.299 OA
BRANCH   8  10
ATOM     10  C   UNL     1       7.036 -34.735  13.745  1.00  0.00     0.064 C 
ATOM     11  C   UNL     1       8.000 -35.570  12.876  1.00  0.00     0.017 C 
BRANCH  10  12
ATOM     12  C   UNL     1       7.663 -33.354  14.142  1.00  0.00     0.072 C 
ATOM     13  C   UNL     1       7.283 -32.866  15.528  1.00  0.00     0.137 C 
ATOM     14  C   UNL     1       9.225 -33.264  14.219  1.00  0.00    -0.019 C 
ATOM     15  O   UNL     1       6.155 -32.917  15.989  1.00  0.00    -0.299 OA
ATOM     16  C   UNL     1       8.400 -32.175  16.239  1.00  0.00     0.080 C 
ATOM     17  C   UNL     1       9.406 -32.013  15.108  1.00  0.00     0.007 C 
ATOM     18  C   UNL     1       9.938 -32.971  12.878  1.00  0.00     0.008 C 
ATOM     19  C   UNL     1       9.819 -34.551  14.881  1.00  0.00     0.012 C 
ATOM     20  C   UNL     1      10.877 -31.705  15.461  1.00  0.00     0.001 C 
ATOM     21  C   UNL     1      11.432 -32.632  13.096  1.00  0.00     0.005 C 
ATOM     22  C   UNL     1      11.673 -31.489  14.137  1.00  0.00     0.003 C 
ATOM     23  C   UNL     1      10.964 -30.432  16.317  1.00  0.00     0.031 C 
ATOM     24  C   UNL     1      13.197 -31.189  14.422  1.00  0.00    -0.008 C 
ATOM     25  C   UNL     1      12.371 -29.928  16.462  1.00  0.00    -0.027 C 
ATOM     26  C   UNL     1      13.345 -30.154  15.554  1.00  0.00    -0.065 C 
ATOM     27  C   UNL     1      13.847 -30.608  13.126  1.00  0.00     0.014 C 
ATOM     28  C   UNL     1      13.956 -32.477  14.844  1.00  0.00     0.016 C 
ATOM     29  C   UNL     1      14.693 -29.489  15.768  1.00  0.00     0.063 C 
ATOM     30  C   UNL     1      15.249 -30.012  13.341  1.00  0.00     0.033 C 
ATOM     31  C   UNL     1      15.270 -28.948  14.449  1.00  0.00     0.118 C 
BRANCH  31  32
ATOM     32  O   UNL     1      14.619 -27.768  14.040  1.00  0.00    -0.393 OA
ATOM     33  H   UNL     1      15.166 -27.335  13.335  1.00  0.00     0.210 HD
ENDBRANCH  31  32
ENDBRANCH  10  12
ENDBRANCH   8  10
ENDBRANCH   1   8
TORSDOF 8
ENDMDL
MODEL 2
REMARK VINA RESULT:     9.433      1.728      3.165
REMARK INTER + INTRA:          16.809
REMARK INTER:                  13.991
REMARK INTRA:                   2.817
REMARK UNBOUND:                 3.515
REMARK SMILES C[C@@H](CO)CCC(=O)[C@H](C)[C@H]1C(=O)C[C@H]2[C@@H]3CC=C4C[C@H](O)CC[C@]4(C)[C@H]3CC[C@]12C
REMARK SMILES IDX 6 1 5 2 2 3 1 4 3 5 4 6 7 8 8 9 9 10 10 11 11 12 12 13 30 14
REMARK SMILES IDX 13 15 14 16 15 17 29 18 31 19 16 20 28 21 27 22 17 23 25 24
REMARK SMILES IDX 18 25 19 26 24 27 26 28 20 29 23 30 21 31 22 32
REMARK H PARENT 4 7 22 33
REMARK Flexibility Score: inf
ROOT
ATOM      1  C   UNL     1       5.875 -33.240  16.198  1.00  0.00     0.076 C 
ENDROOT
BRANCH   1   2
ATOM      2  C   UNL     1       6.894 -32.185  16.656  1.00  0.00     0.013 C 
BRANCH   2   3
ATOM      3  C   UNL     1       7.679 -32.609  17.919  1.00  0.00     0.012 C 
ATOM      4  C   UNL     1       8.526 -33.870  17.668  1.00  0.00     0.010 C 
BRANCH   3   5
ATOM      5  C   UNL     1       8.578 -31.444  18.386  1.00  0.00     0.159 C 
BRANCH   5   6
ATOM      6  O   UNL     1       9.018 -31.643  19.703  1.00  0.00    -0.396 OA
ATOM      7  H   UNL     1       8.786 -32.579  19.942  1.00  0.00     0.210 HD
ENDBRANCH   5   6
ENDBRANCH   3   5
ENDBRANCH   2   3
ENDBRANCH   1   2
BRANCH   1   8
ATOM      8  C   UNL     1       6.066 -33.567  14.738  1.00  0.00     0.136 C 
ATOM      9  O   UNL     1       5.876 -32.693  13.904  1.00  0.00    -0.299 OA
BRANCH   8  10
ATOM     10  C   UNL     1       6.590 -34.921  14.298  1.00  0.00     0.064 C 
ATOM     11  C   UNL     1       5.910 -35.992  15.175  1.00  0.00     0.017 C 
BRANCH  10  12
ATOM     12  C   UNL     1       8.153 -34.996  14.401  1.00  0.00     0.072 C 
ATOM     13  C   UNL     1       8.804 -35.947  13.413  1.00  0.00     0.137 C 
ATOM     14  C   UNL     1       8.960 -33.683  14.119  1.00  0.00    -0.019 C 
ATOM     15  O   UNL     1       8.387 -37.064  13.158  1.00  0.00    -0.299 OA
ATOM     16  C   UNL     1      10.103 -35.443  12.876  1.00  0.00     0.080 C 
ATOM     17  C   UNL     1      10.358 -34.259  13.798  1.00  0.00     0.007 C 
ATOM     18  C   UNL     1       9.130 -32.737  15.331  1.00  0.00     0.008 C 
ATOM     19  C   UNL     1       8.347 -32.910  12.905  1.00  0.00     0.012 C 
ATOM     20  C   UNL     1      11.390 -33.193  13.371  1.00  0.00     0.001 C 
ATOM     21  C   UNL     1      10.158 -31.619  15.033  1.00  0.00     0.005 C 
ATOM     22  C   UNL     1      11.537 -32.152  14.523  1.00  0.00     0.003 C 
ATOM     23  C   UNL     1      12.753 -33.848  13.104  1.00  0.00     0.031 C 
ATOM     24  C   UNL     1      12.566 -31.015  14.144  1.00  0.00    -0.008 C 
ATOM     25  C   UNL     1      13.858 -32.843  12.953  1.00  0.00    -0.027 C 
ATOM     26  C   UNL     1      13.840 -31.618  13.522  1.00  0.00    -0.065 C 
ATOM     27  C   UNL     1      12.962 -30.241  15.443  1.00  0.00     0.014 C 
ATOM     28  C   UNL     1      11.954 -30.019  13.120  1.00  0.00     0.016 C 
ATOM     29  C   UNL     1      15.073 -30.745  13.384  1.00  0.00     0.063 C 
ATOM     30  C   UNL     1      14.162 -29.296  15.266  1.00  0.00     0.033 C 
ATOM     31  C   UNL     1      15.396 -30.014  14.698  1.00  0.00     0.118 C 
BRANCH  31  32
ATOM     32  O   UNL     1      15.969 -30.880  15.650  1.00  0.00    -0.393 OA
ATOM     33  H   UNL     1      15.614 -30.642  16.546  1.00  0.00     0.210 HD
ENDBRANCH  31  32
ENDBRANCH  10  12
ENDBRANCH   8  10
ENDBRANCH   1   8
TORSDOF 8
ENDMDL
MODEL 3
REMARK VINA RESULT:    11.410      1.911      2.910
REMARK INTER + INTRA:          19.594
REMARK INTER:                  11.393
REMARK INTRA:                   8.201
REMARK UNBOUND:                 3.515
REMARK SMILES C[C@@H](CO)CCC(=O)[C@H](C)[C@H]1C(=O)C[C@H]2[C@@H]3CC=C4C[C@H](O)CC[C@]4(C)[C@H]3CC[C@]12C
REMARK SMILES IDX 6 1 5 2 2 3 1 4 3 5 4 6 7 8 8 9 9 10 10 11 11 12 12 13 30 14
REMARK SMILES IDX 13 15 14 16 15 17 29 18 31 19 16 20 28 21 27 22 17 23 25 24
REMARK SMILES IDX 18 25 19 26 24 27 26 28 20 29 23 30 21 31 22 32
REMARK H PARENT 4 7 22 33
REMARK Flexibility Score: inf
ROOT
ATOM      1  C   UNL     1       8.998 -34.822  13.515  1.00  0.00     0.076 C 
ENDROOT
BRANCH   1   2
ATOM      2  C   UNL     1       9.545 -36.112  12.885  1.00  0.00     0.013 C 
BRANCH   2   3
ATOM      3  C   UNL     1      11.090 -36.176  12.878  1.00  0.00     0.012 C 
ATOM      4  C   UNL     1      11.719 -34.778  13.024  1.00  0.00     0.010 C 
BRANCH   3   5
ATOM      5  C   UNL     1      11.576 -37.103  14.013  1.00  0.00     0.159 C 
BRANCH   5   6
ATOM      6  O   UNL     1      12.598 -36.495  14.758  1.00  0.00    -0.396 OA
ATOM      7  H   UNL     1      13.375 -36.396  14.147  1.00  0.00     0.210 HD
ENDBRANCH   5   6
ENDBRANCH   3   5
ENDBRANCH   2   3
ENDBRANCH   1   2
BRANCH   1   8
ATOM      8  C   UNL     1       7.566 -35.006  13.949  1.00  0.00     0.136 C 
ATOM      9  O   UNL     1       7.158 -36.135  14.185  1.00  0.00    -0.299 OA
BRANCH   8  10
ATOM     10  C   UNL     1       6.660 -33.815  14.200  1.00  0.00     0.064 C 
ATOM     11  C   UNL     1       5.903 -33.522  12.888  1.00  0.00     0.017 C 
BRANCH  10  12
ATOM     12  C   UNL     1       7.472 -32.567  14.691  1.00  0.00     0.072 C 
ATOM     13  C   UNL     1       7.361 -32.290  16.179  1.00  0.00     0.137 C 
ATOM     14  C   UNL     1       9.028 -32.600  14.515  1.00  0.00    -0.019 C 
ATOM     15  O   UNL     1       6.320 -32.338  16.812  1.00  0.00    -0.299 OA
ATOM     16  C   UNL     1       8.637 -31.807  16.787  1.00  0.00     0.080 C 
ATOM     17  C   UNL     1       9.466 -31.530  15.540  1.00  0.00     0.007 C 
ATOM     18  C   UNL     1       9.548 -32.139  13.132  1.00  0.00     0.008 C 
ATOM     19  C   UNL     1       9.591 -34.017  14.863  1.00  0.00     0.012 C 
ATOM     20  C   UNL     1      10.996 -31.389  15.682  1.00  0.00     0.001 C 
ATOM     21  C   UNL     1      11.083 -31.946  13.144  1.00  0.00     0.005 C 
ATOM     22  C   UNL     1      11.593 -31.012  14.290  1.00  0.00     0.003 C 
ATOM     23  C   UNL     1      11.338 -30.286  16.694  1.00  0.00     0.031 C 
ATOM     24  C   UNL     1      13.164 -30.871  14.356  1.00  0.00    -0.008 C 
ATOM     25  C   UNL     1      12.792 -29.913  16.674  1.00  0.00    -0.027 C 
ATOM     26  C   UNL     1      13.587 -30.053  15.590  1.00  0.00    -0.065 C 
ATOM     27  C   UNL     1      13.658 -30.130  13.072  1.00  0.00     0.014 C 
ATOM     28  C   UNL     1      13.852 -32.262  14.441  1.00  0.00     0.016 C 
ATOM     29  C   UNL     1      15.009 -29.529  15.671  1.00  0.00     0.063 C 
ATOM     30  C   UNL     1      15.126 -29.679  13.135  1.00  0.00     0.033 C 
ATOM     31  C   UNL     1      15.423 -28.818  14.372  1.00  0.00     0.118 C 
BRANCH  31  32
ATOM     32  O   UNL     1      14.833 -27.544  14.264  1.00  0.00    -0.393 OA
ATOM     33  H   UNL     1      14.528 -27.416  13.328  1.00  0.00     0.210 HD
ENDBRANCH  31  32
ENDBRANCH  10  12
ENDBRANCH   8  10
ENDBRANCH   1   8
TORSDOF 8
ENDMDL
