MODEL 1
REMARK VINA RESULT:    -4.689      0.000      0.000
REMARK INTER + INTRA:          -9.043
REMARK INTER:                  -8.253
REMARK INTRA:                  -0.790
REMARK UNBOUND:                -0.790
REMARK SMILES CCCCCCCCCCCCCCC(=O)[O-]
REMARK SMILES IDX 9 1 10 2 11 3 12 4 13 5 14 6 15 7 16 8 17 9 8 10 7 11 6 12
REMARK SMILES IDX 5 13 4 14 3 15 2 16 1 17
REMARK H PARENT
REMARK Flexibility Score: inf
ROOT
ATOM      1  C   UNL     1      15.522  21.179 -12.044  1.00  0.00     0.000 C 
ENDROOT
BRANCH   1   2
ATOM      2  C   UNL     1      16.665  20.176 -12.285  1.00  0.00     0.000 C 
BRANCH   2   3
ATOM      3  C   UNL     1      17.599  20.524 -13.459  1.00  0.00     0.000 C 
BRANCH   3   4
ATOM      4  C   UNL     1      18.990  19.879 -13.330  1.00  0.00     0.000 C 
BRANCH   4   5
ATOM      5  C   UNL     1      18.919  18.401 -12.916  1.00  0.00     0.006 C 
BRANCH   5   6
ATOM      6  C   UNL     1      20.123  17.969 -12.067  1.00  0.00     0.053 C 
BRANCH   6   7
ATOM      7  C   UNL     1      19.791  18.056 -10.610  1.00  0.00     0.041 C 
ATOM      8  O   UNL     1      20.554  17.536  -9.755  1.00  0.00    -0.550 OA
ATOM      9  O   UNL     1      18.664  18.753 -10.195  1.00  0.00    -0.550 OA
ENDBRANCH   6   7
ENDBRANCH   5   6
ENDBRANCH   4   5
ENDBRANCH   3   4
ENDBRANCH   2   3
ENDBRANCH   1   2
BRANCH   1  10
ATOM     10  C   UNL     1      15.712  22.501 -12.808  1.00  0.00     0.000 C 
BRANCH  10  11
ATOM     11  C   UNL     1      14.387  23.252 -13.020  1.00  0.00    -0.000 C 
BRANCH  11  12
ATOM     12  C   UNL     1      13.161  22.425 -12.594  1.00  0.00    -0.000 C 
BRANCH  12  13
ATOM     13  C   UNL     1      11.969  22.590 -13.554  1.00  0.00    -0.000 C 
BRANCH  13  14
ATOM     14  C   UNL     1      10.920  23.628 -13.114  1.00  0.00    -0.000 C 
BRANCH  14  15
ATOM     15  C   UNL     1      10.469  23.444 -11.658  1.00  0.00    -0.000 C 
BRANCH  15  16
ATOM     16  C   UNL     1      10.430  24.788 -10.921  1.00  0.00    -0.003 C 
ATOM     17  C   UNL     1      11.833  25.362 -10.749  1.00  0.00     0.004 C 
ENDBRANCH  15  16
ENDBRANCH  14  15
ENDBRANCH  13  14
ENDBRANCH  12  13
ENDBRANCH  11  12
ENDBRANCH  10  11
ENDBRANCH   1  10
TORSDOF 13
ENDMDL
MODEL 2
REMARK VINA RESULT:    -4.586     10.812     13.349
REMARK INTER + INTRA:          -8.862
REMARK INTER:                  -6.597
REMARK INTRA:                  -2.265
REMARK UNBOUND:                -0.790
REMARK SMILES CCCCCCCCCCCCCCC(=O)[O-]
REMARK SMILES IDX 9 1 10 2 11 3 12 4 13 5 14 6 15 7 16 8 17 9 8 10 7 11 6 12
REMARK SMILES IDX 5 13 4 14 3 15 2 16 1 17
REMARK H PARENT
REMARK Flexibility Score: inf
ROOT
ATOM      1  C   UNL     1       5.039  13.387 -10.788  1.00  0.00     0.000 C 
ENDROOT
BRANCH   1   2
ATOM      2  C   UNL     1       4.520  14.507  -9.867  1.00  0.00     0.000 C 
BRANCH   2   3
ATOM      3  C   UNL     1       4.295  14.093  -8.402  1.00  0.00     0.000 C 
BRANCH   3   4
ATOM      4  C   UNL     1       4.479  15.259  -7.415  1.00  0.00     0.000 C 
BRANCH   4   5
ATOM      5  C   UNL     1       5.006  16.531  -8.096  1.00  0.00     0.006 C 
BRANCH   5   6
ATOM      6  C   UNL     1       5.066  17.730  -7.139  1.00  0.00     0.053 C 
BRANCH   6   7
ATOM      7  C   UNL     1       6.230  17.596  -6.208  1.00  0.00     0.041 C 
ATOM      8  O   UNL     1       7.324  17.131  -6.623  1.00  0.00    -0.550 OA
ATOM      9  O   UNL     1       6.121  18.029  -4.893  1.00  0.00    -0.550 OA
ENDBRANCH   6   7
ENDBRANCH   5   6
ENDBRANCH   4   5
ENDBRANCH   3   4
ENDBRANCH   2   3
ENDBRANCH   1   2
BRANCH   1  10
ATOM     10  C   UNL     1       5.955  13.909 -11.909  1.00  0.00     0.000 C 
BRANCH  10  11
ATOM     11  C   UNL     1       6.750  15.155 -11.485  1.00  0.00    -0.000 C 
BRANCH  11  12
ATOM     12  C   UNL     1       8.175  14.816 -11.009  1.00  0.00    -0.000 C 
BRANCH  12  13
ATOM     13  C   UNL     1       8.446  15.275  -9.565  1.00  0.00    -0.000 C 
BRANCH  13  14
ATOM     14  C   UNL     1       7.973  14.298  -8.474  1.00  0.00    -0.000 C 
BRANCH  14  15
ATOM     15  C   UNL     1       8.588  12.898  -8.616  1.00  0.00    -0.000 C 
BRANCH  15  16
ATOM     16  C   UNL     1       7.497  11.822  -8.678  1.00  0.00    -0.003 C 
ATOM     17  C   UNL     1       7.775  10.819  -9.793  1.00  0.00     0.004 C 
ENDBRANCH  15  16
ENDBRANCH  14  15
ENDBRANCH  13  14
ENDBRANCH  12  13
ENDBRANCH  11  12
ENDBRANCH  10  11
ENDBRANCH   1  10
TORSDOF 13
ENDMDL
MODEL 3
REMARK VINA RESULT:    -4.565      3.659      8.751
REMARK INTER + INTRA:          -8.825
REMARK INTER:                  -7.832
REMARK INTRA:                  -0.993
REMARK UNBOUND:                -0.790
REMARK SMILES CCCCCCCCCCCCCCC(=O)[O-]
REMARK SMILES IDX 9 1 10 2 11 3 12 4 13 5 14 6 15 7 16 8 17 9 8 10 7 11 6 12
REMARK SMILES IDX 5 13 4 14 3 15 2 16 1 17
REMARK H PARENT
REMARK Flexibility Score: inf
ROOT
ATOM      1  C   UNL     1      17.030  21.385 -12.792  1.00  0.00     0.000 C 
ENDROOT
BRANCH   1   2
ATOM      2  C   UNL     1      15.916  20.509 -12.190  1.00  0.00     0.000 C 
BRANCH   2   3
ATOM      3  C   UNL     1      14.598  21.245 -11.890  1.00  0.00     0.000 C 
BRANCH   3   4
ATOM      4  C   UNL     1      14.640  22.732 -12.282  1.00  0.00     0.000 C 
BRANCH   4   5
ATOM      5  C   UNL     1      13.646  23.077 -13.402  1.00  0.00     0.006 C 
BRANCH   5   6
ATOM      6  C   UNL     1      12.751  24.272 -13.047  1.00  0.00     0.053 C 
BRANCH   6   7
ATOM      7  C   UNL     1      11.912  23.958 -11.848  1.00  0.00     0.041 C 
ATOM      8  O   UNL     1      12.018  24.650 -10.802  1.00  0.00    -0.550 OA
ATOM      9  O   UNL     1      10.979  22.932 -11.903  1.00  0.00    -0.550 OA
ENDBRANCH   6   7
ENDBRANCH   5   6
ENDBRANCH   4   5
ENDBRANCH   3   4
ENDBRANCH   2   3
ENDBRANCH   1   2
BRANCH   1  10
ATOM     10  C   UNL     1      18.143  20.563 -13.464  1.00  0.00     0.000 C 
BRANCH  10  11
ATOM     11  C   UNL     1      17.832  19.057 -13.482  1.00  0.00    -0.000 C 
BRANCH  11  12
ATOM     12  C   UNL     1      18.874  18.226 -12.713  1.00  0.00    -0.000 C 
BRANCH  12  13
ATOM     13  C   UNL     1      18.675  18.285 -11.188  1.00  0.00    -0.000 C 
BRANCH  13  14
ATOM     14  C   UNL     1      19.976  18.345 -10.367  1.00  0.00    -0.000 C 
BRANCH  14  15
ATOM     15  C   UNL     1      20.733  17.008 -10.343  1.00  0.00    -0.000 C 
BRANCH  15  16
ATOM     16  C   UNL     1      22.188  17.194 -10.788  1.00  0.00    -0.003 C 
ATOM     17  C   UNL     1      22.406  16.650 -12.198  1.00  0.00     0.004 C 
ENDBRANCH  15  16
ENDBRANCH  14  15
ENDBRANCH  13  14
ENDBRANCH  12  13
ENDBRANCH  11  12
ENDBRANCH  10  11
ENDBRANCH   1  10
TORSDOF 13
ENDMDL
MODEL 4
REMARK VINA RESULT:    -4.549      4.080      9.417
REMARK INTER + INTRA:          -8.797
REMARK INTER:                  -7.497
REMARK INTRA:                  -1.300
REMARK UNBOUND:                -0.790
REMARK SMILES CCCCCCCCCCCCCCC(=O)[O-]
REMARK SMILES IDX 9 1 10 2 11 3 12 4 13 5 14 6 15 7 16 8 17 9 8 10 7 11 6 12
REMARK SMILES IDX 5 13 4 14 3 15 2 16 1 17
REMARK H PARENT
REMARK Flexibility Score: inf
ROOT
ATOM      1  C   UNL     1      19.589  16.826 -11.714  1.00  0.00     0.000 C 
ENDROOT
BRANCH   1   2
ATOM      2  C   UNL     1      19.247  17.392 -13.105  1.00  0.00     0.000 C 
BRANCH   2   3
ATOM      3  C   UNL     1      20.245  18.431 -13.649  1.00  0.00     0.000 C 
BRANCH   3   4
ATOM      4  C   UNL     1      19.611  19.817 -13.858  1.00  0.00     0.000 C 
BRANCH   4   5
ATOM      5  C   UNL     1      18.078  19.760 -13.933  1.00  0.00     0.006 C 
BRANCH   5   6
ATOM      6  C   UNL     1      17.410  20.964 -13.254  1.00  0.00     0.053 C 
BRANCH   6   7
ATOM      7  C   UNL     1      16.501  20.505 -12.157  1.00  0.00     0.041 C 
ATOM      8  O   UNL     1      16.785  19.480 -11.485  1.00  0.00    -0.550 OA
ATOM      9  O   UNL     1      15.363  21.238 -11.847  1.00  0.00    -0.550 OA
ENDBRANCH   6   7
ENDBRANCH   5   6
ENDBRANCH   4   5
ENDBRANCH   3   4
ENDBRANCH   2   3
ENDBRANCH   1   2
BRANCH   1  10
ATOM     10  C   UNL     1      19.757  17.922 -10.647  1.00  0.00     0.000 C 
BRANCH  10  11
ATOM     11  C   UNL     1      21.173  17.949 -10.051  1.00  0.00    -0.000 C 
BRANCH  11  12
ATOM     12  C   UNL     1      22.100  16.890 -10.674  1.00  0.00    -0.000 C 
BRANCH  12  13
ATOM     13  C   UNL     1      23.494  16.860 -10.022  1.00  0.00    -0.000 C 
BRANCH  13  14
ATOM     14  C   UNL     1      23.711  15.721  -9.009  1.00  0.00    -0.000 C 
BRANCH  14  15
ATOM     15  C   UNL     1      22.822  15.848  -7.763  1.00  0.00    -0.000 C 
BRANCH  15  16
ATOM     16  C   UNL     1      22.141  14.513  -7.437  1.00  0.00    -0.003 C 
ATOM     17  C   UNL     1      21.302  14.021  -8.613  1.00  0.00     0.004 C 
ENDBRANCH  15  16
ENDBRANCH  14  15
ENDBRANCH  13  14
ENDBRANCH  12  13
ENDBRANCH  11  12
ENDBRANCH  10  11
ENDBRANCH   1  10
TORSDOF 13
ENDMDL
MODEL 5
REMARK VINA RESULT:    -4.534      4.304      9.287
REMARK INTER + INTRA:          -8.769
REMARK INTER:                  -7.000
REMARK INTRA:                  -1.770
REMARK UNBOUND:                -0.790
REMARK SMILES CCCCCCCCCCCCCCC(=O)[O-]
REMARK SMILES IDX 9 1 10 2 11 3 12 4 13 5 14 6 15 7 16 8 17 9 8 10 7 11 6 12
REMARK SMILES IDX 5 13 4 14 3 15 2 16 1 17
REMARK H PARENT
REMARK Flexibility Score: inf
ROOT
ATOM      1  C   UNL     1      19.609  18.068 -10.733  1.00  0.00     0.000 C 
ENDROOT
BRANCH   1   2
ATOM      2  C   UNL     1      19.370  17.042 -11.856  1.00  0.00     0.000 C 
BRANCH   2   3
ATOM      3  C   UNL     1      19.115  17.648 -13.248  1.00  0.00     0.000 C 
BRANCH   3   4
ATOM      4  C   UNL     1      19.947  18.915 -13.511  1.00  0.00     0.000 C 
BRANCH   4   5
ATOM      5  C   UNL     1      19.076  20.126 -13.882  1.00  0.00     0.006 C 
BRANCH   5   6
ATOM      6  C   UNL     1      17.575  19.820 -13.796  1.00  0.00     0.053 C 
BRANCH   6   7
ATOM      7  C   UNL     1      16.947  20.600 -12.684  1.00  0.00     0.041 C 
ATOM      8  O   UNL     1      16.543  21.775 -12.884  1.00  0.00    -0.550 OA
ATOM      9  O   UNL     1      16.764  20.011 -11.440  1.00  0.00    -0.550 OA
ENDBRANCH   6   7
ENDBRANCH   5   6
ENDBRANCH   4   5
ENDBRANCH   3   4
ENDBRANCH   2   3
ENDBRANCH   1   2
BRANCH   1  10
ATOM     10  C   UNL     1      20.954  17.867 -10.013  1.00  0.00     0.000 C 
BRANCH  10  11
ATOM     11  C   UNL     1      21.982  17.128 -10.885  1.00  0.00    -0.000 C 
BRANCH  11  12
ATOM     12  C   UNL     1      22.900  16.203 -10.066  1.00  0.00    -0.000 C 
BRANCH  12  13
ATOM     13  C   UNL     1      22.148  15.448  -8.955  1.00  0.00    -0.000 C 
BRANCH  13  14
ATOM     14  C   UNL     1      21.837  13.973  -9.269  1.00  0.00    -0.000 C 
BRANCH  14  15
ATOM     15  C   UNL     1      20.348  13.630  -9.127  1.00  0.00    -0.000 C 
BRANCH  15  16
ATOM     16  C   UNL     1      19.608  13.831 -10.455  1.00  0.00    -0.003 C 
ATOM     17  C   UNL     1      20.487  13.438 -11.639  1.00  0.00     0.004 C 
ENDBRANCH  15  16
ENDBRANCH  14  15
ENDBRANCH  13  14
ENDBRANCH  12  13
ENDBRANCH  11  12
ENDBRANCH  10  11
ENDBRANCH   1  10
TORSDOF 13
ENDMDL
MODEL 6
REMARK VINA RESULT:    -4.481     10.729     13.250
REMARK INTER + INTRA:          -8.676
REMARK INTER:                  -7.029
REMARK INTRA:                  -1.647
REMARK UNBOUND:                -0.790
REMARK SMILES CCCCCCCCCCCCCCC(=O)[O-]
REMARK SMILES IDX 9 1 10 2 11 3 12 4 13 5 14 6 15 7 16 8 17 9 8 10 7 11 6 12
REMARK SMILES IDX 5 13 4 14 3 15 2 16 1 17
REMARK H PARENT
REMARK Flexibility Score: inf
ROOT
ATOM      1  C   UNL     1       8.019  15.323  -9.058  1.00  0.00     0.000 C 
ENDROOT
BRANCH   1   2
ATOM      2  C   UNL     1       6.480  15.262  -9.097  1.00  0.00     0.000 C 
BRANCH   2   3
ATOM      3  C   UNL     1       5.831  14.470  -7.948  1.00  0.00     0.000 C 
BRANCH   3   4
ATOM      4  C   UNL     1       4.596  15.175  -7.359  1.00  0.00     0.000 C 
BRANCH   4   5
ATOM      5  C   UNL     1       4.638  16.698  -7.551  1.00  0.00     0.006 C 
BRANCH   5   6
ATOM      6  C   UNL     1       4.593  17.461  -6.219  1.00  0.00     0.053 C 
BRANCH   6   7
ATOM      7  C   UNL     1       5.979  17.781  -5.754  1.00  0.00     0.041 C 
ATOM      8  O   UNL     1       6.951  17.688  -6.548  1.00  0.00    -0.550 OA
ATOM      9  O   UNL     1       6.190  18.229  -4.456  1.00  0.00    -0.550 OA
ENDBRANCH   6   7
ENDBRANCH   5   6
ENDBRANCH   4   5
ENDBRANCH   3   4
ENDBRANCH   2   3
ENDBRANCH   1   2
BRANCH   1  10
ATOM     10  C   UNL     1       8.672  14.821 -10.358  1.00  0.00     0.000 C 
BRANCH  10  11
ATOM     11  C   UNL     1       8.230  13.395 -10.725  1.00  0.00    -0.000 C 
BRANCH  11  12
ATOM     12  C   UNL     1       9.419  12.441 -10.941  1.00  0.00    -0.000 C 
BRANCH  12  13
ATOM     13  C   UNL     1      10.746  13.015 -10.414  1.00  0.00    -0.000 C 
BRANCH  13  14
ATOM     14  C   UNL     1      11.286  12.338  -9.141  1.00  0.00    -0.000 C 
BRANCH  14  15
ATOM     15  C   UNL     1      10.306  11.318  -8.543  1.00  0.00    -0.000 C 
BRANCH  15  16
ATOM     16  C   UNL     1       9.649  11.868  -7.272  1.00  0.00    -0.003 C 
ATOM     17  C   UNL     1       8.131  11.721  -7.330  1.00  0.00     0.004 C 
ENDBRANCH  15  16
ENDBRANCH  14  15
ENDBRANCH  13  14
ENDBRANCH  12  13
ENDBRANCH  11  12
ENDBRANCH  10  11
ENDBRANCH   1  10
TORSDOF 13
ENDMDL
MODEL 7
REMARK VINA RESULT:    -4.466      3.474      8.321
REMARK INTER + INTRA:          -8.651
REMARK INTER:                  -7.736
REMARK INTRA:                  -0.915
REMARK UNBOUND:                -0.790
REMARK SMILES CCCCCCCCCCCCCCC(=O)[O-]
REMARK SMILES IDX 9 1 10 2 11 3 12 4 13 5 14 6 15 7 16 8 17 9 8 10 7 11 6 12
REMARK SMILES IDX 5 13 4 14 3 15 2 16 1 17
REMARK H PARENT
REMARK Flexibility Score: inf
ROOT
ATOM      1  C   UNL     1      14.829  22.775 -12.340  1.00  0.00     0.000 C 
ENDROOT
BRANCH   1   2
ATOM      2  C   UNL     1      14.277  23.170 -13.722  1.00  0.00     0.000 C 
BRANCH   2   3
ATOM      3  C   UNL     1      12.899  23.856 -13.700  1.00  0.00     0.000 C 
BRANCH   3   4
ATOM      4  C   UNL     1      11.759  22.899 -13.314  1.00  0.00     0.000 C 
BRANCH   4   5
ATOM      5  C   UNL     1      11.210  23.173 -11.905  1.00  0.00     0.006 C 
BRANCH   5   6
ATOM      6  C   UNL     1      10.657  24.597 -11.755  1.00  0.00     0.053 C 
BRANCH   6   7
ATOM      7  C   UNL     1      11.381  25.325 -10.666  1.00  0.00     0.041 C 
ATOM      8  O   UNL     1      10.778  26.178  -9.964  1.00  0.00    -0.550 OA
ATOM      9  O   UNL     1      12.710  25.027 -10.395  1.00  0.00    -0.550 OA
ENDBRANCH   6   7
ENDBRANCH   5   6
ENDBRANCH   4   5
ENDBRANCH   3   4
ENDBRANCH   2   3
ENDBRANCH   1   2
BRANCH   1  10
ATOM     10  C   UNL     1      14.713  21.268 -12.056  1.00  0.00     0.000 C 
BRANCH  10  11
ATOM     11  C   UNL     1      16.072  20.552 -12.116  1.00  0.00    -0.000 C 
BRANCH  11  12
ATOM     12  C   UNL     1      17.125  21.343 -12.912  1.00  0.00    -0.000 C 
BRANCH  12  13
ATOM     13  C   UNL     1      18.290  20.462 -13.399  1.00  0.00    -0.000 C 
BRANCH  13  14
ATOM     14  C   UNL     1      17.949  18.970 -13.566  1.00  0.00    -0.000 C 
BRANCH  14  15
ATOM     15  C   UNL     1      18.862  18.050 -12.743  1.00  0.00    -0.000 C 
BRANCH  15  16
ATOM     16  C   UNL     1      18.719  18.335 -11.243  1.00  0.00    -0.003 C 
ATOM     17  C   UNL     1      20.059  18.195 -10.526  1.00  0.00     0.004 C 
ENDBRANCH  15  16
ENDBRANCH  14  15
ENDBRANCH  13  14
ENDBRANCH  12  13
ENDBRANCH  11  12
ENDBRANCH  10  11
ENDBRANCH   1  10
TORSDOF 13
ENDMDL
MODEL 8
REMARK VINA RESULT:    -4.374     10.853     12.963
REMARK INTER + INTRA:          -8.489
REMARK INTER:                  -6.308
REMARK INTRA:                  -2.181
REMARK UNBOUND:                -0.790
REMARK SMILES CCCCCCCCCCCCCCC(=O)[O-]
REMARK SMILES IDX 9 1 10 2 11 3 12 4 13 5 14 6 15 7 16 8 17 9 8 10 7 11 6 12
REMARK SMILES IDX 5 13 4 14 3 15 2 16 1 17
REMARK H PARENT
REMARK Flexibility Score: inf
ROOT
ATOM      1  C   UNL     1       8.918  14.375 -10.080  1.00  0.00     0.000 C 
ENDROOT
BRANCH   1   2
ATOM      2  C   UNL     1       8.097  15.671  -9.947  1.00  0.00     0.000 C 
BRANCH   2   3
ATOM      3  C   UNL     1       7.770  16.090  -8.502  1.00  0.00     0.000 C 
BRANCH   3   4
ATOM      4  C   UNL     1       6.792  15.128  -7.806  1.00  0.00     0.000 C 
BRANCH   4   5
ATOM      5  C   UNL     1       5.406  15.753  -7.585  1.00  0.00     0.006 C 
BRANCH   5   6
ATOM      6  C   UNL     1       5.437  17.287  -7.634  1.00  0.00     0.053 C 
BRANCH   6   7
ATOM      7  C   UNL     1       5.502  17.852  -6.250  1.00  0.00     0.041 C 
ATOM      8  O   UNL     1       4.671  17.489  -5.378  1.00  0.00    -0.550 OA
ATOM      9  O   UNL     1       6.511  18.744  -5.910  1.00  0.00    -0.550 OA
ENDBRANCH   6   7
ENDBRANCH   5   6
ENDBRANCH   4   5
ENDBRANCH   3   4
ENDBRANCH   2   3
ENDBRANCH   1   2
BRANCH   1  10
ATOM     10  C   UNL     1       8.388  13.440 -11.180  1.00  0.00     0.000 C 
BRANCH  10  11
ATOM     11  C   UNL     1       8.102  12.022 -10.659  1.00  0.00    -0.000 C 
BRANCH  11  12
ATOM     12  C   UNL     1       6.932  11.983  -9.659  1.00  0.00    -0.000 C 
BRANCH  12  13
ATOM     13  C   UNL     1       5.558  11.925 -10.350  1.00  0.00    -0.000 C 
BRANCH  13  14
ATOM     14  C   UNL     1       4.545  12.980  -9.869  1.00  0.00    -0.000 C 
BRANCH  14  15
ATOM     15  C   UNL     1       3.948  13.806 -11.018  1.00  0.00    -0.000 C 
BRANCH  15  16
ATOM     16  C   UNL     1       4.727  15.112 -11.217  1.00  0.00    -0.003 C 
ATOM     17  C   UNL     1       5.434  15.130 -12.569  1.00  0.00     0.004 C 
ENDBRANCH  15  16
ENDBRANCH  14  15
ENDBRANCH  13  14
ENDBRANCH  12  13
ENDBRANCH  11  12
ENDBRANCH  10  11
ENDBRANCH   1  10
TORSDOF 13
ENDMDL
MODEL 9
REMARK VINA RESULT:    -4.330     10.583     13.316
REMARK INTER + INTRA:          -8.412
REMARK INTER:                  -6.911
REMARK INTRA:                  -1.501
REMARK UNBOUND:                -0.790
REMARK SMILES CCCCCCCCCCCCCCC(=O)[O-]
REMARK SMILES IDX 9 1 10 2 11 3 12 4 13 5 14 6 15 7 16 8 17 9 8 10 7 11 6 12
REMARK SMILES IDX 5 13 4 14 3 15 2 16 1 17
REMARK H PARENT
REMARK Flexibility Score: inf
ROOT
ATOM      1  C   UNL     1       6.043  13.775 -10.437  1.00  0.00     0.000 C 
ENDROOT
BRANCH   1   2
ATOM      2  C   UNL     1       4.760  14.523 -10.030  1.00  0.00     0.000 C 
BRANCH   2   3
ATOM      3  C   UNL     1       4.179  14.123  -8.662  1.00  0.00     0.000 C 
BRANCH   3   4
ATOM      4  C   UNL     1       4.611  15.069  -7.528  1.00  0.00     0.000 C 
BRANCH   4   5
ATOM      5  C   UNL     1       5.033  16.453  -8.043  1.00  0.00     0.006 C 
BRANCH   5   6
ATOM      6  C   UNL     1       4.907  17.544  -6.971  1.00  0.00     0.053 C 
BRANCH   6   7
ATOM      7  C   UNL     1       6.182  17.662  -6.195  1.00  0.00     0.041 C 
ATOM      8  O   UNL     1       6.172  18.130  -5.027  1.00  0.00    -0.550 OA
ATOM      9  O   UNL     1       7.374  17.210  -6.745  1.00  0.00    -0.550 OA
ENDBRANCH   6   7
ENDBRANCH   5   6
ENDBRANCH   4   5
ENDBRANCH   3   4
ENDBRANCH   2   3
ENDBRANCH   1   2
BRANCH   1  10
ATOM     10  C   UNL     1       7.203  14.722 -10.792  1.00  0.00     0.000 C 
BRANCH  10  11
ATOM     11  C   UNL     1       8.374  14.614  -9.802  1.00  0.00    -0.000 C 
BRANCH  11  12
ATOM     12  C   UNL     1       7.992  13.871  -8.509  1.00  0.00    -0.000 C 
BRANCH  12  13
ATOM     13  C   UNL     1       8.861  12.625  -8.259  1.00  0.00    -0.000 C 
BRANCH  13  14
ATOM     14  C   UNL     1       9.202  11.809  -9.519  1.00  0.00    -0.000 C 
BRANCH  14  15
ATOM     15  C   UNL     1      10.680  11.397  -9.585  1.00  0.00    -0.000 C 
BRANCH  15  16
ATOM     16  C   UNL     1      11.586  12.626  -9.726  1.00  0.00    -0.003 C 
ATOM     17  C   UNL     1      12.123  12.754 -11.149  1.00  0.00     0.004 C 
ENDBRANCH  15  16
ENDBRANCH  14  15
ENDBRANCH  13  14
ENDBRANCH  12  13
ENDBRANCH  11  12
ENDBRANCH  10  11
ENDBRANCH   1  10
TORSDOF 13
ENDMDL
