MODEL 1
REMARK VINA RESULT:    -3.737      0.000      0.000
REMARK INTER + INTRA:          -4.504
REMARK INTER:                  -4.502
REMARK INTRA:                  -0.002
REMARK UNBOUND:                -0.002
REMARK SMILES OCC(O)CO
REMARK SMILES IDX 3 1 5 2 6 3 2 5 1 6 4 8
REMARK H PARENT 6 4 1 7 4 9
REMARK Flexibility Score: inf
ROOT
ATOM      1  C   UNL     1      -5.284   1.881  -5.347  1.00  0.00     0.165 C 
ENDROOT
BRANCH   1   2
ATOM      2  C   UNL     1      -6.139   1.156  -6.397  1.00  0.00     0.190 C 
BRANCH   2   3
ATOM      3  O   UNL     1      -5.637   1.399  -7.682  1.00  0.00    -0.394 OA
ATOM      4  H   UNL     1      -5.438   0.508  -8.073  1.00  0.00     0.210 HD
ENDBRANCH   2   3
ENDBRANCH   1   2
BRANCH   1   5
ATOM      5  C   UNL     1      -5.271   1.141  -4.000  1.00  0.00     0.190 C 
BRANCH   5   6
ATOM      6  O   UNL     1      -6.191   1.708  -3.105  1.00  0.00    -0.394 OA
ATOM      7  H   UNL     1      -5.670   2.045  -2.331  1.00  0.00     0.210 HD
ENDBRANCH   5   6
ENDBRANCH   1   5
BRANCH   1   8
ATOM      8  O   UNL     1      -5.770   3.183  -5.151  1.00  0.00    -0.388 OA
ATOM      9  H   UNL     1      -6.725   3.178  -5.426  1.00  0.00     0.211 HD
ENDBRANCH   1   8
TORSDOF 5
ENDMDL
MODEL 2
REMARK VINA RESULT:    -3.596      0.946      3.029
REMARK INTER + INTRA:          -4.334
REMARK INTER:                  -4.331
REMARK INTRA:                  -0.002
REMARK UNBOUND:                -0.002
REMARK SMILES OCC(O)CO
REMARK SMILES IDX 3 1 5 2 6 3 2 5 1 6 4 8
REMARK H PARENT 6 4 1 7 4 9
REMARK Flexibility Score: inf
ROOT
ATOM      1  C   UNL     1      -6.548   2.099  -5.483  1.00  0.00     0.165 C 
ENDROOT
BRANCH   1   2
ATOM      2  C   UNL     1      -7.100   1.501  -4.180  1.00  0.00     0.190 C 
BRANCH   2   3
ATOM      3  O   UNL     1      -6.185   1.684  -3.135  1.00  0.00    -0.394 OA
ATOM      4  H   UNL     1      -5.534   2.362  -3.456  1.00  0.00     0.210 HD
ENDBRANCH   2   3
ENDBRANCH   1   2
BRANCH   1   5
ATOM      5  C   UNL     1      -5.721   1.081  -6.283  1.00  0.00     0.190 C 
BRANCH   5   6
ATOM      6  O   UNL     1      -5.685   1.421  -7.644  1.00  0.00    -0.394 OA
ATOM      7  H   UNL     1      -5.163   2.263  -7.717  1.00  0.00     0.210 HD
ENDBRANCH   5   6
ENDBRANCH   1   5
BRANCH   1   8
ATOM      8  O   UNL     1      -5.748   3.216  -5.193  1.00  0.00    -0.388 OA
ATOM      9  H   UNL     1      -5.459   3.125  -4.247  1.00  0.00     0.211 HD
ENDBRANCH   1   8
TORSDOF 5
ENDMDL
MODEL 3
REMARK VINA RESULT:    -3.498      1.024      2.109
REMARK INTER + INTRA:          -4.216
REMARK INTER:                  -4.001
REMARK INTRA:                  -0.215
REMARK UNBOUND:                -0.002
REMARK SMILES OCC(O)CO
REMARK SMILES IDX 3 1 5 2 6 3 2 5 1 6 4 8
REMARK H PARENT 6 4 1 7 4 9
REMARK Flexibility Score: inf
ROOT
ATOM      1  C   UNL     1      -6.165   1.071  -6.019  1.00  0.00     0.165 C 
ENDROOT
BRANCH   1   2
ATOM      2  C   UNL     1      -7.377   1.994  -5.822  1.00  0.00     0.190 C 
BRANCH   2   3
ATOM      3  O   UNL     1      -6.996   3.155  -5.137  1.00  0.00    -0.394 OA
ATOM      4  H   UNL     1      -6.099   2.968  -4.757  1.00  0.00     0.210 HD
ENDBRANCH   2   3
ENDBRANCH   1   2
BRANCH   1   5
ATOM      5  C   UNL     1      -5.067   1.326  -4.976  1.00  0.00     0.190 C 
BRANCH   5   6
ATOM      6  O   UNL     1      -5.492   0.945  -3.694  1.00  0.00    -0.394 OA
ATOM      7  H   UNL     1      -5.956   1.729  -3.300  1.00  0.00     0.210 HD
ENDBRANCH   5   6
ENDBRANCH   1   5
BRANCH   1   8
ATOM      8  O   UNL     1      -5.630   1.254  -7.304  1.00  0.00    -0.388 OA
ATOM      9  H   UNL     1      -5.777   2.206  -7.544  1.00  0.00     0.211 HD
ENDBRANCH   1   8
TORSDOF 5
ENDMDL
MODEL 4
REMARK VINA RESULT:    -3.468      1.552      2.289
REMARK INTER + INTRA:          -4.180
REMARK INTER:                  -3.956
REMARK INTRA:                  -0.223
REMARK UNBOUND:                -0.002
REMARK SMILES OCC(O)CO
REMARK SMILES IDX 3 1 5 2 6 3 2 5 1 6 4 8
REMARK H PARENT 6 4 1 7 4 9
REMARK Flexibility Score: inf
ROOT
ATOM      1  C   UNL     1      -6.514   1.093  -5.191  1.00  0.00     0.165 C 
ENDROOT
BRANCH   1   2
ATOM      2  C   UNL     1      -5.298   1.332  -6.099  1.00  0.00     0.190 C 
BRANCH   2   3
ATOM      3  O   UNL     1      -5.686   1.308  -7.445  1.00  0.00    -0.394 OA
ATOM      4  H   UNL     1      -5.153   2.012  -7.898  1.00  0.00     0.210 HD
ENDBRANCH   2   3
ENDBRANCH   1   2
BRANCH   1   5
ATOM      5  C   UNL     1      -7.324   2.378  -4.958  1.00  0.00     0.190 C 
BRANCH   5   6
ATOM      6  O   UNL     1      -7.838   2.875  -6.165  1.00  0.00    -0.394 OA
ATOM      7  H   UNL     1      -8.777   2.557  -6.230  1.00  0.00     0.210 HD
ENDBRANCH   5   6
ENDBRANCH   1   5
BRANCH   1   8
ATOM      8  O   UNL     1      -6.092   0.585  -3.953  1.00  0.00    -0.388 OA
ATOM      9  H   UNL     1      -5.271   0.053  -4.124  1.00  0.00     0.211 HD
ENDBRANCH   1   8
TORSDOF 5
ENDMDL
MODEL 5
REMARK VINA RESULT:    -3.415      1.206      2.895
REMARK INTER + INTRA:          -4.116
REMARK INTER:                  -3.900
REMARK INTRA:                  -0.217
REMARK UNBOUND:                -0.002
REMARK SMILES OCC(O)CO
REMARK SMILES IDX 3 1 5 2 6 3 2 5 1 6 4 8
REMARK H PARENT 6 4 1 7 4 9
REMARK Flexibility Score: inf
ROOT
ATOM      1  C   UNL     1      -5.750   1.537  -4.916  1.00  0.00     0.165 C 
ENDROOT
BRANCH   1   2
ATOM      2  C   UNL     1      -6.478   2.849  -4.583  1.00  0.00     0.190 C 
BRANCH   2   3
ATOM      3  O   UNL     1      -7.449   3.125  -5.555  1.00  0.00    -0.394 OA
ATOM      4  H   UNL     1      -7.912   3.950  -5.255  1.00  0.00     0.210 HD
ENDBRANCH   2   3
ENDBRANCH   1   2
BRANCH   1   5
ATOM      5  C   UNL     1      -6.149   0.987  -6.294  1.00  0.00     0.190 C 
BRANCH   5   6
ATOM      6  O   UNL     1      -5.472   1.661  -7.321  1.00  0.00    -0.394 OA
ATOM      7  H   UNL     1      -5.874   1.360  -8.177  1.00  0.00     0.210 HD
ENDBRANCH   5   6
ENDBRANCH   1   5
BRANCH   1   8
ATOM      8  O   UNL     1      -6.033   0.573  -3.936  1.00  0.00    -0.388 OA
ATOM      9  H   UNL     1      -6.652  -0.085  -4.349  1.00  0.00     0.211 HD
ENDBRANCH   1   8
TORSDOF 5
ENDMDL
MODEL 6
REMARK VINA RESULT:    -3.326      1.584      2.199
REMARK INTER + INTRA:          -4.009
REMARK INTER:                  -3.810
REMARK INTRA:                  -0.200
REMARK UNBOUND:                -0.002
REMARK SMILES OCC(O)CO
REMARK SMILES IDX 3 1 5 2 6 3 2 5 1 6 4 8
REMARK H PARENT 6 4 1 7 4 9
REMARK Flexibility Score: inf
ROOT
ATOM      1  C   UNL     1      -6.290   1.095  -4.519  1.00  0.00     0.165 C 
ENDROOT
BRANCH   1   2
ATOM      2  C   UNL     1      -5.812   2.057  -5.617  1.00  0.00     0.190 C 
BRANCH   2   3
ATOM      3  O   UNL     1      -5.789   3.372  -5.133  1.00  0.00    -0.394 OA
ATOM      4  H   UNL     1      -6.624   3.799  -5.457  1.00  0.00     0.210 HD
ENDBRANCH   2   3
ENDBRANCH   1   2
BRANCH   1   5
ATOM      5  C   UNL     1      -7.483   1.660  -3.733  1.00  0.00     0.190 C 
BRANCH   5   6
ATOM      6  O   UNL     1      -7.060   2.251  -2.533  1.00  0.00    -0.394 OA
ATOM      7  H   UNL     1      -7.103   3.234  -2.666  1.00  0.00     0.210 HD
ENDBRANCH   5   6
ENDBRANCH   1   5
BRANCH   1   8
ATOM      8  O   UNL     1      -5.238   0.826  -3.629  1.00  0.00    -0.388 OA
ATOM      9  H   UNL     1      -4.403   0.812  -4.166  1.00  0.00     0.211 HD
ENDBRANCH   1   8
TORSDOF 5
ENDMDL
MODEL 7
REMARK VINA RESULT:    -3.278      8.068      8.804
REMARK INTER + INTRA:          -3.951
REMARK INTER:                  -3.829
REMARK INTRA:                  -0.122
REMARK UNBOUND:                -0.002
REMARK SMILES OCC(O)CO
REMARK SMILES IDX 3 1 5 2 6 3 2 5 1 6 4 8
REMARK H PARENT 6 4 1 7 4 9
REMARK Flexibility Score: inf
ROOT
ATOM      1  C   UNL     1      -2.301  -4.413 -10.204  1.00  0.00     0.165 C 
ENDROOT
BRANCH   1   2
ATOM      2  C   UNL     1      -1.293  -3.305 -10.547  1.00  0.00     0.190 C 
BRANCH   2   3
ATOM      3  O   UNL     1      -1.630  -2.120  -9.881  1.00  0.00    -0.394 OA
ATOM      4  H   UNL     1      -1.382  -1.380 -10.494  1.00  0.00     0.210 HD
ENDBRANCH   2   3
ENDBRANCH   1   2
BRANCH   1   5
ATOM      5  C   UNL     1      -1.695  -5.481  -9.280  1.00  0.00     0.190 C 
BRANCH   5   6
ATOM      6  O   UNL     1      -0.857  -4.898  -8.318  1.00  0.00    -0.394 OA
ATOM      7  H   UNL     1       0.041  -4.813  -8.732  1.00  0.00     0.210 HD
ENDBRANCH   5   6
ENDBRANCH   1   5
BRANCH   1   8
ATOM      8  O   UNL     1      -2.755  -5.027 -11.382  1.00  0.00    -0.388 OA
ATOM      9  H   UNL     1      -3.705  -5.274 -11.230  1.00  0.00     0.211 HD
ENDBRANCH   1   8
TORSDOF 5
ENDMDL
MODEL 8
REMARK VINA RESULT:    -3.230      1.193      2.812
REMARK INTER + INTRA:          -3.894
REMARK INTER:                  -3.675
REMARK INTRA:                  -0.219
REMARK UNBOUND:                -0.002
REMARK SMILES OCC(O)CO
REMARK SMILES IDX 3 1 5 2 6 3 2 5 1 6 4 8
REMARK H PARENT 6 4 1 7 4 9
REMARK Flexibility Score: inf
ROOT
ATOM      1  C   UNL     1      -5.900   1.893  -5.928  1.00  0.00     0.165 C 
ENDROOT
BRANCH   1   2
ATOM      2  C   UNL     1      -5.312   1.155  -4.715  1.00  0.00     0.190 C 
BRANCH   2   3
ATOM      3  O   UNL     1      -6.057   1.443  -3.564  1.00  0.00    -0.394 OA
ATOM      4  H   UNL     1      -5.765   0.790  -2.876  1.00  0.00     0.210 HD
ENDBRANCH   2   3
ENDBRANCH   1   2
BRANCH   1   5
ATOM      5  C   UNL     1      -7.413   2.120  -5.789  1.00  0.00     0.190 C 
BRANCH   5   6
ATOM      6  O   UNL     1      -7.684   3.369  -5.210  1.00  0.00    -0.394 OA
ATOM      7  H   UNL     1      -7.345   3.333  -4.277  1.00  0.00     0.210 HD
ENDBRANCH   5   6
ENDBRANCH   1   5
BRANCH   1   8
ATOM      8  O   UNL     1      -5.650   1.160  -7.099  1.00  0.00    -0.388 OA
ATOM      9  H   UNL     1      -6.533   0.965  -7.510  1.00  0.00     0.211 HD
ENDBRANCH   1   8
TORSDOF 5
ENDMDL
MODEL 9
REMARK VINA RESULT:    -3.229      8.014      9.096
REMARK INTER + INTRA:          -3.892
REMARK INTER:                  -3.675
REMARK INTRA:                  -0.217
REMARK UNBOUND:                -0.002
REMARK SMILES OCC(O)CO
REMARK SMILES IDX 3 1 5 2 6 3 2 5 1 6 4 8
REMARK H PARENT 6 4 1 7 4 9
REMARK Flexibility Score: inf
ROOT
ATOM      1  C   UNL     1      -0.198  -3.841 -10.771  1.00  0.00     0.165 C 
ENDROOT
BRANCH   1   2
ATOM      2  C   UNL     1      -1.573  -3.474 -10.190  1.00  0.00     0.190 C 
BRANCH   2   3
ATOM      3  O   UNL     1      -1.672  -2.087 -10.020  1.00  0.00    -0.394 OA
ATOM      4  H   UNL     1      -0.967  -1.839  -9.367  1.00  0.00     0.210 HD
ENDBRANCH   2   3
ENDBRANCH   1   2
BRANCH   1   5
ATOM      5  C   UNL     1       0.914  -3.771  -9.713  1.00  0.00     0.190 C 
BRANCH   5   6
ATOM      6  O   UNL     1       1.008  -2.483  -9.165  1.00  0.00    -0.394 OA
ATOM      7  H   UNL     1       1.534  -2.564  -8.327  1.00  0.00     0.210 HD
ENDBRANCH   5   6
ENDBRANCH   1   5
BRANCH   1   8
ATOM      8  O   UNL     1       0.119  -2.976 -11.830  1.00  0.00    -0.388 OA
ATOM      9  H   UNL     1      -0.086  -3.464 -12.671  1.00  0.00     0.211 HD
ENDBRANCH   1   8
TORSDOF 5
ENDMDL
