MODEL 1
REMARK VINA RESULT:    -4.394      0.000      0.000
REMARK INTER + INTRA:          -4.675
REMARK INTER:                  -4.651
REMARK INTRA:                  -0.024
REMARK UNBOUND:                -0.024
REMARK SMILES O=C([O-])c1cccnc1
REMARK SMILES IDX 4 1 5 2 9 3 6 4 8 5 7 6 2 7 1 8 3 9
REMARK H PARENT
REMARK Flexibility Score: inf
ROOT
ATOM      1  C   UNL     1      -5.109 -22.046  49.442  1.00  0.00     0.016 A 
ATOM      2  C   UNL     1      -5.650 -23.073  48.650  1.00  0.00     0.013 A 
ATOM      3  C   UNL     1      -3.987 -22.335  50.237  1.00  0.00     0.120 A 
ATOM      4  C   UNL     1      -5.074 -24.346  48.664  1.00  0.00     0.021 A 
ATOM      5  N   UNL     1      -3.446 -23.583  50.231  1.00  0.00    -0.264 NA
ATOM      6  C   UNL     1      -3.961 -24.584  49.470  1.00  0.00     0.111 A 
ENDROOT
BRANCH   1   7
ATOM      7  C   UNL     1      -5.704 -20.692  49.441  1.00  0.00     0.073 C 
ATOM      8  O   UNL     1      -6.675 -20.419  48.686  1.00  0.00    -0.545 OA
ATOM      9  O   UNL     1      -5.199 -19.701  50.275  1.00  0.00    -0.545 OA
ENDBRANCH   1   7
TORSDOF 1
ENDMDL
MODEL 2
REMARK VINA RESULT:    -4.244      2.901      3.702
REMARK INTER + INTRA:          -4.516
REMARK INTER:                  -4.493
REMARK INTRA:                  -0.023
REMARK UNBOUND:                -0.024
REMARK SMILES O=C([O-])c1cccnc1
REMARK SMILES IDX 4 1 5 2 9 3 6 4 8 5 7 6 2 7 1 8 3 9
REMARK H PARENT
REMARK Flexibility Score: inf
ROOT
ATOM      1  C   UNL     1      -3.130 -23.296  49.853  1.00  0.00     0.016 A 
ATOM      2  C   UNL     1      -3.821 -24.510  49.696  1.00  0.00     0.013 A 
ATOM      3  C   UNL     1      -3.714 -22.124  49.343  1.00  0.00     0.120 A 
ATOM      4  C   UNL     1      -5.057 -24.534  49.046  1.00  0.00     0.021 A 
ATOM      5  N   UNL     1      -4.919 -22.176  48.714  1.00  0.00    -0.264 NA
ATOM      6  C   UNL     1      -5.596 -23.345  48.556  1.00  0.00     0.111 A 
ENDROOT
BRANCH   1   7
ATOM      7  C   UNL     1      -1.821 -23.249  50.538  1.00  0.00     0.073 C 
ATOM      8  O   UNL     1      -1.335 -22.152  50.921  1.00  0.00    -0.545 OA
ATOM      9  O   UNL     1      -1.106 -24.419  50.768  1.00  0.00    -0.545 OA
ENDBRANCH   1   7
TORSDOF 1
ENDMDL
MODEL 3
REMARK VINA RESULT:    -4.242      2.772      3.736
REMARK INTER + INTRA:          -4.514
REMARK INTER:                  -4.492
REMARK INTRA:                  -0.022
REMARK UNBOUND:                -0.024
REMARK SMILES O=C([O-])c1cccnc1
REMARK SMILES IDX 4 1 5 2 9 3 6 4 8 5 7 6 2 7 1 8 3 9
REMARK H PARENT
REMARK Flexibility Score: inf
ROOT
ATOM      1  C   UNL     1      -3.509 -24.377  48.887  1.00  0.00     0.016 A 
ATOM      2  C   UNL     1      -2.328 -25.089  48.612  1.00  0.00     0.013 A 
ATOM      3  C   UNL     1      -3.514 -23.486  49.973  1.00  0.00     0.120 A 
ATOM      4  C   UNL     1      -1.197 -24.905  49.410  1.00  0.00     0.021 A 
ATOM      5  N   UNL     1      -2.398 -23.325  50.734  1.00  0.00    -0.264 NA
ATOM      6  C   UNL     1      -1.251 -24.009  50.478  1.00  0.00     0.111 A 
ENDROOT
BRANCH   1   7
ATOM      7  C   UNL     1      -4.717 -24.558  48.054  1.00  0.00     0.073 C 
ATOM      8  O   UNL     1      -5.863 -24.342  48.531  1.00  0.00    -0.545 OA
ATOM      9  O   UNL     1      -4.604 -24.971  46.732  1.00  0.00    -0.545 OA
ENDBRANCH   1   7
TORSDOF 1
ENDMDL
MODEL 4
REMARK VINA RESULT:    -4.173      2.837      4.066
REMARK INTER + INTRA:          -4.441
REMARK INTER:                  -4.418
REMARK INTRA:                  -0.023
REMARK UNBOUND:                -0.024
REMARK SMILES O=C([O-])c1cccnc1
REMARK SMILES IDX 4 1 5 2 9 3 6 4 8 5 7 6 2 7 1 8 3 9
REMARK H PARENT
REMARK Flexibility Score: inf
ROOT
ATOM      1  C   UNL     1      -4.303 -22.298  49.890  1.00  0.00     0.016 A 
ATOM      2  C   UNL     1      -4.036 -21.129  50.624  1.00  0.00     0.013 A 
ATOM      3  C   UNL     1      -5.307 -22.256  48.908  1.00  0.00     0.120 A 
ATOM      4  C   UNL     1      -4.761 -19.962  50.371  1.00  0.00     0.021 A 
ATOM      5  N   UNL     1      -5.998 -21.106  48.682  1.00  0.00    -0.264 NA
ATOM      6  C   UNL     1      -5.748 -19.970  49.386  1.00  0.00     0.111 A 
ENDROOT
BRANCH   1   7
ATOM      7  C   UNL     1      -3.547 -23.543  50.143  1.00  0.00     0.073 C 
ATOM      8  O   UNL     1      -2.446 -23.512  50.755  1.00  0.00    -0.545 OA
ATOM      9  O   UNL     1      -4.043 -24.767  49.708  1.00  0.00    -0.545 OA
ENDBRANCH   1   7
TORSDOF 1
ENDMDL
MODEL 5
REMARK VINA RESULT:    -4.137      2.817      3.577
REMARK INTER + INTRA:          -4.403
REMARK INTER:                  -4.380
REMARK INTRA:                  -0.023
REMARK UNBOUND:                -0.024
REMARK SMILES O=C([O-])c1cccnc1
REMARK SMILES IDX 4 1 5 2 9 3 6 4 8 5 7 6 2 7 1 8 3 9
REMARK H PARENT
REMARK Flexibility Score: inf
ROOT
ATOM      1  C   UNL     1      -4.363 -22.438  49.775  1.00  0.00     0.016 A 
ATOM      2  C   UNL     1      -5.354 -22.366  48.781  1.00  0.00     0.013 A 
ATOM      3  C   UNL     1      -4.041 -21.268  50.483  1.00  0.00     0.120 A 
ATOM      4  C   UNL     1      -5.994 -21.153  48.516  1.00  0.00     0.021 A 
ATOM      5  N   UNL     1      -4.679 -20.100  50.205  1.00  0.00    -0.264 NA
ATOM      6  C   UNL     1      -5.639 -20.019  49.245  1.00  0.00     0.111 A 
ENDROOT
BRANCH   1   7
ATOM      7  C   UNL     1      -3.675 -23.713  50.071  1.00  0.00     0.073 C 
ATOM      8  O   UNL     1      -4.192 -24.813  49.740  1.00  0.00    -0.545 OA
ATOM      9  O   UNL     1      -2.445 -23.714  50.720  1.00  0.00    -0.545 OA
ENDBRANCH   1   7
TORSDOF 1
ENDMDL
MODEL 6
REMARK VINA RESULT:    -4.110     11.378     12.231
REMARK INTER + INTRA:          -4.374
REMARK INTER:                  -4.350
REMARK INTRA:                  -0.024
REMARK UNBOUND:                -0.024
REMARK SMILES O=C([O-])c1cccnc1
REMARK SMILES IDX 4 1 5 2 9 3 6 4 8 5 7 6 2 7 1 8 3 9
REMARK H PARENT
REMARK Flexibility Score: inf
ROOT
ATOM      1  C   UNL     1      -7.291 -11.004  52.719  1.00  0.00     0.016 A 
ATOM      2  C   UNL     1      -6.728 -11.759  51.676  1.00  0.00     0.013 A 
ATOM      3  C   UNL     1      -8.649 -10.655  52.634  1.00  0.00     0.120 A 
ATOM      4  C   UNL     1      -7.514 -12.146  50.588  1.00  0.00     0.021 A 
ATOM      5  N   UNL     1      -9.392 -11.045  51.563  1.00  0.00    -0.264 NA
ATOM      6  C   UNL     1      -8.858 -11.775  50.548  1.00  0.00     0.111 A 
ENDROOT
BRANCH   1   7
ATOM      7  C   UNL     1      -6.475 -10.585  53.879  1.00  0.00     0.073 C 
ATOM      8  O   UNL     1      -5.219 -10.671  53.845  1.00  0.00    -0.545 OA
ATOM      9  O   UNL     1      -7.086 -10.090  55.025  1.00  0.00    -0.545 OA
ENDBRANCH   1   7
TORSDOF 1
ENDMDL
MODEL 7
REMARK VINA RESULT:    -4.098     11.469     12.240
REMARK INTER + INTRA:          -4.362
REMARK INTER:                  -4.338
REMARK INTRA:                  -0.024
REMARK UNBOUND:                -0.024
REMARK SMILES O=C([O-])c1cccnc1
REMARK SMILES IDX 4 1 5 2 9 3 6 4 8 5 7 6 2 7 1 8 3 9
REMARK H PARENT
REMARK Flexibility Score: inf
ROOT
ATOM      1  C   UNL     1      -7.355 -11.159  52.298  1.00  0.00     0.016 A 
ATOM      2  C   UNL     1      -5.996 -11.492  52.434  1.00  0.00     0.013 A 
ATOM      3  C   UNL     1      -7.942 -10.334  53.272  1.00  0.00     0.120 A 
ATOM      4  C   UNL     1      -5.261 -11.006  53.518  1.00  0.00     0.021 A 
ATOM      5  N   UNL     1      -7.203  -9.875  54.318  1.00  0.00    -0.264 NA
ATOM      6  C   UNL     1      -5.888 -10.191  54.460  1.00  0.00     0.111 A 
ENDROOT
BRANCH   1   7
ATOM      7  C   UNL     1      -8.150 -11.663  51.158  1.00  0.00     0.073 C 
ATOM      8  O   UNL     1      -9.374 -11.383  51.056  1.00  0.00    -0.545 OA
ATOM      9  O   UNL     1      -7.556 -12.454  50.181  1.00  0.00    -0.545 OA
ENDBRANCH   1   7
TORSDOF 1
ENDMDL
MODEL 8
REMARK VINA RESULT:    -3.999      1.823      2.220
REMARK INTER + INTRA:          -4.257
REMARK INTER:                  -4.235
REMARK INTRA:                  -0.022
REMARK UNBOUND:                -0.024
REMARK SMILES O=C([O-])c1cccnc1
REMARK SMILES IDX 4 1 5 2 9 3 6 4 8 5 7 6 2 7 1 8 3 9
REMARK H PARENT
REMARK Flexibility Score: inf
ROOT
ATOM      1  C   UNL     1      -5.308 -22.113  48.111  1.00  0.00     0.016 A 
ATOM      2  C   UNL     1      -5.572 -23.353  48.718  1.00  0.00     0.013 A 
ATOM      3  C   UNL     1      -4.540 -22.095  46.935  1.00  0.00     0.120 A 
ATOM      4  C   UNL     1      -5.076 -24.530  48.152  1.00  0.00     0.021 A 
ATOM      5  N   UNL     1      -4.069 -23.256  46.405  1.00  0.00    -0.264 NA
ATOM      6  C   UNL     1      -4.318 -24.461  46.983  1.00  0.00     0.111 A 
ENDROOT
BRANCH   1   7
ATOM      7  C   UNL     1      -5.824 -20.856  48.695  1.00  0.00     0.073 C 
ATOM      8  O   UNL     1      -5.974 -20.741  49.940  1.00  0.00    -0.545 OA
ATOM      9  O   UNL     1      -6.151 -19.782  47.874  1.00  0.00    -0.545 OA
ENDBRANCH   1   7
TORSDOF 1
ENDMDL
MODEL 9
REMARK VINA RESULT:    -3.967      2.861      3.748
REMARK INTER + INTRA:          -4.223
REMARK INTER:                  -4.200
REMARK INTRA:                  -0.023
REMARK UNBOUND:                -0.024
REMARK SMILES O=C([O-])c1cccnc1
REMARK SMILES IDX 4 1 5 2 9 3 6 4 8 5 7 6 2 7 1 8 3 9
REMARK H PARENT
REMARK Flexibility Score: inf
ROOT
ATOM      1  C   UNL     1      -3.172 -23.326  49.876  1.00  0.00     0.016 A 
ATOM      2  C   UNL     1      -3.762 -22.190  49.297  1.00  0.00     0.013 A 
ATOM      3  C   UNL     1      -3.860 -24.549  49.802  1.00  0.00     0.120 A 
ATOM      4  C   UNL     1      -5.004 -22.291  48.666  1.00  0.00     0.021 A 
ATOM      5  N   UNL     1      -5.068 -24.619  49.182  1.00  0.00    -0.264 NA
ATOM      6  C   UNL     1      -5.649 -23.526  48.618  1.00  0.00     0.111 A 
ENDROOT
BRANCH   1   7
ATOM      7  C   UNL     1      -1.858 -23.240  50.549  1.00  0.00     0.073 C 
ATOM      8  O   UNL     1      -1.400 -22.127  50.924  1.00  0.00    -0.545 OA
ATOM      9  O   UNL     1      -1.107 -24.388  50.775  1.00  0.00    -0.545 OA
ENDBRANCH   1   7
TORSDOF 1
ENDMDL
