MODEL 1
REMARK VINA RESULT:    -2.880      0.000      0.000
REMARK INTER + INTRA:          -2.880
REMARK INTER:                  -2.880
REMARK INTRA:                   0.000
REMARK UNBOUND:                 0.000
REMARK SMILES CC(=O)[O-]
REMARK SMILES IDX 1 1 2 2 3 3 4 4
REMARK H PARENT
REMARK Flexibility Score: inf
ROOT
ATOM      1  C   UNL     1      -1.634  -2.980   3.441  1.00  0.00     0.063 C 
ATOM      2  C   UNL     1      -1.933  -2.752   4.884  1.00  0.00     0.038 C 
ATOM      3  O   UNL     1      -1.154  -3.192   5.769  1.00  0.00    -0.550 OA
ATOM      4  O   UNL     1      -3.102  -2.101   5.258  1.00  0.00    -0.550 OA
ENDROOT
TORSDOF 0
ENDMDL
MODEL 2
REMARK VINA RESULT:    -2.854      1.700      1.929
REMARK INTER + INTRA:          -2.854
REMARK INTER:                  -2.854
REMARK INTRA:                   0.000
REMARK UNBOUND:                 0.000
REMARK SMILES CC(=O)[O-]
REMARK SMILES IDX 1 1 2 2 3 3 4 4
REMARK H PARENT
REMARK Flexibility Score: inf
ROOT
ATOM      1  C   UNL     1      -1.536  -2.986   5.383  1.00  0.00     0.063 C 
ATOM      2  C   UNL     1      -1.940  -2.426   4.061  1.00  0.00     0.038 C 
ATOM      3  O   UNL     1      -1.551  -2.974   2.997  1.00  0.00    -0.550 OA
ATOM      4  O   UNL     1      -2.704  -1.267   4.000  1.00  0.00    -0.550 OA
ENDROOT
TORSDOF 0
ENDMDL
MODEL 3
REMARK VINA RESULT:    -2.747      1.536      1.884
REMARK INTER + INTRA:          -2.747
REMARK INTER:                  -2.747
REMARK INTRA:                   0.000
REMARK UNBOUND:                 0.000
REMARK SMILES CC(=O)[O-]
REMARK SMILES IDX 1 1 2 2 3 3 4 4
REMARK H PARENT
REMARK Flexibility Score: inf
ROOT
ATOM      1  C   UNL     1      -2.589  -1.428   4.074  1.00  0.00     0.063 C 
ATOM      2  C   UNL     1      -1.719  -2.618   4.293  1.00  0.00     0.038 C 
ATOM      3  O   UNL     1      -1.375  -3.338   3.320  1.00  0.00    -0.550 OA
ATOM      4  O   UNL     1      -1.328  -2.967   5.581  1.00  0.00    -0.550 OA
ENDROOT
TORSDOF 0
ENDMDL
MODEL 4
REMARK VINA RESULT:    -2.512     13.699     13.804
REMARK INTER + INTRA:          -2.512
REMARK INTER:                  -2.512
REMARK INTRA:                   0.000
REMARK UNBOUND:                 0.000
REMARK SMILES CC(=O)[O-]
REMARK SMILES IDX 1 1 2 2 3 3 4 4
REMARK H PARENT
REMARK Flexibility Score: inf
ROOT
ATOM      1  C   UNL     1       8.818   6.958   5.296  1.00  0.00     0.063 C 
ATOM      2  C   UNL     1       7.446   7.160   4.750  1.00  0.00     0.038 C 
ATOM      3  O   UNL     1       6.906   6.266   4.048  1.00  0.00    -0.550 OA
ATOM      4  O   UNL     1       6.779   8.359   4.970  1.00  0.00    -0.550 OA
ENDROOT
TORSDOF 0
ENDMDL
MODEL 5
REMARK VINA RESULT:    -2.424     13.684     13.776
REMARK INTER + INTRA:          -2.424
REMARK INTER:                  -2.424
REMARK INTRA:                   0.000
REMARK UNBOUND:                 0.000
REMARK SMILES CC(=O)[O-]
REMARK SMILES IDX 1 1 2 2 3 3 4 4
REMARK H PARENT
REMARK Flexibility Score: inf
ROOT
ATOM      1  C   UNL     1       6.951   6.244   3.913  1.00  0.00     0.063 C 
ATOM      2  C   UNL     1       7.508   7.283   4.825  1.00  0.00     0.038 C 
ATOM      3  O   UNL     1       8.620   7.103   5.386  1.00  0.00    -0.550 OA
ATOM      4  O   UNL     1       6.775   8.432   5.101  1.00  0.00    -0.550 OA
ENDROOT
TORSDOF 0
ENDMDL
MODEL 6
REMARK VINA RESULT:    -2.230     13.180     13.395
REMARK INTER + INTRA:          -2.230
REMARK INTER:                  -2.230
REMARK INTRA:                   0.000
REMARK UNBOUND:                 0.000
REMARK SMILES CC(=O)[O-]
REMARK SMILES IDX 1 1 2 2 3 3 4 4
REMARK H PARENT
REMARK Flexibility Score: inf
ROOT
ATOM      1  C   UNL     1       6.283   6.319   3.679  1.00  0.00     0.063 C 
ATOM      2  C   UNL     1       7.619   6.455   4.327  1.00  0.00     0.038 C 
ATOM      3  O   UNL     1       7.740   7.109   5.396  1.00  0.00    -0.550 OA
ATOM      4  O   UNL     1       8.744   5.904   3.726  1.00  0.00    -0.550 OA
ENDROOT
TORSDOF 0
ENDMDL
MODEL 7
REMARK VINA RESULT:    -2.194     13.328     13.475
REMARK INTER + INTRA:          -2.194
REMARK INTER:                  -2.194
REMARK INTRA:                   0.000
REMARK UNBOUND:                 0.000
REMARK SMILES CC(=O)[O-]
REMARK SMILES IDX 1 1 2 2 3 3 4 4
REMARK H PARENT
REMARK Flexibility Score: inf
ROOT
ATOM      1  C   UNL     1       8.709   6.631   5.002  1.00  0.00     0.063 C 
ATOM      2  C   UNL     1       7.926   6.161   3.823  1.00  0.00     0.038 C 
ATOM      3  O   UNL     1       8.520   5.726   2.802  1.00  0.00    -0.550 OA
ATOM      4  O   UNL     1       6.540   6.253   3.827  1.00  0.00    -0.550 OA
ENDROOT
TORSDOF 0
ENDMDL
MODEL 8
REMARK VINA RESULT:    -1.946     14.996     15.212
REMARK INTER + INTRA:          -1.946
REMARK INTER:                  -1.946
REMARK INTRA:                   0.000
REMARK UNBOUND:                 0.000
REMARK SMILES CC(=O)[O-]
REMARK SMILES IDX 1 1 2 2 3 3 4 4
REMARK H PARENT
REMARK Flexibility Score: inf
ROOT
ATOM      1  C   UNL     1      -5.854  -5.989  -9.462  1.00  0.00     0.063 C 
ATOM      2  C   UNL     1      -4.393  -6.247  -9.611  1.00  0.00     0.038 C 
ATOM      3  O   UNL     1      -3.585  -5.285  -9.680  1.00  0.00    -0.550 OA
ATOM      4  O   UNL     1      -3.924  -7.550  -9.728  1.00  0.00    -0.550 OA
ENDROOT
TORSDOF 0
ENDMDL
MODEL 9
REMARK VINA RESULT:    -1.694     12.947     13.478
REMARK INTER + INTRA:          -1.694
REMARK INTER:                  -1.694
REMARK INTRA:                   0.000
REMARK UNBOUND:                 0.000
REMARK SMILES CC(=O)[O-]
REMARK SMILES IDX 1 1 2 2 3 3 4 4
REMARK H PARENT
REMARK Flexibility Score: inf
ROOT
ATOM      1  C   UNL     1      -9.470  -4.528  -6.784  1.00  0.00     0.063 C 
ATOM      2  C   UNL     1      -8.130  -5.178  -6.706  1.00  0.00     0.038 C 
ATOM      3  O   UNL     1      -7.132  -4.523  -6.309  1.00  0.00    -0.550 OA
ATOM      4  O   UNL     1      -7.970  -6.494  -7.122  1.00  0.00    -0.550 OA
ENDROOT
TORSDOF 0
ENDMDL
