MODEL 1
REMARK VINA RESULT:    -5.758      0.000      0.000
REMARK INTER + INTRA:          -7.031
REMARK INTER:                  -6.768
REMARK INTRA:                  -0.263
REMARK UNBOUND:                -0.263
REMARK SMILES O=c1c(O)c(-c2ccc(O)c(O)c2)oc2cc(O)ccc12
REMARK SMILES IDX 5 1 3 2 2 3 1 4 21 5 15 6 14 7 16 8 17 9 19 10 20 11 6 12
REMARK SMILES IDX 7 13 8 14 9 15 13 16 11 17 10 18 12 20 4 22 18 24
REMARK H PARENT 10 19 12 21 4 23 18 25
REMARK Flexibility Score: inf
ROOT
ATOM      1  C   UNL     1      25.073  45.715  86.484  1.00  0.00     0.180 A 
ATOM      2  C   UNL     1      26.095  45.725  87.456  1.00  0.00     0.208 A 
ATOM      3  C   UNL     1      27.096  44.745  87.395  1.00  0.00     0.235 A 
ATOM      4  O   UNL     1      28.027  44.740  88.247  1.00  0.00    -0.285 OA
ATOM      5  C   UNL     1      27.047  43.769  86.387  1.00  0.00     0.069 A 
ATOM      6  C   UNL     1      25.979  43.813  85.465  1.00  0.00     0.142 A 
ATOM      7  O   UNL     1      25.056  44.764  85.552  1.00  0.00    -0.452 OA
ATOM      8  C   UNL     1      25.890  42.853  84.452  1.00  0.00     0.094 A 
ATOM      9  C   UNL     1      26.859  41.846  84.345  1.00  0.00     0.119 A 
ATOM     10  C   UNL     1      27.920  41.802  85.255  1.00  0.00     0.047 A 
ATOM     11  C   UNL     1      28.017  42.757  86.273  1.00  0.00     0.020 A 
ENDROOT
BRANCH   1  12
ATOM     12  C   UNL     1      23.992  46.727  86.468  1.00  0.00     0.025 A 
ATOM     13  C   UNL     1      24.230  48.047  86.048  1.00  0.00     0.016 A 
ATOM     14  C   UNL     1      23.189  48.978  86.019  1.00  0.00     0.051 A 
ATOM     15  C   UNL     1      21.893  48.602  86.396  1.00  0.00     0.157 A 
ATOM     16  C   UNL     1      22.688  46.349  86.824  1.00  0.00     0.062 A 
ATOM     17  C   UNL     1      21.642  47.280  86.798  1.00  0.00     0.158 A 
BRANCH  15  18
ATOM     18  O   UNL     1      20.857  49.534  86.369  1.00  0.00    -0.504 OA
ATOM     19  H   UNL     1      20.203  49.623  87.137  1.00  0.00     0.293 HD
ENDBRANCH  15  18
BRANCH  17  20
ATOM     20  O   UNL     1      20.362  46.871  87.172  1.00  0.00    -0.504 OA
ATOM     21  H   UNL     1      20.200  46.008  87.678  1.00  0.00     0.293 HD
ENDBRANCH  17  20
ENDBRANCH   1  12
BRANCH   2  22
ATOM     22  O   UNL     1      26.090  46.679  88.477  1.00  0.00    -0.502 OA
ATOM     23  H   UNL     1      25.315  47.314  88.621  1.00  0.00     0.293 HD
ENDBRANCH   2  22
BRANCH   9  24
ATOM     24  O   UNL     1      26.778  40.887  83.338  1.00  0.00    -0.508 OA
ATOM     25  H   UNL     1      25.924  40.740  82.814  1.00  0.00     0.293 HD
ENDBRANCH   9  24
TORSDOF 5
ENDMDL
MODEL 2
REMARK VINA RESULT:    -5.703      2.026      6.854
REMARK INTER + INTRA:          -6.966
REMARK INTER:                  -6.694
REMARK INTRA:                  -0.272
REMARK UNBOUND:                -0.263
REMARK SMILES O=c1c(O)c(-c2ccc(O)c(O)c2)oc2cc(O)ccc12
REMARK SMILES IDX 5 1 3 2 2 3 1 4 21 5 15 6 14 7 16 8 17 9 19 10 20 11 6 12
REMARK SMILES IDX 7 13 8 14 9 15 13 16 11 17 10 18 12 20 4 22 18 24
REMARK H PARENT 10 19 12 21 4 23 18 25
REMARK Flexibility Score: inf
ROOT
ATOM      1  C   UNL     1      23.874  44.227  86.756  1.00  0.00     0.180 A 
ATOM      2  C   UNL     1      23.606  43.922  88.106  1.00  0.00     0.208 A 
ATOM      3  C   UNL     1      22.813  44.806  88.854  1.00  0.00     0.235 A 
ATOM      4  O   UNL     1      22.550  44.549  90.062  1.00  0.00    -0.285 OA
ATOM      5  C   UNL     1      22.326  45.976  88.252  1.00  0.00     0.069 A 
ATOM      6  C   UNL     1      22.659  46.221  86.902  1.00  0.00     0.142 A 
ATOM      7  O   UNL     1      23.404  45.355  86.226  1.00  0.00    -0.452 OA
ATOM      8  C   UNL     1      22.200  47.382  86.268  1.00  0.00     0.094 A 
ATOM      9  C   UNL     1      21.409  48.303  86.968  1.00  0.00     0.119 A 
ATOM     10  C   UNL     1      21.076  48.061  88.304  1.00  0.00     0.047 A 
ATOM     11  C   UNL     1      21.531  46.905  88.947  1.00  0.00     0.020 A 
ENDROOT
BRANCH   1  12
ATOM     12  C   UNL     1      24.686  43.337  85.894  1.00  0.00     0.025 A 
ATOM     13  C   UNL     1      24.162  42.137  85.383  1.00  0.00     0.016 A 
ATOM     14  C   UNL     1      24.938  41.325  84.553  1.00  0.00     0.051 A 
ATOM     15  C   UNL     1      26.243  41.703  84.212  1.00  0.00     0.157 A 
ATOM     16  C   UNL     1      25.986  43.723  85.533  1.00  0.00     0.062 A 
ATOM     17  C   UNL     1      26.768  42.911  84.702  1.00  0.00     0.158 A 
BRANCH  15  18
ATOM     18  O   UNL     1      27.016  40.890  83.385  1.00  0.00    -0.504 OA
ATOM     19  H   UNL     1      27.577  41.275  82.635  1.00  0.00     0.293 HD
ENDBRANCH  15  18
BRANCH  17  20
ATOM     20  O   UNL     1      28.060  43.321  84.376  1.00  0.00    -0.504 OA
ATOM     21  H   UNL     1      28.865  42.722  84.514  1.00  0.00     0.293 HD
ENDBRANCH  17  20
ENDBRANCH   1  12
BRANCH   2  22
ATOM     22  O   UNL     1      24.145  42.775  88.694  1.00  0.00    -0.502 OA
ATOM     23  H   UNL     1      24.818  42.819  89.450  1.00  0.00     0.293 HD
ENDBRANCH   2  22
BRANCH   9  24
ATOM     24  O   UNL     1      20.948  49.460  86.344  1.00  0.00    -0.508 OA
ATOM     25  H   UNL     1      21.393  50.356  86.496  1.00  0.00     0.293 HD
ENDBRANCH   9  24
TORSDOF 5
ENDMDL
MODEL 3
REMARK VINA RESULT:    -5.687      2.178      6.911
REMARK INTER + INTRA:          -6.948
REMARK INTER:                  -6.654
REMARK INTRA:                  -0.294
REMARK UNBOUND:                -0.263
REMARK SMILES O=c1c(O)c(-c2ccc(O)c(O)c2)oc2cc(O)ccc12
REMARK SMILES IDX 5 1 3 2 2 3 1 4 21 5 15 6 14 7 16 8 17 9 19 10 20 11 6 12
REMARK SMILES IDX 7 13 8 14 9 15 13 16 11 17 10 18 12 20 4 22 18 24
REMARK H PARENT 10 19 12 21 4 23 18 25
REMARK Flexibility Score: inf
ROOT
ATOM      1  C   UNL     1      23.343  44.414  86.985  1.00  0.00     0.180 A 
ATOM      2  C   UNL     1      22.890  44.084  88.280  1.00  0.00     0.208 A 
ATOM      3  C   UNL     1      22.073  44.997  88.964  1.00  0.00     0.235 A 
ATOM      4  O   UNL     1      21.646  44.719  90.118  1.00  0.00    -0.285 OA
ATOM      5  C   UNL     1      21.745  46.219  88.357  1.00  0.00     0.069 A 
ATOM      6  C   UNL     1      22.257  46.485  87.069  1.00  0.00     0.142 A 
ATOM      7  O   UNL     1      23.020  45.590  86.451  1.00  0.00    -0.452 OA
ATOM      8  C   UNL     1      21.960  47.696  86.434  1.00  0.00     0.094 A 
ATOM      9  C   UNL     1      21.154  48.648  87.072  1.00  0.00     0.119 A 
ATOM     10  C   UNL     1      20.643  48.386  88.347  1.00  0.00     0.047 A 
ATOM     11  C   UNL     1      20.934  47.179  88.990  1.00  0.00     0.020 A 
ENDROOT
BRANCH   1  12
ATOM     12  C   UNL     1      24.192  43.497  86.191  1.00  0.00     0.025 A 
ATOM     13  C   UNL     1      25.589  43.639  86.155  1.00  0.00     0.016 A 
ATOM     14  C   UNL     1      26.372  42.747  85.417  1.00  0.00     0.051 A 
ATOM     15  C   UNL     1      25.772  41.694  84.715  1.00  0.00     0.157 A 
ATOM     16  C   UNL     1      23.597  42.427  85.503  1.00  0.00     0.062 A 
ATOM     17  C   UNL     1      24.377  41.532  84.761  1.00  0.00     0.158 A 
BRANCH  15  18
ATOM     18  O   UNL     1      26.555  40.807  83.978  1.00  0.00    -0.504 OA
ATOM     19  H   UNL     1      27.115  40.093  84.428  1.00  0.00     0.293 HD
ENDBRANCH  15  18
BRANCH  17  20
ATOM     20  O   UNL     1      23.749  40.490  84.081  1.00  0.00    -0.504 OA
ATOM     21  H   UNL     1      22.751  40.328  84.148  1.00  0.00     0.293 HD
ENDBRANCH  17  20
ENDBRANCH   1  12
BRANCH   2  22
ATOM     22  O   UNL     1      23.274  42.881  88.878  1.00  0.00    -0.502 OA
ATOM     23  H   UNL     1      24.218  42.521  88.813  1.00  0.00     0.293 HD
ENDBRANCH   2  22
BRANCH   9  24
ATOM     24  O   UNL     1      20.852  49.856  86.447  1.00  0.00    -0.508 OA
ATOM     25  H   UNL     1      20.273  49.893  85.617  1.00  0.00     0.293 HD
ENDBRANCH   9  24
TORSDOF 5
ENDMDL
MODEL 4
REMARK VINA RESULT:    -5.625      1.142      1.198
REMARK INTER + INTRA:          -6.875
REMARK INTER:                  -6.757
REMARK INTRA:                  -0.118
REMARK UNBOUND:                -0.263
REMARK SMILES O=c1c(O)c(-c2ccc(O)c(O)c2)oc2cc(O)ccc12
REMARK SMILES IDX 5 1 3 2 2 3 1 4 21 5 15 6 14 7 16 8 17 9 19 10 20 11 6 12
REMARK SMILES IDX 7 13 8 14 9 15 13 16 11 17 10 18 12 20 4 22 18 24
REMARK H PARENT 10 19 12 21 4 23 18 25
REMARK Flexibility Score: inf
ROOT
ATOM      1  C   UNL     1      24.576  45.665  85.993  1.00  0.00     0.180 A 
ATOM      2  C   UNL     1      25.932  45.961  86.245  1.00  0.00     0.208 A 
ATOM      3  C   UNL     1      26.904  45.005  85.916  1.00  0.00     0.235 A 
ATOM      4  O   UNL     1      28.125  45.251  86.122  1.00  0.00    -0.285 OA
ATOM      5  C   UNL     1      26.507  43.775  85.368  1.00  0.00     0.069 A 
ATOM      6  C   UNL     1      25.129  43.546  85.169  1.00  0.00     0.142 A 
ATOM      7  O   UNL     1      24.240  44.481  85.484  1.00  0.00    -0.452 OA
ATOM      8  C   UNL     1      24.692  42.329  84.633  1.00  0.00     0.094 A 
ATOM      9  C   UNL     1      25.619  41.336  84.291  1.00  0.00     0.119 A 
ATOM     10  C   UNL     1      26.985  41.561  84.485  1.00  0.00     0.047 A 
ATOM     11  C   UNL     1      27.432  42.773  85.021  1.00  0.00     0.020 A 
ENDROOT
BRANCH   1  12
ATOM     12  C   UNL     1      23.491  46.628  86.294  1.00  0.00     0.025 A 
ATOM     13  C   UNL     1      23.470  47.909  85.717  1.00  0.00     0.016 A 
ATOM     14  C   UNL     1      22.424  48.793  85.997  1.00  0.00     0.051 A 
ATOM     15  C   UNL     1      21.379  48.405  86.845  1.00  0.00     0.157 A 
ATOM     16  C   UNL     1      22.431  46.237  87.127  1.00  0.00     0.062 A 
ATOM     17  C   UNL     1      21.382  47.119  87.410  1.00  0.00     0.158 A 
BRANCH  15  18
ATOM     18  O   UNL     1      20.338  49.289  87.124  1.00  0.00    -0.504 OA
ATOM     19  H   UNL     1      19.407  48.959  87.348  1.00  0.00     0.293 HD
ENDBRANCH  15  18
BRANCH  17  20
ATOM     20  O   UNL     1      20.353  46.699  88.253  1.00  0.00    -0.504 OA
ATOM     21  H   UNL     1      20.195  45.720  88.462  1.00  0.00     0.293 HD
ENDBRANCH  17  20
ENDBRANCH   1  12
BRANCH   2  22
ATOM     22  O   UNL     1      26.293  47.173  86.837  1.00  0.00    -0.502 OA
ATOM     23  H   UNL     1      27.139  47.277  87.386  1.00  0.00     0.293 HD
ENDBRANCH   2  22
BRANCH   9  24
ATOM     24  O   UNL     1      25.193  40.122  83.756  1.00  0.00    -0.508 OA
ATOM     25  H   UNL     1      25.712  39.266  83.907  1.00  0.00     0.293 HD
ENDBRANCH   9  24
TORSDOF 5
ENDMDL
MODEL 5
REMARK VINA RESULT:    -5.608      1.968      3.242
REMARK INTER + INTRA:          -6.855
REMARK INTER:                  -6.704
REMARK INTRA:                  -0.150
REMARK UNBOUND:                -0.263
REMARK SMILES O=c1c(O)c(-c2ccc(O)c(O)c2)oc2cc(O)ccc12
REMARK SMILES IDX 5 1 3 2 2 3 1 4 21 5 15 6 14 7 16 8 17 9 19 10 20 11 6 12
REMARK SMILES IDX 7 13 8 14 9 15 13 16 11 17 10 18 12 20 4 22 18 24
REMARK H PARENT 10 19 12 21 4 23 18 25
REMARK Flexibility Score: inf
ROOT
ATOM      1  C   UNL     1      24.440  45.289  86.052  1.00  0.00     0.180 A 
ATOM      2  C   UNL     1      23.303  44.471  86.212  1.00  0.00     0.208 A 
ATOM      3  C   UNL     1      23.367  43.134  85.792  1.00  0.00     0.235 A 
ATOM      4  O   UNL     1      22.366  42.379  85.936  1.00  0.00    -0.285 OA
ATOM      5  C   UNL     1      24.546  42.650  85.207  1.00  0.00     0.069 A 
ATOM      6  C   UNL     1      25.634  43.538  85.060  1.00  0.00     0.142 A 
ATOM      7  O   UNL     1      25.536  44.794  85.479  1.00  0.00    -0.452 OA
ATOM      8  C   UNL     1      26.824  43.095  84.472  1.00  0.00     0.094 A 
ATOM      9  C   UNL     1      26.943  41.772  84.029  1.00  0.00     0.119 A 
ATOM     10  C   UNL     1      25.869  40.889  84.176  1.00  0.00     0.047 A 
ATOM     11  C   UNL     1      24.674  41.321  84.761  1.00  0.00     0.020 A 
ENDROOT
BRANCH   1  12
ATOM     12  C   UNL     1      24.460  46.704  86.487  1.00  0.00     0.025 A 
ATOM     13  C   UNL     1      23.612  47.661  85.903  1.00  0.00     0.016 A 
ATOM     14  C   UNL     1      23.631  48.986  86.345  1.00  0.00     0.051 A 
ATOM     15  C   UNL     1      24.487  49.372  87.386  1.00  0.00     0.157 A 
ATOM     16  C   UNL     1      25.300  47.091  87.543  1.00  0.00     0.062 A 
ATOM     17  C   UNL     1      25.323  48.418  87.989  1.00  0.00     0.158 A 
BRANCH  15  18
ATOM     18  O   UNL     1      24.505  50.695  87.824  1.00  0.00    -0.504 OA
ATOM     19  H   UNL     1      25.325  51.098  88.262  1.00  0.00     0.293 HD
ENDBRANCH  15  18
BRANCH  17  20
ATOM     20  O   UNL     1      26.180  48.767  89.032  1.00  0.00    -0.504 OA
ATOM     21  H   UNL     1      26.759  48.082  89.504  1.00  0.00     0.293 HD
ENDBRANCH  17  20
ENDBRANCH   1  12
BRANCH   2  22
ATOM     22  O   UNL     1      22.126  44.994  86.753  1.00  0.00    -0.502 OA
ATOM     23  H   UNL     1      22.129  45.748  87.430  1.00  0.00     0.293 HD
ENDBRANCH   2  22
BRANCH   9  24
ATOM     24  O   UNL     1      28.125  41.323  83.443  1.00  0.00    -0.508 OA
ATOM     25  H   UNL     1      28.985  41.251  83.974  1.00  0.00     0.293 HD
ENDBRANCH   9  24
TORSDOF 5
ENDMDL
MODEL 6
REMARK VINA RESULT:    -5.480      1.758      2.311
REMARK INTER + INTRA:          -6.704
REMARK INTER:                  -6.389
REMARK INTRA:                  -0.315
REMARK UNBOUND:                -0.263
REMARK SMILES O=c1c(O)c(-c2ccc(O)c(O)c2)oc2cc(O)ccc12
REMARK SMILES IDX 5 1 3 2 2 3 1 4 21 5 15 6 14 7 16 8 17 9 19 10 20 11 6 12
REMARK SMILES IDX 7 13 8 14 9 15 13 16 11 17 10 18 12 20 4 22 18 24
REMARK H PARENT 10 19 12 21 4 23 18 25
REMARK Flexibility Score: inf
ROOT
ATOM      1  C   UNL     1      24.024  45.649  86.431  1.00  0.00     0.180 A 
ATOM      2  C   UNL     1      25.398  45.877  86.211  1.00  0.00     0.208 A 
ATOM      3  C   UNL     1      26.154  44.886  85.568  1.00  0.00     0.235 A 
ATOM      4  O   UNL     1      27.383  45.071  85.350  1.00  0.00    -0.285 OA
ATOM      5  C   UNL     1      25.534  43.688  85.179  1.00  0.00     0.069 A 
ATOM      6  C   UNL     1      24.159  43.526  85.456  1.00  0.00     0.142 A 
ATOM      7  O   UNL     1      23.477  44.494  86.059  1.00  0.00    -0.452 OA
ATOM      8  C   UNL     1      23.507  42.343  85.092  1.00  0.00     0.094 A 
ATOM      9  C   UNL     1      24.213  41.316  84.452  1.00  0.00     0.119 A 
ATOM     10  C   UNL     1      25.574  41.475  84.174  1.00  0.00     0.047 A 
ATOM     11  C   UNL     1      26.235  42.653  84.534  1.00  0.00     0.020 A 
ENDROOT
BRANCH   1  12
ATOM     12  C   UNL     1      23.155  46.653  87.086  1.00  0.00     0.025 A 
ATOM     13  C   UNL     1      23.034  46.717  88.484  1.00  0.00     0.016 A 
ATOM     14  C   UNL     1      22.225  47.688  89.080  1.00  0.00     0.051 A 
ATOM     15  C   UNL     1      21.536  48.617  88.290  1.00  0.00     0.157 A 
ATOM     16  C   UNL     1      22.479  47.599  86.299  1.00  0.00     0.062 A 
ATOM     17  C   UNL     1      21.667  48.574  86.892  1.00  0.00     0.158 A 
BRANCH  15  18
ATOM     18  O   UNL     1      20.729  49.583  88.887  1.00  0.00    -0.504 OA
ATOM     19  H   UNL     1      20.936  49.953  89.807  1.00  0.00     0.293 HD
ENDBRANCH  15  18
BRANCH  17  20
ATOM     20  O   UNL     1      21.001  49.488  86.077  1.00  0.00    -0.504 OA
ATOM     21  H   UNL     1      20.224  50.044  86.414  1.00  0.00     0.293 HD
ENDBRANCH  17  20
ENDBRANCH   1  12
BRANCH   2  22
ATOM     22  O   UNL     1      25.999  47.058  86.654  1.00  0.00    -0.502 OA
ATOM     23  H   UNL     1      25.460  47.862  86.952  1.00  0.00     0.293 HD
ENDBRANCH   2  22
BRANCH   9  24
ATOM     24  O   UNL     1      23.570  40.135  84.086  1.00  0.00    -0.508 OA
ATOM     25  H   UNL     1      23.319  39.435  84.772  1.00  0.00     0.293 HD
ENDBRANCH   9  24
TORSDOF 5
ENDMDL
MODEL 7
REMARK VINA RESULT:    -5.176      2.152      3.012
REMARK INTER + INTRA:          -6.347
REMARK INTER:                  -6.024
REMARK INTRA:                  -0.323
REMARK UNBOUND:                -0.263
REMARK SMILES O=c1c(O)c(-c2ccc(O)c(O)c2)oc2cc(O)ccc12
REMARK SMILES IDX 5 1 3 2 2 3 1 4 21 5 15 6 14 7 16 8 17 9 19 10 20 11 6 12
REMARK SMILES IDX 7 13 8 14 9 15 13 16 11 17 10 18 12 20 4 22 18 24
REMARK H PARENT 10 19 12 21 4 23 18 25
REMARK Flexibility Score: inf
ROOT
ATOM      1  C   UNL     1      23.434  45.839  87.347  1.00  0.00     0.180 A 
ATOM      2  C   UNL     1      22.793  44.608  87.594  1.00  0.00     0.208 A 
ATOM      3  C   UNL     1      23.378  43.431  87.104  1.00  0.00     0.235 A 
ATOM      4  O   UNL     1      22.829  42.315  87.320  1.00  0.00    -0.285 OA
ATOM      5  C   UNL     1      24.570  43.507  86.367  1.00  0.00     0.069 A 
ATOM      6  C   UNL     1      25.138  44.780  86.143  1.00  0.00     0.142 A 
ATOM      7  O   UNL     1      24.557  45.870  86.632  1.00  0.00    -0.452 OA
ATOM      8  C   UNL     1      26.320  44.899  85.405  1.00  0.00     0.094 A 
ATOM      9  C   UNL     1      26.947  43.758  84.886  1.00  0.00     0.119 A 
ATOM     10  C   UNL     1      26.388  42.495  85.109  1.00  0.00     0.047 A 
ATOM     11  C   UNL     1      25.206  42.366  85.844  1.00  0.00     0.020 A 
ENDROOT
BRANCH   1  12
ATOM     12  C   UNL     1      22.891  47.123  87.847  1.00  0.00     0.025 A 
ATOM     13  C   UNL     1      23.267  47.640  89.098  1.00  0.00     0.016 A 
ATOM     14  C   UNL     1      22.759  48.865  89.539  1.00  0.00     0.051 A 
ATOM     15  C   UNL     1      21.879  49.597  88.732  1.00  0.00     0.157 A 
ATOM     16  C   UNL     1      22.024  47.870  87.033  1.00  0.00     0.062 A 
ATOM     17  C   UNL     1      21.512  49.097  87.471  1.00  0.00     0.158 A 
BRANCH  15  18
ATOM     18  O   UNL     1      21.372  50.817  89.174  1.00  0.00    -0.504 OA
ATOM     19  H   UNL     1      21.236  51.596  88.541  1.00  0.00     0.293 HD
ENDBRANCH  15  18
BRANCH  17  20
ATOM     20  O   UNL     1      20.644  49.804  86.639  1.00  0.00    -0.504 OA
ATOM     21  H   UNL     1      20.344  50.748  86.853  1.00  0.00     0.293 HD
ENDBRANCH  17  20
ENDBRANCH   1  12
BRANCH   2  22
ATOM     22  O   UNL     1      21.581  44.567  88.288  1.00  0.00    -0.502 OA
ATOM     23  H   UNL     1      21.354  43.823  88.937  1.00  0.00     0.293 HD
ENDBRANCH   2  22
BRANCH   9  24
ATOM     24  O   UNL     1      28.125  43.867  84.151  1.00  0.00    -0.508 OA
ATOM     25  H   UNL     1      28.172  44.424  83.307  1.00  0.00     0.293 HD
ENDBRANCH   9  24
TORSDOF 5
ENDMDL
MODEL 8
REMARK VINA RESULT:    -4.958      2.065      6.736
REMARK INTER + INTRA:          -6.091
REMARK INTER:                  -6.049
REMARK INTRA:                  -0.042
REMARK UNBOUND:                -0.263
REMARK SMILES O=c1c(O)c(-c2ccc(O)c(O)c2)oc2cc(O)ccc12
REMARK SMILES IDX 5 1 3 2 2 3 1 4 21 5 15 6 14 7 16 8 17 9 19 10 20 11 6 12
REMARK SMILES IDX 7 13 8 14 9 15 13 16 11 17 10 18 12 20 4 22 18 24
REMARK H PARENT 10 19 12 21 4 23 18 25
REMARK Flexibility Score: inf
ROOT
ATOM      1  C   UNL     1      23.949  44.869  86.359  1.00  0.00     0.180 A 
ATOM      2  C   UNL     1      22.841  44.881  87.231  1.00  0.00     0.208 A 
ATOM      3  C   UNL     1      22.451  46.097  87.812  1.00  0.00     0.235 A 
ATOM      4  O   UNL     1      21.455  46.136  88.587  1.00  0.00    -0.285 OA
ATOM      5  C   UNL     1      23.180  47.263  87.530  1.00  0.00     0.069 A 
ATOM      6  C   UNL     1      24.291  47.163  86.665  1.00  0.00     0.142 A 
ATOM      7  O   UNL     1      24.623  45.994  86.129  1.00  0.00    -0.452 OA
ATOM      8  C   UNL     1      25.050  48.301  86.367  1.00  0.00     0.094 A 
ATOM      9  C   UNL     1      24.710  49.541  86.922  1.00  0.00     0.119 A 
ATOM     10  C   UNL     1      23.607  49.643  87.777  1.00  0.00     0.047 A 
ATOM     11  C   UNL     1      22.844  48.512  88.082  1.00  0.00     0.020 A 
ENDROOT
BRANCH   1  12
ATOM     12  C   UNL     1      24.412  43.630  85.692  1.00  0.00     0.025 A 
ATOM     13  C   UNL     1      23.528  42.819  84.961  1.00  0.00     0.016 A 
ATOM     14  C   UNL     1      23.992  41.667  84.320  1.00  0.00     0.051 A 
ATOM     15  C   UNL     1      25.346  41.316  84.390  1.00  0.00     0.157 A 
ATOM     16  C   UNL     1      25.772  43.286  85.742  1.00  0.00     0.062 A 
ATOM     17  C   UNL     1      26.240  42.132  85.102  1.00  0.00     0.158 A 
BRANCH  15  18
ATOM     18  O   UNL     1      25.806  40.165  83.751  1.00  0.00    -0.504 OA
ATOM     19  H   UNL     1      25.343  39.272  83.870  1.00  0.00     0.293 HD
ENDBRANCH  15  18
BRANCH  17  20
ATOM     20  O   UNL     1      27.596  41.815  85.185  1.00  0.00    -0.504 OA
ATOM     21  H   UNL     1      28.074  41.301  84.454  1.00  0.00     0.293 HD
ENDBRANCH  17  20
ENDBRANCH   1  12
BRANCH   2  22
ATOM     22  O   UNL     1      22.164  43.697  87.532  1.00  0.00    -0.502 OA
ATOM     23  H   UNL     1      21.252  43.481  87.147  1.00  0.00     0.293 HD
ENDBRANCH   2  22
BRANCH   9  24
ATOM     24  O   UNL     1      25.459  50.679  86.630  1.00  0.00    -0.508 OA
ATOM     25  H   UNL     1      26.458  50.711  86.791  1.00  0.00     0.293 HD
ENDBRANCH   9  24
TORSDOF 5
ENDMDL
MODEL 9
REMARK VINA RESULT:    -4.863      1.283      6.550
REMARK INTER + INTRA:          -5.979
REMARK INTER:                  -6.164
REMARK INTRA:                   0.185
REMARK UNBOUND:                -0.263
REMARK SMILES O=c1c(O)c(-c2ccc(O)c(O)c2)oc2cc(O)ccc12
REMARK SMILES IDX 5 1 3 2 2 3 1 4 21 5 15 6 14 7 16 8 17 9 19 10 20 11 6 12
REMARK SMILES IDX 7 13 8 14 9 15 13 16 11 17 10 18 12 20 4 22 18 24
REMARK H PARENT 10 19 12 21 4 23 18 25
REMARK Flexibility Score: inf
ROOT
ATOM      1  C   UNL     1      25.234  45.012  86.035  1.00  0.00     0.180 A 
ATOM      2  C   UNL     1      26.232  45.608  86.834  1.00  0.00     0.208 A 
ATOM      3  C   UNL     1      25.994  46.879  87.377  1.00  0.00     0.235 A 
ATOM      4  O   UNL     1      26.868  47.428  88.104  1.00  0.00    -0.285 OA
ATOM      5  C   UNL     1      24.784  47.533  87.099  1.00  0.00     0.069 A 
ATOM      6  C   UNL     1      23.845  46.880  86.272  1.00  0.00     0.142 A 
ATOM      7  O   UNL     1      24.105  45.672  85.784  1.00  0.00    -0.452 OA
ATOM      8  C   UNL     1      22.631  47.504  85.964  1.00  0.00     0.094 A 
ATOM      9  C   UNL     1      22.341  48.776  86.475  1.00  0.00     0.119 A 
ATOM     10  C   UNL     1      23.268  49.424  87.297  1.00  0.00     0.047 A 
ATOM     11  C   UNL     1      24.485  48.810  87.610  1.00  0.00     0.020 A 
ENDROOT
BRANCH   1  12
ATOM     12  C   UNL     1      25.401  43.666  85.441  1.00  0.00     0.025 A 
ATOM     13  C   UNL     1      24.328  42.762  85.363  1.00  0.00     0.016 A 
ATOM     14  C   UNL     1      24.503  41.506  84.777  1.00  0.00     0.051 A 
ATOM     15  C   UNL     1      25.748  41.139  84.250  1.00  0.00     0.157 A 
ATOM     16  C   UNL     1      26.641  43.302  84.892  1.00  0.00     0.062 A 
ATOM     17  C   UNL     1      26.821  42.044  84.305  1.00  0.00     0.158 A 
BRANCH  15  18
ATOM     18  O   UNL     1      25.921  39.885  83.668  1.00  0.00    -0.504 OA
ATOM     19  H   UNL     1      25.250  39.138  83.805  1.00  0.00     0.293 HD
ENDBRANCH  15  18
BRANCH  17  20
ATOM     20  O   UNL     1      28.071  41.714  83.782  1.00  0.00    -0.504 OA
ATOM     21  H   UNL     1      28.205  41.503  82.800  1.00  0.00     0.293 HD
ENDBRANCH  17  20
ENDBRANCH   1  12
BRANCH   2  22
ATOM     22  O   UNL     1      27.447  44.954  87.052  1.00  0.00    -0.502 OA
ATOM     23  H   UNL     1      27.691  44.092  86.580  1.00  0.00     0.293 HD
ENDBRANCH   2  22
BRANCH   9  24
ATOM     24  O   UNL     1      21.134  49.403  86.174  1.00  0.00    -0.508 OA
ATOM     25  H   UNL     1      20.244  48.951  86.349  1.00  0.00     0.293 HD
ENDBRANCH   9  24
TORSDOF 5
ENDMDL
