MODEL 1
REMARK VINA RESULT:    28.160      0.000      0.000
REMARK INTER + INTRA:          40.923
REMARK INTER:                  41.330
REMARK INTRA:                  -0.407
REMARK UNBOUND:                -0.407
REMARK SMILES Cc1cc2c(C(C)C)c(O)c(O)c(C=O)c2c(O)c1-c1c(C)cc2c(C(C)C)c(O)c(O)c(C=O)c2c1O
REMARK SMILES IDX 1 1 2 2 3 3 4 4 16 5 13 6 11 7 9 8 5 9 17 10 19 11 20 12
REMARK SMILES IDX 37 13 21 14 36 15 23 16 22 17 24 18 33 19 25 20 31 21 29 22
REMARK SMILES IDX 38 23 34 25 35 26 26 27 27 28 28 29 32 30 30 32 18 34 6 36
REMARK SMILES IDX 7 37 8 38 14 39 15 40 10 41 12 43
REMARK H PARENT 38 24 32 31 30 33 18 35 10 42 12 44
REMARK Flexibility Score: inf
ROOT
ATOM      1  C   UNL     1      -3.682  35.242  21.685  1.00  0.00     0.045 C 
ATOM      2  C   UNL     1      -4.021  36.611  22.221  1.00  0.00    -0.039 A 
ATOM      3  C   UNL     1      -4.259  36.767  23.587  1.00  0.00     0.013 A 
ATOM      4  C   UNL     1      -4.608  38.011  24.148  1.00  0.00    -0.006 A 
ATOM      5  C   UNL     1      -4.617  39.164  23.305  1.00  0.00     0.039 A 
ATOM      6  C   UNL     1      -4.922  40.433  23.879  1.00  0.00     0.072 A 
ATOM      7  C   UNL     1      -5.005  40.563  25.275  1.00  0.00     0.169 A 
ATOM      8  C   UNL     1      -4.933  39.436  26.100  1.00  0.00     0.162 A 
ATOM      9  C   UNL     1      -4.904  38.137  25.541  1.00  0.00     0.008 A 
ATOM     10  C   UNL     1      -4.271  39.018  21.928  1.00  0.00     0.132 A 
ATOM     11  C   UNL     1      -4.027  37.739  21.384  1.00  0.00     0.031 A 
ENDROOT
BRANCH  11  12
ATOM     12  C   UNL     1      -3.742  37.585  19.933  1.00  0.00     0.031 A 
ATOM     13  C   UNL     1      -2.477  37.935  19.417  1.00  0.00     0.132 A 
ATOM     14  C   UNL     1      -4.750  37.129  19.068  1.00  0.00    -0.039 A 
ATOM     15  C   UNL     1      -2.181  37.731  18.039  1.00  0.00     0.039 A 
ATOM     16  C   UNL     1      -4.503  37.062  17.696  1.00  0.00     0.013 A 
ATOM     17  C   UNL     1      -6.121  36.776  19.592  1.00  0.00     0.045 C 
ATOM     18  C   UNL     1      -3.226  37.328  17.155  1.00  0.00    -0.006 A 
ATOM     19  C   UNL     1      -0.884  37.975  17.505  1.00  0.00     0.072 A 
ATOM     20  C   UNL     1      -2.979  37.247  15.749  1.00  0.00     0.008 A 
ATOM     21  C   UNL     1      -0.704  38.064  16.117  1.00  0.00     0.169 A 
ATOM     22  C   UNL     1      -1.771  37.781  15.245  1.00  0.00     0.162 A 
BRANCH  13  23
ATOM     23  O   UNL     1      -1.537  38.545  20.255  1.00  0.00    -0.507 OA
ATOM     24  H   UNL     1      -0.714  38.079  20.611  1.00  0.00     0.293 HD
ENDBRANCH  13  23
BRANCH  19  25
ATOM     25  C   UNL     1       0.331  38.055  18.346  1.00  0.00     0.264 C 
ATOM     26  O   UNL     1       1.035  39.098  18.362  1.00  0.00    -0.298 OA
ENDBRANCH  19  25
BRANCH  20  27
ATOM     27  C   UNL     1      -4.012  36.653  14.775  1.00  0.00     0.017 C 
ATOM     28  C   UNL     1      -4.678  37.755  13.943  1.00  0.00     0.012 C 
ATOM     29  C   UNL     1      -3.451  35.534  13.877  1.00  0.00     0.012 C 
ENDBRANCH  20  27
BRANCH  21  30
ATOM     30  O   UNL     1       0.567  38.390  15.627  1.00  0.00    -0.504 OA
ATOM     31  H   UNL     1       1.409  37.878  15.851  1.00  0.00     0.293 HD
ENDBRANCH  21  30
BRANCH  22  32
ATOM     32  O   UNL     1      -1.657  38.033  13.875  1.00  0.00    -0.504 OA
ATOM     33  H   UNL     1      -0.905  37.683  13.298  1.00  0.00     0.293 HD
ENDBRANCH  22  32
ENDBRANCH  11  12
BRANCH  10  34
ATOM     34  O   UNL     1      -4.119  40.146  21.115  1.00  0.00    -0.507 OA
ATOM     35  H   UNL     1      -3.243  40.424  20.692  1.00  0.00     0.293 HD
ENDBRANCH  10  34
BRANCH   9  36
ATOM     36  C   UNL     1      -5.285  36.948  26.445  1.00  0.00     0.017 C 
ATOM     37  C   UNL     1      -6.124  35.871  25.733  1.00  0.00     0.012 C 
ATOM     38  C   UNL     1      -4.093  36.367  27.219  1.00  0.00     0.012 C 
ENDBRANCH   9  36
BRANCH   6  39
ATOM     39  C   UNL     1      -5.224  41.625  23.048  1.00  0.00     0.264 C 
ATOM     40  O   UNL     1      -5.942  41.539  22.017  1.00  0.00    -0.298 OA
ENDBRANCH   6  39
BRANCH   8  41
ATOM     41  O   UNL     1      -4.897  39.644  27.483  1.00  0.00    -0.504 OA
ATOM     42  H   UNL     1      -4.932  38.892  28.161  1.00  0.00     0.293 HD
ENDBRANCH   8  41
BRANCH   7  43
ATOM     43  O   UNL     1      -5.186  41.829  25.844  1.00  0.00    -0.504 OA
ATOM     44  H   UNL     1      -4.880  42.059  26.781  1.00  0.00     0.293 HD
ENDBRANCH   7  43
TORSDOF 11
ENDMDL
MODEL 2
REMARK VINA RESULT:    29.774      0.680      8.862
REMARK INTER + INTRA:          43.292
REMARK INTER:                  41.785
REMARK INTRA:                   1.507
REMARK UNBOUND:                -0.407
REMARK SMILES Cc1cc2c(C(C)C)c(O)c(O)c(C=O)c2c(O)c1-c1c(C)cc2c(C(C)C)c(O)c(O)c(C=O)c2c1O
REMARK SMILES IDX 1 1 2 2 3 3 4 4 16 5 13 6 11 7 9 8 5 9 17 10 19 11 20 12
REMARK SMILES IDX 37 13 21 14 36 15 23 16 22 17 24 18 33 19 25 20 31 21 29 22
REMARK SMILES IDX 38 23 34 25 35 26 26 27 27 28 28 29 32 30 30 32 18 34 6 36
REMARK SMILES IDX 7 37 8 38 14 39 15 40 10 41 12 43
REMARK H PARENT 38 24 32 31 30 33 18 35 10 42 12 44
REMARK Flexibility Score: inf
ROOT
ATOM      1  C   UNL     1      -6.046  36.175  19.312  1.00  0.00     0.045 C 
ATOM      2  C   UNL     1      -4.692  36.706  18.911  1.00  0.00    -0.039 A 
ATOM      3  C   UNL     1      -4.329  36.697  17.564  1.00  0.00     0.013 A 
ATOM      4  C   UNL     1      -3.071  37.152  17.125  1.00  0.00    -0.006 A 
ATOM      5  C   UNL     1      -2.181  37.734  18.081  1.00  0.00     0.039 A 
ATOM      6  C   UNL     1      -0.926  38.239  17.633  1.00  0.00     0.072 A 
ATOM      7  C   UNL     1      -0.671  38.345  16.256  1.00  0.00     0.169 A 
ATOM      8  C   UNL     1      -1.574  37.829  15.322  1.00  0.00     0.162 A 
ATOM      9  C   UNL     1      -2.697  37.080  15.748  1.00  0.00     0.008 A 
ATOM     10  C   UNL     1      -2.598  37.836  19.442  1.00  0.00     0.132 A 
ATOM     11  C   UNL     1      -3.825  37.276  19.858  1.00  0.00     0.031 A 
ENDROOT
BRANCH  11  12
ATOM     12  C   UNL     1      -4.219  37.320  21.291  1.00  0.00     0.031 A 
ATOM     13  C   UNL     1      -4.383  38.558  21.946  1.00  0.00     0.132 A 
ATOM     14  C   UNL     1      -4.388  36.122  22.005  1.00  0.00    -0.039 A 
ATOM     15  C   UNL     1      -4.821  38.603  23.300  1.00  0.00     0.039 A 
ATOM     16  C   UNL     1      -4.679  36.168  23.369  1.00  0.00     0.013 A 
ATOM     17  C   UNL     1      -4.188  34.784  21.335  1.00  0.00     0.045 C 
ATOM     18  C   UNL     1      -4.929  37.387  24.037  1.00  0.00    -0.006 A 
ATOM     19  C   UNL     1      -5.096  39.834  23.960  1.00  0.00     0.072 A 
ATOM     20  C   UNL     1      -5.237  37.424  25.433  1.00  0.00     0.008 A 
ATOM     21  C   UNL     1      -5.221  39.867  25.357  1.00  0.00     0.169 A 
ATOM     22  C   UNL     1      -5.209  38.671  26.097  1.00  0.00     0.162 A 
BRANCH  13  23
ATOM     23  O   UNL     1      -4.051  39.741  21.274  1.00  0.00    -0.507 OA
ATOM     24  H   UNL     1      -4.584  40.119  20.503  1.00  0.00     0.293 HD
ENDBRANCH  13  23
BRANCH  19  25
ATOM     25  C   UNL     1      -5.353  41.097  23.232  1.00  0.00     0.264 C 
ATOM     26  O   UNL     1      -5.984  41.096  22.143  1.00  0.00    -0.298 OA
ENDBRANCH  19  25
BRANCH  20  27
ATOM     27  C   UNL     1      -5.537  36.144  26.233  1.00  0.00     0.017 C 
ATOM     28  C   UNL     1      -6.125  35.056  25.328  1.00  0.00     0.012 C 
ATOM     29  C   UNL     1      -4.332  35.614  27.035  1.00  0.00     0.012 C 
ENDBRANCH  20  27
BRANCH  21  30
ATOM     30  O   UNL     1      -5.407  41.107  25.981  1.00  0.00    -0.504 OA
ATOM     31  H   UNL     1      -5.429  41.239  26.983  1.00  0.00     0.293 HD
ENDBRANCH  21  30
BRANCH  22  32
ATOM     32  O   UNL     1      -5.157  38.699  27.493  1.00  0.00    -0.504 OA
ATOM     33  H   UNL     1      -4.537  38.125  28.047  1.00  0.00     0.293 HD
ENDBRANCH  22  32
ENDBRANCH  11  12
BRANCH  10  34
ATOM     34  O   UNL     1      -1.819  38.539  20.368  1.00  0.00    -0.507 OA
ATOM     35  H   UNL     1      -0.820  38.673  20.279  1.00  0.00     0.293 HD
ENDBRANCH  10  34
BRANCH   9  36
ATOM     36  C   UNL     1      -3.389  36.161  14.721  1.00  0.00     0.017 C 
ATOM     37  C   UNL     1      -4.462  36.871  13.876  1.00  0.00     0.012 C 
ATOM     38  C   UNL     1      -2.401  35.344  13.875  1.00  0.00     0.012 C 
ENDBRANCH   9  36
BRANCH   6  39
ATOM     39  C   UNL     1       0.162  38.602  18.574  1.00  0.00     0.264 C 
ATOM     40  O   UNL     1       0.588  37.782  19.430  1.00  0.00    -0.298 OA
ENDBRANCH   6  39
BRANCH   8  41
ATOM     41  O   UNL     1      -1.324  38.075  13.968  1.00  0.00    -0.504 OA
ATOM     42  H   UNL     1      -0.470  38.499  13.627  1.00  0.00     0.293 HD
ENDBRANCH   8  41
BRANCH   7  43
ATOM     43  O   UNL     1       0.512  38.950  15.814  1.00  0.00    -0.504 OA
ATOM     44  H   UNL     1       0.543  39.893  15.447  1.00  0.00     0.293 HD
ENDBRANCH   7  43
TORSDOF 11
ENDMDL
