MODEL 1
REMARK VINA RESULT:    -2.928      0.000      0.000
REMARK INTER + INTRA:          -5.938
REMARK INTER:                  -5.324
REMARK INTRA:                  -0.615
REMARK UNBOUND:                -0.615
REMARK SMILES CCCCCCCCCCCCCCCC(=O)[O-]
REMARK SMILES IDX 9 1 10 2 11 3 12 4 13 5 14 6 15 7 16 8 17 9 18 10 8 11 7 12
REMARK SMILES IDX 6 13 5 14 4 15 3 16 2 17 1 18
REMARK H PARENT
REMARK Flexibility Score: inf
ROOT
ATOM      1  C   UNL     1      12.818   9.188  15.292  1.00  0.00     0.000 C 
ENDROOT
BRANCH   1   2
ATOM      2  C   UNL     1      13.116  10.654  14.957  1.00  0.00     0.000 C 
BRANCH   2   3
ATOM      3  C   UNL     1      11.847  11.379  14.485  1.00  0.00     0.000 C 
BRANCH   3   4
ATOM      4  C   UNL     1      11.714  12.795  15.071  1.00  0.00     0.000 C 
BRANCH   4   5
ATOM      5  C   UNL     1      12.975  13.329  15.782  1.00  0.00     0.000 C 
BRANCH   5   6
ATOM      6  C   UNL     1      13.891  14.214  14.913  1.00  0.00     0.006 C 
BRANCH   6   7
ATOM      7  C   UNL     1      13.176  15.390  14.230  1.00  0.00     0.053 C 
BRANCH   7   8
ATOM      8  C   UNL     1      13.216  15.279  12.736  1.00  0.00     0.041 C 
ATOM      9  O   UNL     1      12.879  14.205  12.172  1.00  0.00    -0.550 OA
ATOM     10  O   UNL     1      13.591  16.372  11.967  1.00  0.00    -0.550 OA
ENDBRANCH   7   8
ENDBRANCH   6   7
ENDBRANCH   5   6
ENDBRANCH   4   5
ENDBRANCH   3   4
ENDBRANCH   2   3
ENDBRANCH   1   2
BRANCH   1  11
ATOM     11  C   UNL     1      14.091   8.335  15.215  1.00  0.00     0.000 C 
BRANCH  11  12
ATOM     12  C   UNL     1      13.768   6.846  15.403  1.00  0.00    -0.000 C 
BRANCH  12  13
ATOM     13  C   UNL     1      12.755   6.599  16.533  1.00  0.00    -0.000 C 
BRANCH  13  14
ATOM     14  C   UNL     1      12.914   5.209  17.175  1.00  0.00    -0.000 C 
BRANCH  14  15
ATOM     15  C   UNL     1      12.568   5.206  18.672  1.00  0.00    -0.000 C 
BRANCH  15  16
ATOM     16  C   UNL     1      12.251   3.801  19.203  1.00  0.00    -0.000 C 
BRANCH  16  17
ATOM     17  C   UNL     1      11.311   3.869  20.411  1.00  0.00    -0.003 C 
ATOM     18  C   UNL     1      11.920   3.174  21.625  1.00  0.00     0.004 C 
ENDBRANCH  16  17
ENDBRANCH  15  16
ENDBRANCH  14  15
ENDBRANCH  13  14
ENDBRANCH  12  13
ENDBRANCH  11  12
ENDBRANCH   1  11
TORSDOF 14
ENDMDL
MODEL 2
REMARK VINA RESULT:    -2.538      0.571      1.252
REMARK INTER + INTRA:          -5.229
REMARK INTER:                  -4.657
REMARK INTRA:                  -0.573
REMARK UNBOUND:                -0.615
REMARK SMILES CCCCCCCCCCCCCCCC(=O)[O-]
REMARK SMILES IDX 9 1 10 2 11 3 12 4 13 5 14 6 15 7 16 8 17 9 18 10 8 11 7 12
REMARK SMILES IDX 6 13 5 14 4 15 3 16 2 17 1 18
REMARK H PARENT
REMARK Flexibility Score: inf
ROOT
ATOM      1  C   UNL     1      13.622   8.453  15.750  1.00  0.00     0.000 C 
ENDROOT
BRANCH   1   2
ATOM      2  C   UNL     1      12.561   9.385  15.153  1.00  0.00     0.000 C 
BRANCH   2   3
ATOM      3  C   UNL     1      13.126  10.798  14.945  1.00  0.00     0.000 C 
BRANCH   3   4
ATOM      4  C   UNL     1      12.056  11.808  14.493  1.00  0.00     0.000 C 
BRANCH   4   5
ATOM      5  C   UNL     1      12.109  13.177  15.203  1.00  0.00     0.000 C 
BRANCH   5   6
ATOM      6  C   UNL     1      13.409  13.978  14.986  1.00  0.00     0.006 C 
BRANCH   6   7
ATOM      7  C   UNL     1      13.202  15.364  14.356  1.00  0.00     0.053 C 
BRANCH   7   8
ATOM      8  C   UNL     1      13.248  15.312  12.859  1.00  0.00     0.041 C 
ATOM      9  O   UNL     1      13.625  16.319  12.202  1.00  0.00    -0.550 OA
ATOM     10  O   UNL     1      12.909  14.143  12.192  1.00  0.00    -0.550 OA
ENDBRANCH   7   8
ENDBRANCH   6   7
ENDBRANCH   5   6
ENDBRANCH   4   5
ENDBRANCH   3   4
ENDBRANCH   2   3
ENDBRANCH   1   2
BRANCH   1  11
ATOM     11  C   UNL     1      13.516   7.043  15.156  1.00  0.00     0.000 C 
BRANCH  11  12
ATOM     12  C   UNL     1      13.275   5.999  16.255  1.00  0.00    -0.000 C 
BRANCH  12  13
ATOM     13  C   UNL     1      12.850   6.632  17.589  1.00  0.00    -0.000 C 
BRANCH  13  14
ATOM     14  C   UNL     1      12.530   5.581  18.667  1.00  0.00    -0.000 C 
BRANCH  14  15
ATOM     15  C   UNL     1      12.555   4.146  18.118  1.00  0.00    -0.000 C 
BRANCH  15  16
ATOM     16  C   UNL     1      12.201   3.099  19.185  1.00  0.00    -0.000 C 
BRANCH  16  17
ATOM     17  C   UNL     1      11.440   3.740  20.351  1.00  0.00    -0.003 C 
ATOM     18  C   UNL     1      11.847   3.119  21.683  1.00  0.00     0.004 C 
ENDBRANCH  16  17
ENDBRANCH  15  16
ENDBRANCH  14  15
ENDBRANCH  13  14
ENDBRANCH  12  13
ENDBRANCH  11  12
ENDBRANCH   1  11
TORSDOF 14
ENDMDL
MODEL 3
REMARK VINA RESULT:    -2.317      4.933     10.233
REMARK INTER + INTRA:          -4.827
REMARK INTER:                  -4.379
REMARK INTRA:                  -0.448
REMARK UNBOUND:                -0.615
REMARK SMILES CCCCCCCCCCCCCCCC(=O)[O-]
REMARK SMILES IDX 9 1 10 2 11 3 12 4 13 5 14 6 15 7 16 8 17 9 18 10 8 11 7 12
REMARK SMILES IDX 6 13 5 14 4 15 3 16 2 17 1 18
REMARK H PARENT
REMARK Flexibility Score: inf
ROOT
ATOM      1  C   UNL     1      12.892   9.144  15.342  1.00  0.00     0.000 C 
ENDROOT
BRANCH   1   2
ATOM      2  C   UNL     1      14.068   8.184  15.131  1.00  0.00     0.000 C 
BRANCH   2   3
ATOM      3  C   UNL     1      13.632   6.726  15.340  1.00  0.00     0.000 C 
BRANCH   3   4
ATOM      4  C   UNL     1      12.662   6.556  16.523  1.00  0.00     0.000 C 
BRANCH   4   5
ATOM      5  C   UNL     1      12.895   5.297  17.382  1.00  0.00     0.000 C 
BRANCH   5   6
ATOM      6  C   UNL     1      12.774   5.511  18.904  1.00  0.00     0.006 C 
BRANCH   6   7
ATOM      7  C   UNL     1      11.534   4.865  19.540  1.00  0.00     0.053 C 
BRANCH   7   8
ATOM      8  C   UNL     1      11.830   3.503  20.090  1.00  0.00     0.041 C 
ATOM      9  O   UNL     1      12.308   2.609  19.343  1.00  0.00    -0.550 OA
ATOM     10  O   UNL     1      11.612   3.232  21.434  1.00  0.00    -0.550 OA
ENDBRANCH   7   8
ENDBRANCH   6   7
ENDBRANCH   5   6
ENDBRANCH   4   5
ENDBRANCH   3   4
ENDBRANCH   2   3
ENDBRANCH   1   2
BRANCH   1  11
ATOM     11  C   UNL     1      13.294  10.589  15.021  1.00  0.00     0.000 C 
BRANCH  11  12
ATOM     12  C   UNL     1      12.148  11.338  14.327  1.00  0.00    -0.000 C 
BRANCH  12  13
ATOM     13  C   UNL     1      11.769  12.640  15.050  1.00  0.00    -0.000 C 
BRANCH  13  14
ATOM     14  C   UNL     1      13.000  13.448  15.498  1.00  0.00    -0.000 C 
BRANCH  14  15
ATOM     15  C   UNL     1      13.330  14.602  14.538  1.00  0.00    -0.000 C 
BRANCH  15  16
ATOM     16  C   UNL     1      12.938  14.294  13.086  1.00  0.00    -0.000 C 
BRANCH  16  17
ATOM     17  C   UNL     1      13.113  15.529  12.196  1.00  0.00    -0.003 C 
ATOM     18  C   UNL     1      13.918  16.613  12.907  1.00  0.00     0.004 C 
ENDBRANCH  16  17
ENDBRANCH  15  16
ENDBRANCH  14  15
ENDBRANCH  13  14
ENDBRANCH  12  13
ENDBRANCH  11  12
ENDBRANCH   1  11
TORSDOF 14
ENDMDL
MODEL 4
REMARK VINA RESULT:    -1.838      3.994      9.386
REMARK INTER + INTRA:          -3.956
REMARK INTER:                  -3.193
REMARK INTRA:                  -0.763
REMARK UNBOUND:                -0.615
REMARK SMILES CCCCCCCCCCCCCCCC(=O)[O-]
REMARK SMILES IDX 9 1 10 2 11 3 12 4 13 5 14 6 15 7 16 8 17 9 18 10 8 11 7 12
REMARK SMILES IDX 6 13 5 14 4 15 3 16 2 17 1 18
REMARK H PARENT
REMARK Flexibility Score: inf
ROOT
ATOM      1  C   UNL     1      13.238  10.478  15.048  1.00  0.00     0.000 C 
ENDROOT
BRANCH   1   2
ATOM      2  C   UNL     1      12.941   9.009  15.376  1.00  0.00     0.000 C 
BRANCH   2   3
ATOM      3  C   UNL     1      14.169   8.127  15.108  1.00  0.00     0.000 C 
BRANCH   3   4
ATOM      4  C   UNL     1      13.797   6.727  14.589  1.00  0.00     0.000 C 
BRANCH   4   5
ATOM      5  C   UNL     1      14.455   5.554  15.345  1.00  0.00     0.000 C 
BRANCH   5   6
ATOM      6  C   UNL     1      13.522   4.787  16.304  1.00  0.00     0.006 C 
BRANCH   6   7
ATOM      7  C   UNL     1      12.525   5.675  17.064  1.00  0.00     0.053 C 
BRANCH   7   8
ATOM      8  C   UNL     1      12.794   5.687  18.538  1.00  0.00     0.041 C 
ATOM      9  O   UNL     1      13.515   6.589  19.042  1.00  0.00    -0.550 OA
ATOM     10  O   UNL     1      12.221   4.726  19.359  1.00  0.00    -0.550 OA
ENDBRANCH   7   8
ENDBRANCH   6   7
ENDBRANCH   5   6
ENDBRANCH   4   5
ENDBRANCH   3   4
ENDBRANCH   2   3
ENDBRANCH   1   2
BRANCH   1  11
ATOM     11  C   UNL     1      11.956  11.228  14.666  1.00  0.00     0.000 C 
BRANCH  11  12
ATOM     12  C   UNL     1      11.895  12.598  15.355  1.00  0.00    -0.000 C 
BRANCH  12  13
ATOM     13  C   UNL     1      13.216  13.376  15.244  1.00  0.00    -0.000 C 
BRANCH  13  14
ATOM     14  C   UNL     1      13.004  14.847  14.844  1.00  0.00    -0.000 C 
BRANCH  14  15
ATOM     15  C   UNL     1      13.536  15.159  13.436  1.00  0.00    -0.000 C 
BRANCH  15  16
ATOM     16  C   UNL     1      12.586  14.684  12.327  1.00  0.00    -0.000 C 
BRANCH  16  17
ATOM     17  C   UNL     1      12.858  13.220  11.962  1.00  0.00    -0.003 C 
ATOM     18  C   UNL     1      11.607  12.549  11.403  1.00  0.00     0.004 C 
ENDBRANCH  16  17
ENDBRANCH  15  16
ENDBRANCH  14  15
ENDBRANCH  13  14
ENDBRANCH  12  13
ENDBRANCH  11  12
ENDBRANCH   1  11
TORSDOF 14
ENDMDL
MODEL 5
REMARK VINA RESULT:    -1.797      4.944     10.052
REMARK INTER + INTRA:          -3.883
REMARK INTER:                  -3.187
REMARK INTRA:                  -0.696
REMARK UNBOUND:                -0.615
REMARK SMILES CCCCCCCCCCCCCCCC(=O)[O-]
REMARK SMILES IDX 9 1 10 2 11 3 12 4 13 5 14 6 15 7 16 8 17 9 18 10 8 11 7 12
REMARK SMILES IDX 6 13 5 14 4 15 3 16 2 17 1 18
REMARK H PARENT
REMARK Flexibility Score: inf
ROOT
ATOM      1  C   UNL     1      12.890   8.769  14.906  1.00  0.00     0.000 C 
ENDROOT
BRANCH   1   2
ATOM      2  C   UNL     1      14.018   7.846  15.382  1.00  0.00     0.000 C 
BRANCH   2   3
ATOM      3  C   UNL     1      13.540   6.389  15.462  1.00  0.00     0.000 C 
BRANCH   3   4
ATOM      4  C   UNL     1      12.569   6.143  16.630  1.00  0.00     0.000 C 
BRANCH   4   5
ATOM      5  C   UNL     1      13.042   6.676  17.998  1.00  0.00     0.000 C 
BRANCH   5   6
ATOM      6  C   UNL     1      13.082   5.630  19.130  1.00  0.00     0.006 C 
BRANCH   6   7
ATOM      7  C   UNL     1      11.724   4.987  19.449  1.00  0.00     0.053 C 
BRANCH   7   8
ATOM      8  C   UNL     1      11.875   3.605  20.007  1.00  0.00     0.041 C 
ATOM      9  O   UNL     1      11.543   3.364  21.199  1.00  0.00    -0.550 OA
ATOM     10  O   UNL     1      12.347   2.576  19.204  1.00  0.00    -0.550 OA
ENDBRANCH   7   8
ENDBRANCH   6   7
ENDBRANCH   5   6
ENDBRANCH   4   5
ENDBRANCH   3   4
ENDBRANCH   2   3
ENDBRANCH   1   2
BRANCH   1  11
ATOM     11  C   UNL     1      13.052  10.181  15.481  1.00  0.00     0.000 C 
BRANCH  11  12
ATOM     12  C   UNL     1      12.455  11.232  14.535  1.00  0.00    -0.000 C 
BRANCH  12  13
ATOM     13  C   UNL     1      12.057  12.526  15.264  1.00  0.00    -0.000 C 
BRANCH  13  14
ATOM     14  C   UNL     1      13.212  13.540  15.342  1.00  0.00    -0.000 C 
BRANCH  14  15
ATOM     15  C   UNL     1      12.822  14.924  14.800  1.00  0.00    -0.000 C 
BRANCH  15  16
ATOM     16  C   UNL     1      13.670  15.346  13.591  1.00  0.00    -0.000 C 
BRANCH  16  17
ATOM     17  C   UNL     1      12.857  15.266  12.295  1.00  0.00    -0.003 C 
ATOM     18  C   UNL     1      12.560  13.818  11.918  1.00  0.00     0.004 C 
ENDBRANCH  16  17
ENDBRANCH  15  16
ENDBRANCH  14  15
ENDBRANCH  13  14
ENDBRANCH  12  13
ENDBRANCH  11  12
ENDBRANCH   1  11
TORSDOF 14
ENDMDL
MODEL 6
REMARK VINA RESULT:    -1.715      1.900      3.924
REMARK INTER + INTRA:          -3.733
REMARK INTER:                  -3.159
REMARK INTRA:                  -0.574
REMARK UNBOUND:                -0.615
REMARK SMILES CCCCCCCCCCCCCCCC(=O)[O-]
REMARK SMILES IDX 9 1 10 2 11 3 12 4 13 5 14 6 15 7 16 8 17 9 18 10 8 11 7 12
REMARK SMILES IDX 6 13 5 14 4 15 3 16 2 17 1 18
REMARK H PARENT
REMARK Flexibility Score: inf
ROOT
ATOM      1  C   UNL     1      13.386   7.838  15.487  1.00  0.00     0.000 C 
ENDROOT
BRANCH   1   2
ATOM      2  C   UNL     1      13.600   9.344  15.289  1.00  0.00     0.000 C 
BRANCH   2   3
ATOM      3  C   UNL     1      12.271  10.053  14.991  1.00  0.00     0.000 C 
BRANCH   3   4
ATOM      4  C   UNL     1      12.465  11.468  14.416  1.00  0.00     0.000 C 
BRANCH   4   5
ATOM      5  C   UNL     1      12.644  12.581  15.469  1.00  0.00     0.000 C 
BRANCH   5   6
ATOM      6  C   UNL     1      13.211  13.909  14.928  1.00  0.00     0.006 C 
BRANCH   6   7
ATOM      7  C   UNL     1      13.225  14.016  13.396  1.00  0.00     0.053 C 
BRANCH   7   8
ATOM      8  C   UNL     1      13.279  15.439  12.933  1.00  0.00     0.041 C 
ATOM      9  O   UNL     1      13.588  16.356  13.740  1.00  0.00    -0.550 OA
ATOM     10  O   UNL     1      13.024  15.750  11.604  1.00  0.00    -0.550 OA
ENDBRANCH   7   8
ENDBRANCH   6   7
ENDBRANCH   5   6
ENDBRANCH   4   5
ENDBRANCH   3   4
ENDBRANCH   2   3
ENDBRANCH   1   2
BRANCH   1  11
ATOM     11  C   UNL     1      12.565   7.559  16.752  1.00  0.00     0.000 C 
BRANCH  11  12
ATOM     12  C   UNL     1      12.179   6.076  16.841  1.00  0.00    -0.000 C 
BRANCH  12  13
ATOM     13  C   UNL     1      13.375   5.173  17.184  1.00  0.00    -0.000 C 
BRANCH  13  14
ATOM     14  C   UNL     1      13.669   4.139  16.082  1.00  0.00    -0.000 C 
BRANCH  14  15
ATOM     15  C   UNL     1      14.919   4.490  15.260  1.00  0.00    -0.000 C 
BRANCH  15  16
ATOM     16  C   UNL     1      14.587   5.300  13.998  1.00  0.00    -0.000 C 
BRANCH  16  17
ATOM     17  C   UNL     1      15.495   4.895  12.832  1.00  0.00    -0.003 C 
ATOM     18  C   UNL     1      14.684   4.626  11.568  1.00  0.00     0.004 C 
ENDBRANCH  16  17
ENDBRANCH  15  16
ENDBRANCH  14  15
ENDBRANCH  13  14
ENDBRANCH  12  13
ENDBRANCH  11  12
ENDBRANCH   1  11
TORSDOF 14
ENDMDL
MODEL 7
REMARK VINA RESULT:    -1.673      4.685     10.203
REMARK INTER + INTRA:          -3.657
REMARK INTER:                  -2.889
REMARK INTRA:                  -0.768
REMARK UNBOUND:                -0.615
REMARK SMILES CCCCCCCCCCCCCCCC(=O)[O-]
REMARK SMILES IDX 9 1 10 2 11 3 12 4 13 5 14 6 15 7 16 8 17 9 18 10 8 11 7 12
REMARK SMILES IDX 6 13 5 14 4 15 3 16 2 17 1 18
REMARK H PARENT
REMARK Flexibility Score: inf
ROOT
ATOM      1  C   UNL     1      13.442   7.021  15.409  1.00  0.00     0.000 C 
ENDROOT
BRANCH   1   2
ATOM      2  C   UNL     1      12.494   6.961  16.612  1.00  0.00     0.000 C 
BRANCH   2   3
ATOM      3  C   UNL     1      12.729   5.686  17.434  1.00  0.00     0.000 C 
BRANCH   3   4
ATOM      4  C   UNL     1      13.573   4.639  16.685  1.00  0.00     0.000 C 
BRANCH   4   5
ATOM      5  C   UNL     1      13.424   3.192  17.198  1.00  0.00     0.000 C 
BRANCH   5   6
ATOM      6  C   UNL     1      12.157   2.920  18.034  1.00  0.00     0.006 C 
BRANCH   6   7
ATOM      7  C   UNL     1      12.429   2.589  19.509  1.00  0.00     0.053 C 
BRANCH   7   8
ATOM      8  C   UNL     1      11.598   3.424  20.434  1.00  0.00     0.041 C 
ATOM      9  O   UNL     1      10.733   4.213  19.969  1.00  0.00    -0.550 OA
ATOM     10  O   UNL     1      11.754   3.306  21.808  1.00  0.00    -0.550 OA
ENDBRANCH   7   8
ENDBRANCH   6   7
ENDBRANCH   5   6
ENDBRANCH   4   5
ENDBRANCH   3   4
ENDBRANCH   2   3
ENDBRANCH   1   2
BRANCH   1  11
ATOM     11  C   UNL     1      13.893   8.461  15.133  1.00  0.00     0.000 C 
BRANCH  11  12
ATOM     12  C   UNL     1      12.715   9.438  15.251  1.00  0.00    -0.000 C 
BRANCH  12  13
ATOM     13  C   UNL     1      13.090  10.869  14.834  1.00  0.00    -0.000 C 
BRANCH  13  14
ATOM     14  C   UNL     1      11.859  11.779  14.672  1.00  0.00    -0.000 C 
BRANCH  14  15
ATOM     15  C   UNL     1      12.028  13.133  15.381  1.00  0.00    -0.000 C 
BRANCH  15  16
ATOM     16  C   UNL     1      13.359  13.818  15.037  1.00  0.00    -0.000 C 
BRANCH  16  17
ATOM     17  C   UNL     1      13.334  14.381  13.612  1.00  0.00    -0.003 C 
ATOM     18  C   UNL     1      13.276  15.906  13.622  1.00  0.00     0.004 C 
ENDBRANCH  16  17
ENDBRANCH  15  16
ENDBRANCH  14  15
ENDBRANCH  13  14
ENDBRANCH  12  13
ENDBRANCH  11  12
ENDBRANCH   1  11
TORSDOF 14
ENDMDL
MODEL 8
REMARK VINA RESULT:    -1.538      4.127      9.248
REMARK INTER + INTRA:          -3.411
REMARK INTER:                  -2.731
REMARK INTRA:                  -0.679
REMARK UNBOUND:                -0.615
REMARK SMILES CCCCCCCCCCCCCCCC(=O)[O-]
REMARK SMILES IDX 9 1 10 2 11 3 12 4 13 5 14 6 15 7 16 8 17 9 18 10 8 11 7 12
REMARK SMILES IDX 6 13 5 14 4 15 3 16 2 17 1 18
REMARK H PARENT
REMARK Flexibility Score: inf
ROOT
ATOM      1  C   UNL     1      13.291   7.791  15.386  1.00  0.00     0.000 C 
ENDROOT
BRANCH   1   2
ATOM      2  C   UNL     1      12.537   7.609  16.708  1.00  0.00     0.000 C 
BRANCH   2   3
ATOM      3  C   UNL     1      12.192   6.131  16.945  1.00  0.00     0.000 C 
BRANCH   3   4
ATOM      4  C   UNL     1      13.438   5.255  17.164  1.00  0.00     0.000 C 
BRANCH   4   5
ATOM      5  C   UNL     1      13.754   4.271  16.018  1.00  0.00     0.000 C 
BRANCH   5   6
ATOM      6  C   UNL     1      15.067   4.548  15.259  1.00  0.00     0.006 C 
BRANCH   6   7
ATOM      7  C   UNL     1      14.887   5.302  13.933  1.00  0.00     0.053 C 
BRANCH   7   8
ATOM      8  C   UNL     1      15.765   4.752  12.851  1.00  0.00     0.041 C 
ATOM      9  O   UNL     1      15.292   4.526  11.705  1.00  0.00    -0.550 OA
ATOM     10  O   UNL     1      17.112   4.523  13.096  1.00  0.00    -0.550 OA
ENDBRANCH   7   8
ENDBRANCH   6   7
ENDBRANCH   5   6
ENDBRANCH   4   5
ENDBRANCH   3   4
ENDBRANCH   2   3
ENDBRANCH   1   2
BRANCH   1  11
ATOM     11  C   UNL     1      13.672   9.260  15.165  1.00  0.00     0.000 C 
BRANCH  11  12
ATOM     12  C   UNL     1      12.446  10.173  15.306  1.00  0.00    -0.000 C 
BRANCH  12  13
ATOM     13  C   UNL     1      12.571  11.463  14.481  1.00  0.00    -0.000 C 
BRANCH  13  14
ATOM     14  C   UNL     1      12.737  12.715  15.361  1.00  0.00    -0.000 C 
BRANCH  14  15
ATOM     15  C   UNL     1      13.245  13.931  14.570  1.00  0.00    -0.000 C 
BRANCH  15  16
ATOM     16  C   UNL     1      12.856  13.874  13.086  1.00  0.00    -0.000 C 
BRANCH  16  17
ATOM     17  C   UNL     1      13.170  15.201  12.385  1.00  0.00    -0.003 C 
ATOM     18  C   UNL     1      13.421  16.314  13.398  1.00  0.00     0.004 C 
ENDBRANCH  16  17
ENDBRANCH  15  16
ENDBRANCH  14  15
ENDBRANCH  13  14
ENDBRANCH  12  13
ENDBRANCH  11  12
ENDBRANCH   1  11
TORSDOF 14
ENDMDL
MODEL 9
REMARK VINA RESULT:    -1.458      1.260      2.702
REMARK INTER + INTRA:          -3.267
REMARK INTER:                  -2.395
REMARK INTRA:                  -0.872
REMARK UNBOUND:                -0.615
REMARK SMILES CCCCCCCCCCCCCCCC(=O)[O-]
REMARK SMILES IDX 9 1 10 2 11 3 12 4 13 5 14 6 15 7 16 8 17 9 18 10 8 11 7 12
REMARK SMILES IDX 6 13 5 14 4 15 3 16 2 17 1 18
REMARK H PARENT
REMARK Flexibility Score: inf
ROOT
ATOM      1  C   UNL     1      13.422   7.142  15.752  1.00  0.00     0.000 C 
ENDROOT
BRANCH   1   2
ATOM      2  C   UNL     1      13.832   8.536  15.262  1.00  0.00     0.000 C 
BRANCH   2   3
ATOM      3  C   UNL     1      12.600   9.424  15.038  1.00  0.00     0.000 C 
BRANCH   3   4
ATOM      4  C   UNL     1      12.909  10.924  15.187  1.00  0.00     0.000 C 
BRANCH   4   5
ATOM      5  C   UNL     1      11.913  11.870  14.486  1.00  0.00     0.000 C 
BRANCH   5   6
ATOM      6  C   UNL     1      12.536  12.827  13.449  1.00  0.00     0.006 C 
BRANCH   6   7
ATOM      7  C   UNL     1      13.299  14.013  14.058  1.00  0.00     0.053 C 
BRANCH   7   8
ATOM      8  C   UNL     1      13.308  15.202  13.147  1.00  0.00     0.041 C 
ATOM      9  O   UNL     1      12.936  15.084  11.949  1.00  0.00    -0.550 OA
ATOM     10  O   UNL     1      13.692  16.446  13.629  1.00  0.00    -0.550 OA
ENDBRANCH   7   8
ENDBRANCH   6   7
ENDBRANCH   5   6
ENDBRANCH   4   5
ENDBRANCH   3   4
ENDBRANCH   2   3
ENDBRANCH   1   2
BRANCH   1  11
ATOM     11  C   UNL     1      12.437   7.237  16.923  1.00  0.00     0.000 C 
BRANCH  11  12
ATOM     12  C   UNL     1      12.974   6.495  18.155  1.00  0.00    -0.000 C 
BRANCH  12  13
ATOM     13  C   UNL     1      11.934   5.546  18.774  1.00  0.00    -0.000 C 
BRANCH  13  14
ATOM     14  C   UNL     1      12.576   4.296  19.402  1.00  0.00    -0.000 C 
BRANCH  14  15
ATOM     15  C   UNL     1      12.154   2.997  18.695  1.00  0.00    -0.000 C 
BRANCH  15  16
ATOM     16  C   UNL     1      13.222   2.482  17.719  1.00  0.00    -0.000 C 
BRANCH  16  17
ATOM     17  C   UNL     1      13.220   3.298  16.422  1.00  0.00    -0.003 C 
ATOM     18  C   UNL     1      14.594   3.902  16.147  1.00  0.00     0.004 C 
ENDBRANCH  16  17
ENDBRANCH  15  16
ENDBRANCH  14  15
ENDBRANCH  13  14
ENDBRANCH  12  13
ENDBRANCH  11  12
ENDBRANCH   1  11
TORSDOF 14
ENDMDL
