MODEL 1
REMARK VINA RESULT:    -2.185      0.000      0.000
REMARK INTER + INTRA:          -2.185
REMARK INTER:                  -2.185
REMARK INTRA:                   0.000
REMARK UNBOUND:                 0.000
REMARK SMILES CC(=O)[O-]
REMARK SMILES IDX 1 1 2 2 3 3 4 4
REMARK H PARENT
REMARK Flexibility Score: inf
ROOT
ATOM      1  C   UNL     1      20.383   9.688  29.789  1.00  0.00     0.063 C 
ATOM      2  C   UNL     1      19.552   8.855  28.875  1.00  0.00     0.038 C 
ATOM      3  O   UNL     1      18.872   9.400  27.966  1.00  0.00    -0.550 OA
ATOM      4  O   UNL     1      19.567   7.471  28.988  1.00  0.00    -0.550 OA
ENDROOT
TORSDOF 0
ENDMDL
MODEL 2
REMARK VINA RESULT:    -2.051     22.150     22.401
REMARK INTER + INTRA:          -2.051
REMARK INTER:                  -2.051
REMARK INTRA:                   0.000
REMARK UNBOUND:                 0.000
REMARK SMILES CC(=O)[O-]
REMARK SMILES IDX 1 1 2 2 3 3 4 4
REMARK H PARENT
REMARK Flexibility Score: inf
ROOT
ATOM      1  C   UNL     1      20.505  22.071  47.904  1.00  0.00     0.063 C 
ATOM      2  C   UNL     1      20.940  22.467  46.534  1.00  0.00     0.038 C 
ATOM      3  O   UNL     1      22.105  22.201  46.139  1.00  0.00    -0.550 OA
ATOM      4  O   UNL     1      20.043  23.081  45.670  1.00  0.00    -0.550 OA
ENDROOT
TORSDOF 0
ENDMDL
MODEL 3
REMARK VINA RESULT:    -2.035      1.711      1.914
REMARK INTER + INTRA:          -2.035
REMARK INTER:                  -2.035
REMARK INTRA:                   0.000
REMARK UNBOUND:                 0.000
REMARK SMILES CC(=O)[O-]
REMARK SMILES IDX 1 1 2 2 3 3 4 4
REMARK H PARENT
REMARK Flexibility Score: inf
ROOT
ATOM      1  C   UNL     1      20.168   9.383  29.877  1.00  0.00     0.063 C 
ATOM      2  C   UNL     1      20.247   9.923  28.489  1.00  0.00     0.038 C 
ATOM      3  O   UNL     1      19.197  10.244  27.875  1.00  0.00    -0.550 OA
ATOM      4  O   UNL     1      21.484  10.123  27.891  1.00  0.00    -0.550 OA
ENDROOT
TORSDOF 0
ENDMDL
MODEL 4
REMARK VINA RESULT:    -1.879     22.105     22.342
REMARK INTER + INTRA:          -1.879
REMARK INTER:                  -1.879
REMARK INTRA:                   0.000
REMARK UNBOUND:                 0.000
REMARK SMILES CC(=O)[O-]
REMARK SMILES IDX 1 1 2 2 3 3 4 4
REMARK H PARENT
REMARK Flexibility Score: inf
ROOT
ATOM      1  C   UNL     1      19.922  23.119  45.884  1.00  0.00     0.063 C 
ATOM      2  C   UNL     1      20.952  22.301  46.587  1.00  0.00     0.038 C 
ATOM      3  O   UNL     1      22.118  22.217  46.121  1.00  0.00    -0.550 OA
ATOM      4  O   UNL     1      20.642  21.673  47.785  1.00  0.00    -0.550 OA
ENDROOT
TORSDOF 0
ENDMDL
MODEL 5
REMARK VINA RESULT:    -1.857     17.870     18.066
REMARK INTER + INTRA:          -1.857
REMARK INTER:                  -1.857
REMARK INTRA:                   0.000
REMARK UNBOUND:                 0.000
REMARK SMILES CC(=O)[O-]
REMARK SMILES IDX 1 1 2 2 3 3 4 4
REMARK H PARENT
REMARK Flexibility Score: inf
ROOT
ATOM      1  C   UNL     1      33.374   9.623  39.903  1.00  0.00     0.063 C 
ATOM      2  C   UNL     1      33.082  10.939  40.541  1.00  0.00     0.038 C 
ATOM      3  O   UNL     1      32.578  10.983  41.694  1.00  0.00    -0.550 OA
ATOM      4  O   UNL     1      33.413  12.117  39.888  1.00  0.00    -0.550 OA
ENDROOT
TORSDOF 0
ENDMDL
MODEL 6
REMARK VINA RESULT:    -1.753     22.757     23.179
REMARK INTER + INTRA:          -1.753
REMARK INTER:                  -1.753
REMARK INTRA:                   0.000
REMARK UNBOUND:                 0.000
REMARK SMILES CC(=O)[O-]
REMARK SMILES IDX 1 1 2 2 3 3 4 4
REMARK H PARENT
REMARK Flexibility Score: inf
ROOT
ATOM      1  C   UNL     1      20.650  22.074  47.476  1.00  0.00     0.063 C 
ATOM      2  C   UNL     1      19.611  23.089  47.139  1.00  0.00     0.038 C 
ATOM      3  O   UNL     1      18.834  23.518  48.031  1.00  0.00    -0.550 OA
ATOM      4  O   UNL     1      19.534  23.604  45.852  1.00  0.00    -0.550 OA
ENDROOT
TORSDOF 0
ENDMDL
MODEL 7
REMARK VINA RESULT:    -1.720      1.916      2.115
REMARK INTER + INTRA:          -1.720
REMARK INTER:                  -1.720
REMARK INTRA:                   0.000
REMARK UNBOUND:                 0.000
REMARK SMILES CC(=O)[O-]
REMARK SMILES IDX 1 1 2 2 3 3 4 4
REMARK H PARENT
REMARK Flexibility Score: inf
ROOT
ATOM      1  C   UNL     1      18.796  10.222  27.875  1.00  0.00     0.063 C 
ATOM      2  C   UNL     1      19.984   9.753  28.645  1.00  0.00     0.038 C 
ATOM      3  O   UNL     1      21.092   9.601  28.068  1.00  0.00    -0.550 OA
ATOM      4  O   UNL     1      19.884   9.534  30.012  1.00  0.00    -0.550 OA
ENDROOT
TORSDOF 0
ENDMDL
MODEL 8
REMARK VINA RESULT:    -1.703     20.956     21.261
REMARK INTER + INTRA:          -1.703
REMARK INTER:                  -1.703
REMARK INTRA:                   0.000
REMARK UNBOUND:                 0.000
REMARK SMILES CC(=O)[O-]
REMARK SMILES IDX 1 1 2 2 3 3 4 4
REMARK H PARENT
REMARK Flexibility Score: inf
ROOT
ATOM      1  C   UNL     1      31.309  24.968  32.864  1.00  0.00     0.063 C 
ATOM      2  C   UNL     1      32.407  24.990  33.874  1.00  0.00     0.038 C 
ATOM      3  O   UNL     1      32.137  25.116  35.097  1.00  0.00    -0.550 OA
ATOM      4  O   UNL     1      33.724  24.817  33.472  1.00  0.00    -0.550 OA
ENDROOT
TORSDOF 0
ENDMDL
