MODEL 1
REMARK VINA RESULT:    -5.613      0.000      0.000
REMARK INTER + INTRA:          -7.001
REMARK INTER:                  -6.762
REMARK INTRA:                  -0.239
REMARK UNBOUND:                -0.239
REMARK SMILES O=c1c(O)c(-c2ccc(O)c(O)c2)oc2cc(O)cc(O)c12
REMARK SMILES IDX 5 1 3 2 2 3 1 4 22 5 20 6 19 7 17 8 16 9 15 10 14 11 6 12
REMARK SMILES IDX 7 13 8 14 9 15 13 16 11 17 10 18 12 20 4 22 21 24 18 26
REMARK H PARENT 10 19 12 21 4 23 21 25 18 27
REMARK Flexibility Score: inf
ROOT
ATOM      1  C   UNL     1     145.624 149.213 137.063  1.00  0.00     0.180 A 
ATOM      2  C   UNL     1     146.074 147.897 137.271  1.00  0.00     0.208 A 
ATOM      3  C   UNL     1     147.451 147.665 137.427  1.00  0.00     0.238 A 
ATOM      4  O   UNL     1     147.852 146.480 137.558  1.00  0.00    -0.285 OA
ATOM      5  C   UNL     1     148.357 148.752 137.389  1.00  0.00     0.111 A 
ATOM      6  C   UNL     1     149.767 148.638 137.575  1.00  0.00     0.134 A 
ATOM      7  C   UNL     1     150.582 149.762 137.387  1.00  0.00     0.093 A 
ATOM      8  C   UNL     1     150.031 151.009 137.085  1.00  0.00     0.123 A 
ATOM      9  C   UNL     1     148.650 151.142 136.959  1.00  0.00     0.094 A 
ATOM     10  C   UNL     1     147.815 150.033 137.105  1.00  0.00     0.146 A 
ATOM     11  O   UNL     1     146.505 150.202 136.967  1.00  0.00    -0.452 OA
ENDROOT
BRANCH   1  12
ATOM     12  C   UNL     1     144.187 149.539 136.915  1.00  0.00     0.025 A 
ATOM     13  C   UNL     1     143.475 149.200 135.751  1.00  0.00     0.016 A 
ATOM     14  C   UNL     1     142.114 149.496 135.643  1.00  0.00     0.051 A 
ATOM     15  C   UNL     1     141.442 150.123 136.701  1.00  0.00     0.157 A 
ATOM     16  C   UNL     1     143.504 150.147 137.980  1.00  0.00     0.062 A 
ATOM     17  C   UNL     1     142.140 150.447 137.876  1.00  0.00     0.158 A 
BRANCH  15  18
ATOM     18  O   UNL     1     140.084 150.419 136.590  1.00  0.00    -0.504 OA
ATOM     19  H   UNL     1     139.517 150.625 137.403  1.00  0.00     0.293 HD
ENDBRANCH  15  18
BRANCH  17  20
ATOM     20  O   UNL     1     141.498 151.064 138.948  1.00  0.00    -0.504 OA
ATOM     21  H   UNL     1     141.895 151.074 139.880  1.00  0.00     0.293 HD
ENDBRANCH  17  20
ENDBRANCH   1  12
BRANCH   2  22
ATOM     22  O   UNL     1     145.165 146.837 137.283  1.00  0.00    -0.502 OA
ATOM     23  H   UNL     1     145.214 146.085 137.961  1.00  0.00     0.293 HD
ENDBRANCH   2  22
BRANCH   6  24
ATOM     24  O   UNL     1     150.409 147.461 137.969  1.00  0.00    -0.507 OA
ATOM     25  H   UNL     1     151.061 147.390 138.736  1.00  0.00     0.293 HD
ENDBRANCH   6  24
BRANCH   8  26
ATOM     26  O   UNL     1     150.846 152.125 136.914  1.00  0.00    -0.508 OA
ATOM     27  H   UNL     1     151.584 152.348 137.573  1.00  0.00     0.293 HD
ENDBRANCH   8  26
TORSDOF 6
ENDMDL
MODEL 2
REMARK VINA RESULT:    -5.576      4.238      6.923
REMARK INTER + INTRA:          -6.956
REMARK INTER:                  -6.690
REMARK INTRA:                  -0.266
REMARK UNBOUND:                -0.239
REMARK SMILES O=c1c(O)c(-c2ccc(O)c(O)c2)oc2cc(O)cc(O)c12
REMARK SMILES IDX 5 1 3 2 2 3 1 4 22 5 20 6 19 7 17 8 16 9 15 10 14 11 6 12
REMARK SMILES IDX 7 13 8 14 9 15 13 16 11 17 10 18 12 20 4 22 21 24 18 26
REMARK H PARENT 10 19 12 21 4 23 21 25 18 27
REMARK Flexibility Score: inf
ROOT
ATOM      1  C   UNL     1     149.358 146.898 137.114  1.00  0.00     0.180 A 
ATOM      2  C   UNL     1     148.019 146.498 137.261  1.00  0.00     0.208 A 
ATOM      3  C   UNL     1     147.727 145.130 137.383  1.00  0.00     0.238 A 
ATOM      4  O   UNL     1     146.522 144.773 137.460  1.00  0.00    -0.285 OA
ATOM      5  C   UNL     1     148.778 144.181 137.372  1.00  0.00     0.111 A 
ATOM      6  C   UNL     1     148.601 142.774 137.528  1.00  0.00     0.134 A 
ATOM      7  C   UNL     1     149.699 141.918 137.371  1.00  0.00     0.093 A 
ATOM      8  C   UNL     1     150.978 142.424 137.128  1.00  0.00     0.123 A 
ATOM      9  C   UNL     1     151.170 143.800 137.033  1.00  0.00     0.094 A 
ATOM     10  C   UNL     1     150.090 144.677 137.149  1.00  0.00     0.146 A 
ATOM     11  O   UNL     1     150.315 145.981 137.041  1.00  0.00    -0.452 OA
ENDROOT
BRANCH   1  12
ATOM     12  C   UNL     1     149.747 148.323 137.005  1.00  0.00     0.025 A 
ATOM     13  C   UNL     1     149.537 149.051 135.820  1.00  0.00     0.016 A 
ATOM     14  C   UNL     1     149.889 150.401 135.748  1.00  0.00     0.051 A 
ATOM     15  C   UNL     1     150.443 151.047 136.862  1.00  0.00     0.157 A 
ATOM     16  C   UNL     1     150.282 148.981 138.124  1.00  0.00     0.062 A 
ATOM     17  C   UNL     1     150.637 150.334 138.056  1.00  0.00     0.158 A 
BRANCH  15  18
ATOM     18  O   UNL     1     150.795 152.394 136.786  1.00  0.00    -0.504 OA
ATOM     19  H   UNL     1     151.094 152.816 135.915  1.00  0.00     0.293 HD
ENDBRANCH  15  18
BRANCH  17  20
ATOM     20  O   UNL     1     151.179 150.950 139.183  1.00  0.00    -0.504 OA
ATOM     21  H   UNL     1     152.169 150.914 139.392  1.00  0.00     0.293 HD
ENDBRANCH  17  20
ENDBRANCH   1  12
BRANCH   2  22
ATOM     22  O   UNL     1     146.995 147.449 137.247  1.00  0.00    -0.502 OA
ATOM     23  H   UNL     1     146.381 147.576 136.452  1.00  0.00     0.293 HD
ENDBRANCH   2  22
BRANCH   6  24
ATOM     24  O   UNL     1     147.385 142.173 137.863  1.00  0.00    -0.507 OA
ATOM     25  H   UNL     1     146.759 142.503 138.583  1.00  0.00     0.293 HD
ENDBRANCH   6  24
BRANCH   8  26
ATOM     26  O   UNL     1     152.067 141.567 136.988  1.00  0.00    -0.508 OA
ATOM     27  H   UNL     1     152.947 141.748 137.456  1.00  0.00     0.293 HD
ENDBRANCH   8  26
TORSDOF 6
ENDMDL
MODEL 3
REMARK VINA RESULT:    -5.572      5.216      7.313
REMARK INTER + INTRA:          -6.952
REMARK INTER:                  -6.655
REMARK INTRA:                  -0.297
REMARK UNBOUND:                -0.239
REMARK SMILES O=c1c(O)c(-c2ccc(O)c(O)c2)oc2cc(O)cc(O)c12
REMARK SMILES IDX 5 1 3 2 2 3 1 4 22 5 20 6 19 7 17 8 16 9 15 10 14 11 6 12
REMARK SMILES IDX 7 13 8 14 9 15 13 16 11 17 10 18 12 20 4 22 21 24 18 26
REMARK H PARENT 10 19 12 21 4 23 21 25 18 27
REMARK Flexibility Score: inf
ROOT
ATOM      1  C   UNL     1     150.881 147.173 136.509  1.00  0.00     0.180 A 
ATOM      2  C   UNL     1     152.125 146.633 136.138  1.00  0.00     0.208 A 
ATOM      3  C   UNL     1     152.319 145.245 136.230  1.00  0.00     0.238 A 
ATOM      4  O   UNL     1     153.451 144.773 135.948  1.00  0.00    -0.285 OA
ATOM      5  C   UNL     1     151.262 144.414 136.675  1.00  0.00     0.111 A 
ATOM      6  C   UNL     1     151.334 142.992 136.769  1.00  0.00     0.134 A 
ATOM      7  C   UNL     1     150.273 142.283 137.347  1.00  0.00     0.093 A 
ATOM      8  C   UNL     1     149.116 142.940 137.773  1.00  0.00     0.123 A 
ATOM      9  C   UNL     1     149.012 144.321 137.631  1.00  0.00     0.094 A 
ATOM     10  C   UNL     1     150.068 145.059 137.093  1.00  0.00     0.146 A 
ATOM     11  O   UNL     1     149.933 146.376 136.985  1.00  0.00    -0.452 OA
ENDROOT
BRANCH   1  12
ATOM     12  C   UNL     1     150.594 148.623 136.415  1.00  0.00     0.025 A 
ATOM     13  C   UNL     1     149.850 149.155 135.347  1.00  0.00     0.016 A 
ATOM     14  C   UNL     1     149.571 150.523 135.293  1.00  0.00     0.051 A 
ATOM     15  C   UNL     1     150.017 151.377 136.310  1.00  0.00     0.157 A 
ATOM     16  C   UNL     1     151.020 149.480 137.443  1.00  0.00     0.062 A 
ATOM     17  C   UNL     1     150.742 150.851 137.392  1.00  0.00     0.158 A 
BRANCH  15  18
ATOM     18  O   UNL     1     149.738 152.741 136.251  1.00  0.00    -0.504 OA
ATOM     19  H   UNL     1     148.790 153.086 136.160  1.00  0.00     0.293 HD
ENDBRANCH  15  18
BRANCH  17  20
ATOM     20  O   UNL     1     151.194 151.673 138.423  1.00  0.00    -0.504 OA
ATOM     21  H   UNL     1     150.739 152.547 138.654  1.00  0.00     0.293 HD
ENDBRANCH  17  20
ENDBRANCH   1  12
BRANCH   2  22
ATOM     22  O   UNL     1     153.161 147.473 135.721  1.00  0.00    -0.502 OA
ATOM     23  H   UNL     1     153.051 148.478 135.649  1.00  0.00     0.293 HD
ENDBRANCH   2  22
BRANCH   6  24
ATOM     24  O   UNL     1     152.404 142.232 136.289  1.00  0.00    -0.507 OA
ATOM     25  H   UNL     1     152.834 141.467 136.786  1.00  0.00     0.293 HD
ENDBRANCH   6  24
BRANCH   8  26
ATOM     26  O   UNL     1     148.059 142.226 138.333  1.00  0.00    -0.508 OA
ATOM     27  H   UNL     1     148.188 141.292 138.706  1.00  0.00     0.293 HD
ENDBRANCH   8  26
TORSDOF 6
ENDMDL
MODEL 4
REMARK VINA RESULT:    -5.571      4.579      7.600
REMARK INTER + INTRA:          -6.950
REMARK INTER:                  -6.650
REMARK INTRA:                  -0.300
REMARK UNBOUND:                -0.239
REMARK SMILES O=c1c(O)c(-c2ccc(O)c(O)c2)oc2cc(O)cc(O)c12
REMARK SMILES IDX 5 1 3 2 2 3 1 4 22 5 20 6 19 7 17 8 16 9 15 10 14 11 6 12
REMARK SMILES IDX 7 13 8 14 9 15 13 16 11 17 10 18 12 20 4 22 21 24 18 26
REMARK H PARENT 10 19 12 21 4 23 21 25 18 27
REMARK Flexibility Score: inf
ROOT
ATOM      1  C   UNL     1     141.763 145.512 136.530  1.00  0.00     0.180 A 
ATOM      2  C   UNL     1     140.520 146.061 136.170  1.00  0.00     0.208 A 
ATOM      3  C   UNL     1     140.328 147.447 136.286  1.00  0.00     0.238 A 
ATOM      4  O   UNL     1     139.197 147.926 136.013  1.00  0.00    -0.285 OA
ATOM      5  C   UNL     1     141.386 148.268 136.746  1.00  0.00     0.111 A 
ATOM      6  C   UNL     1     141.316 149.688 136.865  1.00  0.00     0.134 A 
ATOM      7  C   UNL     1     142.378 150.386 137.455  1.00  0.00     0.093 A 
ATOM      8  C   UNL     1     143.534 149.720 137.870  1.00  0.00     0.123 A 
ATOM      9  C   UNL     1     143.636 148.341 137.704  1.00  0.00     0.094 A 
ATOM     10  C   UNL     1     142.579 147.614 137.152  1.00  0.00     0.146 A 
ATOM     11  O   UNL     1     142.713 146.300 137.021  1.00  0.00    -0.452 OA
ENDROOT
BRANCH   1  12
ATOM     12  C   UNL     1     142.048 144.064 136.412  1.00  0.00     0.025 A 
ATOM     13  C   UNL     1     142.779 143.548 135.326  1.00  0.00     0.016 A 
ATOM     14  C   UNL     1     143.058 142.181 135.248  1.00  0.00     0.051 A 
ATOM     15  C   UNL     1     142.622 141.312 136.257  1.00  0.00     0.157 A 
ATOM     16  C   UNL     1     141.634 143.192 137.431  1.00  0.00     0.062 A 
ATOM     17  C   UNL     1     141.910 141.820 137.355  1.00  0.00     0.158 A 
BRANCH  15  18
ATOM     18  O   UNL     1     142.900 139.948 136.174  1.00  0.00    -0.504 OA
ATOM     19  H   UNL     1     143.293 139.438 136.956  1.00  0.00     0.293 HD
ENDBRANCH  15  18
BRANCH  17  20
ATOM     20  O   UNL     1     141.469 140.983 138.379  1.00  0.00    -0.504 OA
ATOM     21  H   UNL     1     140.720 141.248 139.006  1.00  0.00     0.293 HD
ENDBRANCH  17  20
ENDBRANCH   1  12
BRANCH   2  22
ATOM     22  O   UNL     1     139.483 145.230 135.738  1.00  0.00    -0.502 OA
ATOM     23  H   UNL     1     139.512 144.222 135.845  1.00  0.00     0.293 HD
ENDBRANCH   2  22
BRANCH   6  24
ATOM     24  O   UNL     1     140.247 150.459 136.398  1.00  0.00    -0.507 OA
ATOM     25  H   UNL     1     140.133 151.447 136.568  1.00  0.00     0.293 HD
ENDBRANCH   6  24
BRANCH   8  26
ATOM     26  O   UNL     1     144.592 150.422 138.442  1.00  0.00    -0.508 OA
ATOM     27  H   UNL     1     144.671 150.537 139.446  1.00  0.00     0.293 HD
ENDBRANCH   8  26
TORSDOF 6
ENDMDL
MODEL 5
REMARK VINA RESULT:    -5.570      5.223      9.537
REMARK INTER + INTRA:          -6.949
REMARK INTER:                  -6.724
REMARK INTRA:                  -0.225
REMARK UNBOUND:                -0.239
REMARK SMILES O=c1c(O)c(-c2ccc(O)c(O)c2)oc2cc(O)cc(O)c12
REMARK SMILES IDX 5 1 3 2 2 3 1 4 22 5 20 6 19 7 17 8 16 9 15 10 14 11 6 12
REMARK SMILES IDX 7 13 8 14 9 15 13 16 11 17 10 18 12 20 4 22 21 24 18 26
REMARK H PARENT 10 19 12 21 4 23 21 25 18 27
REMARK Flexibility Score: inf
ROOT
ATOM      1  C   UNL     1     146.874 143.406 137.061  1.00  0.00     0.180 A 
ATOM      2  C   UNL     1     146.430 144.726 137.251  1.00  0.00     0.208 A 
ATOM      3  C   UNL     1     145.055 144.965 137.414  1.00  0.00     0.238 A 
ATOM      4  O   UNL     1     144.658 146.153 137.529  1.00  0.00    -0.285 OA
ATOM      5  C   UNL     1     144.146 143.880 137.401  1.00  0.00     0.111 A 
ATOM      6  C   UNL     1     142.738 144.001 137.596  1.00  0.00     0.134 A 
ATOM      7  C   UNL     1     141.918 142.877 137.432  1.00  0.00     0.093 A 
ATOM      8  C   UNL     1     142.464 141.623 137.146  1.00  0.00     0.123 A 
ATOM      9  C   UNL     1     143.843 141.484 137.012  1.00  0.00     0.094 A 
ATOM     10  C   UNL     1     144.682 142.593 137.134  1.00  0.00     0.146 A 
ATOM     11  O   UNL     1     145.991 142.418 136.988  1.00  0.00    -0.452 OA
ENDROOT
BRANCH   1  12
ATOM     12  C   UNL     1     148.309 143.073 136.908  1.00  0.00     0.025 A 
ATOM     13  C   UNL     1     149.022 143.422 135.747  1.00  0.00     0.016 A 
ATOM     14  C   UNL     1     150.381 143.119 135.634  1.00  0.00     0.051 A 
ATOM     15  C   UNL     1     151.051 142.476 136.684  1.00  0.00     0.157 A 
ATOM     16  C   UNL     1     148.991 142.449 137.965  1.00  0.00     0.062 A 
ATOM     17  C   UNL     1     150.353 142.143 137.856  1.00  0.00     0.158 A 
BRANCH  15  18
ATOM     18  O   UNL     1     152.407 142.174 136.567  1.00  0.00    -0.504 OA
ATOM     19  H   UNL     1     153.120 142.887 136.661  1.00  0.00     0.293 HD
ENDBRANCH  15  18
BRANCH  17  20
ATOM     20  O   UNL     1     150.993 141.510 138.920  1.00  0.00    -0.504 OA
ATOM     21  H   UNL     1     150.548 141.392 139.822  1.00  0.00     0.293 HD
ENDBRANCH  17  20
ENDBRANCH   1  12
BRANCH   2  22
ATOM     22  O   UNL     1     147.342 145.784 137.240  1.00  0.00    -0.502 OA
ATOM     23  H   UNL     1     147.585 146.285 136.393  1.00  0.00     0.293 HD
ENDBRANCH   2  22
BRANCH   6  24
ATOM     24  O   UNL     1     142.101 145.186 137.975  1.00  0.00    -0.507 OA
ATOM     25  H   UNL     1     142.376 145.761 138.758  1.00  0.00     0.293 HD
ENDBRANCH   6  24
BRANCH   8  26
ATOM     26  O   UNL     1     141.644 140.507 137.000  1.00  0.00    -0.508 OA
ATOM     27  H   UNL     1     140.644 140.599 136.857  1.00  0.00     0.293 HD
ENDBRANCH   8  26
TORSDOF 6
ENDMDL
MODEL 6
REMARK VINA RESULT:    -5.569      4.119      6.715
REMARK INTER + INTRA:          -6.948
REMARK INTER:                  -6.729
REMARK INTRA:                  -0.219
REMARK UNBOUND:                -0.239
REMARK SMILES O=c1c(O)c(-c2ccc(O)c(O)c2)oc2cc(O)cc(O)c12
REMARK SMILES IDX 5 1 3 2 2 3 1 4 22 5 20 6 19 7 17 8 16 9 15 10 14 11 6 12
REMARK SMILES IDX 7 13 8 14 9 15 13 16 11 17 10 18 12 20 4 22 21 24 18 26
REMARK H PARENT 10 19 12 21 4 23 21 25 18 27
REMARK Flexibility Score: inf
ROOT
ATOM      1  C   UNL     1     143.403 145.673 137.061  1.00  0.00     0.180 A 
ATOM      2  C   UNL     1     144.723 146.118 137.249  1.00  0.00     0.208 A 
ATOM      3  C   UNL     1     144.962 147.493 137.404  1.00  0.00     0.238 A 
ATOM      4  O   UNL     1     146.151 147.891 137.518  1.00  0.00    -0.285 OA
ATOM      5  C   UNL     1     143.877 148.403 137.386  1.00  0.00     0.111 A 
ATOM      6  C   UNL     1     143.999 149.812 137.574  1.00  0.00     0.134 A 
ATOM      7  C   UNL     1     142.875 150.632 137.405  1.00  0.00     0.093 A 
ATOM      8  C   UNL     1     141.621 150.084 137.121  1.00  0.00     0.123 A 
ATOM      9  C   UNL     1     141.481 148.704 136.995  1.00  0.00     0.094 A 
ATOM     10  C   UNL     1     142.590 147.865 137.122  1.00  0.00     0.146 A 
ATOM     11  O   UNL     1     142.415 146.557 136.983  1.00  0.00    -0.452 OA
ENDROOT
BRANCH   1  12
ATOM     12  C   UNL     1     143.070 144.237 136.916  1.00  0.00     0.025 A 
ATOM     13  C   UNL     1     143.427 143.516 135.762  1.00  0.00     0.016 A 
ATOM     14  C   UNL     1     143.124 142.156 135.657  1.00  0.00     0.051 A 
ATOM     15  C   UNL     1     142.471 141.494 136.706  1.00  0.00     0.157 A 
ATOM     16  C   UNL     1     142.436 143.564 137.972  1.00  0.00     0.062 A 
ATOM     17  C   UNL     1     142.130 142.201 137.870  1.00  0.00     0.158 A 
BRANCH  15  18
ATOM     18  O   UNL     1     142.169 140.138 136.597  1.00  0.00    -0.504 OA
ATOM     19  H   UNL     1     141.594 139.781 135.843  1.00  0.00     0.293 HD
ENDBRANCH  15  18
BRANCH  17  20
ATOM     20  O   UNL     1     141.487 141.570 138.935  1.00  0.00    -0.504 OA
ATOM     21  H   UNL     1     140.574 141.144 138.836  1.00  0.00     0.293 HD
ENDBRANCH  17  20
ENDBRANCH   1  12
BRANCH   2  22
ATOM     22  O   UNL     1     145.781 145.206 137.243  1.00  0.00    -0.502 OA
ATOM     23  H   UNL     1     146.729 145.473 137.006  1.00  0.00     0.293 HD
ENDBRANCH   2  22
BRANCH   6  24
ATOM     24  O   UNL     1     145.184 150.450 137.950  1.00  0.00    -0.507 OA
ATOM     25  H   UNL     1     145.270 151.096 138.721  1.00  0.00     0.293 HD
ENDBRANCH   6  24
BRANCH   8  26
ATOM     26  O   UNL     1     140.505 150.904 136.971  1.00  0.00    -0.508 OA
ATOM     27  H   UNL     1     139.771 150.933 137.669  1.00  0.00     0.293 HD
ENDBRANCH   8  26
TORSDOF 6
ENDMDL
MODEL 7
REMARK VINA RESULT:    -5.565      1.421      3.112
REMARK INTER + INTRA:          -6.943
REMARK INTER:                  -6.631
REMARK INTRA:                  -0.312
REMARK UNBOUND:                -0.239
REMARK SMILES O=c1c(O)c(-c2ccc(O)c(O)c2)oc2cc(O)cc(O)c12
REMARK SMILES IDX 5 1 3 2 2 3 1 4 22 5 20 6 19 7 17 8 16 9 15 10 14 11 6 12
REMARK SMILES IDX 7 13 8 14 9 15 13 16 11 17 10 18 12 20 4 22 21 24 18 26
REMARK H PARENT 10 19 12 21 4 23 21 25 18 27
REMARK Flexibility Score: inf
ROOT
ATOM      1  C   UNL     1     145.549 150.871 136.506  1.00  0.00     0.180 A 
ATOM      2  C   UNL     1     146.101 152.108 136.127  1.00  0.00     0.208 A 
ATOM      3  C   UNL     1     147.488 152.295 136.233  1.00  0.00     0.238 A 
ATOM      4  O   UNL     1     147.970 153.422 135.943  1.00  0.00    -0.285 OA
ATOM      5  C   UNL     1     148.308 151.240 136.700  1.00  0.00     0.111 A 
ATOM      6  C   UNL     1     149.729 151.306 136.810  1.00  0.00     0.134 A 
ATOM      7  C   UNL     1     150.426 150.248 137.408  1.00  0.00     0.093 A 
ATOM      8  C   UNL     1     149.759 149.100 137.840  1.00  0.00     0.123 A 
ATOM      9  C   UNL     1     148.379 149.001 137.684  1.00  0.00     0.094 A 
ATOM     10  C   UNL     1     147.652 150.054 137.124  1.00  0.00     0.146 A 
ATOM     11  O   UNL     1     146.337 149.924 137.003  1.00  0.00    -0.452 OA
ENDROOT
BRANCH   1  12
ATOM     12  C   UNL     1     144.099 150.590 136.399  1.00  0.00     0.025 A 
ATOM     13  C   UNL     1     143.566 149.902 135.295  1.00  0.00     0.016 A 
ATOM     14  C   UNL     1     142.198 149.626 135.228  1.00  0.00     0.051 A 
ATOM     15  C   UNL     1     141.345 150.021 136.267  1.00  0.00     0.157 A 
ATOM     16  C   UNL     1     143.244 150.964 137.448  1.00  0.00     0.062 A 
ATOM     17  C   UNL     1     141.872 150.691 137.384  1.00  0.00     0.158 A 
BRANCH  15  18
ATOM     18  O   UNL     1     139.980 149.746 136.195  1.00  0.00    -0.504 OA
ATOM     19  H   UNL     1     139.591 149.181 135.451  1.00  0.00     0.293 HD
ENDBRANCH  15  18
BRANCH  17  20
ATOM     20  O   UNL     1     141.051 151.091 138.437  1.00  0.00    -0.504 OA
ATOM     21  H   UNL     1     140.379 150.465 138.863  1.00  0.00     0.293 HD
ENDBRANCH  17  20
ENDBRANCH   1  12
BRANCH   2  22
ATOM     22  O   UNL     1     145.271 153.142 135.688  1.00  0.00    -0.502 OA
ATOM     23  H   UNL     1     145.061 153.952 136.261  1.00  0.00     0.293 HD
ENDBRANCH   2  22
BRANCH   6  24
ATOM     24  O   UNL     1     150.501 152.366 136.326  1.00  0.00    -0.507 OA
ATOM     25  H   UNL     1     151.350 152.702 136.754  1.00  0.00     0.293 HD
ENDBRANCH   6  24
BRANCH   8  26
ATOM     26  O   UNL     1     150.461 148.046 138.420  1.00  0.00    -0.508 OA
ATOM     27  H   UNL     1     150.008 147.387 139.045  1.00  0.00     0.293 HD
ENDBRANCH   8  26
TORSDOF 6
ENDMDL
MODEL 8
REMARK VINA RESULT:    -5.554      6.480     10.066
REMARK INTER + INTRA:          -6.929
REMARK INTER:                  -6.649
REMARK INTRA:                  -0.281
REMARK UNBOUND:                -0.239
REMARK SMILES O=c1c(O)c(-c2ccc(O)c(O)c2)oc2cc(O)cc(O)c12
REMARK SMILES IDX 5 1 3 2 2 3 1 4 22 5 20 6 19 7 17 8 16 9 15 10 14 11 6 12
REMARK SMILES IDX 7 13 8 14 9 15 13 16 11 17 10 18 12 20 4 22 21 24 18 26
REMARK H PARENT 10 19 12 21 4 23 21 25 18 27
REMARK Flexibility Score: inf
ROOT
ATOM      1  C   UNL     1     147.155 141.810 136.522  1.00  0.00     0.180 A 
ATOM      2  C   UNL     1     146.624 140.569 136.127  1.00  0.00     0.208 A 
ATOM      3  C   UNL     1     145.238 140.363 136.214  1.00  0.00     0.238 A 
ATOM      4  O   UNL     1     144.776 139.232 135.911  1.00  0.00    -0.285 OA
ATOM      5  C   UNL     1     144.399 141.403 136.680  1.00  0.00     0.111 A 
ATOM      6  C   UNL     1     142.977 141.318 136.772  1.00  0.00     0.134 A 
ATOM      7  C   UNL     1     142.259 142.361 137.370  1.00  0.00     0.093 A 
ATOM      8  C   UNL     1     142.906 143.515 137.819  1.00  0.00     0.123 A 
ATOM      9  C   UNL     1     144.287 143.633 137.679  1.00  0.00     0.094 A 
ATOM     10  C   UNL     1     145.034 142.594 137.120  1.00  0.00     0.146 A 
ATOM     11  O   UNL     1     146.349 142.743 137.016  1.00  0.00    -0.452 OA
ENDROOT
BRANCH   1  12
ATOM     12  C   UNL     1     148.602 142.111 136.435  1.00  0.00     0.025 A 
ATOM     13  C   UNL     1     149.121 142.920 135.408  1.00  0.00     0.016 A 
ATOM     14  C   UNL     1     150.487 143.211 135.360  1.00  0.00     0.051 A 
ATOM     15  C   UNL     1     151.351 142.710 136.343  1.00  0.00     0.157 A 
ATOM     16  C   UNL     1     149.469 141.631 137.429  1.00  0.00     0.062 A 
ATOM     17  C   UNL     1     150.839 141.919 137.384  1.00  0.00     0.158 A 
BRANCH  15  18
ATOM     18  O   UNL     1     152.714 143.001 136.290  1.00  0.00    -0.504 OA
ATOM     19  H   UNL     1     153.065 143.933 136.472  1.00  0.00     0.293 HD
ENDBRANCH  15  18
BRANCH  17  20
ATOM     20  O   UNL     1     151.671 141.412 138.381  1.00  0.00    -0.504 OA
ATOM     21  H   UNL     1     151.712 141.820 139.306  1.00  0.00     0.293 HD
ENDBRANCH  17  20
ENDBRANCH   1  12
BRANCH   2  22
ATOM     22  O   UNL     1     147.473 139.549 135.690  1.00  0.00    -0.502 OA
ATOM     23  H   UNL     1     148.313 139.287 136.193  1.00  0.00     0.293 HD
ENDBRANCH   2  22
BRANCH   6  24
ATOM     24  O   UNL     1     142.226 140.251 136.270  1.00  0.00    -0.507 OA
ATOM     25  H   UNL     1     142.125 140.029 135.292  1.00  0.00     0.293 HD
ENDBRANCH   6  24
BRANCH   8  26
ATOM     26  O   UNL     1     142.183 144.556 138.398  1.00  0.00    -0.508 OA
ATOM     27  H   UNL     1     142.647 145.336 138.849  1.00  0.00     0.293 HD
ENDBRANCH   8  26
TORSDOF 6
ENDMDL
MODEL 9
REMARK VINA RESULT:    -5.318      4.044      6.452
REMARK INTER + INTRA:          -6.645
REMARK INTER:                  -6.317
REMARK INTRA:                  -0.328
REMARK UNBOUND:                -0.239
REMARK SMILES O=c1c(O)c(-c2ccc(O)c(O)c2)oc2cc(O)cc(O)c12
REMARK SMILES IDX 5 1 3 2 2 3 1 4 22 5 20 6 19 7 17 8 16 9 15 10 14 11 6 12
REMARK SMILES IDX 7 13 8 14 9 15 13 16 11 17 10 18 12 20 4 22 21 24 18 26
REMARK H PARENT 10 19 12 21 4 23 21 25 18 27
REMARK Flexibility Score: inf
ROOT
ATOM      1  C   UNL     1     142.886 146.992 136.978  1.00  0.00     0.180 A 
ATOM      2  C   UNL     1     144.243 146.627 137.021  1.00  0.00     0.208 A 
ATOM      3  C   UNL     1     144.579 145.281 137.237  1.00  0.00     0.238 A 
ATOM      4  O   UNL     1     145.795 144.969 137.327  1.00  0.00    -0.285 OA
ATOM      5  C   UNL     1     143.555 144.315 137.391  1.00  0.00     0.111 A 
ATOM      6  C   UNL     1     143.780 142.918 137.575  1.00  0.00     0.134 A 
ATOM      7  C   UNL     1     142.696 142.074 137.848  1.00  0.00     0.093 A 
ATOM      8  C   UNL     1     141.389 142.566 137.878  1.00  0.00     0.123 A 
ATOM      9  C   UNL     1     141.154 143.919 137.641  1.00  0.00     0.094 A 
ATOM     10  C   UNL     1     142.218 144.791 137.402  1.00  0.00     0.146 A 
ATOM     11  O   UNL     1     141.950 146.075 137.192  1.00  0.00    -0.452 OA
ENDROOT
BRANCH   1  12
ATOM     12  C   UNL     1     142.453 148.387 136.730  1.00  0.00     0.025 A 
ATOM     13  C   UNL     1     142.179 148.848 135.430  1.00  0.00     0.016 A 
ATOM     14  C   UNL     1     141.749 150.161 135.222  1.00  0.00     0.051 A 
ATOM     15  C   UNL     1     141.574 151.028 136.309  1.00  0.00     0.157 A 
ATOM     16  C   UNL     1     142.255 149.253 137.817  1.00  0.00     0.062 A 
ATOM     17  C   UNL     1     141.824 150.570 137.613  1.00  0.00     0.158 A 
BRANCH  15  18
ATOM     18  O   UNL     1     141.146 152.338 136.098  1.00  0.00    -0.504 OA
ATOM     19  H   UNL     1     141.290 153.062 136.792  1.00  0.00     0.293 HD
ENDBRANCH  15  18
BRANCH  17  20
ATOM     20  O   UNL     1     141.652 151.405 138.716  1.00  0.00    -0.504 OA
ATOM     21  H   UNL     1     142.312 151.426 139.483  1.00  0.00     0.293 HD
ENDBRANCH  17  20
ENDBRANCH   1  12
BRANCH   2  22
ATOM     22  O   UNL     1     145.237 147.599 136.887  1.00  0.00    -0.502 OA
ATOM     23  H   UNL     1     146.111 147.422 136.405  1.00  0.00     0.293 HD
ENDBRANCH   2  22
BRANCH   6  24
ATOM     24  O   UNL     1     145.034 142.310 137.472  1.00  0.00    -0.507 OA
ATOM     25  H   UNL     1     145.419 141.669 138.150  1.00  0.00     0.293 HD
ENDBRANCH   6  24
BRANCH   8  26
ATOM     26  O   UNL     1     140.315 141.718 138.135  1.00  0.00    -0.508 OA
ATOM     27  H   UNL     1     140.357 140.729 137.915  1.00  0.00     0.293 HD
ENDBRANCH   8  26
TORSDOF 6
ENDMDL
