MODEL 1
REMARK VINA RESULT:    -3.288      0.000      0.000
REMARK INTER + INTRA:          -7.570
REMARK INTER:                  -5.786
REMARK INTRA:                  -1.784
REMARK UNBOUND:                -1.784
REMARK SMILES CCCCCCC=CCCCCCCCC(=O)[O-]
REMARK SMILES IDX 10 1 11 2 12 3 13 4 14 5 15 6 16 7 17 8 18 9 9 10 8 11 7 12
REMARK SMILES IDX 6 13 5 14 4 15 3 16 2 17 1 18
REMARK H PARENT
REMARK Flexibility Score: inf
ROOT
ATOM      1  C   UNL     1      44.711  58.896  30.395  1.00  0.00     0.004 C 
ENDROOT
BRANCH   1   2
ATOM      2  C   UNL     1      43.244  58.517  30.668  1.00  0.00     0.000 C 
BRANCH   2   3
ATOM      3  C   UNL     1      42.955  57.003  30.662  1.00  0.00     0.000 C 
BRANCH   3   4
ATOM      4  C   UNL     1      41.655  56.581  31.376  1.00  0.00     0.000 C 
BRANCH   4   5
ATOM      5  C   UNL     1      41.576  55.093  31.759  1.00  0.00     0.006 C 
BRANCH   5   6
ATOM      6  C   UNL     1      42.682  54.671  32.735  1.00  0.00     0.053 C 
BRANCH   6   7
ATOM      7  C   UNL     1      42.266  54.947  34.145  1.00  0.00     0.041 C 
ATOM      8  O   UNL     1      43.135  55.087  35.046  1.00  0.00    -0.550 OA
ATOM      9  O   UNL     1      40.921  55.099  34.457  1.00  0.00    -0.550 OA
ENDBRANCH   6   7
ENDBRANCH   5   6
ENDBRANCH   4   5
ENDBRANCH   3   4
ENDBRANCH   2   3
ENDBRANCH   1   2
BRANCH   1  10
ATOM     10  C   UNL     1      45.529  57.731  29.822  1.00  0.00     0.027 C 
BRANCH  10  11
ATOM     11  C   UNL     1      46.880  58.207  29.355  1.00  0.00    -0.031 C 
ATOM     12  C   UNL     1      47.894  57.400  28.994  1.00  0.00    -0.031 C 
BRANCH  12  13
ATOM     13  C   UNL     1      47.806  55.894  28.910  1.00  0.00     0.027 C 
BRANCH  13  14
ATOM     14  C   UNL     1      47.408  55.413  27.504  1.00  0.00     0.004 C 
BRANCH  14  15
ATOM     15  C   UNL     1      46.332  54.312  27.489  1.00  0.00     0.000 C 
BRANCH  15  16
ATOM     16  C   UNL     1      44.901  54.875  27.539  1.00  0.00    -0.000 C 
BRANCH  16  17
ATOM     17  C   UNL     1      44.051  54.224  28.641  1.00  0.00    -0.003 C 
ATOM     18  C   UNL     1      44.873  53.822  29.866  1.00  0.00     0.004 C 
ENDBRANCH  16  17
ENDBRANCH  15  16
ENDBRANCH  14  15
ENDBRANCH  13  14
ENDBRANCH  12  13
ENDBRANCH  10  11
ENDBRANCH   1  10
TORSDOF 13
ENDMDL
MODEL 2
REMARK VINA RESULT:    -3.268     12.831     14.919
REMARK INTER + INTRA:          -7.535
REMARK INTER:                  -5.718
REMARK INTRA:                  -1.817
REMARK UNBOUND:                -1.784
REMARK SMILES CCCCCCC=CCCCCCCCC(=O)[O-]
REMARK SMILES IDX 10 1 11 2 12 3 13 4 14 5 15 6 16 7 17 8 18 9 9 10 8 11 7 12
REMARK SMILES IDX 6 13 5 14 4 15 3 16 2 17 1 18
REMARK H PARENT
REMARK Flexibility Score: inf
ROOT
ATOM      1  C   UNL     1      44.041  71.642  30.453  1.00  0.00     0.004 C 
ENDROOT
BRANCH   1   2
ATOM      2  C   UNL     1      43.999  73.008  31.162  1.00  0.00     0.000 C 
BRANCH   2   3
ATOM      3  C   UNL     1      43.493  72.967  32.618  1.00  0.00     0.000 C 
BRANCH   3   4
ATOM      4  C   UNL     1      43.368  71.557  33.229  1.00  0.00     0.000 C 
BRANCH   4   5
ATOM      5  C   UNL     1      42.644  71.499  34.586  1.00  0.00     0.006 C 
BRANCH   5   6
ATOM      6  C   UNL     1      41.129  71.303  34.443  1.00  0.00     0.053 C 
BRANCH   6   7
ATOM      7  C   UNL     1      40.645  70.263  35.404  1.00  0.00     0.041 C 
ATOM      8  O   UNL     1      39.613  70.470  36.095  1.00  0.00    -0.550 OA
ATOM      9  O   UNL     1      41.304  69.044  35.500  1.00  0.00    -0.550 OA
ENDBRANCH   6   7
ENDBRANCH   5   6
ENDBRANCH   4   5
ENDBRANCH   3   4
ENDBRANCH   2   3
ENDBRANCH   1   2
BRANCH   1  10
ATOM     10  C   UNL     1      45.408  71.343  29.823  1.00  0.00     0.027 C 
BRANCH  10  11
ATOM     11  C   UNL     1      46.511  71.520  30.834  1.00  0.00    -0.031 C 
ATOM     12  C   UNL     1      46.932  70.565  31.683  1.00  0.00    -0.031 C 
BRANCH  12  13
ATOM     13  C   UNL     1      46.432  69.140  31.690  1.00  0.00     0.027 C 
BRANCH  13  14
ATOM     14  C   UNL     1      47.274  68.232  32.604  1.00  0.00     0.004 C 
BRANCH  14  15
ATOM     15  C   UNL     1      46.495  67.614  33.779  1.00  0.00     0.000 C 
BRANCH  15  16
ATOM     16  C   UNL     1      45.064  68.165  33.903  1.00  0.00    -0.000 C 
BRANCH  16  17
ATOM     17  C   UNL     1      44.748  68.667  35.320  1.00  0.00    -0.003 C 
ATOM     18  C   UNL     1      45.737  69.724  35.811  1.00  0.00     0.004 C 
ENDBRANCH  16  17
ENDBRANCH  15  16
ENDBRANCH  14  15
ENDBRANCH  13  14
ENDBRANCH  12  13
ENDBRANCH  10  11
ENDBRANCH   1  10
TORSDOF 13
ENDMDL
MODEL 3
REMARK VINA RESULT:    -3.257      3.284      5.760
REMARK INTER + INTRA:          -7.516
REMARK INTER:                  -5.651
REMARK INTRA:                  -1.864
REMARK UNBOUND:                -1.784
REMARK SMILES CCCCCCC=CCCCCCCCC(=O)[O-]
REMARK SMILES IDX 10 1 11 2 12 3 13 4 14 5 15 6 16 7 17 8 18 9 9 10 8 11 7 12
REMARK SMILES IDX 6 13 5 14 4 15 3 16 2 17 1 18
REMARK H PARENT
REMARK Flexibility Score: inf
ROOT
ATOM      1  C   UNL     1      41.934  58.069  30.738  1.00  0.00     0.004 C 
ENDROOT
BRANCH   1   2
ATOM      2  C   UNL     1      43.264  58.485  31.391  1.00  0.00     0.000 C 
BRANCH   2   3
ATOM      3  C   UNL     1      44.378  58.877  30.401  1.00  0.00     0.000 C 
BRANCH   3   4
ATOM      4  C   UNL     1      45.219  57.703  29.860  1.00  0.00     0.000 C 
BRANCH   4   5
ATOM      5  C   UNL     1      46.580  58.099  29.262  1.00  0.00     0.006 C 
BRANCH   5   6
ATOM      6  C   UNL     1      47.357  56.899  28.707  1.00  0.00     0.053 C 
BRANCH   6   7
ATOM      7  C   UNL     1      46.939  56.612  27.299  1.00  0.00     0.041 C 
ATOM      8  O   UNL     1      47.007  57.513  26.422  1.00  0.00    -0.550 OA
ATOM      9  O   UNL     1      46.522  55.336  26.944  1.00  0.00    -0.550 OA
ENDBRANCH   6   7
ENDBRANCH   5   6
ENDBRANCH   4   5
ENDBRANCH   3   4
ENDBRANCH   2   3
ENDBRANCH   1   2
BRANCH   1  10
ATOM     10  C   UNL     1      41.724  56.549  30.733  1.00  0.00     0.027 C 
BRANCH  10  11
ATOM     11  C   UNL     1      42.159  55.948  32.045  1.00  0.00    -0.031 C 
ATOM     12  C   UNL     1      41.945  54.670  32.410  1.00  0.00    -0.031 C 
BRANCH  12  13
ATOM     13  C   UNL     1      41.323  53.616  31.525  1.00  0.00     0.027 C 
BRANCH  13  14
ATOM     14  C   UNL     1      42.372  52.875  30.678  1.00  0.00     0.004 C 
BRANCH  14  15
ATOM     15  C   UNL     1      42.435  53.324  29.206  1.00  0.00     0.000 C 
BRANCH  15  16
ATOM     16  C   UNL     1      43.748  54.047  28.859  1.00  0.00    -0.000 C 
BRANCH  16  17
ATOM     17  C   UNL     1      44.963  53.436  29.574  1.00  0.00    -0.003 C 
ATOM     18  C   UNL     1      45.453  54.287  30.745  1.00  0.00     0.004 C 
ENDBRANCH  16  17
ENDBRANCH  15  16
ENDBRANCH  14  15
ENDBRANCH  13  14
ENDBRANCH  12  13
ENDBRANCH  10  11
ENDBRANCH   1  10
TORSDOF 13
ENDMDL
MODEL 4
REMARK VINA RESULT:    -3.223      3.663      6.354
REMARK INTER + INTRA:          -7.456
REMARK INTER:                  -5.948
REMARK INTRA:                  -1.508
REMARK UNBOUND:                -1.784
REMARK SMILES CCCCCCC=CCCCCCCCC(=O)[O-]
REMARK SMILES IDX 10 1 11 2 12 3 13 4 14 5 15 6 16 7 17 8 18 9 9 10 8 11 7 12
REMARK SMILES IDX 6 13 5 14 4 15 3 16 2 17 1 18
REMARK H PARENT
REMARK Flexibility Score: inf
ROOT
ATOM      1  C   UNL     1      46.265  58.243  29.667  1.00  0.00     0.004 C 
ENDROOT
BRANCH   1   2
ATOM      2  C   UNL     1      47.113  57.285  28.812  1.00  0.00     0.000 C 
BRANCH   2   3
ATOM      3  C   UNL     1      46.340  56.556  27.695  1.00  0.00     0.000 C 
BRANCH   3   4
ATOM      4  C   UNL     1      46.955  56.676  26.286  1.00  0.00     0.000 C 
BRANCH   4   5
ATOM      5  C   UNL     1      46.612  55.523  25.326  1.00  0.00     0.006 C 
BRANCH   5   6
ATOM      6  C   UNL     1      45.617  54.523  25.930  1.00  0.00     0.053 C 
BRANCH   6   7
ATOM      7  C   UNL     1      44.415  54.388  25.051  1.00  0.00     0.041 C 
ATOM      8  O   UNL     1      44.443  54.818  23.867  1.00  0.00    -0.550 OA
ATOM      9  O   UNL     1      43.279  53.742  25.521  1.00  0.00    -0.550 OA
ENDBRANCH   6   7
ENDBRANCH   5   6
ENDBRANCH   4   5
ENDBRANCH   3   4
ENDBRANCH   2   3
ENDBRANCH   1   2
BRANCH   1  10
ATOM     10  C   UNL     1      44.885  57.666  30.012  1.00  0.00     0.027 C 
BRANCH  10  11
ATOM     11  C   UNL     1      43.967  58.748  30.519  1.00  0.00    -0.031 C 
ATOM     12  C   UNL     1      42.667  58.571  30.818  1.00  0.00    -0.031 C 
BRANCH  12  13
ATOM     13  C   UNL     1      41.950  57.242  30.783  1.00  0.00     0.027 C 
BRANCH  13  14
ATOM     14  C   UNL     1      41.762  56.646  32.188  1.00  0.00     0.004 C 
BRANCH  14  15
ATOM     15  C   UNL     1      42.333  55.227  32.360  1.00  0.00     0.000 C 
BRANCH  15  16
ATOM     16  C   UNL     1      42.109  54.340  31.123  1.00  0.00    -0.000 C 
BRANCH  16  17
ATOM     17  C   UNL     1      43.427  53.850  30.503  1.00  0.00    -0.003 C 
ATOM     18  C   UNL     1      43.614  54.318  29.060  1.00  0.00     0.004 C 
ENDBRANCH  16  17
ENDBRANCH  15  16
ENDBRANCH  14  15
ENDBRANCH  13  14
ENDBRANCH  12  13
ENDBRANCH  10  11
ENDBRANCH   1  10
TORSDOF 13
ENDMDL
MODEL 5
REMARK VINA RESULT:    -3.203     13.318     15.085
REMARK INTER + INTRA:          -7.420
REMARK INTER:                  -5.007
REMARK INTRA:                  -2.413
REMARK UNBOUND:                -1.784
REMARK SMILES CCCCCCC=CCCCCCCCC(=O)[O-]
REMARK SMILES IDX 10 1 11 2 12 3 13 4 14 5 15 6 16 7 17 8 18 9 9 10 8 11 7 12
REMARK SMILES IDX 6 13 5 14 4 15 3 16 2 17 1 18
REMARK H PARENT
REMARK Flexibility Score: inf
ROOT
ATOM      1  C   UNL     1      46.150  68.883  32.144  1.00  0.00     0.004 C 
ENDROOT
BRANCH   1   2
ATOM      2  C   UNL     1      45.073  68.435  33.148  1.00  0.00     0.000 C 
BRANCH   2   3
ATOM      3  C   UNL     1      45.612  67.994  34.523  1.00  0.00     0.000 C 
BRANCH   3   4
ATOM      4  C   UNL     1      44.631  68.170  35.700  1.00  0.00     0.000 C 
BRANCH   4   5
ATOM      5  C   UNL     1      43.572  69.269  35.505  1.00  0.00     0.006 C 
BRANCH   5   6
ATOM      6  C   UNL     1      42.137  68.729  35.558  1.00  0.00     0.053 C 
BRANCH   6   7
ATOM      7  C   UNL     1      41.163  69.851  35.728  1.00  0.00     0.041 C 
ATOM      8  O   UNL     1      41.077  70.754  34.854  1.00  0.00    -0.550 OA
ATOM      9  O   UNL     1      40.314  69.875  36.828  1.00  0.00    -0.550 OA
ENDBRANCH   6   7
ENDBRANCH   5   6
ENDBRANCH   4   5
ENDBRANCH   3   4
ENDBRANCH   2   3
ENDBRANCH   1   2
BRANCH   1  10
ATOM     10  C   UNL     1      47.438  69.361  32.828  1.00  0.00     0.027 C 
BRANCH  10  11
ATOM     11  C   UNL     1      47.745  70.786  32.448  1.00  0.00    -0.031 C 
ATOM     12  C   UNL     1      47.177  71.868  33.011  1.00  0.00    -0.031 C 
BRANCH  12  13
ATOM     13  C   UNL     1      46.214  71.826  34.173  1.00  0.00     0.027 C 
BRANCH  13  14
ATOM     14  C   UNL     1      44.898  72.563  33.865  1.00  0.00     0.004 C 
BRANCH  14  15
ATOM     15  C   UNL     1      43.975  71.829  32.874  1.00  0.00     0.000 C 
BRANCH  15  16
ATOM     16  C   UNL     1      43.928  72.504  31.492  1.00  0.00    -0.000 C 
BRANCH  16  17
ATOM     17  C   UNL     1      44.106  71.501  30.341  1.00  0.00    -0.003 C 
ATOM     18  C   UNL     1      45.476  71.604  29.671  1.00  0.00     0.004 C 
ENDBRANCH  16  17
ENDBRANCH  15  16
ENDBRANCH  14  15
ENDBRANCH  13  14
ENDBRANCH  12  13
ENDBRANCH  10  11
ENDBRANCH   1  10
TORSDOF 13
ENDMDL
MODEL 6
REMARK VINA RESULT:    -3.179      2.258      3.233
REMARK INTER + INTRA:          -7.379
REMARK INTER:                  -5.477
REMARK INTRA:                  -1.903
REMARK UNBOUND:                -1.784
REMARK SMILES CCCCCCC=CCCCCCCCC(=O)[O-]
REMARK SMILES IDX 10 1 11 2 12 3 13 4 14 5 15 6 16 7 17 8 18 9 9 10 8 11 7 12
REMARK SMILES IDX 6 13 5 14 4 15 3 16 2 17 1 18
REMARK H PARENT
REMARK Flexibility Score: inf
ROOT
ATOM      1  C   UNL     1      46.532  58.034  29.644  1.00  0.00     0.004 C 
ENDROOT
BRANCH   1   2
ATOM      2  C   UNL     1      45.139  57.379  29.636  1.00  0.00     0.000 C 
BRANCH   2   3
ATOM      3  C   UNL     1      45.127  55.878  29.988  1.00  0.00     0.000 C 
BRANCH   3   4
ATOM      4  C   UNL     1      43.758  55.182  29.847  1.00  0.00     0.000 C 
BRANCH   4   5
ATOM      5  C   UNL     1      43.034  54.895  31.174  1.00  0.00     0.006 C 
BRANCH   5   6
ATOM      6  C   UNL     1      41.663  55.576  31.263  1.00  0.00     0.053 C 
BRANCH   6   7
ATOM      7  C   UNL     1      41.820  57.019  31.626  1.00  0.00     0.041 C 
ATOM      8  O   UNL     1      42.007  57.354  32.825  1.00  0.00    -0.550 OA
ATOM      9  O   UNL     1      41.811  57.991  30.634  1.00  0.00    -0.550 OA
ENDBRANCH   6   7
ENDBRANCH   5   6
ENDBRANCH   4   5
ENDBRANCH   3   4
ENDBRANCH   2   3
ENDBRANCH   1   2
BRANCH   1  10
ATOM     10  C   UNL     1      47.513  57.354  28.679  1.00  0.00     0.027 C 
BRANCH  10  11
ATOM     11  C   UNL     1      46.994  57.409  27.265  1.00  0.00    -0.031 C 
ATOM     12  C   UNL     1      46.941  56.357  26.428  1.00  0.00    -0.031 C 
BRANCH  12  13
ATOM     13  C   UNL     1      47.305  54.940  26.804  1.00  0.00     0.027 C 
BRANCH  13  14
ATOM     14  C   UNL     1      46.069  54.030  26.902  1.00  0.00     0.004 C 
BRANCH  14  15
ATOM     15  C   UNL     1      44.770  54.658  26.363  1.00  0.00     0.000 C 
BRANCH  15  16
ATOM     16  C   UNL     1      44.268  53.979  25.077  1.00  0.00    -0.000 C 
BRANCH  16  17
ATOM     17  C   UNL     1      44.788  54.669  23.806  1.00  0.00    -0.003 C 
ATOM     18  C   UNL     1      45.964  53.930  23.169  1.00  0.00     0.004 C 
ENDBRANCH  16  17
ENDBRANCH  15  16
ENDBRANCH  14  15
ENDBRANCH  13  14
ENDBRANCH  12  13
ENDBRANCH  10  11
ENDBRANCH   1  10
TORSDOF 13
ENDMDL
MODEL 7
REMARK VINA RESULT:    -3.148     13.106     15.534
REMARK INTER + INTRA:          -7.324
REMARK INTER:                  -5.283
REMARK INTRA:                  -2.041
REMARK UNBOUND:                -1.784
REMARK SMILES CCCCCCC=CCCCCCCCC(=O)[O-]
REMARK SMILES IDX 10 1 11 2 12 3 13 4 14 5 15 6 16 7 17 8 18 9 9 10 8 11 7 12
REMARK SMILES IDX 6 13 5 14 4 15 3 16 2 17 1 18
REMARK H PARENT
REMARK Flexibility Score: inf
ROOT
ATOM      1  C   UNL     1      45.411  71.208  29.864  1.00  0.00     0.004 C 
ENDROOT
BRANCH   1   2
ATOM      2  C   UNL     1      46.062  70.235  30.864  1.00  0.00     0.000 C 
BRANCH   2   3
ATOM      3  C   UNL     1      47.386  70.730  31.480  1.00  0.00     0.000 C 
BRANCH   3   4
ATOM      4  C   UNL     1      47.709  70.168  32.879  1.00  0.00     0.000 C 
BRANCH   4   5
ATOM      5  C   UNL     1      46.647  70.456  33.955  1.00  0.00     0.006 C 
BRANCH   5   6
ATOM      6  C   UNL     1      46.427  69.271  34.904  1.00  0.00     0.053 C 
BRANCH   6   7
ATOM      7  C   UNL     1      45.964  68.070  34.141  1.00  0.00     0.041 C 
ATOM      8  O   UNL     1      46.663  67.023  34.123  1.00  0.00    -0.550 OA
ATOM      9  O   UNL     1      44.737  68.090  33.491  1.00  0.00    -0.550 OA
ENDBRANCH   6   7
ENDBRANCH   5   6
ENDBRANCH   4   5
ENDBRANCH   3   4
ENDBRANCH   2   3
ENDBRANCH   1   2
BRANCH   1  10
ATOM     10  C   UNL     1      44.057  71.742  30.352  1.00  0.00     0.027 C 
BRANCH  10  11
ATOM     11  C   UNL     1      44.252  72.849  31.355  1.00  0.00    -0.031 C 
ATOM     12  C   UNL     1      43.837  72.805  32.635  1.00  0.00    -0.031 C 
BRANCH  12  13
ATOM     13  C   UNL     1      43.196  71.603  33.289  1.00  0.00     0.027 C 
BRANCH  13  14
ATOM     14  C   UNL     1      41.920  71.975  34.063  1.00  0.00     0.004 C 
BRANCH  14  15
ATOM     15  C   UNL     1      41.912  71.520  35.534  1.00  0.00     0.000 C 
BRANCH  15  16
ATOM     16  C   UNL     1      43.239  70.873  35.966  1.00  0.00    -0.000 C 
BRANCH  16  17
ATOM     17  C   UNL     1      43.052  69.443  36.494  1.00  0.00    -0.003 C 
ATOM     18  C   UNL     1      42.123  68.603  35.618  1.00  0.00     0.004 C 
ENDBRANCH  16  17
ENDBRANCH  15  16
ENDBRANCH  14  15
ENDBRANCH  13  14
ENDBRANCH  12  13
ENDBRANCH  10  11
ENDBRANCH   1  10
TORSDOF 13
ENDMDL
MODEL 8
REMARK VINA RESULT:    -3.141      3.655      6.296
REMARK INTER + INTRA:          -7.312
REMARK INTER:                  -5.436
REMARK INTRA:                  -1.876
REMARK UNBOUND:                -1.784
REMARK SMILES CCCCCCC=CCCCCCCCC(=O)[O-]
REMARK SMILES IDX 10 1 11 2 12 3 13 4 14 5 15 6 16 7 17 8 18 9 9 10 8 11 7 12
REMARK SMILES IDX 6 13 5 14 4 15 3 16 2 17 1 18
REMARK H PARENT
REMARK Flexibility Score: inf
ROOT
ATOM      1  C   UNL     1      45.990  57.777  29.635  1.00  0.00     0.004 C 
ENDROOT
BRANCH   1   2
ATOM      2  C   UNL     1      47.227  57.581  28.740  1.00  0.00     0.000 C 
BRANCH   2   3
ATOM      3  C   UNL     1      46.915  57.258  27.265  1.00  0.00     0.000 C 
BRANCH   3   4
ATOM      4  C   UNL     1      47.537  55.950  26.735  1.00  0.00     0.000 C 
BRANCH   4   5
ATOM      5  C   UNL     1      46.639  55.142  25.782  1.00  0.00     0.006 C 
BRANCH   5   6
ATOM      6  C   UNL     1      45.219  54.945  26.329  1.00  0.00     0.053 C 
BRANCH   6   7
ATOM      7  C   UNL     1      44.310  54.443  25.252  1.00  0.00     0.041 C 
ATOM      8  O   UNL     1      43.318  53.724  25.544  1.00  0.00    -0.550 OA
ATOM      9  O   UNL     1      44.529  54.808  23.930  1.00  0.00    -0.550 OA
ENDBRANCH   6   7
ENDBRANCH   5   6
ENDBRANCH   4   5
ENDBRANCH   3   4
ENDBRANCH   2   3
ENDBRANCH   1   2
BRANCH   1  10
ATOM     10  C   UNL     1      44.943  56.670  29.451  1.00  0.00     0.027 C 
BRANCH  10  11
ATOM     11  C   UNL     1      45.413  55.384  30.082  1.00  0.00    -0.031 C 
ATOM     12  C   UNL     1      44.745  54.217  30.029  1.00  0.00    -0.031 C 
BRANCH  12  13
ATOM     13  C   UNL     1      43.471  53.990  29.251  1.00  0.00     0.027 C 
BRANCH  13  14
ATOM     14  C   UNL     1      42.219  54.108  30.138  1.00  0.00     0.004 C 
BRANCH  14  15
ATOM     15  C   UNL     1      42.508  54.099  31.650  1.00  0.00     0.000 C 
BRANCH  15  16
ATOM     16  C   UNL     1      42.132  55.423  32.337  1.00  0.00    -0.000 C 
BRANCH  16  17
ATOM     17  C   UNL     1      41.513  56.437  31.362  1.00  0.00    -0.003 C 
ATOM     18  C   UNL     1      42.291  57.751  31.297  1.00  0.00     0.004 C 
ENDBRANCH  16  17
ENDBRANCH  15  16
ENDBRANCH  14  15
ENDBRANCH  13  14
ENDBRANCH  12  13
ENDBRANCH  10  11
ENDBRANCH   1  10
TORSDOF 13
ENDMDL
MODEL 9
REMARK VINA RESULT:    -3.117     13.229     15.702
REMARK INTER + INTRA:          -7.270
REMARK INTER:                  -5.495
REMARK INTRA:                  -1.775
REMARK UNBOUND:                -1.784
REMARK SMILES CCCCCCC=CCCCCCCCC(=O)[O-]
REMARK SMILES IDX 10 1 11 2 12 3 13 4 14 5 15 6 16 7 17 8 18 9 9 10 8 11 7 12
REMARK SMILES IDX 6 13 5 14 4 15 3 16 2 17 1 18
REMARK H PARENT
REMARK Flexibility Score: inf
ROOT
ATOM      1  C   UNL     1      44.056  72.242  31.674  1.00  0.00     0.004 C 
ENDROOT
BRANCH   1   2
ATOM      2  C   UNL     1      44.391  71.519  30.357  1.00  0.00     0.000 C 
BRANCH   2   3
ATOM      3  C   UNL     1      45.796  70.887  30.304  1.00  0.00     0.000 C 
BRANCH   3   4
ATOM      4  C   UNL     1      45.851  69.383  30.641  1.00  0.00     0.000 C 
BRANCH   4   5
ATOM      5  C   UNL     1      47.254  68.841  30.967  1.00  0.00     0.006 C 
BRANCH   5   6
ATOM      6  C   UNL     1      47.876  69.505  32.201  1.00  0.00     0.053 C 
BRANCH   6   7
ATOM      7  C   UNL     1      47.171  69.061  33.444  1.00  0.00     0.041 C 
ATOM      8  O   UNL     1      46.862  69.899  34.331  1.00  0.00    -0.550 OA
ATOM      9  O   UNL     1      46.810  67.729  33.600  1.00  0.00    -0.550 OA
ENDBRANCH   6   7
ENDBRANCH   5   6
ENDBRANCH   4   5
ENDBRANCH   3   4
ENDBRANCH   2   3
ENDBRANCH   1   2
BRANCH   1  10
ATOM     10  C   UNL     1      43.941  71.282  32.866  1.00  0.00     0.027 C 
BRANCH  10  11
ATOM     11  C   UNL     1      43.985  72.041  34.167  1.00  0.00    -0.031 C 
ATOM     12  C   UNL     1      42.905  72.527  34.806  1.00  0.00    -0.031 C 
BRANCH  12  13
ATOM     13  C   UNL     1      41.476  72.308  34.369  1.00  0.00     0.027 C 
BRANCH  13  14
ATOM     14  C   UNL     1      40.855  71.058  35.017  1.00  0.00     0.004 C 
BRANCH  14  15
ATOM     15  C   UNL     1      41.272  70.828  36.482  1.00  0.00     0.000 C 
BRANCH  15  16
ATOM     16  C   UNL     1      41.696  69.375  36.760  1.00  0.00    -0.000 C 
BRANCH  16  17
ATOM     17  C   UNL     1      42.216  68.663  35.501  1.00  0.00    -0.003 C 
ATOM     18  C   UNL     1      43.741  68.563  35.462  1.00  0.00     0.004 C 
ENDBRANCH  16  17
ENDBRANCH  15  16
ENDBRANCH  14  15
ENDBRANCH  13  14
ENDBRANCH  12  13
ENDBRANCH  10  11
ENDBRANCH   1  10
TORSDOF 13
ENDMDL
