MODEL 1
REMARK VINA RESULT:    -3.320      0.000      0.000
REMARK INTER + INTRA:          -3.320
REMARK INTER:                  -3.320
REMARK INTRA:                   0.000
REMARK UNBOUND:                 0.000
REMARK SMILES CC(C)=C1CC[C@@H](C)CC1=O
REMARK SMILES IDX 8 1 7 2 6 3 5 4 4 5 2 6 1 7 3 8 10 9 11 10 9 11
REMARK H PARENT
REMARK Flexibility Score: inf
ROOT
ATOM      1  C   UNL     1      21.280  43.388  89.252  1.00  0.00     0.008 C 
ATOM      2  C   UNL     1      22.177  42.440  90.065  1.00  0.00    -0.006 C 
ATOM      3  C   UNL     1      21.444  41.150  90.474  1.00  0.00     0.008 C 
ATOM      4  C   UNL     1      20.308  41.397  91.478  1.00  0.00     0.039 C 
ATOM      5  C   UNL     1      20.736  42.257  92.661  1.00  0.00    -0.006 C 
ATOM      6  C   UNL     1      20.154  42.110  93.887  1.00  0.00    -0.070 C 
ATOM      7  C   UNL     1      20.605  42.916  95.084  1.00  0.00     0.039 C 
ATOM      8  C   UNL     1      19.049  41.103  94.116  1.00  0.00     0.039 C 
ATOM      9  C   UNL     1      21.729  43.332  92.371  1.00  0.00     0.159 C 
ATOM     10  O   UNL     1      21.713  44.425  93.000  1.00  0.00    -0.295 OA
ATOM     11  C   UNL     1      22.765  43.133  91.304  1.00  0.00     0.084 C 
ENDROOT
TORSDOF 0
ENDMDL
MODEL 2
REMARK VINA RESULT:    -3.314      2.630      3.768
REMARK INTER + INTRA:          -3.314
REMARK INTER:                  -3.314
REMARK INTRA:                   0.000
REMARK UNBOUND:                 0.000
REMARK SMILES CC(C)=C1CC[C@@H](C)CC1=O
REMARK SMILES IDX 8 1 7 2 6 3 5 4 4 5 2 6 1 7 3 8 10 9 11 10 9 11
REMARK H PARENT
REMARK Flexibility Score: inf
ROOT
ATOM      1  C   UNL     1      21.508  43.405  88.842  1.00  0.00     0.008 C 
ATOM      2  C   UNL     1      22.434  42.293  89.364  1.00  0.00    -0.006 C 
ATOM      3  C   UNL     1      22.472  41.075  88.424  1.00  0.00     0.008 C 
ATOM      4  C   UNL     1      21.132  40.324  88.360  1.00  0.00     0.039 C 
ATOM      5  C   UNL     1      20.557  40.015  89.735  1.00  0.00    -0.006 C 
ATOM      6  C   UNL     1      19.778  38.913  89.943  1.00  0.00    -0.070 C 
ATOM      7  C   UNL     1      19.246  38.562  91.314  1.00  0.00     0.039 C 
ATOM      8  C   UNL     1      19.441  37.966  88.814  1.00  0.00     0.039 C 
ATOM      9  C   UNL     1      20.793  41.038  90.796  1.00  0.00     0.159 C 
ATOM     10  O   UNL     1      19.946  41.246  91.706  1.00  0.00    -0.295 OA
ATOM     11  C   UNL     1      22.052  41.856  90.787  1.00  0.00     0.084 C 
ENDROOT
TORSDOF 0
ENDMDL
MODEL 3
REMARK VINA RESULT:    -3.234      1.321      3.751
REMARK INTER + INTRA:          -3.234
REMARK INTER:                  -3.234
REMARK INTRA:                   0.000
REMARK UNBOUND:                 0.000
REMARK SMILES CC(C)=C1CC[C@@H](C)CC1=O
REMARK SMILES IDX 8 1 7 2 6 3 5 4 4 5 2 6 1 7 3 8 10 9 11 10 9 11
REMARK H PARENT
REMARK Flexibility Score: inf
ROOT
ATOM      1  C   UNL     1      22.964  42.942  95.328  1.00  0.00     0.008 C 
ATOM      2  C   UNL     1      21.748  43.775  94.890  1.00  0.00    -0.006 C 
ATOM      3  C   UNL     1      20.503  42.906  94.642  1.00  0.00     0.008 C 
ATOM      4  C   UNL     1      20.656  41.968  93.434  1.00  0.00     0.039 C 
ATOM      5  C   UNL     1      21.158  42.682  92.187  1.00  0.00    -0.006 C 
ATOM      6  C   UNL     1      20.809  42.253  90.938  1.00  0.00    -0.070 C 
ATOM      7  C   UNL     1      21.254  42.984  89.692  1.00  0.00     0.039 C 
ATOM      8  C   UNL     1      19.925  41.042  90.744  1.00  0.00     0.039 C 
ATOM      9  C   UNL     1      22.136  43.788  92.407  1.00  0.00     0.159 C 
ATOM     10  O   UNL     1      23.048  44.032  91.571  1.00  0.00    -0.295 OA
ATOM     11  C   UNL     1      22.057  44.627  93.649  1.00  0.00     0.084 C 
ENDROOT
TORSDOF 0
ENDMDL
MODEL 4
REMARK VINA RESULT:    -3.213      3.149      5.418
REMARK INTER + INTRA:          -3.213
REMARK INTER:                  -3.213
REMARK INTRA:                   0.000
REMARK UNBOUND:                 0.000
REMARK SMILES CC(C)=C1CC[C@@H](C)CC1=O
REMARK SMILES IDX 8 1 7 2 6 3 5 4 4 5 2 6 1 7 3 8 10 9 11 10 9 11
REMARK H PARENT
REMARK Flexibility Score: inf
ROOT
ATOM      1  C   UNL     1      17.824  39.253  91.815  1.00  0.00     0.008 C 
ATOM      2  C   UNL     1      19.316  38.965  92.051  1.00  0.00    -0.006 C 
ATOM      3  C   UNL     1      20.122  40.248  92.322  1.00  0.00     0.008 C 
ATOM      4  C   UNL     1      20.201  41.177  91.100  1.00  0.00     0.039 C 
ATOM      5  C   UNL     1      20.618  40.452  89.827  1.00  0.00    -0.006 C 
ATOM      6  C   UNL     1      21.310  41.096  88.842  1.00  0.00    -0.070 C 
ATOM      7  C   UNL     1      21.779  40.376  87.598  1.00  0.00     0.039 C 
ATOM      8  C   UNL     1      21.672  42.558  88.966  1.00  0.00     0.039 C 
ATOM      9  C   UNL     1      20.128  39.050  89.675  1.00  0.00     0.159 C 
ATOM     10  O   UNL     1      19.854  38.572  88.541  1.00  0.00    -0.295 OA
ATOM     11  C   UNL     1      19.937  38.182  90.884  1.00  0.00     0.084 C 
ENDROOT
TORSDOF 0
ENDMDL
MODEL 5
REMARK VINA RESULT:    -3.196      2.961      5.013
REMARK INTER + INTRA:          -3.196
REMARK INTER:                  -3.196
REMARK INTRA:                   0.000
REMARK UNBOUND:                 0.000
REMARK SMILES CC(C)=C1CC[C@@H](C)CC1=O
REMARK SMILES IDX 8 1 7 2 6 3 5 4 4 5 2 6 1 7 3 8 10 9 11 10 9 11
REMARK H PARENT
REMARK Flexibility Score: inf
ROOT
ATOM      1  C   UNL     1      19.648  36.998  91.377  1.00  0.00     0.008 C 
ATOM      2  C   UNL     1      18.728  37.858  90.496  1.00  0.00    -0.006 C 
ATOM      3  C   UNL     1      19.295  38.059  89.079  1.00  0.00     0.008 C 
ATOM      4  C   UNL     1      20.579  38.904  89.061  1.00  0.00     0.039 C 
ATOM      5  C   UNL     1      20.452  40.197  89.855  1.00  0.00    -0.006 C 
ATOM      6  C   UNL     1      21.159  41.311  89.508  1.00  0.00    -0.070 C 
ATOM      7  C   UNL     1      21.002  42.618  90.252  1.00  0.00     0.039 C 
ATOM      8  C   UNL     1      22.111  41.302  88.333  1.00  0.00     0.039 C 
ATOM      9  C   UNL     1      19.611  40.136  91.087  1.00  0.00     0.159 C 
ATOM     10  O   UNL     1      19.882  40.836  92.100  1.00  0.00    -0.295 OA
ATOM     11  C   UNL     1      18.425  39.218  91.145  1.00  0.00     0.084 C 
ENDROOT
TORSDOF 0
ENDMDL
MODEL 6
REMARK VINA RESULT:    -3.190      1.596      2.719
REMARK INTER + INTRA:          -3.190
REMARK INTER:                  -3.190
REMARK INTRA:                   0.000
REMARK UNBOUND:                 0.000
REMARK SMILES CC(C)=C1CC[C@@H](C)CC1=O
REMARK SMILES IDX 8 1 7 2 6 3 5 4 4 5 2 6 1 7 3 8 10 9 11 10 9 11
REMARK H PARENT
REMARK Flexibility Score: inf
ROOT
ATOM      1  C   UNL     1      22.344  40.625  89.561  1.00  0.00     0.008 C 
ATOM      2  C   UNL     1      21.077  41.496  89.622  1.00  0.00    -0.006 C 
ATOM      3  C   UNL     1      21.404  42.997  89.722  1.00  0.00     0.008 C 
ATOM      4  C   UNL     1      22.077  43.378  91.049  1.00  0.00     0.039 C 
ATOM      5  C   UNL     1      21.343  42.833  92.267  1.00  0.00    -0.006 C 
ATOM      6  C   UNL     1      21.370  43.493  93.462  1.00  0.00    -0.070 C 
ATOM      7  C   UNL     1      20.601  42.993  94.664  1.00  0.00     0.039 C 
ATOM      8  C   UNL     1      22.144  44.780  93.629  1.00  0.00     0.039 C 
ATOM      9  C   UNL     1      20.703  41.494  92.108  1.00  0.00     0.159 C 
ATOM     10  O   UNL     1      20.622  40.688  93.074  1.00  0.00    -0.295 OA
ATOM     11  C   UNL     1      20.152  41.076  90.775  1.00  0.00     0.084 C 
ENDROOT
TORSDOF 0
ENDMDL
MODEL 7
REMARK VINA RESULT:    -3.174      3.045      4.369
REMARK INTER + INTRA:          -3.174
REMARK INTER:                  -3.174
REMARK INTRA:                   0.000
REMARK UNBOUND:                 0.000
REMARK SMILES CC(C)=C1CC[C@@H](C)CC1=O
REMARK SMILES IDX 8 1 7 2 6 3 5 4 4 5 2 6 1 7 3 8 10 9 11 10 9 11
REMARK H PARENT
REMARK Flexibility Score: inf
ROOT
ATOM      1  C   UNL     1      23.084  42.157  90.690  1.00  0.00     0.008 C 
ATOM      2  C   UNL     1      21.856  42.499  89.829  1.00  0.00    -0.006 C 
ATOM      3  C   UNL     1      20.545  42.446  90.634  1.00  0.00     0.008 C 
ATOM      4  C   UNL     1      20.182  41.026  91.098  1.00  0.00     0.039 C 
ATOM      5  C   UNL     1      20.251  39.998  89.977  1.00  0.00    -0.006 C 
ATOM      6  C   UNL     1      19.444  38.897  89.978  1.00  0.00    -0.070 C 
ATOM      7  C   UNL     1      19.461  37.897  88.844  1.00  0.00     0.039 C 
ATOM      8  C   UNL     1      18.464  38.644  91.101  1.00  0.00     0.039 C 
ATOM      9  C   UNL     1      21.320  40.204  88.956  1.00  0.00     0.159 C 
ATOM     10  O   UNL     1      21.884  39.227  88.392  1.00  0.00    -0.295 OA
ATOM     11  C   UNL     1      21.757  41.593  88.592  1.00  0.00     0.084 C 
ENDROOT
TORSDOF 0
ENDMDL
MODEL 8
REMARK VINA RESULT:    -3.111      1.216      4.039
REMARK INTER + INTRA:          -3.111
REMARK INTER:                  -3.111
REMARK INTRA:                   0.000
REMARK UNBOUND:                 0.000
REMARK SMILES CC(C)=C1CC[C@@H](C)CC1=O
REMARK SMILES IDX 8 1 7 2 6 3 5 4 4 5 2 6 1 7 3 8 10 9 11 10 9 11
REMARK H PARENT
REMARK Flexibility Score: inf
ROOT
ATOM      1  C   UNL     1      21.363  41.002  96.010  1.00  0.00     0.008 C 
ATOM      2  C   UNL     1      20.126  41.775  95.522  1.00  0.00    -0.006 C 
ATOM      3  C   UNL     1      19.158  40.883  94.724  1.00  0.00     0.008 C 
ATOM      4  C   UNL     1      19.744  40.406  93.386  1.00  0.00     0.039 C 
ATOM      5  C   UNL     1      20.346  41.538  92.564  1.00  0.00    -0.006 C 
ATOM      6  C   UNL     1      20.359  41.490  91.199  1.00  0.00    -0.070 C 
ATOM      7  C   UNL     1      20.904  42.630  90.369  1.00  0.00     0.039 C 
ATOM      8  C   UNL     1      19.793  40.305  90.451  1.00  0.00     0.039 C 
ATOM      9  C   UNL     1      21.018  42.627  93.332  1.00  0.00     0.159 C 
ATOM     10  O   UNL     1      22.019  43.236  92.866  1.00  0.00    -0.295 OA
ATOM     11  C   UNL     1      20.515  43.009  94.694  1.00  0.00     0.084 C 
ENDROOT
TORSDOF 0
ENDMDL
MODEL 9
REMARK VINA RESULT:    -3.003      1.595      4.167
REMARK INTER + INTRA:          -3.003
REMARK INTER:                  -3.003
REMARK INTRA:                   0.000
REMARK UNBOUND:                 0.000
REMARK SMILES CC(C)=C1CC[C@@H](C)CC1=O
REMARK SMILES IDX 8 1 7 2 6 3 5 4 4 5 2 6 1 7 3 8 10 9 11 10 9 11
REMARK H PARENT
REMARK Flexibility Score: inf
ROOT
ATOM      1  C   UNL     1      20.832  39.887  93.436  1.00  0.00     0.008 C 
ATOM      2  C   UNL     1      19.731  40.684  92.717  1.00  0.00    -0.006 C 
ATOM      3  C   UNL     1      19.346  40.058  91.364  1.00  0.00     0.008 C 
ATOM      4  C   UNL     1      20.476  40.131  90.325  1.00  0.00     0.039 C 
ATOM      5  C   UNL     1      21.083  41.522  90.202  1.00  0.00    -0.006 C 
ATOM      6  C   UNL     1      21.613  41.959  89.022  1.00  0.00    -0.070 C 
ATOM      7  C   UNL     1      22.169  43.357  88.869  1.00  0.00     0.039 C 
ATOM      8  C   UNL     1      21.636  41.074  87.797  1.00  0.00     0.039 C 
ATOM      9  C   UNL     1      21.169  42.319  91.461  1.00  0.00     0.159 C 
ATOM     10  O   UNL     1      22.115  43.128  91.661  1.00  0.00    -0.295 OA
ATOM     11  C   UNL     1      20.125  42.157  92.528  1.00  0.00     0.084 C 
ENDROOT
TORSDOF 0
ENDMDL
