MODEL 1
REMARK VINA RESULT:    -4.687      0.000      0.000
REMARK INTER + INTRA:          -7.226
REMARK INTER:                  -6.879
REMARK INTRA:                  -0.346
REMARK UNBOUND:                -0.346
REMARK SMILES O=C([O-])CCCCCCCC(=O)[O-]
REMARK SMILES IDX 7 1 6 2 5 3 4 4 2 5 1 6 3 7 8 8 9 9 10 10 11 11 12 12 13 13
REMARK H PARENT
REMARK Flexibility Score: inf
ROOT
ATOM      1  C   UNL     1      79.411  58.697  10.032  1.00  0.00     0.000 C 
ENDROOT
BRANCH   1   2
ATOM      2  C   UNL     1      79.728  57.273  10.503  1.00  0.00     0.000 C 
BRANCH   2   3
ATOM      3  C   UNL     1      78.587  56.308  10.149  1.00  0.00     0.006 C 
BRANCH   3   4
ATOM      4  C   UNL     1      77.614  56.909   9.127  1.00  0.00     0.053 C 
BRANCH   4   5
ATOM      5  C   UNL     1      77.730  56.242   7.791  1.00  0.00     0.041 C 
ATOM      6  O   UNL     1      77.704  56.928   6.735  1.00  0.00    -0.550 OA
ATOM      7  O   UNL     1      77.899  54.866   7.714  1.00  0.00    -0.550 OA
ENDBRANCH   4   5
ENDBRANCH   3   4
ENDBRANCH   2   3
ENDBRANCH   1   2
BRANCH   1   8
ATOM      8  C   UNL     1      80.445  59.698  10.573  1.00  0.00     0.000 C 
BRANCH   8   9
ATOM      9  C   UNL     1      81.821  59.058  10.808  1.00  0.00     0.006 C 
BRANCH   9  10
ATOM     10  C   UNL     1      82.719  59.905  11.719  1.00  0.00     0.053 C 
BRANCH  10  11
ATOM     11  C   UNL     1      83.687  60.702  10.903  1.00  0.00     0.041 C 
ATOM     12  O   UNL     1      83.280  61.654  10.186  1.00  0.00    -0.550 OA
ATOM     13  O   UNL     1      85.047  60.426  10.973  1.00  0.00    -0.550 OA
ENDBRANCH  10  11
ENDBRANCH   9  10
ENDBRANCH   8   9
ENDBRANCH   1   8
TORSDOF 8
ENDMDL
MODEL 2
REMARK VINA RESULT:    -4.656      1.241      1.591
REMARK INTER + INTRA:          -7.180
REMARK INTER:                  -6.813
REMARK INTRA:                  -0.367
REMARK UNBOUND:                -0.346
REMARK SMILES O=C([O-])CCCCCCCC(=O)[O-]
REMARK SMILES IDX 7 1 6 2 5 3 4 4 2 5 1 6 3 7 8 8 9 9 10 10 11 11 12 12 13 13
REMARK H PARENT
REMARK Flexibility Score: inf
ROOT
ATOM      1  C   UNL     1      79.253  58.677  10.021  1.00  0.00     0.000 C 
ENDROOT
BRANCH   1   2
ATOM      2  C   UNL     1      79.488  57.295  10.642  1.00  0.00     0.000 C 
BRANCH   2   3
ATOM      3  C   UNL     1      78.597  56.234   9.978  1.00  0.00     0.006 C 
BRANCH   3   4
ATOM      4  C   UNL     1      77.624  56.845   8.963  1.00  0.00     0.053 C 
BRANCH   4   5
ATOM      5  C   UNL     1      77.754  56.207   7.614  1.00  0.00     0.041 C 
ATOM      6  O   UNL     1      77.809  54.954   7.507  1.00  0.00    -0.550 OA
ATOM      7  O   UNL     1      77.782  56.998   6.472  1.00  0.00    -0.550 OA
ENDBRANCH   4   5
ENDBRANCH   3   4
ENDBRANCH   2   3
ENDBRANCH   1   2
BRANCH   1   8
ATOM      8  C   UNL     1      80.398  59.640  10.372  1.00  0.00     0.000 C 
BRANCH   8   9
ATOM      9  C   UNL     1      81.708  58.907  10.701  1.00  0.00     0.006 C 
BRANCH   9  10
ATOM     10  C   UNL     1      82.950  59.763  10.425  1.00  0.00     0.053 C 
BRANCH  10  11
ATOM     11  C   UNL     1      84.133  58.890  10.144  1.00  0.00     0.041 C 
ATOM     12  O   UNL     1      84.332  58.446   8.983  1.00  0.00    -0.550 OA
ATOM     13  O   UNL     1      85.043  58.608  11.154  1.00  0.00    -0.550 OA
ENDBRANCH  10  11
ENDBRANCH   9  10
ENDBRANCH   8   9
ENDBRANCH   1   8
TORSDOF 8
ENDMDL
MODEL 3
REMARK VINA RESULT:    -4.573      0.737      6.655
REMARK INTER + INTRA:          -7.059
REMARK INTER:                  -6.677
REMARK INTRA:                  -0.382
REMARK UNBOUND:                -0.346
REMARK SMILES O=C([O-])CCCCCCCC(=O)[O-]
REMARK SMILES IDX 7 1 6 2 5 3 4 4 2 5 1 6 3 7 8 8 9 9 10 10 11 11 12 12 13 13
REMARK H PARENT
REMARK Flexibility Score: inf
ROOT
ATOM      1  C   UNL     1      79.580  58.993  10.365  1.00  0.00     0.000 C 
ENDROOT
BRANCH   1   2
ATOM      2  C   UNL     1      80.803  59.917  10.375  1.00  0.00     0.000 C 
BRANCH   2   3
ATOM      3  C   UNL     1      82.051  59.176  10.878  1.00  0.00     0.006 C 
BRANCH   3   4
ATOM      4  C   UNL     1      83.152  60.138  11.339  1.00  0.00     0.053 C 
BRANCH   4   5
ATOM      5  C   UNL     1      83.739  60.902  10.191  1.00  0.00     0.041 C 
ATOM      6  O   UNL     1      84.533  60.337   9.393  1.00  0.00    -0.550 OA
ATOM      7  O   UNL     1      83.383  62.229   9.985  1.00  0.00    -0.550 OA
ENDBRANCH   4   5
ENDBRANCH   3   4
ENDBRANCH   2   3
ENDBRANCH   1   2
BRANCH   1   8
ATOM      8  C   UNL     1      80.005  57.518  10.451  1.00  0.00     0.000 C 
BRANCH   8   9
ATOM      9  C   UNL     1      78.810  56.568  10.625  1.00  0.00     0.006 C 
BRANCH   9  10
ATOM     10  C   UNL     1      77.718  56.792   9.572  1.00  0.00     0.053 C 
BRANCH  10  11
ATOM     11  C   UNL     1      77.941  55.900   8.391  1.00  0.00     0.041 C 
ATOM     12  O   UNL     1      78.152  54.670   8.556  1.00  0.00    -0.550 OA
ATOM     13  O   UNL     1      77.864  56.419   7.105  1.00  0.00    -0.550 OA
ENDBRANCH  10  11
ENDBRANCH   9  10
ENDBRANCH   8   9
ENDBRANCH   1   8
TORSDOF 8
ENDMDL
MODEL 4
REMARK VINA RESULT:    -4.572      3.726      5.151
REMARK INTER + INTRA:          -7.057
REMARK INTER:                  -6.372
REMARK INTRA:                  -0.685
REMARK UNBOUND:                -0.346
REMARK SMILES O=C([O-])CCCCCCCC(=O)[O-]
REMARK SMILES IDX 7 1 6 2 5 3 4 4 2 5 1 6 3 7 8 8 9 9 10 10 11 11 12 12 13 13
REMARK H PARENT
REMARK Flexibility Score: inf
ROOT
ATOM      1  C   UNL     1      77.831  55.791   7.247  1.00  0.00     0.000 C 
ENDROOT
BRANCH   1   2
ATOM      2  C   UNL     1      78.162  54.546   8.078  1.00  0.00     0.000 C 
BRANCH   2   3
ATOM      3  C   UNL     1      79.582  54.042   7.775  1.00  0.00     0.006 C 
BRANCH   3   4
ATOM      4  C   UNL     1      80.138  53.163   8.902  1.00  0.00     0.053 C 
BRANCH   4   5
ATOM      5  C   UNL     1      80.096  51.709   8.544  1.00  0.00     0.041 C 
ATOM      6  O   UNL     1      81.083  50.966   8.789  1.00  0.00    -0.550 OA
ATOM      7  O   UNL     1      78.953  51.168   7.969  1.00  0.00    -0.550 OA
ENDBRANCH   4   5
ENDBRANCH   3   4
ENDBRANCH   2   3
ENDBRANCH   1   2
BRANCH   1   8
ATOM      8  C   UNL     1      77.811  57.050   8.128  1.00  0.00     0.000 C 
BRANCH   8   9
ATOM      9  C   UNL     1      77.785  56.722   9.628  1.00  0.00     0.006 C 
BRANCH   9  10
ATOM     10  C   UNL     1      78.933  57.386  10.399  1.00  0.00     0.053 C 
BRANCH  10  11
ATOM     11  C   UNL     1      79.956  56.366  10.793  1.00  0.00     0.041 C 
ATOM     12  O   UNL     1      81.118  56.415  10.312  1.00  0.00    -0.550 OA
ATOM     13  O   UNL     1      79.639  55.391  11.730  1.00  0.00    -0.550 OA
ENDBRANCH  10  11
ENDBRANCH   9  10
ENDBRANCH   8   9
ENDBRANCH   1   8
TORSDOF 8
ENDMDL
MODEL 5
REMARK VINA RESULT:    -4.505      4.171      6.545
REMARK INTER + INTRA:          -6.958
REMARK INTER:                  -6.299
REMARK INTRA:                  -0.660
REMARK UNBOUND:                -0.346
REMARK SMILES O=C([O-])CCCCCCCC(=O)[O-]
REMARK SMILES IDX 7 1 6 2 5 3 4 4 2 5 1 6 3 7 8 8 9 9 10 10 11 11 12 12 13 13
REMARK H PARENT
REMARK Flexibility Score: inf
ROOT
ATOM      1  C   UNL     1      77.772  56.953   8.233  1.00  0.00     0.000 C 
ENDROOT
BRANCH   1   2
ATOM      2  C   UNL     1      77.819  56.465   9.685  1.00  0.00     0.000 C 
BRANCH   2   3
ATOM      3  C   UNL     1      78.883  57.227  10.489  1.00  0.00     0.006 C 
BRANCH   3   4
ATOM      4  C   UNL     1      80.219  56.476  10.542  1.00  0.00     0.053 C 
BRANCH   4   5
ATOM      5  C   UNL     1      80.141  55.263  11.417  1.00  0.00     0.041 C 
ATOM      6  O   UNL     1      80.856  54.256  11.171  1.00  0.00    -0.550 OA
ATOM      7  O   UNL     1      79.303  55.259  12.524  1.00  0.00    -0.550 OA
ENDBRANCH   4   5
ENDBRANCH   3   4
ENDBRANCH   2   3
ENDBRANCH   1   2
BRANCH   1   8
ATOM      8  C   UNL     1      77.970  55.785   7.253  1.00  0.00     0.000 C 
BRANCH   8   9
ATOM      9  C   UNL     1      78.294  54.464   7.966  1.00  0.00     0.006 C 
BRANCH   9  10
ATOM     10  C   UNL     1      79.747  54.020   7.755  1.00  0.00     0.053 C 
BRANCH  10  11
ATOM     11  C   UNL     1      79.813  52.543   7.519  1.00  0.00     0.041 C 
ATOM     12  O   UNL     1      78.778  51.907   7.188  1.00  0.00    -0.550 OA
ATOM     13  O   UNL     1      81.028  51.877   7.618  1.00  0.00    -0.550 OA
ENDBRANCH  10  11
ENDBRANCH   9  10
ENDBRANCH   8   9
ENDBRANCH   1   8
TORSDOF 8
ENDMDL
MODEL 6
REMARK VINA RESULT:    -4.437      3.727      6.049
REMARK INTER + INTRA:          -6.859
REMARK INTER:                  -6.174
REMARK INTRA:                  -0.685
REMARK UNBOUND:                -0.346
REMARK SMILES O=C([O-])CCCCCCCC(=O)[O-]
REMARK SMILES IDX 7 1 6 2 5 3 4 4 2 5 1 6 3 7 8 8 9 9 10 10 11 11 12 12 13 13
REMARK H PARENT
REMARK Flexibility Score: inf
ROOT
ATOM      1  C   UNL     1      78.402  55.651   7.373  1.00  0.00     0.000 C 
ENDROOT
BRANCH   1   2
ATOM      2  C   UNL     1      77.636  56.800   8.039  1.00  0.00     0.000 C 
BRANCH   2   3
ATOM      3  C   UNL     1      77.732  56.713   9.569  1.00  0.00     0.006 C 
BRANCH   3   4
ATOM      4  C   UNL     1      78.990  57.400  10.113  1.00  0.00     0.053 C 
BRANCH   4   5
ATOM      5  C   UNL     1      79.903  56.430  10.798  1.00  0.00     0.041 C 
ATOM      6  O   UNL     1      79.439  55.589  11.613  1.00  0.00    -0.550 OA
ATOM      7  O   UNL     1      81.262  56.432  10.510  1.00  0.00    -0.550 OA
ENDBRANCH   4   5
ENDBRANCH   3   4
ENDBRANCH   2   3
ENDBRANCH   1   2
BRANCH   1   8
ATOM      8  C   UNL     1      78.197  54.336   8.142  1.00  0.00     0.000 C 
BRANCH   8   9
ATOM      9  C   UNL     1      78.962  53.159   7.516  1.00  0.00     0.006 C 
BRANCH   9  10
ATOM     10  C   UNL     1      79.696  52.309   8.560  1.00  0.00     0.053 C 
BRANCH  10  11
ATOM     11  C   UNL     1      80.888  53.045   9.089  1.00  0.00     0.041 C 
ATOM     12  O   UNL     1      81.607  53.727   8.313  1.00  0.00    -0.550 OA
ATOM     13  O   UNL     1      81.175  53.017  10.448  1.00  0.00    -0.550 OA
ENDBRANCH  10  11
ENDBRANCH   9  10
ENDBRANCH   8   9
ENDBRANCH   1   8
TORSDOF 8
ENDMDL
MODEL 7
REMARK VINA RESULT:    -4.408      2.292      3.404
REMARK INTER + INTRA:          -6.816
REMARK INTER:                  -6.241
REMARK INTRA:                  -0.576
REMARK UNBOUND:                -0.346
REMARK SMILES O=C([O-])CCCCCCCC(=O)[O-]
REMARK SMILES IDX 7 1 6 2 5 3 4 4 2 5 1 6 3 7 8 8 9 9 10 10 11 11 12 12 13 13
REMARK H PARENT
REMARK Flexibility Score: inf
ROOT
ATOM      1  C   UNL     1      77.607  56.801   9.448  1.00  0.00     0.000 C 
ENDROOT
BRANCH   1   2
ATOM      2  C   UNL     1      78.301  56.086   8.283  1.00  0.00     0.000 C 
BRANCH   2   3
ATOM      3  C   UNL     1      78.147  54.563   8.400  1.00  0.00     0.006 C 
BRANCH   3   4
ATOM      4  C   UNL     1      79.313  53.809   7.749  1.00  0.00     0.053 C 
BRANCH   4   5
ATOM      5  C   UNL     1      80.572  53.934   8.551  1.00  0.00     0.041 C 
ATOM      6  O   UNL     1      81.675  54.126   7.974  1.00  0.00    -0.550 OA
ATOM      7  O   UNL     1      80.521  53.871   9.937  1.00  0.00    -0.550 OA
ENDBRANCH   4   5
ENDBRANCH   3   4
ENDBRANCH   2   3
ENDBRANCH   1   2
BRANCH   1   8
ATOM      8  C   UNL     1      78.470  56.748  10.719  1.00  0.00     0.000 C 
BRANCH   8   9
ATOM      9  C   UNL     1      79.868  57.352  10.509  1.00  0.00     0.006 C 
BRANCH   9  10
ATOM     10  C   UNL     1      79.838  58.880  10.379  1.00  0.00     0.053 C 
BRANCH  10  11
ATOM     11  C   UNL     1      81.217  59.443  10.523  1.00  0.00     0.041 C 
ATOM     12  O   UNL     1      82.174  58.698  10.862  1.00  0.00    -0.550 OA
ATOM     13  O   UNL     1      81.455  60.781  10.235  1.00  0.00    -0.550 OA
ENDBRANCH  10  11
ENDBRANCH   9  10
ENDBRANCH   8   9
ENDBRANCH   1   8
TORSDOF 8
ENDMDL
MODEL 8
REMARK VINA RESULT:    -4.338      4.878      7.501
REMARK INTER + INTRA:          -6.714
REMARK INTER:                  -6.397
REMARK INTRA:                  -0.316
REMARK UNBOUND:                -0.346
REMARK SMILES O=C([O-])CCCCCCCC(=O)[O-]
REMARK SMILES IDX 7 1 6 2 5 3 4 4 2 5 1 6 3 7 8 8 9 9 10 10 11 11 12 12 13 13
REMARK H PARENT
REMARK Flexibility Score: inf
ROOT
ATOM      1  C   UNL     1      84.851  60.575  15.411  1.00  0.00     0.000 C 
ENDROOT
BRANCH   1   2
ATOM      2  C   UNL     1      85.308  60.999  14.011  1.00  0.00     0.000 C 
BRANCH   2   3
ATOM      3  C   UNL     1      85.296  59.807  13.042  1.00  0.00     0.006 C 
BRANCH   3   4
ATOM      4  C   UNL     1      84.883  60.216  11.623  1.00  0.00     0.053 C 
BRANCH   4   5
ATOM      5  C   UNL     1      83.473  59.816  11.318  1.00  0.00     0.041 C 
ATOM      6  O   UNL     1      82.566  59.979  12.177  1.00  0.00    -0.550 OA
ATOM      7  O   UNL     1      83.153  59.294  10.071  1.00  0.00    -0.550 OA
ENDBRANCH   4   5
ENDBRANCH   3   4
ENDBRANCH   2   3
ENDBRANCH   1   2
BRANCH   1   8
ATOM      8  C   UNL     1      85.092  61.698  16.433  1.00  0.00     0.000 C 
BRANCH   8   9
ATOM      9  C   UNL     1      85.385  63.051  15.766  1.00  0.00     0.006 C 
BRANCH   9  10
ATOM     10  C   UNL     1      84.835  64.237  16.569  1.00  0.00     0.053 C 
BRANCH  10  11
ATOM     11  C   UNL     1      84.453  65.356  15.651  1.00  0.00     0.041 C 
ATOM     12  O   UNL     1      85.111  65.565  14.598  1.00  0.00    -0.550 OA
ATOM     13  O   UNL     1      83.340  66.137  15.934  1.00  0.00    -0.550 OA
ENDBRANCH  10  11
ENDBRANCH   9  10
ENDBRANCH   8   9
ENDBRANCH   1   8
TORSDOF 8
ENDMDL
MODEL 9
REMARK VINA RESULT:    -4.260      1.331      6.900
REMARK INTER + INTRA:          -6.599
REMARK INTER:                  -6.358
REMARK INTRA:                  -0.241
REMARK UNBOUND:                -0.346
REMARK SMILES O=C([O-])CCCCCCCC(=O)[O-]
REMARK SMILES IDX 7 1 6 2 5 3 4 4 2 5 1 6 3 7 8 8 9 9 10 10 11 11 12 12 13 13
REMARK H PARENT
REMARK Flexibility Score: inf
ROOT
ATOM      1  C   UNL     1      80.976  58.703  10.598  1.00  0.00     0.000 C 
ENDROOT
BRANCH   1   2
ATOM      2  C   UNL     1      81.393  60.169  10.434  1.00  0.00     0.000 C 
BRANCH   2   3
ATOM      3  C   UNL     1      82.918  60.323  10.534  1.00  0.00     0.006 C 
BRANCH   3   4
ATOM      4  C   UNL     1      83.646  58.977  10.427  1.00  0.00     0.053 C 
BRANCH   4   5
ATOM      5  C   UNL     1      85.032  59.049  10.990  1.00  0.00     0.041 C 
ATOM      6  O   UNL     1      86.028  58.816  10.256  1.00  0.00    -0.550 OA
ATOM      7  O   UNL     1      85.224  59.404  12.319  1.00  0.00    -0.550 OA
ENDBRANCH   4   5
ENDBRANCH   3   4
ENDBRANCH   2   3
ENDBRANCH   1   2
BRANCH   1   8
ATOM      8  C   UNL     1      79.477  58.522  10.312  1.00  0.00     0.000 C 
BRANCH   8   9
ATOM      9  C   UNL     1      79.075  57.046  10.170  1.00  0.00     0.006 C 
BRANCH   9  10
ATOM     10  C   UNL     1      77.718  56.867   9.478  1.00  0.00     0.053 C 
BRANCH  10  11
ATOM     11  C   UNL     1      77.879  56.099   8.204  1.00  0.00     0.041 C 
ATOM     12  O   UNL     1      78.067  54.854   8.233  1.00  0.00    -0.550 OA
ATOM     13  O   UNL     1      77.773  56.751   6.982  1.00  0.00    -0.550 OA
ENDBRANCH  10  11
ENDBRANCH   9  10
ENDBRANCH   8   9
ENDBRANCH   1   8
TORSDOF 8
ENDMDL
