MODEL 1
REMARK VINA RESULT:    -2.647      0.000      0.000
REMARK INTER + INTRA:          -2.724
REMARK INTER:                  -2.724
REMARK INTRA:                   0.000
REMARK UNBOUND:                 0.000
REMARK SMILES O=c1ccc2ccc(O)cc2o1
REMARK SMILES IDX 6 1 7 2 8 3 10 4 11 5 5 6 4 7 3 8 2 9 1 10 12 11 9 12
REMARK H PARENT 9 13
REMARK Flexibility Score: inf
ROOT
ATOM      1  C   UNL     1      22.321  13.878   3.338  1.00  0.00     0.016 A 
ATOM      2  C   UNL     1      23.655  14.102   2.982  1.00  0.00     0.047 A 
ATOM      3  C   UNL     1      23.969  14.720   1.765  1.00  0.00     0.119 A 
ATOM      4  C   UNL     1      22.941  15.117   0.897  1.00  0.00     0.094 A 
ATOM      5  C   UNL     1      21.603  14.896   1.243  1.00  0.00     0.142 A 
ATOM      6  C   UNL     1      21.291  14.273   2.471  1.00  0.00     0.018 A 
ATOM      7  C   UNL     1      19.945  14.066   2.790  1.00  0.00     0.019 A 
ATOM      8  C   UNL     1      18.959  14.477   1.895  1.00  0.00     0.094 A 
ATOM      9  C   UNL     1      19.344  15.089   0.697  1.00  0.00     0.336 A 
ATOM     10  O   UNL     1      18.468  15.468  -0.125  1.00  0.00    -0.246 OA
ATOM     11  O   UNL     1      20.631  15.274   0.417  1.00  0.00    -0.423 OA
ENDROOT
BRANCH   3  12
ATOM     12  O   UNL     1      25.303  14.934   1.430  1.00  0.00    -0.508 OA
ATOM     13  H   UNL     1      25.728  15.851   1.511  1.00  0.00     0.293 HD
ENDBRANCH   3  12
TORSDOF 1
ENDMDL
MODEL 2
REMARK VINA RESULT:    -2.546      1.300      2.199
REMARK INTER + INTRA:          -2.620
REMARK INTER:                  -2.620
REMARK INTRA:                   0.000
REMARK UNBOUND:                 0.000
REMARK SMILES O=c1ccc2ccc(O)cc2o1
REMARK SMILES IDX 6 1 7 2 8 3 10 4 11 5 5 6 4 7 3 8 2 9 1 10 12 11 9 12
REMARK H PARENT 9 13
REMARK Flexibility Score: inf
ROOT
ATOM      1  C   UNL     1      22.981  15.925   0.165  1.00  0.00     0.016 A 
ATOM      2  C   UNL     1      24.125  15.493   0.842  1.00  0.00     0.047 A 
ATOM      3  C   UNL     1      24.022  14.559   1.882  1.00  0.00     0.119 A 
ATOM      4  C   UNL     1      22.766  14.055   2.246  1.00  0.00     0.094 A 
ATOM      5  C   UNL     1      21.614  14.483   1.575  1.00  0.00     0.142 A 
ATOM      6  C   UNL     1      21.723  15.423   0.528  1.00  0.00     0.018 A 
ATOM      7  C   UNL     1      20.555  15.831  -0.125  1.00  0.00     0.019 A 
ATOM      8  C   UNL     1      19.328  15.302   0.274  1.00  0.00     0.094 A 
ATOM      9  C   UNL     1      19.298  14.373   1.319  1.00  0.00     0.336 A 
ATOM     10  O   UNL     1      18.200  13.884   1.693  1.00  0.00    -0.246 OA
ATOM     11  O   UNL     1      20.424  14.002   1.924  1.00  0.00    -0.423 OA
ENDROOT
BRANCH   3  12
ATOM     12  O   UNL     1      25.174  14.141   2.543  1.00  0.00    -0.508 OA
ATOM     13  H   UNL     1      25.136  13.464   3.296  1.00  0.00     0.293 HD
ENDBRANCH   3  12
TORSDOF 1
ENDMDL
MODEL 3
REMARK VINA RESULT:    -2.531      1.487      4.753
REMARK INTER + INTRA:          -2.605
REMARK INTER:                  -2.605
REMARK INTRA:                   0.000
REMARK UNBOUND:                 0.000
REMARK SMILES O=c1ccc2ccc(O)cc2o1
REMARK SMILES IDX 6 1 7 2 8 3 10 4 11 5 5 6 4 7 3 8 2 9 1 10 12 11 9 12
REMARK H PARENT 9 13
REMARK Flexibility Score: inf
ROOT
ATOM      1  C   UNL     1      20.922  15.835  -0.124  1.00  0.00     0.016 A 
ATOM      2  C   UNL     1      19.639  15.340   0.125  1.00  0.00     0.047 A 
ATOM      3  C   UNL     1      19.435  14.367   1.111  1.00  0.00     0.119 A 
ATOM      4  C   UNL     1      20.522  13.886   1.855  1.00  0.00     0.094 A 
ATOM      5  C   UNL     1      21.811  14.375   1.612  1.00  0.00     0.142 A 
ATOM      6  C   UNL     1      22.012  15.356   0.617  1.00  0.00     0.018 A 
ATOM      7  C   UNL     1      23.311  15.826   0.398  1.00  0.00     0.019 A 
ATOM      8  C   UNL     1      24.361  15.317   1.162  1.00  0.00     0.094 A 
ATOM      9  C   UNL     1      24.085  14.347   2.131  1.00  0.00     0.336 A 
ATOM     10  O   UNL     1      25.020  13.875   2.831  1.00  0.00    -0.246 OA
ATOM     11  O   UNL     1      22.840  13.916   2.319  1.00  0.00    -0.423 OA
ENDROOT
BRANCH   3  12
ATOM     12  O   UNL     1      18.148  13.886   1.344  1.00  0.00    -0.508 OA
ATOM     13  H   UNL     1      17.329  14.445   1.135  1.00  0.00     0.293 HD
ENDBRANCH   3  12
TORSDOF 1
ENDMDL
MODEL 4
REMARK VINA RESULT:    -2.129      0.783      4.226
REMARK INTER + INTRA:          -2.191
REMARK INTER:                  -2.191
REMARK INTRA:                   0.000
REMARK UNBOUND:                 0.000
REMARK SMILES O=c1ccc2ccc(O)cc2o1
REMARK SMILES IDX 6 1 7 2 8 3 10 4 11 5 5 6 4 7 3 8 2 9 1 10 12 11 9 12
REMARK H PARENT 9 13
REMARK Flexibility Score: inf
ROOT
ATOM      1  C   UNL     1      19.964  14.079   2.863  1.00  0.00     0.016 A 
ATOM      2  C   UNL     1      18.939  14.453   1.990  1.00  0.00     0.047 A 
ATOM      3  C   UNL     1      19.241  14.991   0.732  1.00  0.00     0.119 A 
ATOM      4  C   UNL     1      20.579  15.155   0.345  1.00  0.00     0.094 A 
ATOM      5  C   UNL     1      21.613  14.785   1.214  1.00  0.00     0.142 A 
ATOM      6  C   UNL     1      21.303  14.242   2.480  1.00  0.00     0.018 A 
ATOM      7  C   UNL     1      22.357  13.881   3.325  1.00  0.00     0.019 A 
ATOM      8  C   UNL     1      23.671  14.064   2.897  1.00  0.00     0.094 A 
ATOM      9  C   UNL     1      23.902  14.606   1.628  1.00  0.00     0.336 A 
ATOM     10  O   UNL     1      25.082  14.779   1.223  1.00  0.00    -0.246 OA
ATOM     11  O   UNL     1      22.881  14.942   0.844  1.00  0.00    -0.423 OA
ENDROOT
BRANCH   3  12
ATOM     12  O   UNL     1      18.205  15.357  -0.123  1.00  0.00    -0.508 OA
ATOM     13  H   UNL     1      18.281  15.239  -1.127  1.00  0.00     0.293 HD
ENDBRANCH   3  12
TORSDOF 1
ENDMDL
