MODEL 1
REMARK VINA RESULT:    -4.906      0.000      0.000
REMARK INTER + INTRA:          -4.906
REMARK INTER:                  -4.906
REMARK INTRA:                   0.000
REMARK UNBOUND:                 0.000
REMARK SMILES C=C1CCC[C@@]2(C)CC(=O)C(=C(C)C)C[C@@H]12
REMARK SMILES IDX 13 1 12 2 11 3 15 4 16 5 2 6 1 7 3 8 4 9 5 10 6 11 8 12 9 13
REMARK SMILES IDX 10 14 7 15 14 16
REMARK H PARENT
REMARK Flexibility Score: inf
ROOT
ATOM      1  C   UNL     1     -22.586 -15.132  -7.873  1.00  0.00     0.039 C 
ATOM      2  C   UNL     1     -21.978 -13.914  -8.529  1.00  0.00    -0.070 C 
ATOM      3  C   UNL     1     -21.997 -12.695  -7.916  1.00  0.00    -0.006 C 
ATOM      4  C   UNL     1     -22.658 -12.446  -6.574  1.00  0.00     0.047 C 
ATOM      5  C   UNL     1     -23.764 -11.345  -6.644  1.00  0.00     0.025 C 
ATOM      6  C   UNL     1     -24.154 -10.818  -5.246  1.00  0.00    -0.073 C 
ATOM      7  C   UNL     1     -23.995 -11.551  -4.126  1.00  0.00     0.008 C 
ATOM      8  C   UNL     1     -24.903  -9.511  -5.086  1.00  0.00     0.031 C 
ATOM      9  C   UNL     1     -25.146  -8.804  -6.411  1.00  0.00     0.005 C 
ATOM     10  C   UNL     1     -23.854  -8.778  -7.220  1.00  0.00     0.008 C 
ATOM     11  C   UNL     1     -23.442 -10.198  -7.709  1.00  0.00    -0.018 C 
ATOM     12  C   UNL     1     -21.921 -10.142  -8.042  1.00  0.00     0.088 C 
ATOM     13  C   UNL     1     -21.411 -11.471  -8.510  1.00  0.00     0.159 C 
ATOM     14  O   UNL     1     -20.452 -11.515  -9.327  1.00  0.00    -0.295 OA
ATOM     15  C   UNL     1     -24.218 -10.493  -9.025  1.00  0.00     0.012 C 
ATOM     16  C   UNL     1     -21.390 -14.094  -9.909  1.00  0.00     0.039 C 
ENDROOT
TORSDOF 0
ENDMDL
MODEL 2
REMARK VINA RESULT:    -4.729      2.695      4.792
REMARK INTER + INTRA:          -4.729
REMARK INTER:                  -4.729
REMARK INTRA:                   0.000
REMARK UNBOUND:                 0.000
REMARK SMILES C=C1CCC[C@@]2(C)CC(=O)C(=C(C)C)C[C@@H]12
REMARK SMILES IDX 13 1 12 2 11 3 15 4 16 5 2 6 1 7 3 8 4 9 5 10 6 11 8 12 9 13
REMARK SMILES IDX 10 14 7 15 14 16
REMARK H PARENT
REMARK Flexibility Score: inf
ROOT
ATOM      1  C   UNL     1     -21.567 -10.792  -8.005  1.00  0.00     0.039 C 
ATOM      2  C   UNL     1     -22.943 -10.843  -7.381  1.00  0.00    -0.070 C 
ATOM      3  C   UNL     1     -23.883  -9.893  -7.659  1.00  0.00    -0.006 C 
ATOM      4  C   UNL     1     -23.624  -8.703  -8.561  1.00  0.00     0.047 C 
ATOM      5  C   UNL     1     -23.866  -7.338  -7.840  1.00  0.00     0.025 C 
ATOM      6  C   UNL     1     -23.989  -6.163  -8.835  1.00  0.00    -0.073 C 
ATOM      7  C   UNL     1     -23.432  -6.194 -10.063  1.00  0.00     0.008 C 
ATOM      8  C   UNL     1     -24.594  -4.842  -8.410  1.00  0.00     0.031 C 
ATOM      9  C   UNL     1     -25.092  -4.855  -6.972  1.00  0.00     0.005 C 
ATOM     10  C   UNL     1     -25.914  -6.114  -6.729  1.00  0.00     0.008 C 
ATOM     11  C   UNL     1     -25.037  -7.401  -6.754  1.00  0.00    -0.018 C 
ATOM     12  C   UNL     1     -25.995  -8.601  -7.018  1.00  0.00     0.088 C 
ATOM     13  C   UNL     1     -25.247  -9.898  -7.080  1.00  0.00     0.159 C 
ATOM     14  O   UNL     1     -25.818 -10.962  -6.718  1.00  0.00    -0.295 OA
ATOM     15  C   UNL     1     -24.411  -7.579  -5.340  1.00  0.00     0.012 C 
ATOM     16  C   UNL     1     -23.215 -11.960  -6.402  1.00  0.00     0.039 C 
ENDROOT
TORSDOF 0
ENDMDL
MODEL 3
REMARK VINA RESULT:    -4.585      1.897      5.279
REMARK INTER + INTRA:          -4.585
REMARK INTER:                  -4.585
REMARK INTRA:                   0.000
REMARK UNBOUND:                 0.000
REMARK SMILES C=C1CCC[C@@]2(C)CC(=O)C(=C(C)C)C[C@@H]12
REMARK SMILES IDX 13 1 12 2 11 3 15 4 16 5 2 6 1 7 3 8 4 9 5 10 6 11 8 12 9 13
REMARK SMILES IDX 10 14 7 15 14 16
REMARK H PARENT
REMARK Flexibility Score: inf
ROOT
ATOM      1  C   UNL     1     -23.125  -8.342  -9.748  1.00  0.00     0.039 C 
ATOM      2  C   UNL     1     -23.615  -9.056  -8.510  1.00  0.00    -0.070 C 
ATOM      3  C   UNL     1     -22.928 -10.112  -7.982  1.00  0.00    -0.006 C 
ATOM      4  C   UNL     1     -21.666 -10.680  -8.601  1.00  0.00     0.047 C 
ATOM      5  C   UNL     1     -21.800 -12.196  -8.953  1.00  0.00     0.025 C 
ATOM      6  C   UNL     1     -20.430 -12.861  -9.208  1.00  0.00    -0.073 C 
ATOM      7  C   UNL     1     -19.350 -12.162  -9.613  1.00  0.00     0.008 C 
ATOM      8  C   UNL     1     -20.278 -14.368  -9.184  1.00  0.00     0.031 C 
ATOM      9  C   UNL     1     -21.572 -15.087  -8.833  1.00  0.00     0.005 C 
ATOM     10  C   UNL     1     -22.208 -14.427  -7.616  1.00  0.00     0.008 C 
ATOM     11  C   UNL     1     -22.736 -12.996  -7.935  1.00  0.00    -0.018 C 
ATOM     12  C   UNL     1     -22.871 -12.246  -6.575  1.00  0.00     0.088 C 
ATOM     13  C   UNL     1     -23.360 -10.843  -6.768  1.00  0.00     0.159 C 
ATOM     14  O   UNL     1     -24.051 -10.297  -5.866  1.00  0.00    -0.295 OA
ATOM     15  C   UNL     1     -24.157 -13.140  -8.554  1.00  0.00     0.012 C 
ATOM     16  C   UNL     1     -24.919  -8.585  -7.911  1.00  0.00     0.039 C 
ENDROOT
TORSDOF 0
ENDMDL
MODEL 4
REMARK VINA RESULT:    -4.464      2.587      5.191
REMARK INTER + INTRA:          -4.464
REMARK INTER:                  -4.464
REMARK INTRA:                   0.000
REMARK UNBOUND:                 0.000
REMARK SMILES C=C1CCC[C@@]2(C)CC(=O)C(=C(C)C)C[C@@H]12
REMARK SMILES IDX 13 1 12 2 11 3 15 4 16 5 2 6 1 7 3 8 4 9 5 10 6 11 8 12 9 13
REMARK SMILES IDX 10 14 7 15 14 16
REMARK H PARENT
REMARK Flexibility Score: inf
ROOT
ATOM      1  C   UNL     1     -24.662  -5.257  -6.742  1.00  0.00     0.039 C 
ATOM      2  C   UNL     1     -24.859  -6.278  -7.838  1.00  0.00    -0.070 C 
ATOM      3  C   UNL     1     -25.160  -7.579  -7.550  1.00  0.00    -0.006 C 
ATOM      4  C   UNL     1     -25.274  -8.115  -6.137  1.00  0.00     0.047 C 
ATOM      5  C   UNL     1     -24.292  -9.298  -5.862  1.00  0.00     0.025 C 
ATOM      6  C   UNL     1     -24.669 -10.089  -4.590  1.00  0.00    -0.073 C 
ATOM      7  C   UNL     1     -25.372  -9.540  -3.579  1.00  0.00     0.008 C 
ATOM      8  C   UNL     1     -24.111 -11.474  -4.340  1.00  0.00     0.031 C 
ATOM      9  C   UNL     1     -23.232 -11.972  -5.478  1.00  0.00     0.005 C 
ATOM     10  C   UNL     1     -23.934 -11.728  -6.808  1.00  0.00     0.008 C 
ATOM     11  C   UNL     1     -24.033 -10.211  -7.148  1.00  0.00    -0.018 C 
ATOM     12  C   UNL     1     -25.174 -10.052  -8.197  1.00  0.00     0.088 C 
ATOM     13  C   UNL     1     -25.369  -8.618  -8.585  1.00  0.00     0.159 C 
ATOM     14  O   UNL     1     -25.779  -8.339  -9.744  1.00  0.00    -0.295 OA
ATOM     15  C   UNL     1     -22.694  -9.784  -7.816  1.00  0.00     0.012 C 
ATOM     16  C   UNL     1     -24.663  -5.811  -9.261  1.00  0.00     0.039 C 
ENDROOT
TORSDOF 0
ENDMDL
MODEL 5
REMARK VINA RESULT:    -4.451      1.679      3.322
REMARK INTER + INTRA:          -4.451
REMARK INTER:                  -4.451
REMARK INTRA:                   0.000
REMARK UNBOUND:                 0.000
REMARK SMILES C=C1CCC[C@@]2(C)CC(=O)C(=C(C)C)C[C@@H]12
REMARK SMILES IDX 13 1 12 2 11 3 15 4 16 5 2 6 1 7 3 8 4 9 5 10 6 11 8 12 9 13
REMARK SMILES IDX 10 14 7 15 14 16
REMARK H PARENT
REMARK Flexibility Score: inf
ROOT
ATOM      1  C   UNL     1     -20.830 -11.271  -8.488  1.00  0.00     0.039 C 
ATOM      2  C   UNL     1     -21.969 -12.169  -8.063  1.00  0.00    -0.070 C 
ATOM      3  C   UNL     1     -23.177 -11.653  -7.691  1.00  0.00    -0.006 C 
ATOM      4  C   UNL     1     -23.465 -10.167  -7.626  1.00  0.00     0.047 C 
ATOM      5  C   UNL     1     -23.926  -9.705  -6.206  1.00  0.00     0.025 C 
ATOM      6  C   UNL     1     -24.585  -8.309  -6.229  1.00  0.00    -0.073 C 
ATOM      7  C   UNL     1     -24.317  -7.398  -7.186  1.00  0.00     0.008 C 
ATOM      8  C   UNL     1     -25.437  -7.830  -5.072  1.00  0.00     0.031 C 
ATOM      9  C   UNL     1     -25.593  -8.878  -3.980  1.00  0.00     0.005 C 
ATOM     10  C   UNL     1     -25.953 -10.219  -4.607  1.00  0.00     0.008 C 
ATOM     11  C   UNL     1     -24.772 -10.816  -5.429  1.00  0.00    -0.018 C 
ATOM     12  C   UNL     1     -25.383 -11.858  -6.414  1.00  0.00     0.088 C 
ATOM     13  C   UNL     1     -24.328 -12.487  -7.272  1.00  0.00     0.159 C 
ATOM     14  O   UNL     1     -24.483 -13.670  -7.679  1.00  0.00    -0.295 OA
ATOM     15  C   UNL     1     -23.837 -11.570  -4.440  1.00  0.00     0.012 C 
ATOM     16  C   UNL     1     -21.699 -13.655  -8.022  1.00  0.00     0.039 C 
ENDROOT
TORSDOF 0
ENDMDL
MODEL 6
REMARK VINA RESULT:    -4.443      2.030      3.466
REMARK INTER + INTRA:          -4.443
REMARK INTER:                  -4.443
REMARK INTRA:                   0.000
REMARK UNBOUND:                 0.000
REMARK SMILES C=C1CCC[C@@]2(C)CC(=O)C(=C(C)C)C[C@@H]12
REMARK SMILES IDX 13 1 12 2 11 3 15 4 16 5 2 6 1 7 3 8 4 9 5 10 6 11 8 12 9 13
REMARK SMILES IDX 10 14 7 15 14 16
REMARK H PARENT
REMARK Flexibility Score: inf
ROOT
ATOM      1  C   UNL     1     -23.864 -11.624  -5.357  1.00  0.00     0.039 C 
ATOM      2  C   UNL     1     -23.248 -11.549  -6.735  1.00  0.00    -0.070 C 
ATOM      3  C   UNL     1     -23.070 -10.352  -7.368  1.00  0.00    -0.006 C 
ATOM      4  C   UNL     1     -23.507  -9.025  -6.781  1.00  0.00     0.047 C 
ATOM      5  C   UNL     1     -24.508  -8.260  -7.704  1.00  0.00     0.025 C 
ATOM      6  C   UNL     1     -24.645  -6.772  -7.314  1.00  0.00    -0.073 C 
ATOM      7  C   UNL     1     -24.394  -6.326  -6.067  1.00  0.00     0.008 C 
ATOM      8  C   UNL     1     -25.243  -5.766  -8.275  1.00  0.00     0.031 C 
ATOM      9  C   UNL     1     -25.608  -6.377  -9.620  1.00  0.00     0.005 C 
ATOM     10  C   UNL     1     -24.448  -7.226 -10.125  1.00  0.00     0.008 C 
ATOM     11  C   UNL     1     -24.239  -8.506  -9.261  1.00  0.00    -0.018 C 
ATOM     12  C   UNL     1     -22.782  -8.996  -9.516  1.00  0.00     0.088 C 
ATOM     13  C   UNL     1     -22.466 -10.222  -8.714  1.00  0.00     0.159 C 
ATOM     14  O   UNL     1     -21.642 -11.062  -9.165  1.00  0.00    -0.295 OA
ATOM     15  C   UNL     1     -25.219  -9.597  -9.781  1.00  0.00     0.012 C 
ATOM     16  C   UNL     1     -22.882 -12.855  -7.399  1.00  0.00     0.039 C 
ENDROOT
TORSDOF 0
ENDMDL
MODEL 7
REMARK VINA RESULT:    -4.296     15.525     16.917
REMARK INTER + INTRA:          -4.296
REMARK INTER:                  -4.296
REMARK INTRA:                   0.000
REMARK UNBOUND:                 0.000
REMARK SMILES C=C1CCC[C@@]2(C)CC(=O)C(=C(C)C)C[C@@H]12
REMARK SMILES IDX 13 1 12 2 11 3 15 4 16 5 2 6 1 7 3 8 4 9 5 10 6 11 8 12 9 13
REMARK SMILES IDX 10 14 7 15 14 16
REMARK H PARENT
REMARK Flexibility Score: inf
ROOT
ATOM      1  C   UNL     1     -10.385 -16.159   0.307  1.00  0.00     0.039 C 
ATOM      2  C   UNL     1      -9.000 -16.683   0.004  1.00  0.00    -0.070 C 
ATOM      3  C   UNL     1      -8.139 -15.988  -0.797  1.00  0.00    -0.006 C 
ATOM      4  C   UNL     1      -8.502 -14.684  -1.478  1.00  0.00     0.047 C 
ATOM      5  C   UNL     1      -8.353 -14.755  -3.031  1.00  0.00     0.025 C 
ATOM      6  C   UNL     1      -8.336 -13.356  -3.683  1.00  0.00    -0.073 C 
ATOM      7  C   UNL     1      -8.909 -12.281  -3.104  1.00  0.00     0.008 C 
ATOM      8  C   UNL     1      -7.826 -13.159  -5.096  1.00  0.00     0.031 C 
ATOM      9  C   UNL     1      -7.306 -14.446  -5.720  1.00  0.00     0.005 C 
ATOM     10  C   UNL     1      -6.386 -15.155  -4.734  1.00  0.00     0.008 C 
ATOM     11  C   UNL     1      -7.163 -15.712  -3.504  1.00  0.00    -0.018 C 
ATOM     12  C   UNL     1      -6.121 -15.930  -2.366  1.00  0.00     0.088 C 
ATOM     13  C   UNL     1      -6.770 -16.452  -1.120  1.00  0.00     0.159 C 
ATOM     14  O   UNL     1      -6.113 -17.199  -0.346  1.00  0.00    -0.295 OA
ATOM     15  C   UNL     1      -7.750 -17.098  -3.900  1.00  0.00     0.012 C 
ATOM     16  C   UNL     1      -8.627 -18.026   0.586  1.00  0.00     0.039 C 
ENDROOT
TORSDOF 0
ENDMDL
MODEL 8
REMARK VINA RESULT:    -4.093      2.369      5.490
REMARK INTER + INTRA:          -4.093
REMARK INTER:                  -4.093
REMARK INTRA:                   0.000
REMARK UNBOUND:                 0.000
REMARK SMILES C=C1CCC[C@@]2(C)CC(=O)C(=C(C)C)C[C@@H]12
REMARK SMILES IDX 13 1 12 2 11 3 15 4 16 5 2 6 1 7 3 8 4 9 5 10 6 11 8 12 9 13
REMARK SMILES IDX 10 14 7 15 14 16
REMARK H PARENT
REMARK Flexibility Score: inf
ROOT
ATOM      1  C   UNL     1     -24.216  -6.377  -8.456  1.00  0.00     0.039 C 
ATOM      2  C   UNL     1     -24.710  -7.042  -7.192  1.00  0.00    -0.070 C 
ATOM      3  C   UNL     1     -24.198  -8.236  -6.772  1.00  0.00    -0.006 C 
ATOM      4  C   UNL     1     -23.146  -9.009  -7.543  1.00  0.00     0.047 C 
ATOM      5  C   UNL     1     -23.616 -10.450  -7.920  1.00  0.00     0.025 C 
ATOM      6  C   UNL     1     -22.441 -11.358  -8.343  1.00  0.00    -0.073 C 
ATOM      7  C   UNL     1     -21.290 -10.865  -8.845  1.00  0.00     0.008 C 
ATOM      8  C   UNL     1     -22.592 -12.864  -8.379  1.00  0.00     0.031 C 
ATOM      9  C   UNL     1     -23.961 -13.332  -7.907  1.00  0.00     0.005 C 
ATOM     10  C   UNL     1     -24.324 -12.621  -6.609  1.00  0.00     0.008 C 
ATOM     11  C   UNL     1     -24.585 -11.101  -6.827  1.00  0.00    -0.018 C 
ATOM     12  C   UNL     1     -24.426 -10.407  -5.441  1.00  0.00     0.088 C 
ATOM     13  C   UNL     1     -24.641  -8.927  -5.539  1.00  0.00     0.159 C 
ATOM     14  O   UNL     1     -25.112  -8.302  -4.551  1.00  0.00    -0.295 OA
ATOM     15  C   UNL     1     -26.061 -10.932  -7.290  1.00  0.00     0.012 C 
ATOM     16  C   UNL     1     -25.824  -6.353  -6.439  1.00  0.00     0.039 C 
ENDROOT
TORSDOF 0
ENDMDL
MODEL 9
REMARK VINA RESULT:    -4.017      1.462      4.856
REMARK INTER + INTRA:          -4.017
REMARK INTER:                  -4.017
REMARK INTRA:                   0.000
REMARK UNBOUND:                 0.000
REMARK SMILES C=C1CCC[C@@]2(C)CC(=O)C(=C(C)C)C[C@@H]12
REMARK SMILES IDX 13 1 12 2 11 3 15 4 16 5 2 6 1 7 3 8 4 9 5 10 6 11 8 12 9 13
REMARK SMILES IDX 10 14 7 15 14 16
REMARK H PARENT
REMARK Flexibility Score: inf
ROOT
ATOM      1  C   UNL     1     -25.110 -10.435  -5.800  1.00  0.00     0.039 C 
ATOM      2  C   UNL     1     -24.169  -9.891  -6.850  1.00  0.00    -0.070 C 
ATOM      3  C   UNL     1     -23.655 -10.696  -7.826  1.00  0.00    -0.006 C 
ATOM      4  C   UNL     1     -23.935 -12.183  -7.914  1.00  0.00     0.047 C 
ATOM      5  C   UNL     1     -22.633 -13.044  -7.873  1.00  0.00     0.025 C 
ATOM      6  C   UNL     1     -22.872 -14.493  -8.350  1.00  0.00    -0.073 C 
ATOM      7  C   UNL     1     -24.081 -15.086  -8.282  1.00  0.00     0.008 C 
ATOM      8  C   UNL     1     -21.715 -15.382  -8.756  1.00  0.00     0.031 C 
ATOM      9  C   UNL     1     -20.372 -14.670  -8.692  1.00  0.00     0.005 C 
ATOM     10  C   UNL     1     -20.483 -13.310  -9.370  1.00  0.00     0.008 C 
ATOM     11  C   UNL     1     -21.383 -12.326  -8.565  1.00  0.00    -0.018 C 
ATOM     12  C   UNL     1     -21.843 -11.213  -9.554  1.00  0.00     0.088 C 
ATOM     13  C   UNL     1     -22.735 -10.214  -8.883  1.00  0.00     0.159 C 
ATOM     14  O   UNL     1     -22.740  -9.019  -9.284  1.00  0.00    -0.295 OA
ATOM     15  C   UNL     1     -20.502 -11.665  -7.465  1.00  0.00     0.012 C 
ATOM     16  C   UNL     1     -23.787  -8.434  -6.747  1.00  0.00     0.039 C 
ENDROOT
TORSDOF 0
ENDMDL
