MODEL 1
REMARK VINA RESULT:    -4.206      0.000      0.000
REMARK INTER + INTRA:          -4.206
REMARK INTER:                  -4.206
REMARK INTRA:                   0.000
REMARK UNBOUND:                 0.000
REMARK SMILES CC1=CC(=O)[C@@H]2C[C@H]1C2(C)C
REMARK SMILES IDX 1 1 2 2 3 3 4 4 5 5 6 6 7 7 8 8 9 9 10 10 11 11
REMARK H PARENT
REMARK Flexibility Score: inf
ROOT
ATOM      1  C   UNL     1     -27.698  14.147 -27.964  1.00  0.00     0.040 C 
ATOM      2  C   UNL     1     -27.210  13.514 -26.700  1.00  0.00    -0.066 C 
ATOM      3  C   UNL     1     -25.948  13.732 -26.238  1.00  0.00     0.047 C 
ATOM      4  C   UNL     1     -25.590  13.066 -24.944  1.00  0.00     0.159 C 
ATOM      5  O   UNL     1     -24.468  13.222 -24.395  1.00  0.00    -0.295 OA
ATOM      6  C   UNL     1     -26.683  12.186 -24.338  1.00  0.00     0.067 C 
ATOM      7  C   UNL     1     -27.206  11.358 -25.532  1.00  0.00     0.021 C 
ATOM      8  C   UNL     1     -28.104  12.570 -25.867  1.00  0.00     0.022 C 
ATOM      9  C   UNL     1     -28.024  12.972 -24.366  1.00  0.00    -0.019 C 
ATOM     10  C   UNL     1     -29.125  12.291 -23.514  1.00  0.00     0.012 C 
ATOM     11  C   UNL     1     -28.001  14.485 -24.010  1.00  0.00     0.012 C 
ENDROOT
TORSDOF 0
ENDMDL
MODEL 2
REMARK VINA RESULT:    -4.168     20.796     22.140
REMARK INTER + INTRA:          -4.168
REMARK INTER:                  -4.168
REMARK INTRA:                   0.000
REMARK UNBOUND:                 0.000
REMARK SMILES CC1=CC(=O)[C@@H]2C[C@H]1C2(C)C
REMARK SMILES IDX 1 1 2 2 3 3 4 4 5 5 6 6 7 7 8 8 9 9 10 10 11 11
REMARK H PARENT
REMARK Flexibility Score: inf
ROOT
ATOM      1  C   UNL     1     -12.671   3.275 -16.103  1.00  0.00     0.040 C 
ATOM      2  C   UNL     1     -11.550   3.608 -15.171  1.00  0.00    -0.066 C 
ATOM      3  C   UNL     1     -11.200   4.899 -14.913  1.00  0.00     0.047 C 
ATOM      4  C   UNL     1     -10.080   5.101 -13.938  1.00  0.00     0.159 C 
ATOM      5  O   UNL     1      -9.692   6.246 -13.589  1.00  0.00    -0.295 OA
ATOM      6  C   UNL     1      -9.445   3.821 -13.397  1.00  0.00     0.067 C 
ATOM      7  C   UNL     1      -9.248   2.938 -14.650  1.00  0.00     0.021 C 
ATOM      8  C   UNL     1     -10.722   2.508 -14.471  1.00  0.00     0.022 C 
ATOM      9  C   UNL     1     -10.579   2.851 -12.959  1.00  0.00    -0.019 C 
ATOM     10  C   UNL     1     -10.046   1.655 -12.131  1.00  0.00     0.012 C 
ATOM     11  C   UNL     1     -11.812   3.444 -12.220  1.00  0.00     0.012 C 
ENDROOT
TORSDOF 0
ENDMDL
MODEL 3
REMARK VINA RESULT:    -4.063     20.656     22.112
REMARK INTER + INTRA:          -4.063
REMARK INTER:                  -4.063
REMARK INTRA:                   0.000
REMARK UNBOUND:                 0.000
REMARK SMILES CC1=CC(=O)[C@@H]2C[C@H]1C2(C)C
REMARK SMILES IDX 1 1 2 2 3 3 4 4 5 5 6 6 7 7 8 8 9 9 10 10 11 11
REMARK H PARENT
REMARK Flexibility Score: inf
ROOT
ATOM      1  C   UNL     1     -10.002   6.431 -13.501  1.00  0.00     0.040 C 
ATOM      2  C   UNL     1     -10.566   5.103 -13.897  1.00  0.00    -0.066 C 
ATOM      3  C   UNL     1     -11.203   4.929 -15.088  1.00  0.00     0.047 C 
ATOM      4  C   UNL     1     -11.696   3.545 -15.382  1.00  0.00     0.159 C 
ATOM      5  O   UNL     1     -12.265   3.249 -16.465  1.00  0.00    -0.295 OA
ATOM      6  C   UNL     1     -11.458   2.518 -14.275  1.00  0.00     0.067 C 
ATOM      7  C   UNL     1     -11.886   3.249 -12.983  1.00  0.00     0.021 C 
ATOM      8  C   UNL     1     -10.472   3.871 -12.970  1.00  0.00     0.022 C 
ATOM      9  C   UNL     1      -9.985   2.642 -13.792  1.00  0.00    -0.019 C 
ATOM     10  C   UNL     1      -9.560   1.459 -12.886  1.00  0.00     0.012 C 
ATOM     11  C   UNL     1      -8.875   2.862 -14.857  1.00  0.00     0.012 C 
ENDROOT
TORSDOF 0
ENDMDL
MODEL 4
REMARK VINA RESULT:    -3.987     21.892     23.279
REMARK INTER + INTRA:          -3.987
REMARK INTER:                  -3.987
REMARK INTRA:                   0.000
REMARK UNBOUND:                 0.000
REMARK SMILES CC1=CC(=O)[C@@H]2C[C@H]1C2(C)C
REMARK SMILES IDX 1 1 2 2 3 3 4 4 5 5 6 6 7 7 8 8 9 9 10 10 11 11
REMARK H PARENT
REMARK Flexibility Score: inf
ROOT
ATOM      1  C   UNL     1      -9.113   5.945 -12.520  1.00  0.00     0.040 C 
ATOM      2  C   UNL     1      -9.322   4.500 -12.844  1.00  0.00    -0.066 C 
ATOM      3  C   UNL     1      -8.891   3.516 -12.007  1.00  0.00     0.047 C 
ATOM      4  C   UNL     1      -9.187   2.108 -12.429  1.00  0.00     0.159 C 
ATOM      5  O   UNL     1      -8.875   1.115 -11.722  1.00  0.00    -0.295 OA
ATOM      6  C   UNL     1      -9.896   1.965 -13.775  1.00  0.00     0.067 C 
ATOM      7  C   UNL     1      -9.126   2.922 -14.711  1.00  0.00     0.021 C 
ATOM      8  C   UNL     1     -10.017   4.051 -14.148  1.00  0.00     0.022 C 
ATOM      9  C   UNL     1     -11.084   2.967 -13.819  1.00  0.00    -0.019 C 
ATOM     10  C   UNL     1     -12.039   2.699 -15.010  1.00  0.00     0.012 C 
ATOM     11  C   UNL     1     -11.945   3.148 -12.537  1.00  0.00     0.012 C 
ENDROOT
TORSDOF 0
ENDMDL
MODEL 5
REMARK VINA RESULT:    -3.850      6.286      7.593
REMARK INTER + INTRA:          -3.850
REMARK INTER:                  -3.850
REMARK INTRA:                   0.000
REMARK UNBOUND:                 0.000
REMARK SMILES CC1=CC(=O)[C@@H]2C[C@H]1C2(C)C
REMARK SMILES IDX 1 1 2 2 3 3 4 4 5 5 6 6 7 7 8 8 9 9 10 10 11 11
REMARK H PARENT
REMARK Flexibility Score: inf
ROOT
ATOM      1  C   UNL     1     -29.120   5.996 -23.399  1.00  0.00     0.040 C 
ATOM      2  C   UNL     1     -28.246   6.305 -22.226  1.00  0.00    -0.066 C 
ATOM      3  C   UNL     1     -26.895   6.411 -22.356  1.00  0.00     0.047 C 
ATOM      4  C   UNL     1     -26.133   6.756 -21.113  1.00  0.00     0.159 C 
ATOM      5  O   UNL     1     -24.885   6.921 -21.112  1.00  0.00    -0.295 OA
ATOM      6  C   UNL     1     -26.977   6.896 -19.846  1.00  0.00     0.067 C 
ATOM      7  C   UNL     1     -27.915   5.669 -19.881  1.00  0.00     0.021 C 
ATOM      8  C   UNL     1     -28.827   6.501 -20.809  1.00  0.00     0.022 C 
ATOM      9  C   UNL     1     -28.213   7.781 -20.170  1.00  0.00    -0.019 C 
ATOM     10  C   UNL     1     -28.972   8.225 -18.894  1.00  0.00     0.012 C 
ATOM     11  C   UNL     1     -28.011   9.030 -21.074  1.00  0.00     0.012 C 
ENDROOT
TORSDOF 0
ENDMDL
MODEL 6
REMARK VINA RESULT:    -3.846      6.474      8.082
REMARK INTER + INTRA:          -3.846
REMARK INTER:                  -3.846
REMARK INTRA:                   0.000
REMARK UNBOUND:                 0.000
REMARK SMILES CC1=CC(=O)[C@@H]2C[C@H]1C2(C)C
REMARK SMILES IDX 1 1 2 2 3 3 4 4 5 5 6 6 7 7 8 8 9 9 10 10 11 11
REMARK H PARENT
REMARK Flexibility Score: inf
ROOT
ATOM      1  C   UNL     1     -28.061   5.437 -19.153  1.00  0.00     0.040 C 
ATOM      2  C   UNL     1     -27.528   5.819 -20.497  1.00  0.00    -0.066 C 
ATOM      3  C   UNL     1     -27.624   4.977 -21.564  1.00  0.00     0.047 C 
ATOM      4  C   UNL     1     -27.080   5.488 -22.864  1.00  0.00     0.159 C 
ATOM      5  O   UNL     1     -27.146   4.821 -23.929  1.00  0.00    -0.295 OA
ATOM      6  C   UNL     1     -26.443   6.876 -22.805  1.00  0.00     0.067 C 
ATOM      7  C   UNL     1     -25.554   6.830 -21.543  1.00  0.00     0.021 C 
ATOM      8  C   UNL     1     -26.827   7.174 -20.739  1.00  0.00     0.022 C 
ATOM      9  C   UNL     1     -27.398   7.828 -22.031  1.00  0.00    -0.019 C 
ATOM     10  C   UNL     1     -26.988   9.316 -22.169  1.00  0.00     0.012 C 
ATOM     11  C   UNL     1     -28.926   7.718 -22.298  1.00  0.00     0.012 C 
ENDROOT
TORSDOF 0
ENDMDL
MODEL 7
REMARK VINA RESULT:    -3.786      6.533      8.280
REMARK INTER + INTRA:          -3.786
REMARK INTER:                  -3.786
REMARK INTRA:                   0.000
REMARK UNBOUND:                 0.000
REMARK SMILES CC1=CC(=O)[C@@H]2C[C@H]1C2(C)C
REMARK SMILES IDX 1 1 2 2 3 3 4 4 5 5 6 6 7 7 8 8 9 9 10 10 11 11
REMARK H PARENT
REMARK Flexibility Score: inf
ROOT
ATOM      1  C   UNL     1     -28.059   4.046 -20.076  1.00  0.00     0.040 C 
ATOM      2  C   UNL     1     -28.003   5.496 -20.437  1.00  0.00    -0.066 C 
ATOM      3  C   UNL     1     -28.111   6.469 -19.490  1.00  0.00     0.047 C 
ATOM      4  C   UNL     1     -28.008   7.883 -19.974  1.00  0.00     0.159 C 
ATOM      5  O   UNL     1     -28.054   8.867 -19.191  1.00  0.00    -0.295 OA
ATOM      6  C   UNL     1     -27.843   8.046 -21.485  1.00  0.00     0.067 C 
ATOM      7  C   UNL     1     -28.889   7.082 -22.086  1.00  0.00     0.021 C 
ATOM      8  C   UNL     1     -27.838   5.964 -21.900  1.00  0.00     0.022 C 
ATOM      9  C   UNL     1     -26.739   7.064 -21.971  1.00  0.00    -0.019 C 
ATOM     10  C   UNL     1     -26.290   7.354 -23.425  1.00  0.00     0.012 C 
ATOM     11  C   UNL     1     -25.467   6.890 -21.094  1.00  0.00     0.012 C 
ENDROOT
TORSDOF 0
ENDMDL
MODEL 8
REMARK VINA RESULT:    -3.778     20.678     22.154
REMARK INTER + INTRA:          -3.778
REMARK INTER:                  -3.778
REMARK INTRA:                   0.000
REMARK UNBOUND:                 0.000
REMARK SMILES CC1=CC(=O)[C@@H]2C[C@H]1C2(C)C
REMARK SMILES IDX 1 1 2 2 3 3 4 4 5 5 6 6 7 7 8 8 9 9 10 10 11 11
REMARK H PARENT
REMARK Flexibility Score: inf
ROOT
ATOM      1  C   UNL     1     -12.344   3.928 -11.186  1.00  0.00     0.040 C 
ATOM      2  C   UNL     1     -11.482   3.704 -12.387  1.00  0.00    -0.066 C 
ATOM      3  C   UNL     1     -10.646   2.631 -12.470  1.00  0.00     0.047 C 
ATOM      4  C   UNL     1      -9.858   2.501 -13.738  1.00  0.00     0.159 C 
ATOM      5  O   UNL     1      -9.082   1.533 -13.951  1.00  0.00    -0.295 OA
ATOM      6  C   UNL     1     -10.063   3.624 -14.754  1.00  0.00     0.067 C 
ATOM      7  C   UNL     1      -9.989   4.916 -13.910  1.00  0.00     0.021 C 
ATOM      8  C   UNL     1     -11.481   4.683 -13.581  1.00  0.00     0.022 C 
ATOM      9  C   UNL     1     -11.590   3.878 -14.910  1.00  0.00    -0.019 C 
ATOM     10  C   UNL     1     -11.916   4.786 -16.122  1.00  0.00     0.012 C 
ATOM     11  C   UNL     1     -12.542   2.651 -14.950  1.00  0.00     0.012 C 
ENDROOT
TORSDOF 0
ENDMDL
MODEL 9
REMARK VINA RESULT:    -3.763      6.572      8.061
REMARK INTER + INTRA:          -3.763
REMARK INTER:                  -3.763
REMARK INTRA:                   0.000
REMARK UNBOUND:                 0.000
REMARK SMILES CC1=CC(=O)[C@@H]2C[C@H]1C2(C)C
REMARK SMILES IDX 1 1 2 2 3 3 4 4 5 5 6 6 7 7 8 8 9 9 10 10 11 11
REMARK H PARENT
REMARK Flexibility Score: inf
ROOT
ATOM      1  C   UNL     1     -24.491   7.051 -21.712  1.00  0.00     0.040 C 
ATOM      2  C   UNL     1     -25.972   7.108 -21.518  1.00  0.00    -0.066 C 
ATOM      3  C   UNL     1     -26.792   7.639 -22.467  1.00  0.00     0.047 C 
ATOM      4  C   UNL     1     -28.260   7.610 -22.168  1.00  0.00     0.159 C 
ATOM      5  O   UNL     1     -29.121   8.034 -22.982  1.00  0.00    -0.295 OA
ATOM      6  C   UNL     1     -28.638   7.028 -20.805  1.00  0.00     0.067 C 
ATOM      7  C   UNL     1     -27.647   7.691 -19.824  1.00  0.00     0.021 C 
ATOM      8  C   UNL     1     -26.644   6.588 -20.228  1.00  0.00     0.022 C 
ATOM      9  C   UNL     1     -27.863   5.696 -20.603  1.00  0.00    -0.019 C 
ATOM     10  C   UNL     1     -28.392   4.883 -19.395  1.00  0.00     0.012 C 
ATOM     11  C   UNL     1     -27.723   4.731 -21.815  1.00  0.00     0.012 C 
ENDROOT
TORSDOF 0
ENDMDL
