MODEL 1
REMARK VINA RESULT:    -3.964      0.000      0.000
REMARK INTER + INTRA:          -4.507
REMARK INTER:                  -4.312
REMARK INTRA:                  -0.195
REMARK UNBOUND:                -0.195
REMARK SMILES Cc1ccc(C(C)C)c(O)c1
REMARK SMILES IDX 1 1 2 2 11 3 9 4 5 5 4 6 3 7 10 8 6 10 7 11 8 12
REMARK H PARENT 10 9
REMARK Flexibility Score: inf
ROOT
ATOM      1  C   UNL     1     133.143 146.775 121.981  1.00  0.00     0.044 C 
ATOM      2  C   UNL     1     131.783 146.380 121.483  1.00  0.00    -0.047 A 
ATOM      3  C   UNL     1     130.803 145.942 122.382  1.00  0.00     0.049 A 
ATOM      4  C   UNL     1     129.517 145.606 121.930  1.00  0.00     0.119 A 
ATOM      5  C   UNL     1     129.198 145.720 120.559  1.00  0.00    -0.004 A 
ATOM      6  C   UNL     1     130.187 146.181 119.668  1.00  0.00     0.008 A 
ATOM      7  C   UNL     1     131.463 146.514 120.127  1.00  0.00     0.004 A 
ENDROOT
BRANCH   4   8
ATOM      8  O   UNL     1     128.562 145.164 122.845  1.00  0.00    -0.508 OA
ATOM      9  H   UNL     1     127.631 144.890 122.552  1.00  0.00     0.293 HD
ENDBRANCH   4   8
BRANCH   5  10
ATOM     10  C   UNL     1     127.812 145.362 120.044  1.00  0.00     0.017 C 
ATOM     11  C   UNL     1     127.883 144.756 118.637  1.00  0.00     0.012 C 
ATOM     12  C   UNL     1     126.881 146.581 120.071  1.00  0.00     0.012 C 
ENDBRANCH   5  10
TORSDOF 2
ENDMDL
MODEL 2
REMARK VINA RESULT:    -3.880     13.741     15.934
REMARK INTER + INTRA:          -4.416
REMARK INTER:                  -4.218
REMARK INTRA:                  -0.198
REMARK UNBOUND:                -0.195
REMARK SMILES Cc1ccc(C(C)C)c(O)c1
REMARK SMILES IDX 1 1 2 2 11 3 9 4 5 5 4 6 3 7 10 8 6 10 7 11 8 12
REMARK H PARENT 10 9
REMARK Flexibility Score: inf
ROOT
ATOM      1  C   UNL     1     146.068 139.082 120.439  1.00  0.00     0.044 C 
ATOM      2  C   UNL     1     145.635 140.518 120.406  1.00  0.00    -0.047 A 
ATOM      3  C   UNL     1     145.593 141.270 121.587  1.00  0.00     0.049 A 
ATOM      4  C   UNL     1     145.224 142.623 121.561  1.00  0.00     0.119 A 
ATOM      5  C   UNL     1     144.902 143.244 120.333  1.00  0.00    -0.004 A 
ATOM      6  C   UNL     1     144.968 142.482 119.150  1.00  0.00     0.008 A 
ATOM      7  C   UNL     1     145.336 141.136 119.186  1.00  0.00     0.004 A 
ENDROOT
BRANCH   4   8
ATOM      8  O   UNL     1     145.182 143.348 122.751  1.00  0.00    -0.508 OA
ATOM      9  H   UNL     1     145.988 143.418 123.361  1.00  0.00     0.293 HD
ENDBRANCH   4   8
BRANCH   5  10
ATOM     10  C   UNL     1     144.499 144.711 120.277  1.00  0.00     0.017 C 
ATOM     11  C   UNL     1     143.009 144.863 119.949  1.00  0.00     0.012 C 
ATOM     12  C   UNL     1     145.364 145.483 119.273  1.00  0.00     0.012 C 
ENDBRANCH   5  10
TORSDOF 2
ENDMDL
MODEL 3
REMARK VINA RESULT:    -3.873      1.988      2.171
REMARK INTER + INTRA:          -4.407
REMARK INTER:                  -4.209
REMARK INTRA:                  -0.198
REMARK UNBOUND:                -0.195
REMARK SMILES Cc1ccc(C(C)C)c(O)c1
REMARK SMILES IDX 1 1 2 2 11 3 9 4 5 5 4 6 3 7 10 8 6 10 7 11 8 12
REMARK H PARENT 10 9
REMARK Flexibility Score: inf
ROOT
ATOM      1  C   UNL     1     134.136 146.256 119.818  1.00  0.00     0.044 C 
ATOM      2  C   UNL     1     132.687 145.867 119.792  1.00  0.00    -0.047 A 
ATOM      3  C   UNL     1     132.317 144.517 119.852  1.00  0.00     0.049 A 
ATOM      4  C   UNL     1     130.964 144.147 119.866  1.00  0.00     0.119 A 
ATOM      5  C   UNL     1     129.959 145.139 119.833  1.00  0.00    -0.004 A 
ATOM      6  C   UNL     1     130.344 146.494 119.793  1.00  0.00     0.008 A 
ATOM      7  C   UNL     1     131.694 146.853 119.779  1.00  0.00     0.004 A 
ENDROOT
BRANCH   4   8
ATOM      8  O   UNL     1     130.623 142.796 119.917  1.00  0.00    -0.508 OA
ATOM      9  H   UNL     1     130.691 142.198 119.102  1.00  0.00     0.293 HD
ENDBRANCH   4   8
BRANCH   5  10
ATOM     10  C   UNL     1     128.485 144.763 119.846  1.00  0.00     0.017 C 
ATOM     11  C   UNL     1     127.941 144.604 118.422  1.00  0.00     0.012 C 
ATOM     12  C   UNL     1     127.662 145.788 120.638  1.00  0.00     0.012 C 
ENDBRANCH   5  10
TORSDOF 2
ENDMDL
MODEL 4
REMARK VINA RESULT:    -3.814      3.101      4.339
REMARK INTER + INTRA:          -4.344
REMARK INTER:                  -4.165
REMARK INTRA:                  -0.178
REMARK UNBOUND:                -0.195
REMARK SMILES Cc1ccc(C(C)C)c(O)c1
REMARK SMILES IDX 1 1 2 2 11 3 9 4 5 5 4 6 3 7 10 8 6 10 7 11 8 12
REMARK H PARENT 10 9
REMARK Flexibility Score: inf
ROOT
ATOM      1  C   UNL     1     126.875 146.672 119.851  1.00  0.00     0.044 C 
ATOM      2  C   UNL     1     127.532 145.351 120.126  1.00  0.00    -0.047 A 
ATOM      3  C   UNL     1     127.253 144.658 121.311  1.00  0.00     0.049 A 
ATOM      4  C   UNL     1     127.834 143.405 121.560  1.00  0.00     0.119 A 
ATOM      5  C   UNL     1     128.699 142.825 120.605  1.00  0.00    -0.004 A 
ATOM      6  C   UNL     1     128.955 143.524 119.409  1.00  0.00     0.008 A 
ATOM      7  C   UNL     1     128.372 144.770 119.170  1.00  0.00     0.004 A 
ENDROOT
BRANCH   4   8
ATOM      8  O   UNL     1     127.548 142.740 122.751  1.00  0.00    -0.508 OA
ATOM      9  H   UNL     1     127.972 141.848 122.979  1.00  0.00     0.293 HD
ENDBRANCH   4   8
BRANCH   5  10
ATOM     10  C   UNL     1     129.342 141.468 120.852  1.00  0.00     0.017 C 
ATOM     11  C   UNL     1     130.697 141.360 120.142  1.00  0.00     0.012 C 
ATOM     12  C   UNL     1     128.407 140.329 120.427  1.00  0.00     0.012 C 
ENDBRANCH   5  10
TORSDOF 2
ENDMDL
MODEL 5
REMARK VINA RESULT:    -3.738      3.169      4.680
REMARK INTER + INTRA:          -4.261
REMARK INTER:                  -4.063
REMARK INTRA:                  -0.198
REMARK UNBOUND:                -0.195
REMARK SMILES Cc1ccc(C(C)C)c(O)c1
REMARK SMILES IDX 1 1 2 2 11 3 9 4 5 5 4 6 3 7 10 8 6 10 7 11 8 12
REMARK H PARENT 10 9
REMARK Flexibility Score: inf
ROOT
ATOM      1  C   UNL     1     137.937 146.861 120.483  1.00  0.00     0.044 C 
ATOM      2  C   UNL     1     136.454 146.633 120.518  1.00  0.00    -0.047 A 
ATOM      3  C   UNL     1     135.779 146.573 121.744  1.00  0.00     0.049 A 
ATOM      4  C   UNL     1     134.387 146.397 121.785  1.00  0.00     0.119 A 
ATOM      5  C   UNL     1     133.652 146.291 120.583  1.00  0.00    -0.004 A 
ATOM      6  C   UNL     1     134.341 146.372 119.357  1.00  0.00     0.008 A 
ATOM      7  C   UNL     1     135.726 146.548 119.326  1.00  0.00     0.004 A 
ENDROOT
BRANCH   4   8
ATOM      8  O   UNL     1     133.740 146.332 123.018  1.00  0.00    -0.508 OA
ATOM      9  H   UNL     1     133.337 147.155 123.453  1.00  0.00     0.293 HD
ENDBRANCH   4   8
BRANCH   5  10
ATOM     10  C   UNL     1     132.143 146.099 120.601  1.00  0.00     0.017 C 
ATOM     11  C   UNL     1     131.761 144.668 120.205  1.00  0.00     0.012 C 
ATOM     12  C   UNL     1     131.446 147.125 119.698  1.00  0.00     0.012 C 
ENDBRANCH   5  10
TORSDOF 2
ENDMDL
MODEL 6
REMARK VINA RESULT:    -3.669      2.541      5.001
REMARK INTER + INTRA:          -4.185
REMARK INTER:                  -3.989
REMARK INTRA:                  -0.197
REMARK UNBOUND:                -0.195
REMARK SMILES Cc1ccc(C(C)C)c(O)c1
REMARK SMILES IDX 1 1 2 2 11 3 9 4 5 5 4 6 3 7 10 8 6 10 7 11 8 12
REMARK H PARENT 10 9
REMARK Flexibility Score: inf
ROOT
ATOM      1  C   UNL     1     128.521 145.392 119.658  1.00  0.00     0.044 C 
ATOM      2  C   UNL     1     130.017 145.450 119.757  1.00  0.00    -0.047 A 
ATOM      3  C   UNL     1     130.768 144.268 119.794  1.00  0.00     0.049 A 
ATOM      4  C   UNL     1     132.169 144.312 119.849  1.00  0.00     0.119 A 
ATOM      5  C   UNL     1     132.837 145.558 119.856  1.00  0.00    -0.004 A 
ATOM      6  C   UNL     1     132.071 146.739 119.799  1.00  0.00     0.008 A 
ATOM      7  C   UNL     1     130.676 146.684 119.743  1.00  0.00     0.004 A 
ENDROOT
BRANCH   4   8
ATOM      8  O   UNL     1     132.893 143.122 119.894  1.00  0.00    -0.508 OA
ATOM      9  H   UNL     1     132.684 142.396 120.570  1.00  0.00     0.293 HD
ENDBRANCH   4   8
BRANCH   5  10
ATOM     10  C   UNL     1     134.355 145.633 119.916  1.00  0.00     0.017 C 
ATOM     11  C   UNL     1     134.824 146.351 121.187  1.00  0.00     0.012 C 
ATOM     12  C   UNL     1     134.924 146.307 118.661  1.00  0.00     0.012 C 
ENDBRANCH   5  10
TORSDOF 2
ENDMDL
MODEL 7
REMARK VINA RESULT:    -3.660     12.208     14.363
REMARK INTER + INTRA:          -4.176
REMARK INTER:                  -3.976
REMARK INTRA:                  -0.200
REMARK UNBOUND:                -0.195
REMARK SMILES Cc1ccc(C(C)C)c(O)c1
REMARK SMILES IDX 1 1 2 2 11 3 9 4 5 5 4 6 3 7 10 8 6 10 7 11 8 12
REMARK H PARENT 10 9
REMARK Flexibility Score: inf
ROOT
ATOM      1  C   UNL     1     141.113 147.058 119.464  1.00  0.00     0.044 C 
ATOM      2  C   UNL     1     142.055 145.902 119.626  1.00  0.00    -0.047 A 
ATOM      3  C   UNL     1     143.392 146.124 119.978  1.00  0.00     0.049 A 
ATOM      4  C   UNL     1     144.271 145.047 120.168  1.00  0.00     0.119 A 
ATOM      5  C   UNL     1     143.806 143.721 120.016  1.00  0.00    -0.004 A 
ATOM      6  C   UNL     1     142.454 143.510 119.681  1.00  0.00     0.008 A 
ATOM      7  C   UNL     1     141.587 144.589 119.495  1.00  0.00     0.004 A 
ENDROOT
BRANCH   4   8
ATOM      8  O   UNL     1     145.599 145.296 120.510  1.00  0.00    -0.508 OA
ATOM      9  H   UNL     1     145.852 146.014 121.179  1.00  0.00     0.293 HD
ENDBRANCH   4   8
BRANCH   5  10
ATOM     10  C   UNL     1     144.739 142.535 120.215  1.00  0.00     0.017 C 
ATOM     11  C   UNL     1     145.290 142.033 118.876  1.00  0.00     0.012 C 
ATOM     12  C   UNL     1     144.039 141.406 120.981  1.00  0.00     0.012 C 
ENDBRANCH   5  10
TORSDOF 2
ENDMDL
MODEL 8
REMARK VINA RESULT:    -3.647     15.698     16.463
REMARK INTER + INTRA:          -4.162
REMARK INTER:                  -3.963
REMARK INTRA:                  -0.199
REMARK UNBOUND:                -0.195
REMARK SMILES Cc1ccc(C(C)C)c(O)c1
REMARK SMILES IDX 1 1 2 2 11 3 9 4 5 5 4 6 3 7 10 8 6 10 7 11 8 12
REMARK H PARENT 10 9
REMARK Flexibility Score: inf
ROOT
ATOM      1  C   UNL     1     133.876 129.529 120.079  1.00  0.00     0.044 C 
ATOM      2  C   UNL     1     132.381 129.583 120.192  1.00  0.00    -0.047 A 
ATOM      3  C   UNL     1     131.624 128.407 120.108  1.00  0.00     0.049 A 
ATOM      4  C   UNL     1     130.228 128.444 120.249  1.00  0.00     0.119 A 
ATOM      5  C   UNL     1     129.575 129.673 120.492  1.00  0.00    -0.004 A 
ATOM      6  C   UNL     1     130.349 130.845 120.594  1.00  0.00     0.008 A 
ATOM      7  C   UNL     1     131.738 130.798 120.452  1.00  0.00     0.004 A 
ENDROOT
BRANCH   4   8
ATOM      8  O   UNL     1     129.497 127.261 120.152  1.00  0.00    -0.508 OA
ATOM      9  H   UNL     1     128.540 127.198 120.480  1.00  0.00     0.293 HD
ENDBRANCH   4   8
BRANCH   5  10
ATOM     10  C   UNL     1     128.062 129.739 120.649  1.00  0.00     0.017 C 
ATOM     11  C   UNL     1     127.400 130.320 119.394  1.00  0.00     0.012 C 
ATOM     12  C   UNL     1     127.672 130.541 121.897  1.00  0.00     0.012 C 
ENDBRANCH   5  10
TORSDOF 2
ENDMDL
MODEL 9
REMARK VINA RESULT:    -3.600      1.907      4.200
REMARK INTER + INTRA:          -4.110
REMARK INTER:                  -3.950
REMARK INTRA:                  -0.161
REMARK UNBOUND:                -0.195
REMARK SMILES Cc1ccc(C(C)C)c(O)c1
REMARK SMILES IDX 1 1 2 2 11 3 9 4 5 5 4 6 3 7 10 8 6 10 7 11 8 12
REMARK H PARENT 10 9
REMARK Flexibility Score: inf
ROOT
ATOM      1  C   UNL     1     127.980 144.771 118.253  1.00  0.00     0.044 C 
ATOM      2  C   UNL     1     128.259 145.055 119.700  1.00  0.00    -0.047 A 
ATOM      3  C   UNL     1     129.406 145.768 120.071  1.00  0.00     0.049 A 
ATOM      4  C   UNL     1     129.655 146.070 121.418  1.00  0.00     0.119 A 
ATOM      5  C   UNL     1     128.738 145.666 122.414  1.00  0.00    -0.004 A 
ATOM      6  C   UNL     1     127.578 144.967 122.026  1.00  0.00     0.008 A 
ATOM      7  C   UNL     1     127.339 144.671 120.682  1.00  0.00     0.004 A 
ENDROOT
BRANCH   4   8
ATOM      8  O   UNL     1     130.809 146.773 121.763  1.00  0.00    -0.508 OA
ATOM      9  H   UNL     1     130.951 147.139 122.697  1.00  0.00     0.293 HD
ENDBRANCH   4   8
BRANCH   5  10
ATOM     10  C   UNL     1     128.986 145.981 123.883  1.00  0.00     0.017 C 
ATOM     11  C   UNL     1     129.945 144.964 124.513  1.00  0.00     0.012 C 
ATOM     12  C   UNL     1     127.666 146.049 124.662  1.00  0.00     0.012 C 
ENDBRANCH   5  10
TORSDOF 2
ENDMDL
