MODEL 1
REMARK VINA RESULT:    -6.959      0.000      0.000
REMARK INTER + INTRA:         -11.039
REMARK INTER:                 -10.011
REMARK INTRA:                  -1.028
REMARK UNBOUND:                -1.028
REMARK SMILES O=c1c(O[C@H]2O[C@@H](CO)[C@@H](O)[C@@H](O)[C@H]2O)c(-c2ccc(O)cc2)oc2cc(O)cc(O)c12
REMARK SMILES IDX 4 1 3 2 16 3 24 4 2 5 25 6 1 7 32 8 26 9 30 10 27 11 29 12
REMARK SMILES IDX 17 13 18 14 19 15 20 16 23 17 22 18 21 19 31 21 28 23 5 25
REMARK SMILES IDX 14 26 6 27 12 28 7 29 10 30 15 31 13 33 8 35 9 36 11 38
REMARK H PARENT 21 20 31 22 28 24 15 32 13 34 9 37 11 39
REMARK Flexibility Score: inf
ROOT
ATOM      1  O   UNL     1      53.842   4.666  78.086  1.00  0.00    -0.454 OA
ENDROOT
BRANCH   1   2
ATOM      2  C   UNL     1      54.748   5.645  78.549  1.00  0.00     0.214 A 
ATOM      3  C   UNL     1      54.810   6.846  77.764  1.00  0.00     0.180 A 
ATOM      4  O   UNL     1      55.959   7.551  77.773  1.00  0.00    -0.452 OA
ATOM      5  C   UNL     1      55.585   5.586  79.676  1.00  0.00     0.239 A 
ATOM      6  C   UNL     1      56.941   7.313  78.625  1.00  0.00     0.146 A 
ATOM      7  O   UNL     1      55.327   4.824  80.648  1.00  0.00    -0.285 OA
ATOM      8  C   UNL     1      56.762   6.355  79.667  1.00  0.00     0.111 A 
ATOM      9  C   UNL     1      58.236   7.799  78.390  1.00  0.00     0.094 A 
ATOM     10  C   UNL     1      57.628   6.444  80.768  1.00  0.00     0.134 A 
ATOM     11  C   UNL     1      59.243   7.577  79.353  1.00  0.00     0.123 A 
ATOM     12  C   UNL     1      58.918   6.923  80.528  1.00  0.00     0.093 A 
BRANCH   3  13
ATOM     13  C   UNL     1      53.635   7.310  76.997  1.00  0.00     0.021 A 
ATOM     14  C   UNL     1      52.654   7.910  77.756  1.00  0.00     0.016 A 
ATOM     15  C   UNL     1      52.311   9.223  77.507  1.00  0.00     0.047 A 
ATOM     16  C   UNL     1      52.783   9.891  76.389  1.00  0.00     0.115 A 
ATOM     17  C   UNL     1      53.912   7.863  75.708  1.00  0.00     0.016 A 
ATOM     18  C   UNL     1      53.722   9.233  75.531  1.00  0.00     0.047 A 
BRANCH  16  19
ATOM     19  O   UNL     1      52.187  11.125  76.054  1.00  0.00    -0.508 OA
ATOM     20  H   UNL     1      51.527  11.142  75.288  1.00  0.00     0.293 HD
ENDBRANCH  16  19
ENDBRANCH   3  13
BRANCH  10  21
ATOM     21  O   UNL     1      57.057   6.597  82.060  1.00  0.00    -0.507 OA
ATOM     22  H   UNL     1      56.478   7.400  82.326  1.00  0.00     0.293 HD
ENDBRANCH  10  21
BRANCH  11  23
ATOM     23  O   UNL     1      60.515   8.125  79.204  1.00  0.00    -0.508 OA
ATOM     24  H   UNL     1      61.329   7.679  79.611  1.00  0.00     0.293 HD
ENDBRANCH  11  23
ENDBRANCH   1   2
BRANCH   1  25
ATOM     25  C   UNL     1      52.387   4.418  78.240  1.00  0.00     0.339 C 
ATOM     26  C   UNL     1      52.023   4.177  79.722  1.00  0.00     0.214 C 
ATOM     27  O   UNL     1      51.855   3.378  77.392  1.00  0.00    -0.332 OA
ATOM     28  C   UNL     1      50.464   4.284  79.777  1.00  0.00     0.180 C 
ATOM     29  C   UNL     1      50.406   3.156  77.541  1.00  0.00     0.179 C 
ATOM     30  C   UNL     1      49.839   3.109  78.994  1.00  0.00     0.177 C 
BRANCH  26  31
ATOM     31  O   UNL     1      52.379   2.857  80.080  1.00  0.00    -0.384 OA
ATOM     32  H   UNL     1      51.513   2.354  80.088  1.00  0.00     0.211 HD
ENDBRANCH  26  31
BRANCH  28  33
ATOM     33  O   UNL     1      49.900   4.332  81.085  1.00  0.00    -0.387 OA
ATOM     34  H   UNL     1      49.481   5.243  81.215  1.00  0.00     0.211 HD
ENDBRANCH  28  33
BRANCH  29  35
ATOM     35  C   UNL     1      50.013   2.022  76.543  1.00  0.00     0.191 C 
BRANCH  35  36
ATOM     36  O   UNL     1      49.459   2.509  75.300  1.00  0.00    -0.394 OA
ATOM     37  H   UNL     1      49.809   1.911  74.561  1.00  0.00     0.210 HD
ENDBRANCH  35  36
ENDBRANCH  29  35
BRANCH  30  38
ATOM     38  O   UNL     1      49.904   1.873  79.716  1.00  0.00    -0.387 OA
ATOM     39  H   UNL     1      50.805   1.781  80.145  1.00  0.00     0.211 HD
ENDBRANCH  30  38
ENDBRANCH   1  25
TORSDOF 11
ENDMDL
MODEL 2
REMARK VINA RESULT:    -6.839      2.283      6.893
REMARK INTER + INTRA:         -10.865
REMARK INTER:                  -9.697
REMARK INTRA:                  -1.168
REMARK UNBOUND:                -1.028
REMARK SMILES O=c1c(O[C@H]2O[C@@H](CO)[C@@H](O)[C@@H](O)[C@H]2O)c(-c2ccc(O)cc2)oc2cc(O)cc(O)c12
REMARK SMILES IDX 4 1 3 2 16 3 24 4 2 5 25 6 1 7 32 8 26 9 30 10 27 11 29 12
REMARK SMILES IDX 17 13 18 14 19 15 20 16 23 17 22 18 21 19 31 21 28 23 5 25
REMARK SMILES IDX 14 26 6 27 12 28 7 29 10 30 15 31 13 33 8 35 9 36 11 38
REMARK H PARENT 21 20 31 22 28 24 15 32 13 34 9 37 11 39
REMARK Flexibility Score: inf
ROOT
ATOM      1  O   UNL     1      54.906   6.668  80.480  1.00  0.00    -0.454 OA
ENDROOT
BRANCH   1   2
ATOM      2  C   UNL     1      54.207   5.513  80.066  1.00  0.00     0.214 A 
ATOM      3  C   UNL     1      54.839   4.751  79.027  1.00  0.00     0.180 A 
ATOM      4  O   UNL     1      54.056   4.013  78.214  1.00  0.00    -0.452 OA
ATOM      5  C   UNL     1      52.981   5.023  80.549  1.00  0.00     0.239 A 
ATOM      6  C   UNL     1      52.776   3.789  78.461  1.00  0.00     0.146 A 
ATOM      7  O   UNL     1      52.558   5.326  81.698  1.00  0.00    -0.285 OA
ATOM      8  C   UNL     1      52.200   4.233  79.689  1.00  0.00     0.111 A 
ATOM      9  C   UNL     1      51.913   3.339  77.450  1.00  0.00     0.094 A 
ATOM     10  C   UNL     1      51.003   3.619  80.087  1.00  0.00     0.134 A 
ATOM     11  C   UNL     1      50.569   3.052  77.767  1.00  0.00     0.123 A 
ATOM     12  C   UNL     1      50.144   3.177  79.078  1.00  0.00     0.093 A 
BRANCH   3  13
ATOM     13  C   UNL     1      56.309   4.752  78.875  1.00  0.00     0.021 A 
ATOM     14  C   UNL     1      56.796   5.700  78.002  1.00  0.00     0.016 A 
ATOM     15  C   UNL     1      57.662   6.670  78.466  1.00  0.00     0.047 A 
ATOM     16  C   UNL     1      58.209   6.597  79.737  1.00  0.00     0.115 A 
ATOM     17  C   UNL     1      57.058   4.496  80.066  1.00  0.00     0.016 A 
ATOM     18  C   UNL     1      57.791   5.548  80.615  1.00  0.00     0.047 A 
BRANCH  16  19
ATOM     19  O   UNL     1      59.281   7.461  80.045  1.00  0.00    -0.508 OA
ATOM     20  H   UNL     1      59.108   8.225  80.684  1.00  0.00     0.293 HD
ENDBRANCH  16  19
ENDBRANCH   3  13
BRANCH  10  21
ATOM     21  O   UNL     1      50.965   2.986  81.359  1.00  0.00    -0.507 OA
ATOM     22  H   UNL     1      51.783   2.905  81.970  1.00  0.00     0.293 HD
ENDBRANCH  10  21
BRANCH  11  23
ATOM     23  O   UNL     1      49.705   2.512  76.816  1.00  0.00    -0.508 OA
ATOM     24  H   UNL     1      49.959   2.479  75.835  1.00  0.00     0.293 HD
ENDBRANCH  11  23
ENDBRANCH   1   2
BRANCH   1  25
ATOM     25  C   UNL     1      54.712   8.130  80.326  1.00  0.00     0.339 C 
ATOM     26  C   UNL     1      53.407   8.589  81.015  1.00  0.00     0.214 C 
ATOM     27  O   UNL     1      54.787   8.612  78.967  1.00  0.00    -0.332 OA
ATOM     28  C   UNL     1      53.513  10.148  81.080  1.00  0.00     0.180 C 
ATOM     29  C   UNL     1      54.611  10.070  78.830  1.00  0.00     0.179 C 
ATOM     30  C   UNL     1      53.459  10.728  79.649  1.00  0.00     0.177 C 
BRANCH  26  31
ATOM     31  O   UNL     1      52.306   8.263  80.191  1.00  0.00    -0.384 OA
ATOM     32  H   UNL     1      51.502   8.489  80.743  1.00  0.00     0.211 HD
ENDBRANCH  26  31
BRANCH  28  33
ATOM     33  O   UNL     1      52.532  10.794  81.887  1.00  0.00    -0.387 OA
ATOM     34  H   UNL     1      52.980  11.110  82.737  1.00  0.00     0.211 HD
ENDBRANCH  28  33
BRANCH  29  35
ATOM     35  C   UNL     1      54.741  10.404  77.311  1.00  0.00     0.191 C 
BRANCH  35  36
ATOM     36  O   UNL     1      53.547  10.118  76.549  1.00  0.00    -0.394 OA
ATOM     37  H   UNL     1      52.991  10.965  76.533  1.00  0.00     0.210 HD
ENDBRANCH  35  36
ENDBRANCH  29  35
BRANCH  30  38
ATOM     38  O   UNL     1      52.135  10.715  79.102  1.00  0.00    -0.387 OA
ATOM     39  H   UNL     1      51.490  11.087  79.774  1.00  0.00     0.211 HD
ENDBRANCH  30  38
ENDBRANCH   1  25
TORSDOF 11
ENDMDL
MODEL 3
REMARK VINA RESULT:    -6.732      2.653      4.759
REMARK INTER + INTRA:         -10.711
REMARK INTER:                  -9.700
REMARK INTRA:                  -1.011
REMARK UNBOUND:                -1.028
REMARK SMILES O=c1c(O[C@H]2O[C@@H](CO)[C@@H](O)[C@@H](O)[C@H]2O)c(-c2ccc(O)cc2)oc2cc(O)cc(O)c12
REMARK SMILES IDX 4 1 3 2 16 3 24 4 2 5 25 6 1 7 32 8 26 9 30 10 27 11 29 12
REMARK SMILES IDX 17 13 18 14 19 15 20 16 23 17 22 18 21 19 31 21 28 23 5 25
REMARK SMILES IDX 14 26 6 27 12 28 7 29 10 30 15 31 13 33 8 35 9 36 11 38
REMARK H PARENT 21 20 31 22 28 24 15 32 13 34 9 37 11 39
REMARK Flexibility Score: inf
ROOT
ATOM      1  O   UNL     1      53.381   5.411  81.089  1.00  0.00    -0.454 OA
ENDROOT
BRANCH   1   2
ATOM      2  C   UNL     1      54.290   6.149  80.300  1.00  0.00     0.214 A 
ATOM      3  C   UNL     1      54.407   5.723  78.934  1.00  0.00     0.180 A 
ATOM      4  O   UNL     1      55.569   5.958  78.293  1.00  0.00    -0.452 OA
ATOM      5  C   UNL     1      55.082   7.243  80.688  1.00  0.00     0.239 A 
ATOM      6  C   UNL     1      56.513   6.743  78.784  1.00  0.00     0.146 A 
ATOM      7  O   UNL     1      54.771   7.963  81.676  1.00  0.00    -0.285 OA
ATOM      8  C   UNL     1      56.274   7.480  79.982  1.00  0.00     0.111 A 
ATOM      9  C   UNL     1      57.827   6.688  78.292  1.00  0.00     0.094 A 
ATOM     10  C   UNL     1      57.100   8.589  80.222  1.00  0.00     0.134 A 
ATOM     11  C   UNL     1      58.791   7.585  78.797  1.00  0.00     0.123 A 
ATOM     12  C   UNL     1      58.408   8.528  79.735  1.00  0.00     0.093 A 
BRANCH   3  13
ATOM     13  C   UNL     1      53.272   5.075  78.244  1.00  0.00     0.021 A 
ATOM     14  C   UNL     1      53.384   3.708  78.111  1.00  0.00     0.016 A 
ATOM     15  C   UNL     1      52.439   2.889  78.692  1.00  0.00     0.047 A 
ATOM     16  C   UNL     1      51.274   3.406  79.236  1.00  0.00     0.115 A 
ATOM     17  C   UNL     1      51.979   5.611  78.535  1.00  0.00     0.016 A 
ATOM     18  C   UNL     1      51.098   4.826  79.278  1.00  0.00     0.047 A 
BRANCH  16  19
ATOM     19  O   UNL     1      50.241   2.504  79.565  1.00  0.00    -0.508 OA
ATOM     20  H   UNL     1      49.370   2.884  79.912  1.00  0.00     0.293 HD
ENDBRANCH  16  19
ENDBRANCH   3  13
BRANCH  10  21
ATOM     21  O   UNL     1      56.484   9.856  80.406  1.00  0.00    -0.507 OA
ATOM     22  H   UNL     1      56.739  10.499  81.163  1.00  0.00     0.293 HD
ENDBRANCH  10  21
BRANCH  11  23
ATOM     23  O   UNL     1      60.079   7.630  78.269  1.00  0.00    -0.508 OA
ATOM     24  H   UNL     1      60.246   7.937  77.318  1.00  0.00     0.293 HD
ENDBRANCH  11  23
ENDBRANCH   1   2
BRANCH   1  25
ATOM     25  C   UNL     1      53.489   4.532  82.279  1.00  0.00     0.339 C 
ATOM     26  C   UNL     1      54.841   3.785  82.292  1.00  0.00     0.214 C 
ATOM     27  O   UNL     1      52.383   3.622  82.464  1.00  0.00    -0.332 OA
ATOM     28  C   UNL     1      54.962   3.195  83.735  1.00  0.00     0.180 C 
ATOM     29  C   UNL     1      52.494   2.769  83.662  1.00  0.00     0.179 C 
ATOM     30  C   UNL     1      53.881   2.110  83.941  1.00  0.00     0.177 C 
BRANCH  26  31
ATOM     31  O   UNL     1      54.784   2.703  81.385  1.00  0.00    -0.384 OA
ATOM     32  H   UNL     1      55.574   2.133  81.620  1.00  0.00     0.211 HD
ENDBRANCH  26  31
BRANCH  28  33
ATOM     33  O   UNL     1      56.238   2.657  84.071  1.00  0.00    -0.387 OA
ATOM     34  H   UNL     1      56.859   2.802  83.287  1.00  0.00     0.211 HD
ENDBRANCH  28  33
BRANCH  29  35
ATOM     35  C   UNL     1      51.215   1.876  83.705  1.00  0.00     0.191 C 
BRANCH  35  36
ATOM     36  O   UNL     1      51.456   0.497  83.346  1.00  0.00    -0.394 OA
ATOM     37  H   UNL     1      51.200   0.392  82.371  1.00  0.00     0.210 HD
ENDBRANCH  35  36
ENDBRANCH  29  35
BRANCH  30  38
ATOM     38  O   UNL     1      54.203   0.883  83.277  1.00  0.00    -0.387 OA
ATOM     39  H   UNL     1      54.543   0.218  83.945  1.00  0.00     0.211 HD
ENDBRANCH  30  38
ENDBRANCH   1  25
TORSDOF 11
ENDMDL
MODEL 4
REMARK VINA RESULT:    -6.610      1.766      7.430
REMARK INTER + INTRA:         -10.536
REMARK INTER:                  -9.341
REMARK INTRA:                  -1.195
REMARK UNBOUND:                -1.028
REMARK SMILES O=c1c(O[C@H]2O[C@@H](CO)[C@@H](O)[C@@H](O)[C@H]2O)c(-c2ccc(O)cc2)oc2cc(O)cc(O)c12
REMARK SMILES IDX 4 1 3 2 16 3 24 4 2 5 25 6 1 7 32 8 26 9 30 10 27 11 29 12
REMARK SMILES IDX 17 13 18 14 19 15 20 16 23 17 22 18 21 19 31 21 28 23 5 25
REMARK SMILES IDX 14 26 6 27 12 28 7 29 10 30 15 31 13 33 8 35 9 36 11 38
REMARK H PARENT 21 20 31 22 28 24 15 32 13 34 9 37 11 39
REMARK Flexibility Score: inf
ROOT
ATOM      1  O   UNL     1      54.804   6.755  79.978  1.00  0.00    -0.454 OA
ENDROOT
BRANCH   1   2
ATOM      2  C   UNL     1      54.046   5.589  79.737  1.00  0.00     0.214 A 
ATOM      3  C   UNL     1      54.722   4.555  79.006  1.00  0.00     0.180 A 
ATOM      4  O   UNL     1      53.977   3.703  78.273  1.00  0.00    -0.452 OA
ATOM      5  C   UNL     1      52.722   5.321  80.125  1.00  0.00     0.239 A 
ATOM      6  C   UNL     1      52.660   3.639  78.367  1.00  0.00     0.146 A 
ATOM      7  O   UNL     1      52.187   5.922  81.098  1.00  0.00    -0.285 OA
ATOM      8  C   UNL     1      51.979   4.407  79.359  1.00  0.00     0.111 A 
ATOM      9  C   UNL     1      51.893   3.024  77.365  1.00  0.00     0.094 A 
ATOM     10  C   UNL     1      50.681   3.996  79.700  1.00  0.00     0.134 A 
ATOM     11  C   UNL     1      50.496   2.921  77.531  1.00  0.00     0.123 A 
ATOM     12  C   UNL     1      49.919   3.389  78.699  1.00  0.00     0.093 A 
BRANCH   3  13
ATOM     13  C   UNL     1      56.191   4.411  79.083  1.00  0.00     0.021 A 
ATOM     14  C   UNL     1      56.888   5.105  78.118  1.00  0.00     0.016 A 
ATOM     15  C   UNL     1      57.782   6.084  78.497  1.00  0.00     0.047 A 
ATOM     16  C   UNL     1      58.146   6.252  79.824  1.00  0.00     0.115 A 
ATOM     17  C   UNL     1      56.743   4.368  80.402  1.00  0.00     0.016 A 
ATOM     18  C   UNL     1      57.505   5.457  80.826  1.00  0.00     0.047 A 
BRANCH  16  19
ATOM     19  O   UNL     1      59.253   7.079  80.107  1.00  0.00    -0.508 OA
ATOM     20  H   UNL     1      59.162   7.760  80.849  1.00  0.00     0.293 HD
ENDBRANCH  16  19
ENDBRANCH   3  13
BRANCH  10  21
ATOM     21  O   UNL     1      50.410   3.692  81.061  1.00  0.00    -0.507 OA
ATOM     22  H   UNL     1      50.098   2.769  81.379  1.00  0.00     0.293 HD
ENDBRANCH  10  21
BRANCH  11  23
ATOM     23  O   UNL     1      49.711   2.233  76.608  1.00  0.00    -0.508 OA
ATOM     24  H   UNL     1      50.041   2.057  75.667  1.00  0.00     0.293 HD
ENDBRANCH  11  23
ENDBRANCH   1   2
BRANCH   1  25
ATOM     25  C   UNL     1      54.804   8.141  79.451  1.00  0.00     0.339 C 
ATOM     26  C   UNL     1      54.051   8.219  78.104  1.00  0.00     0.214 C 
ATOM     27  O   UNL     1      56.108   8.756  79.360  1.00  0.00    -0.332 OA
ATOM     28  C   UNL     1      53.827   9.747  77.855  1.00  0.00     0.180 C 
ATOM     29  C   UNL     1      56.092  10.140  78.852  1.00  0.00     0.179 C 
ATOM     30  C   UNL     1      55.190  10.434  77.614  1.00  0.00     0.177 C 
BRANCH  26  31
ATOM     31  O   UNL     1      54.885   7.729  77.074  1.00  0.00    -0.384 OA
ATOM     32  H   UNL     1      55.716   7.427  77.544  1.00  0.00     0.211 HD
ENDBRANCH  26  31
BRANCH  28  33
ATOM     33  O   UNL     1      52.942  10.069  76.786  1.00  0.00    -0.387 OA
ATOM     34  H   UNL     1      53.339  10.843  76.269  1.00  0.00     0.211 HD
ENDBRANCH  28  33
BRANCH  29  35
ATOM     35  C   UNL     1      57.570  10.639  78.843  1.00  0.00     0.191 C 
BRANCH  35  36
ATOM     36  O   UNL     1      58.533   9.599  78.560  1.00  0.00    -0.394 OA
ATOM     37  H   UNL     1      58.410   8.878  79.261  1.00  0.00     0.210 HD
ENDBRANCH  35  36
ENDBRANCH  29  35
BRANCH  30  38
ATOM     38  O   UNL     1      55.713  10.169  76.307  1.00  0.00    -0.387 OA
ATOM     39  H   UNL     1      56.018  11.027  75.886  1.00  0.00     0.211 HD
ENDBRANCH  30  38
ENDBRANCH   1  25
TORSDOF 11
ENDMDL
MODEL 5
REMARK VINA RESULT:    -6.597      2.206      3.056
REMARK INTER + INTRA:         -10.518
REMARK INTER:                  -9.154
REMARK INTRA:                  -1.364
REMARK UNBOUND:                -1.028
REMARK SMILES O=c1c(O[C@H]2O[C@@H](CO)[C@@H](O)[C@@H](O)[C@H]2O)c(-c2ccc(O)cc2)oc2cc(O)cc(O)c12
REMARK SMILES IDX 4 1 3 2 16 3 24 4 2 5 25 6 1 7 32 8 26 9 30 10 27 11 29 12
REMARK SMILES IDX 17 13 18 14 19 15 20 16 23 17 22 18 21 19 31 21 28 23 5 25
REMARK SMILES IDX 14 26 6 27 12 28 7 29 10 30 15 31 13 33 8 35 9 36 11 38
REMARK H PARENT 21 20 31 22 28 24 15 32 13 34 9 37 11 39
REMARK Flexibility Score: inf
ROOT
ATOM      1  O   UNL     1      54.334   4.617  79.635  1.00  0.00    -0.454 OA
ENDROOT
BRANCH   1   2
ATOM      2  C   UNL     1      55.093   5.793  79.817  1.00  0.00     0.214 A 
ATOM      3  C   UNL     1      55.062   6.722  78.723  1.00  0.00     0.180 A 
ATOM      4  O   UNL     1      56.119   7.540  78.554  1.00  0.00    -0.452 OA
ATOM      5  C   UNL     1      55.866   6.161  80.932  1.00  0.00     0.239 A 
ATOM      6  C   UNL     1      57.071   7.679  79.461  1.00  0.00     0.146 A 
ATOM      7  O   UNL     1      55.641   5.678  82.076  1.00  0.00    -0.285 OA
ATOM      8  C   UNL     1      56.944   7.039  80.730  1.00  0.00     0.111 A 
ATOM      9  C   UNL     1      58.313   8.240  79.124  1.00  0.00     0.094 A 
ATOM     10  C   UNL     1      57.729   7.544  81.778  1.00  0.00     0.134 A 
ATOM     11  C   UNL     1      59.281   8.428  80.133  1.00  0.00     0.123 A 
ATOM     12  C   UNL     1      58.967   8.096  81.439  1.00  0.00     0.093 A 
BRANCH   3  13
ATOM     13  C   UNL     1      53.887   6.797  77.829  1.00  0.00     0.021 A 
ATOM     14  C   UNL     1      52.804   7.465  78.358  1.00  0.00     0.016 A 
ATOM     15  C   UNL     1      52.331   8.599  77.729  1.00  0.00     0.047 A 
ATOM     16  C   UNL     1      52.789   8.969  76.474  1.00  0.00     0.115 A 
ATOM     17  C   UNL     1      54.173   6.986  76.441  1.00  0.00     0.016 A 
ATOM     18  C   UNL     1      53.841   8.213  75.867  1.00  0.00     0.047 A 
BRANCH  16  19
ATOM     19  O   UNL     1      52.078   9.971  75.781  1.00  0.00    -0.508 OA
ATOM     20  H   UNL     1      52.538  10.432  75.008  1.00  0.00     0.293 HD
ENDBRANCH  16  19
ENDBRANCH   3  13
BRANCH  10  21
ATOM     21  O   UNL     1      57.072   7.982  82.958  1.00  0.00    -0.507 OA
ATOM     22  H   UNL     1      56.260   8.608  82.949  1.00  0.00     0.293 HD
ENDBRANCH  10  21
BRANCH  11  23
ATOM     23  O   UNL     1      60.488   9.068  79.861  1.00  0.00    -0.508 OA
ATOM     24  H   UNL     1      61.368   8.696  80.200  1.00  0.00     0.293 HD
ENDBRANCH  11  23
ENDBRANCH   1   2
BRANCH   1  25
ATOM     25  C   UNL     1      53.353   3.857  80.449  1.00  0.00     0.339 C 
ATOM     26  C   UNL     1      52.152   4.748  80.838  1.00  0.00     0.214 C 
ATOM     27  O   UNL     1      53.909   3.191  81.604  1.00  0.00    -0.332 OA
ATOM     28  C   UNL     1      51.067   3.754  81.367  1.00  0.00     0.180 C 
ATOM     29  C   UNL     1      52.927   2.425  82.392  1.00  0.00     0.179 C 
ATOM     30  C   UNL     1      51.557   3.110  82.683  1.00  0.00     0.177 C 
BRANCH  26  31
ATOM     31  O   UNL     1      52.525   5.592  81.907  1.00  0.00    -0.384 OA
ATOM     32  H   UNL     1      52.498   6.516  81.522  1.00  0.00     0.211 HD
ENDBRANCH  26  31
BRANCH  28  33
ATOM     33  O   UNL     1      49.772   4.312  81.568  1.00  0.00    -0.387 OA
ATOM     34  H   UNL     1      49.315   3.792  82.305  1.00  0.00     0.211 HD
ENDBRANCH  28  33
BRANCH  29  35
ATOM     35  C   UNL     1      53.705   1.766  83.573  1.00  0.00     0.191 C 
BRANCH  35  36
ATOM     36  O   UNL     1      54.129   0.411  83.306  1.00  0.00    -0.394 OA
ATOM     37  H   UNL     1      54.970   0.464  82.744  1.00  0.00     0.210 HD
ENDBRANCH  35  36
ENDBRANCH  29  35
BRANCH  30  38
ATOM     38  O   UNL     1      51.461   4.004  83.798  1.00  0.00    -0.387 OA
ATOM     39  H   UNL     1      51.040   4.866  83.504  1.00  0.00     0.211 HD
ENDBRANCH  30  38
ENDBRANCH   1  25
TORSDOF 11
ENDMDL
MODEL 6
REMARK VINA RESULT:    -6.596      1.972      2.605
REMARK INTER + INTRA:         -10.515
REMARK INTER:                  -9.487
REMARK INTRA:                  -1.028
REMARK UNBOUND:                -1.028
REMARK SMILES O=c1c(O[C@H]2O[C@@H](CO)[C@@H](O)[C@@H](O)[C@H]2O)c(-c2ccc(O)cc2)oc2cc(O)cc(O)c12
REMARK SMILES IDX 4 1 3 2 16 3 24 4 2 5 25 6 1 7 32 8 26 9 30 10 27 11 29 12
REMARK SMILES IDX 17 13 18 14 19 15 20 16 23 17 22 18 21 19 31 21 28 23 5 25
REMARK SMILES IDX 14 26 6 27 12 28 7 29 10 30 15 31 13 33 8 35 9 36 11 38
REMARK H PARENT 21 20 31 22 28 24 15 32 13 34 9 37 11 39
REMARK Flexibility Score: inf
ROOT
ATOM      1  O   UNL     1      53.743   7.543  78.246  1.00  0.00    -0.454 OA
ENDROOT
BRANCH   1   2
ATOM      2  C   UNL     1      54.937   8.154  78.688  1.00  0.00     0.214 A 
ATOM      3  C   UNL     1      55.559   9.041  77.747  1.00  0.00     0.180 A 
ATOM      4  O   UNL     1      56.893   9.217  77.826  1.00  0.00    -0.452 OA
ATOM      5  C   UNL     1      55.579   8.002  79.929  1.00  0.00     0.239 A 
ATOM      6  C   UNL     1      57.614   8.790  78.850  1.00  0.00     0.146 A 
ATOM      7  O   UNL     1      54.949   7.625  80.955  1.00  0.00    -0.285 OA
ATOM      8  C   UNL     1      56.966   8.220  79.987  1.00  0.00     0.111 A 
ATOM      9  C   UNL     1      59.008   8.662  78.749  1.00  0.00     0.094 A 
ATOM     10  C   UNL     1      57.699   8.184  81.183  1.00  0.00     0.134 A 
ATOM     11  C   UNL     1      59.748   8.263  79.882  1.00  0.00     0.123 A 
ATOM     12  C   UNL     1      59.086   8.050  81.079  1.00  0.00     0.093 A 
BRANCH   3  13
ATOM     13  C   UNL     1      54.753   9.763  76.741  1.00  0.00     0.021 A 
ATOM     14  C   UNL     1      54.184   8.961  75.776  1.00  0.00     0.016 A 
ATOM     15  C   UNL     1      52.811   8.917  75.650  1.00  0.00     0.047 A 
ATOM     16  C   UNL     1      51.997   9.808  76.334  1.00  0.00     0.115 A 
ATOM     17  C   UNL     1      53.980  10.860  77.234  1.00  0.00     0.016 A 
ATOM     18  C   UNL     1      52.593  10.723  77.259  1.00  0.00     0.047 A 
BRANCH  16  19
ATOM     19  O   UNL     1      50.640   9.886  75.957  1.00  0.00    -0.508 OA
ATOM     20  H   UNL     1      50.401  10.450  75.153  1.00  0.00     0.293 HD
ENDBRANCH  16  19
ENDBRANCH   3  13
BRANCH  10  21
ATOM     21  O   UNL     1      57.146   8.815  82.329  1.00  0.00    -0.507 OA
ATOM     22  H   UNL     1      56.140   8.840  82.525  1.00  0.00     0.293 HD
ENDBRANCH  10  21
BRANCH  11  23
ATOM     23  O   UNL     1      61.140   8.217  79.852  1.00  0.00    -0.508 OA
ATOM     24  H   UNL     1      61.695   9.059  79.952  1.00  0.00     0.293 HD
ENDBRANCH  11  23
ENDBRANCH   1   2
BRANCH   1  25
ATOM     25  C   UNL     1      53.212   6.158  78.225  1.00  0.00     0.339 C 
ATOM     26  C   UNL     1      52.108   5.974  79.291  1.00  0.00     0.214 C 
ATOM     27  O   UNL     1      54.213   5.122  78.322  1.00  0.00    -0.332 OA
ATOM     28  C   UNL     1      51.415   4.622  78.924  1.00  0.00     0.180 C 
ATOM     29  C   UNL     1      53.674   3.751  78.280  1.00  0.00     0.179 C 
ATOM     30  C   UNL     1      52.407   3.458  79.142  1.00  0.00     0.177 C 
BRANCH  26  31
ATOM     31  O   UNL     1      52.708   5.823  80.561  1.00  0.00    -0.384 OA
ATOM     32  H   UNL     1      52.338   6.576  81.108  1.00  0.00     0.211 HD
ENDBRANCH  26  31
BRANCH  28  33
ATOM     33  O   UNL     1      50.204   4.345  79.623  1.00  0.00    -0.387 OA
ATOM     34  H   UNL     1      49.448   4.330  78.953  1.00  0.00     0.211 HD
ENDBRANCH  28  33
BRANCH  29  35
ATOM     35  C   UNL     1      54.890   2.779  78.376  1.00  0.00     0.191 C 
BRANCH  35  36
ATOM     36  O   UNL     1      54.693   1.529  77.676  1.00  0.00    -0.394 OA
ATOM     37  H   UNL     1      54.104   1.723  76.875  1.00  0.00     0.210 HD
ENDBRANCH  35  36
ENDBRANCH  29  35
BRANCH  30  38
ATOM     38  O   UNL     1      52.580   3.137  80.528  1.00  0.00    -0.387 OA
ATOM     39  H   UNL     1      53.468   3.478  80.844  1.00  0.00     0.211 HD
ENDBRANCH  30  38
ENDBRANCH   1  25
TORSDOF 11
ENDMDL
MODEL 7
REMARK VINA RESULT:    -6.586      9.895     13.378
REMARK INTER + INTRA:         -10.501
REMARK INTER:                  -9.500
REMARK INTRA:                  -1.001
REMARK UNBOUND:                -1.028
REMARK SMILES O=c1c(O[C@H]2O[C@@H](CO)[C@@H](O)[C@@H](O)[C@H]2O)c(-c2ccc(O)cc2)oc2cc(O)cc(O)c12
REMARK SMILES IDX 4 1 3 2 16 3 24 4 2 5 25 6 1 7 32 8 26 9 30 10 27 11 29 12
REMARK SMILES IDX 17 13 18 14 19 15 20 16 23 17 22 18 21 19 31 21 28 23 5 25
REMARK SMILES IDX 14 26 6 27 12 28 7 29 10 30 15 31 13 33 8 35 9 36 11 38
REMARK H PARENT 21 20 31 22 28 24 15 32 13 34 9 37 11 39
REMARK Flexibility Score: inf
ROOT
ATOM      1  O   UNL     1      44.033  -2.422  73.623  1.00  0.00    -0.454 OA
ENDROOT
BRANCH   1   2
ATOM      2  C   UNL     1      44.992  -2.577  74.647  1.00  0.00     0.214 A 
ATOM      3  C   UNL     1      46.134  -1.711  74.556  1.00  0.00     0.180 A 
ATOM      4  O   UNL     1      47.294  -2.130  75.101  1.00  0.00    -0.452 OA
ATOM      5  C   UNL     1      44.961  -3.465  75.736  1.00  0.00     0.239 A 
ATOM      6  C   UNL     1      47.374  -3.186  75.893  1.00  0.00     0.146 A 
ATOM      7  O   UNL     1      43.875  -3.943  76.164  1.00  0.00    -0.285 OA
ATOM      8  C   UNL     1      46.185  -3.861  76.302  1.00  0.00     0.111 A 
ATOM      9  C   UNL     1      48.607  -3.805  76.149  1.00  0.00     0.094 A 
ATOM     10  C   UNL     1      46.275  -4.672  77.443  1.00  0.00     0.134 A 
ATOM     11  C   UNL     1      48.661  -4.890  77.049  1.00  0.00     0.123 A 
ATOM     12  C   UNL     1      47.503  -5.291  77.692  1.00  0.00     0.093 A 
BRANCH   3  13
ATOM     13  C   UNL     1      46.029  -0.386  73.912  1.00  0.00     0.021 A 
ATOM     14  C   UNL     1      44.810   0.237  74.073  1.00  0.00     0.016 A 
ATOM     15  C   UNL     1      44.749   1.454  74.720  1.00  0.00     0.047 A 
ATOM     16  C   UNL     1      45.899   2.160  75.035  1.00  0.00     0.115 A 
ATOM     17  C   UNL     1      47.204   0.427  73.965  1.00  0.00     0.016 A 
ATOM     18  C   UNL     1      47.174   1.566  74.768  1.00  0.00     0.047 A 
BRANCH  16  19
ATOM     19  O   UNL     1      45.760   3.503  75.445  1.00  0.00    -0.508 OA
ATOM     20  H   UNL     1      44.961   4.023  75.108  1.00  0.00     0.293 HD
ENDBRANCH  16  19
ENDBRANCH   3  13
BRANCH  10  21
ATOM     21  O   UNL     1      45.400  -4.402  78.529  1.00  0.00    -0.507 OA
ATOM     22  H   UNL     1      45.403  -3.516  79.045  1.00  0.00     0.293 HD
ENDBRANCH  10  21
BRANCH  11  23
ATOM     23  O   UNL     1      49.877  -5.470  77.404  1.00  0.00    -0.508 OA
ATOM     24  H   UNL     1      50.713  -5.315  76.854  1.00  0.00     0.293 HD
ENDBRANCH  11  23
ENDBRANCH   1   2
BRANCH   1  25
ATOM     25  C   UNL     1      43.875  -2.934  72.240  1.00  0.00     0.339 C 
ATOM     26  C   UNL     1      44.547  -4.317  72.083  1.00  0.00     0.214 C 
ATOM     27  O   UNL     1      44.300  -2.023  71.203  1.00  0.00    -0.332 OA
ATOM     28  C   UNL     1      44.009  -4.875  70.725  1.00  0.00     0.180 C 
ATOM     29  C   UNL     1      44.119  -2.536  69.833  1.00  0.00     0.179 C 
ATOM     30  C   UNL     1      44.549  -4.011  69.563  1.00  0.00     0.177 C 
BRANCH  26  31
ATOM     31  O   UNL     1      45.944  -4.144  71.958  1.00  0.00    -0.384 OA
ATOM     32  H   UNL     1      46.051  -3.239  71.542  1.00  0.00     0.211 HD
ENDBRANCH  26  31
BRANCH  28  33
ATOM     33  O   UNL     1      44.302  -6.246  70.468  1.00  0.00    -0.387 OA
ATOM     34  H   UNL     1      43.715  -6.557  69.705  1.00  0.00     0.211 HD
ENDBRANCH  28  33
BRANCH  29  35
ATOM     35  C   UNL     1      44.609  -1.420  68.860  1.00  0.00     0.191 C 
BRANCH  35  36
ATOM     36  O   UNL     1      45.512  -1.896  67.836  1.00  0.00    -0.394 OA
ATOM     37  H   UNL     1      45.770  -1.098  67.269  1.00  0.00     0.210 HD
ENDBRANCH  35  36
ENDBRANCH  29  35
BRANCH  30  38
ATOM     38  O   UNL     1      45.926  -4.282  69.273  1.00  0.00    -0.387 OA
ATOM     39  H   UNL     1      46.055  -5.269  69.148  1.00  0.00     0.211 HD
ENDBRANCH  30  38
ENDBRANCH   1  25
TORSDOF 11
ENDMDL
MODEL 8
REMARK VINA RESULT:    -6.568      2.229      6.457
REMARK INTER + INTRA:         -10.475
REMARK INTER:                  -9.353
REMARK INTRA:                  -1.122
REMARK UNBOUND:                -1.028
REMARK SMILES O=c1c(O[C@H]2O[C@@H](CO)[C@@H](O)[C@@H](O)[C@H]2O)c(-c2ccc(O)cc2)oc2cc(O)cc(O)c12
REMARK SMILES IDX 4 1 3 2 16 3 24 4 2 5 25 6 1 7 32 8 26 9 30 10 27 11 29 12
REMARK SMILES IDX 17 13 18 14 19 15 20 16 23 17 22 18 21 19 31 21 28 23 5 25
REMARK SMILES IDX 14 26 6 27 12 28 7 29 10 30 15 31 13 33 8 35 9 36 11 38
REMARK H PARENT 21 20 31 22 28 24 15 32 13 34 9 37 11 39
REMARK Flexibility Score: inf
ROOT
ATOM      1  O   UNL     1      53.946   6.051  81.328  1.00  0.00    -0.454 OA
ENDROOT
BRANCH   1   2
ATOM      2  C   UNL     1      53.349   6.809  80.298  1.00  0.00     0.214 A 
ATOM      3  C   UNL     1      52.869   6.053  79.176  1.00  0.00     0.180 A 
ATOM      4  O   UNL     1      52.811   6.664  77.976  1.00  0.00    -0.452 OA
ATOM      5  C   UNL     1      53.167   8.202  80.241  1.00  0.00     0.239 A 
ATOM      6  C   UNL     1      52.965   7.969  77.827  1.00  0.00     0.146 A 
ATOM      7  O   UNL     1      53.139   8.905  81.289  1.00  0.00    -0.285 OA
ATOM      8  C   UNL     1      53.081   8.807  78.976  1.00  0.00     0.111 A 
ATOM      9  C   UNL     1      53.256   8.524  76.571  1.00  0.00     0.094 A 
ATOM     10  C   UNL     1      52.813  10.173  78.796  1.00  0.00     0.134 A 
ATOM     11  C   UNL     1      53.351   9.925  76.441  1.00  0.00     0.123 A 
ATOM     12  C   UNL     1      53.110  10.723  77.546  1.00  0.00     0.093 A 
BRANCH   3  13
ATOM     13  C   UNL     1      52.423   4.654  79.343  1.00  0.00     0.021 A 
ATOM     14  C   UNL     1      51.076   4.507  79.597  1.00  0.00     0.016 A 
ATOM     15  C   UNL     1      50.292   3.793  78.715  1.00  0.00     0.047 A 
ATOM     16  C   UNL     1      50.855   3.052  77.688  1.00  0.00     0.115 A 
ATOM     17  C   UNL     1      53.047   3.695  78.485  1.00  0.00     0.016 A 
ATOM     18  C   UNL     1      52.271   3.112  77.484  1.00  0.00     0.047 A 
BRANCH  16  19
ATOM     19  O   UNL     1      50.028   2.141  76.999  1.00  0.00    -0.508 OA
ATOM     20  H   UNL     1      49.730   2.382  76.063  1.00  0.00     0.293 HD
ENDBRANCH  16  19
ENDBRANCH   3  13
BRANCH  10  21
ATOM     21  O   UNL     1      51.802  10.770  79.595  1.00  0.00    -0.507 OA
ATOM     22  H   UNL     1      50.836  10.893  79.278  1.00  0.00     0.293 HD
ENDBRANCH  10  21
BRANCH  11  23
ATOM     23  O   UNL     1      53.543  10.520  75.196  1.00  0.00    -0.508 OA
ATOM     24  H   UNL     1      53.372  11.509  75.056  1.00  0.00     0.293 HD
ENDBRANCH  11  23
ENDBRANCH   1   2
BRANCH   1  25
ATOM     25  C   UNL     1      55.089   5.110  81.420  1.00  0.00     0.339 C 
ATOM     26  C   UNL     1      55.445   4.817  82.894  1.00  0.00     0.214 C 
ATOM     27  O   UNL     1      56.257   5.499  80.664  1.00  0.00    -0.332 OA
ATOM     28  C   UNL     1      56.397   3.577  82.840  1.00  0.00     0.180 C 
ATOM     29  C   UNL     1      57.378   4.545  80.748  1.00  0.00     0.179 C 
ATOM     30  C   UNL     1      57.725   3.977  82.158  1.00  0.00     0.177 C 
BRANCH  26  31
ATOM     31  O   UNL     1      56.178   5.903  83.421  1.00  0.00    -0.384 OA
ATOM     32  H   UNL     1      57.082   5.830  82.995  1.00  0.00     0.211 HD
ENDBRANCH  26  31
BRANCH  28  33
ATOM     33  O   UNL     1      56.678   2.966  84.096  1.00  0.00    -0.387 OA
ATOM     34  H   UNL     1      57.242   3.605  84.639  1.00  0.00     0.211 HD
ENDBRANCH  28  33
BRANCH  29  35
ATOM     35  C   UNL     1      58.529   5.117  79.863  1.00  0.00     0.191 C 
BRANCH  35  36
ATOM     36  O   UNL     1      58.670   6.553  79.948  1.00  0.00    -0.394 OA
ATOM     37  H   UNL     1      58.051   6.957  79.256  1.00  0.00     0.210 HD
ENDBRANCH  35  36
ENDBRANCH  29  35
BRANCH  30  38
ATOM     38  O   UNL     1      58.572   4.747  83.019  1.00  0.00    -0.387 OA
ATOM     39  H   UNL     1      58.025   5.157  83.752  1.00  0.00     0.211 HD
ENDBRANCH  30  38
ENDBRANCH   1  25
TORSDOF 11
ENDMDL
MODEL 9
REMARK VINA RESULT:    -6.540      2.037      5.714
REMARK INTER + INTRA:         -10.436
REMARK INTER:                  -8.952
REMARK INTRA:                  -1.484
REMARK UNBOUND:                -1.028
REMARK SMILES O=c1c(O[C@H]2O[C@@H](CO)[C@@H](O)[C@@H](O)[C@H]2O)c(-c2ccc(O)cc2)oc2cc(O)cc(O)c12
REMARK SMILES IDX 4 1 3 2 16 3 24 4 2 5 25 6 1 7 32 8 26 9 30 10 27 11 29 12
REMARK SMILES IDX 17 13 18 14 19 15 20 16 23 17 22 18 21 19 31 21 28 23 5 25
REMARK SMILES IDX 14 26 6 27 12 28 7 29 10 30 15 31 13 33 8 35 9 36 11 38
REMARK H PARENT 21 20 31 22 28 24 15 32 13 34 9 37 11 39
REMARK Flexibility Score: inf
ROOT
ATOM      1  O   UNL     1      54.542   7.039  77.359  1.00  0.00    -0.454 OA
ENDROOT
BRANCH   1   2
ATOM      2  C   UNL     1      55.134   6.087  78.216  1.00  0.00     0.214 A 
ATOM      3  C   UNL     1      54.226   5.147  78.812  1.00  0.00     0.180 A 
ATOM      4  O   UNL     1      54.563   4.603  79.998  1.00  0.00    -0.452 OA
ATOM      5  C   UNL     1      56.492   5.947  78.551  1.00  0.00     0.239 A 
ATOM      6  C   UNL     1      55.768   4.724  80.527  1.00  0.00     0.146 A 
ATOM      7  O   UNL     1      57.403   6.393  77.801  1.00  0.00    -0.285 OA
ATOM      8  C   UNL     1      56.813   5.349  79.781  1.00  0.00     0.111 A 
ATOM      9  C   UNL     1      55.989   4.470  81.890  1.00  0.00     0.094 A 
ATOM     10  C   UNL     1      58.130   5.078  80.182  1.00  0.00     0.134 A 
ATOM     11  C   UNL     1      57.301   4.549  82.402  1.00  0.00     0.123 A 
ATOM     12  C   UNL     1      58.346   4.832  81.541  1.00  0.00     0.093 A 
BRANCH   3  13
ATOM     13  C   UNL     1      52.974   4.766  78.125  1.00  0.00     0.021 A 
ATOM     14  C   UNL     1      52.965   3.485  77.616  1.00  0.00     0.016 A 
ATOM     15  C   UNL     1      52.030   2.579  78.072  1.00  0.00     0.047 A 
ATOM     16  C   UNL     1      50.976   2.977  78.879  1.00  0.00     0.115 A 
ATOM     17  C   UNL     1      51.767   5.257  78.713  1.00  0.00     0.016 A 
ATOM     18  C   UNL     1      50.917   4.336  79.324  1.00  0.00     0.047 A 
BRANCH  16  19
ATOM     19  O   UNL     1      49.920   2.065  79.084  1.00  0.00    -0.508 OA
ATOM     20  H   UNL     1      49.426   2.100  79.966  1.00  0.00     0.293 HD
ENDBRANCH  16  19
ENDBRANCH   3  13
BRANCH  10  21
ATOM     21  O   UNL     1      59.023   4.528  79.225  1.00  0.00    -0.507 OA
ATOM     22  H   UNL     1      58.710   3.987  78.412  1.00  0.00     0.293 HD
ENDBRANCH  10  21
BRANCH  11  23
ATOM     23  O   UNL     1      57.578   4.212  83.725  1.00  0.00    -0.508 OA
ATOM     24  H   UNL     1      58.421   4.537  84.184  1.00  0.00     0.293 HD
ENDBRANCH  11  23
ENDBRANCH   1   2
BRANCH   1  25
ATOM     25  C   UNL     1      54.211   8.482  77.454  1.00  0.00     0.339 C 
ATOM     26  C   UNL     1      53.835   8.867  78.902  1.00  0.00     0.214 C 
ATOM     27  O   UNL     1      53.215   8.940  76.513  1.00  0.00    -0.332 OA
ATOM     28  C   UNL     1      53.860  10.431  78.923  1.00  0.00     0.180 C 
ATOM     29  C   UNL     1      52.910  10.379  76.605  1.00  0.00     0.179 C 
ATOM     30  C   UNL     1      52.720  10.976  78.034  1.00  0.00     0.177 C 
BRANCH  26  31
ATOM     31  O   UNL     1      52.511   8.452  79.166  1.00  0.00    -0.384 OA
ATOM     32  H   UNL     1      52.200   9.051  79.906  1.00  0.00     0.211 HD
ENDBRANCH  26  31
BRANCH  28  33
ATOM     33  O   UNL     1      53.777  11.027  80.214  1.00  0.00    -0.387 OA
ATOM     34  H   UNL     1      53.916  12.024  80.112  1.00  0.00     0.211 HD
ENDBRANCH  28  33
BRANCH  29  35
ATOM     35  C   UNL     1      51.841  10.689  75.512  1.00  0.00     0.191 C 
BRANCH  35  36
ATOM     36  O   UNL     1      50.559  10.069  75.760  1.00  0.00    -0.394 OA
ATOM     37  H   UNL     1      50.639   9.551  76.626  1.00  0.00     0.210 HD
ENDBRANCH  35  36
ENDBRANCH  29  35
BRANCH  30  38
ATOM     38  O   UNL     1      51.437  10.864  78.659  1.00  0.00    -0.387 OA
ATOM     39  H   UNL     1      50.807  10.376  78.051  1.00  0.00     0.211 HD
ENDBRANCH  30  38
ENDBRANCH   1  25
TORSDOF 11
ENDMDL
