MODEL 1
REMARK VINA RESULT:    -1.070      0.000      0.000
REMARK INTER + INTRA:          -2.989
REMARK INTER:                  -1.946
REMARK INTRA:                  -1.044
REMARK UNBOUND:                -1.044
REMARK SMILES CCCCCCCCCCCCCC[C@H](C)C(=O)[O-]
REMARK SMILES IDX 9 1 10 2 11 3 12 4 13 5 14 6 15 7 16 8 17 9 18 10 19 11 8 12
REMARK SMILES IDX 7 13 6 14 5 15 4 16 3 17 2 18 1 19
REMARK H PARENT
REMARK Flexibility Score: inf
ROOT
ATOM      1  C   UNL     1       3.239  43.998  10.911  1.00  0.00     0.000 C 
ENDROOT
BRANCH   1   2
ATOM      2  C   UNL     1       2.131  43.014  10.496  1.00  0.00     0.000 C 
BRANCH   2   3
ATOM      3  C   UNL     1       0.892  43.103  11.399  1.00  0.00     0.000 C 
BRANCH   3   4
ATOM      4  C   UNL     1       1.192  43.780  12.748  1.00  0.00     0.000 C 
BRANCH   4   5
ATOM      5  C   UNL     1       0.094  44.770  13.167  1.00  0.00     0.001 C 
BRANCH   5   6
ATOM      6  C   UNL     1      -0.525  44.422  14.534  1.00  0.00     0.009 C 
BRANCH   6   7
ATOM      7  C   UNL     1      -2.043  44.156  14.449  1.00  0.00     0.032 C 
ATOM      8  C   UNL     1      -2.850  45.092  15.360  1.00  0.00     0.014 C 
BRANCH   7   9
ATOM      9  C   UNL     1      -2.334  42.724  14.805  1.00  0.00     0.044 C 
ATOM     10  O   UNL     1      -1.466  42.019  15.385  1.00  0.00    -0.550 OA
ATOM     11  O   UNL     1      -3.569  42.169  14.491  1.00  0.00    -0.550 OA
ENDBRANCH   7   9
ENDBRANCH   6   7
ENDBRANCH   5   6
ENDBRANCH   4   5
ENDBRANCH   3   4
ENDBRANCH   2   3
ENDBRANCH   1   2
BRANCH   1  12
ATOM     12  C   UNL     1       4.519  43.832  10.070  1.00  0.00     0.000 C 
BRANCH  12  13
ATOM     13  C   UNL     1       5.349  45.124   9.922  1.00  0.00    -0.000 C 
BRANCH  13  14
ATOM     14  C   UNL     1       6.849  44.950  10.229  1.00  0.00    -0.000 C 
BRANCH  14  15
ATOM     15  C   UNL     1       7.266  43.470  10.305  1.00  0.00    -0.000 C 
BRANCH  15  16
ATOM     16  C   UNL     1       8.183  43.168  11.504  1.00  0.00    -0.000 C 
BRANCH  16  17
ATOM     17  C   UNL     1       7.759  41.956  12.353  1.00  0.00    -0.000 C 
BRANCH  17  18
ATOM     18  C   UNL     1       7.113  42.357  13.687  1.00  0.00    -0.003 C 
ATOM     19  C   UNL     1       5.878  43.224  13.461  1.00  0.00     0.004 C 
ENDBRANCH  17  18
ENDBRANCH  16  17
ENDBRANCH  15  16
ENDBRANCH  14  15
ENDBRANCH  13  14
ENDBRANCH  12  13
ENDBRANCH   1  12
TORSDOF 14
ENDMDL
MODEL 2
REMARK VINA RESULT:    -0.741      2.978      8.236
REMARK INTER + INTRA:          -2.391
REMARK INTER:                  -2.143
REMARK INTRA:                  -0.248
REMARK UNBOUND:                -1.044
REMARK SMILES CCCCCCCCCCCCCC[C@H](C)C(=O)[O-]
REMARK SMILES IDX 9 1 10 2 11 3 12 4 13 5 14 6 15 7 16 8 17 9 18 10 19 11 8 12
REMARK SMILES IDX 7 13 6 14 5 15 4 16 3 17 2 18 1 19
REMARK H PARENT
REMARK Flexibility Score: inf
ROOT
ATOM      1  C   UNL     1       2.121  43.661  10.291  1.00  0.00     0.000 C 
ENDROOT
BRANCH   1   2
ATOM      2  C   UNL     1       3.320  44.586  10.013  1.00  0.00     0.000 C 
BRANCH   2   3
ATOM      3  C   UNL     1       4.649  43.819   9.924  1.00  0.00     0.000 C 
BRANCH   3   4
ATOM      4  C   UNL     1       5.873  44.744  10.042  1.00  0.00     0.000 C 
BRANCH   4   5
ATOM      5  C   UNL     1       7.200  43.971  10.002  1.00  0.00     0.001 C 
BRANCH   5   6
ATOM      6  C   UNL     1       7.936  43.990  11.354  1.00  0.00     0.009 C 
BRANCH   6   7
ATOM      7  C   UNL     1       7.991  42.598  12.021  1.00  0.00     0.032 C 
ATOM      8  C   UNL     1       7.619  41.471  11.047  1.00  0.00     0.014 C 
BRANCH   7   9
ATOM      9  C   UNL     1       7.076  42.564  13.213  1.00  0.00     0.044 C 
ATOM     10  O   UNL     1       7.274  41.744  14.150  1.00  0.00    -0.550 OA
ATOM     11  O   UNL     1       6.000  43.440  13.287  1.00  0.00    -0.550 OA
ENDBRANCH   7   9
ENDBRANCH   6   7
ENDBRANCH   5   6
ENDBRANCH   4   5
ENDBRANCH   3   4
ENDBRANCH   2   3
ENDBRANCH   1   2
BRANCH   1  12
ATOM     12  C   UNL     1       1.863  43.469  11.798  1.00  0.00     0.000 C 
BRANCH  12  13
ATOM     13  C   UNL     1       0.965  44.554  12.427  1.00  0.00    -0.000 C 
BRANCH  13  14
ATOM     14  C   UNL     1      -0.130  44.003  13.362  1.00  0.00    -0.000 C 
BRANCH  14  15
ATOM     15  C   UNL     1      -0.298  44.851  14.635  1.00  0.00    -0.000 C 
BRANCH  15  16
ATOM     16  C   UNL     1      -1.771  45.125  14.983  1.00  0.00    -0.000 C 
BRANCH  16  17
ATOM     17  C   UNL     1      -2.743  43.986  14.627  1.00  0.00    -0.000 C 
BRANCH  17  18
ATOM     18  C   UNL     1      -2.155  42.593  14.896  1.00  0.00    -0.003 C 
ATOM     19  C   UNL     1      -3.052  41.498  14.326  1.00  0.00     0.004 C 
ENDBRANCH  17  18
ENDBRANCH  16  17
ENDBRANCH  15  16
ENDBRANCH  14  15
ENDBRANCH  13  14
ENDBRANCH  12  13
ENDBRANCH   1  12
TORSDOF 14
ENDMDL
MODEL 3
REMARK VINA RESULT:    -0.355      2.631      7.646
REMARK INTER + INTRA:          -1.689
REMARK INTER:                  -1.226
REMARK INTRA:                  -0.463
REMARK UNBOUND:                -1.044
REMARK SMILES CCCCCCCCCCCCCC[C@H](C)C(=O)[O-]
REMARK SMILES IDX 9 1 10 2 11 3 12 4 13 5 14 6 15 7 16 8 17 9 18 10 19 11 8 12
REMARK SMILES IDX 7 13 6 14 5 15 4 16 3 17 2 18 1 19
REMARK H PARENT
REMARK Flexibility Score: inf
ROOT
ATOM      1  C   UNL     1       4.560  43.779   9.964  1.00  0.00     0.000 C 
ENDROOT
BRANCH   1   2
ATOM      2  C   UNL     1       4.838  42.266   9.919  1.00  0.00     0.000 C 
BRANCH   2   3
ATOM      3  C   UNL     1       6.339  41.942   9.882  1.00  0.00     0.000 C 
BRANCH   3   4
ATOM      4  C   UNL     1       7.216  43.207   9.876  1.00  0.00     0.000 C 
BRANCH   4   5
ATOM      5  C   UNL     1       8.031  43.364  11.169  1.00  0.00     0.001 C 
BRANCH   5   6
ATOM      6  C   UNL     1       7.913  42.140  12.095  1.00  0.00     0.009 C 
BRANCH   6   7
ATOM      7  C   UNL     1       7.413  42.509  13.508  1.00  0.00     0.032 C 
ATOM      8  C   UNL     1       7.202  41.273  14.393  1.00  0.00     0.014 C 
BRANCH   7   9
ATOM      9  C   UNL     1       6.132  43.291  13.411  1.00  0.00     0.044 C 
ATOM     10  O   UNL     1       5.079  42.866  13.959  1.00  0.00    -0.550 OA
ATOM     11  O   UNL     1       6.103  44.491  12.712  1.00  0.00    -0.550 OA
ENDBRANCH   7   9
ENDBRANCH   6   7
ENDBRANCH   5   6
ENDBRANCH   4   5
ENDBRANCH   3   4
ENDBRANCH   2   3
ENDBRANCH   1   2
BRANCH   1  12
ATOM     12  C   UNL     1       3.287  44.119  10.763  1.00  0.00     0.000 C 
BRANCH  12  13
ATOM     13  C   UNL     1       2.418  42.895  11.116  1.00  0.00    -0.000 C 
BRANCH  13  14
ATOM     14  C   UNL     1       1.002  43.247  11.613  1.00  0.00    -0.000 C 
BRANCH  14  15
ATOM     15  C   UNL     1       1.021  44.031  12.937  1.00  0.00    -0.000 C 
BRANCH  15  16
ATOM     16  C   UNL     1      -0.367  44.559  13.341  1.00  0.00    -0.000 C 
BRANCH  16  17
ATOM     17  C   UNL     1      -0.893  44.033  14.688  1.00  0.00    -0.000 C 
BRANCH  17  18
ATOM     18  C   UNL     1      -2.426  43.962  14.745  1.00  0.00    -0.003 C 
ATOM     19  C   UNL     1      -2.913  42.519  14.658  1.00  0.00     0.004 C 
ENDBRANCH  17  18
ENDBRANCH  16  17
ENDBRANCH  15  16
ENDBRANCH  14  15
ENDBRANCH  13  14
ENDBRANCH  12  13
ENDBRANCH   1  12
TORSDOF 14
ENDMDL
MODEL 4
REMARK VINA RESULT:     0.367      3.469      8.584
REMARK INTER + INTRA:          -0.376
REMARK INTER:                   0.488
REMARK INTRA:                  -0.863
REMARK UNBOUND:                -1.044
REMARK SMILES CCCCCCCCCCCCCC[C@H](C)C(=O)[O-]
REMARK SMILES IDX 9 1 10 2 11 3 12 4 13 5 14 6 15 7 16 8 17 9 18 10 19 11 8 12
REMARK SMILES IDX 7 13 6 14 5 15 4 16 3 17 2 18 1 19
REMARK H PARENT
REMARK Flexibility Score: inf
ROOT
ATOM      1  C   UNL     1       1.909  43.973  11.985  1.00  0.00     0.000 C 
ENDROOT
BRANCH   1   2
ATOM      2  C   UNL     1       2.099  42.877  10.921  1.00  0.00     0.000 C 
BRANCH   2   3
ATOM      3  C   UNL     1       3.162  43.247   9.875  1.00  0.00     0.000 C 
BRANCH   3   4
ATOM      4  C   UNL     1       3.580  44.725   9.956  1.00  0.00     0.000 C 
BRANCH   4   5
ATOM      5  C   UNL     1       5.091  44.898  10.180  1.00  0.00     0.001 C 
BRANCH   5   6
ATOM      6  C   UNL     1       5.810  43.558  10.417  1.00  0.00     0.009 C 
BRANCH   6   7
ATOM      7  C   UNL     1       7.111  43.718  11.233  1.00  0.00     0.032 C 
ATOM      8  C   UNL     1       8.274  44.243  10.380  1.00  0.00     0.014 C 
BRANCH   7   9
ATOM      9  C   UNL     1       7.490  42.403  11.857  1.00  0.00     0.044 C 
ATOM     10  O   UNL     1       7.872  41.440  11.139  1.00  0.00    -0.550 OA
ATOM     11  O   UNL     1       7.420  42.243  13.235  1.00  0.00    -0.550 OA
ENDBRANCH   7   9
ENDBRANCH   6   7
ENDBRANCH   5   6
ENDBRANCH   4   5
ENDBRANCH   3   4
ENDBRANCH   2   3
ENDBRANCH   1   2
BRANCH   1  12
ATOM     12  C   UNL     1       0.537  43.885  12.681  1.00  0.00     0.000 C 
BRANCH  12  13
ATOM     13  C   UNL     1       0.180  45.122  13.530  1.00  0.00    -0.000 C 
BRANCH  13  14
ATOM     14  C   UNL     1      -0.558  44.796  14.843  1.00  0.00    -0.000 C 
BRANCH  14  15
ATOM     15  C   UNL     1      -2.078  45.013  14.733  1.00  0.00    -0.000 C 
BRANCH  15  16
ATOM     16  C   UNL     1      -2.884  43.719  14.937  1.00  0.00    -0.000 C 
BRANCH  16  17
ATOM     17  C   UNL     1      -2.204  42.442  14.411  1.00  0.00    -0.000 C 
BRANCH  17  18
ATOM     18  C   UNL     1      -3.159  41.242  14.340  1.00  0.00    -0.003 C 
ATOM     19  C   UNL     1      -4.524  41.591  14.924  1.00  0.00     0.004 C 
ENDBRANCH  17  18
ENDBRANCH  16  17
ENDBRANCH  15  16
ENDBRANCH  14  15
ENDBRANCH  13  14
ENDBRANCH  12  13
ENDBRANCH   1  12
TORSDOF 14
ENDMDL
MODEL 5
REMARK VINA RESULT:     1.032      3.597      8.562
REMARK INTER + INTRA:           0.833
REMARK INTER:                   1.675
REMARK INTRA:                  -0.842
REMARK UNBOUND:                -1.044
REMARK SMILES CCCCCCCCCCCCCC[C@H](C)C(=O)[O-]
REMARK SMILES IDX 9 1 10 2 11 3 12 4 13 5 14 6 15 7 16 8 17 9 18 10 19 11 8 12
REMARK SMILES IDX 7 13 6 14 5 15 4 16 3 17 2 18 1 19
REMARK H PARENT
REMARK Flexibility Score: inf
ROOT
ATOM      1  C   UNL     1       2.548  43.753  11.889  1.00  0.00     0.000 C 
ENDROOT
BRANCH   1   2
ATOM      2  C   UNL     1       2.646  43.246  10.438  1.00  0.00     0.000 C 
BRANCH   2   3
ATOM      3  C   UNL     1       4.079  43.304   9.888  1.00  0.00     0.000 C 
BRANCH   3   4
ATOM      4  C   UNL     1       4.679  44.719   9.948  1.00  0.00     0.000 C 
BRANCH   4   5
ATOM      5  C   UNL     1       6.205  44.705  10.128  1.00  0.00     0.001 C 
BRANCH   5   6
ATOM      6  C   UNL     1       6.625  44.643  11.608  1.00  0.00     0.009 C 
BRANCH   6   7
ATOM      7  C   UNL     1       6.412  43.245  12.228  1.00  0.00     0.032 C 
ATOM      8  C   UNL     1       5.839  43.320  13.650  1.00  0.00     0.014 C 
BRANCH   7   9
ATOM      9  C   UNL     1       7.711  42.487  12.242  1.00  0.00     0.044 C 
ATOM     10  O   UNL     1       8.013  41.752  13.220  1.00  0.00    -0.550 OA
ATOM     11  O   UNL     1       8.589  42.597  11.171  1.00  0.00    -0.550 OA
ENDBRANCH   7   9
ENDBRANCH   6   7
ENDBRANCH   5   6
ENDBRANCH   4   5
ENDBRANCH   3   4
ENDBRANCH   2   3
ENDBRANCH   1   2
BRANCH   1  12
ATOM     12  C   UNL     1       1.108  44.133  12.283  1.00  0.00     0.000 C 
BRANCH  12  13
ATOM     13  C   UNL     1       1.005  44.941  13.593  1.00  0.00    -0.000 C 
BRANCH  13  14
ATOM     14  C   UNL     1      -0.426  45.054  14.154  1.00  0.00    -0.000 C 
BRANCH  14  15
ATOM     15  C   UNL     1      -1.178  43.712  14.124  1.00  0.00    -0.000 C 
BRANCH  15  16
ATOM     16  C   UNL     1      -2.546  43.776  14.825  1.00  0.00    -0.000 C 
BRANCH  16  17
ATOM     17  C   UNL     1      -2.869  45.125  15.493  1.00  0.00    -0.000 C 
BRANCH  17  18
ATOM     18  C   UNL     1      -4.046  45.039  16.475  1.00  0.00    -0.003 C 
ATOM     19  C   UNL     1      -5.189  44.215  15.892  1.00  0.00     0.004 C 
ENDBRANCH  17  18
ENDBRANCH  16  17
ENDBRANCH  15  16
ENDBRANCH  14  15
ENDBRANCH  13  14
ENDBRANCH  12  13
ENDBRANCH   1  12
TORSDOF 14
ENDMDL
MODEL 6
REMARK VINA RESULT:     1.420      3.175      7.909
REMARK INTER + INTRA:           1.539
REMARK INTER:                   0.820
REMARK INTRA:                   0.719
REMARK UNBOUND:                -1.044
REMARK SMILES CCCCCCCCCCCCCC[C@H](C)C(=O)[O-]
REMARK SMILES IDX 9 1 10 2 11 3 12 4 13 5 14 6 15 7 16 8 17 9 18 10 19 11 8 12
REMARK SMILES IDX 7 13 6 14 5 15 4 16 3 17 2 18 1 19
REMARK H PARENT
REMARK Flexibility Score: inf
ROOT
ATOM      1  C   UNL     1       3.574  43.702  11.612  1.00  0.00     0.000 C 
ENDROOT
BRANCH   1   2
ATOM      2  C   UNL     1       4.385  44.966  11.953  1.00  0.00     0.000 C 
BRANCH   2   3
ATOM      3  C   UNL     1       5.630  45.125  11.067  1.00  0.00     0.000 C 
BRANCH   3   4
ATOM      4  C   UNL     1       5.766  43.996  10.031  1.00  0.00     0.000 C 
BRANCH   4   5
ATOM      5  C   UNL     1       7.212  43.493   9.895  1.00  0.00     0.001 C 
BRANCH   5   6
ATOM      6  C   UNL     1       7.999  43.591  11.215  1.00  0.00     0.009 C 
BRANCH   6   7
ATOM      7  C   UNL     1       8.157  42.225  11.916  1.00  0.00     0.032 C 
ATOM      8  C   UNL     1       7.718  41.057  11.021  1.00  0.00     0.014 C 
BRANCH   7   9
ATOM      9  C   UNL     1       7.368  42.210  13.196  1.00  0.00     0.044 C 
ATOM     10  O   UNL     1       7.585  41.331  14.073  1.00  0.00    -0.550 OA
ATOM     11  O   UNL     1       6.389  43.171  13.418  1.00  0.00    -0.550 OA
ENDBRANCH   7   9
ENDBRANCH   6   7
ENDBRANCH   5   6
ENDBRANCH   4   5
ENDBRANCH   3   4
ENDBRANCH   2   3
ENDBRANCH   1   2
BRANCH   1  12
ATOM     12  C   UNL     1       2.054  43.927  11.734  1.00  0.00     0.000 C 
BRANCH  12  13
ATOM     13  C   UNL     1       1.235  43.352  10.561  1.00  0.00    -0.000 C 
BRANCH  13  14
ATOM     14  C   UNL     1       0.848  41.869  10.728  1.00  0.00    -0.000 C 
BRANCH  14  15
ATOM     15  C   UNL     1      -0.660  41.678  10.966  1.00  0.00    -0.000 C 
BRANCH  15  16
ATOM     16  C   UNL     1      -1.103  42.110  12.375  1.00  0.00    -0.000 C 
BRANCH  16  17
ATOM     17  C   UNL     1      -0.297  43.274  12.978  1.00  0.00    -0.000 C 
BRANCH  17  18
ATOM     18  C   UNL     1      -1.036  43.983  14.122  1.00  0.00    -0.003 C 
ATOM     19  C   UNL     1      -2.080  43.067  14.753  1.00  0.00     0.004 C 
ENDBRANCH  17  18
ENDBRANCH  16  17
ENDBRANCH  15  16
ENDBRANCH  14  15
ENDBRANCH  13  14
ENDBRANCH  12  13
ENDBRANCH   1  12
TORSDOF 14
ENDMDL
MODEL 7
REMARK VINA RESULT:     1.769      1.478      2.140
REMARK INTER + INTRA:           2.172
REMARK INTER:                   3.115
REMARK INTRA:                  -0.943
REMARK UNBOUND:                -1.044
REMARK SMILES CCCCCCCCCCCCCC[C@H](C)C(=O)[O-]
REMARK SMILES IDX 9 1 10 2 11 3 12 4 13 5 14 6 15 7 16 8 17 9 18 10 19 11 8 12
REMARK SMILES IDX 7 13 6 14 5 15 4 16 3 17 2 18 1 19
REMARK H PARENT
REMARK Flexibility Score: inf
ROOT
ATOM      1  C   UNL     1       3.052  44.444  11.944  1.00  0.00     0.000 C 
ENDROOT
BRANCH   1   2
ATOM      2  C   UNL     1       2.792  43.026  11.405  1.00  0.00     0.000 C 
BRANCH   2   3
ATOM      3  C   UNL     1       1.666  42.989  10.361  1.00  0.00     0.000 C 
BRANCH   3   4
ATOM      4  C   UNL     1       0.573  41.963  10.707  1.00  0.00     0.000 C 
BRANCH   4   5
ATOM      5  C   UNL     1      -0.628  42.601  11.423  1.00  0.00     0.001 C 
BRANCH   5   6
ATOM      6  C   UNL     1      -0.203  43.595  12.518  1.00  0.00     0.009 C 
BRANCH   6   7
ATOM      7  C   UNL     1      -0.731  43.202  13.915  1.00  0.00     0.032 C 
ATOM      8  C   UNL     1      -1.923  42.238  13.837  1.00  0.00     0.014 C 
BRANCH   7   9
ATOM      9  C   UNL     1      -1.124  44.436  14.680  1.00  0.00     0.044 C 
ATOM     10  O   UNL     1      -2.312  44.855  14.655  1.00  0.00    -0.550 OA
ATOM     11  O   UNL     1      -0.171  45.124  15.422  1.00  0.00    -0.550 OA
ENDBRANCH   7   9
ENDBRANCH   6   7
ENDBRANCH   5   6
ENDBRANCH   4   5
ENDBRANCH   3   4
ENDBRANCH   2   3
ENDBRANCH   1   2
BRANCH   1  12
ATOM     12  C   UNL     1       4.463  44.956  11.595  1.00  0.00     0.000 C 
BRANCH  12  13
ATOM     13  C   UNL     1       4.843  44.792  10.109  1.00  0.00    -0.000 C 
BRANCH  13  14
ATOM     14  C   UNL     1       6.267  44.248   9.878  1.00  0.00    -0.000 C 
BRANCH  14  15
ATOM     15  C   UNL     1       6.406  42.770  10.284  1.00  0.00    -0.000 C 
BRANCH  15  16
ATOM     16  C   UNL     1       7.829  42.406  10.742  1.00  0.00    -0.000 C 
BRANCH  16  17
ATOM     17  C   UNL     1       8.165  42.805  12.190  1.00  0.00    -0.000 C 
BRANCH  17  18
ATOM     18  C   UNL     1       6.923  42.898  13.088  1.00  0.00    -0.003 C 
ATOM     19  C   UNL     1       6.975  41.864  14.208  1.00  0.00     0.004 C 
ENDBRANCH  17  18
ENDBRANCH  16  17
ENDBRANCH  15  16
ENDBRANCH  14  15
ENDBRANCH  13  14
ENDBRANCH  12  13
ENDBRANCH   1  12
TORSDOF 14
ENDMDL
