MODEL 1
REMARK VINA RESULT:     3.223      0.000      0.000
REMARK INTER + INTRA:           3.616
REMARK INTER:                   3.506
REMARK INTRA:                   0.111
REMARK UNBOUND:                 0.111
REMARK SMILES C[C@H]1[C@H](C)CC[C@@]2(C(=O)[O-])CC[C@]3(C)C(=CC[C@@H]4[C@@]5(C)CC[C@@H](O)C(C)(C)[C@@H]5CC[C@@]43C)[C@@H]12
REMARK SMILES IDX 7 1 6 2 11 3 33 4 5 5 12 6 15 7 2 8 3 9 13 10 16 11 1 12
REMARK SMILES IDX 4 13 14 14 31 15 17 16 18 17 30 18 32 19 19 20 29 21 28 22
REMARK SMILES IDX 21 23 20 24 25 25 22 26 23 27 26 28 27 29 8 30 9 31 10 32
REMARK SMILES IDX 24 33
REMARK H PARENT 24 34
REMARK Flexibility Score: inf
ROOT
ATOM      1  C   UNL     1      47.345  -8.874  -6.242  1.00  0.00     0.017 C 
ATOM      2  C   UNL     1      48.532  -9.077  -7.239  1.00  0.00     0.014 C 
ATOM      3  C   UNL     1      47.216 -10.125  -5.341  1.00  0.00     0.014 C 
ATOM      4  C   UNL     1      47.509  -7.604  -5.313  1.00  0.00     0.030 C 
ATOM      5  C   UNL     1      49.916  -8.809  -6.655  1.00  0.00     0.004 C 
ATOM      6  C   UNL     1      45.947 -10.125  -4.482  1.00  0.00     0.013 C 
ATOM      7  C   UNL     1      46.554  -7.609  -4.098  1.00  0.00    -0.063 C 
ATOM      8  C   UNL     1      48.993  -7.219  -4.913  1.00  0.00    -0.003 C 
ATOM      9  C   UNL     1      50.012  -7.395  -6.065  1.00  0.00    -0.011 C 
ATOM     10  C   UNL     1      45.586  -8.770  -3.746  1.00  0.00    -0.006 C 
ATOM     11  C   UNL     1      46.450  -6.464  -3.390  1.00  0.00    -0.027 C 
ATOM     12  C   UNL     1      49.533  -7.874  -3.623  1.00  0.00     0.008 C 
ATOM     13  C   UNL     1      49.876  -6.293  -7.132  1.00  0.00     0.008 C 
ATOM     14  C   UNL     1      44.183  -8.348  -4.308  1.00  0.00     0.017 C 
ATOM     15  C   UNL     1      45.524  -8.961  -2.138  1.00  0.00    -0.020 C 
ATOM     16  C   UNL     1      45.472  -6.301  -2.266  1.00  0.00     0.032 C 
ATOM     17  C   UNL     1      45.370  -7.560  -1.358  1.00  0.00     0.006 C 
ATOM     18  C   UNL     1      46.809  -9.671  -1.603  1.00  0.00     0.008 C 
ATOM     19  C   UNL     1      44.302  -9.885  -1.806  1.00  0.00     0.012 C 
ATOM     20  C   UNL     1      46.204  -7.387   0.006  1.00  0.00    -0.025 C 
ATOM     21  C   UNL     1      46.826  -9.910  -0.081  1.00  0.00     0.005 C 
ATOM     22  C   UNL     1      46.211  -8.761   0.760  1.00  0.00     0.003 C 
ATOM     23  C   UNL     1      45.467  -6.336   0.912  1.00  0.00     0.010 C 
ATOM     24  C   UNL     1      47.667  -6.883  -0.254  1.00  0.00     0.012 C 
ATOM     25  C   UNL     1      46.689  -8.747   2.265  1.00  0.00    -0.006 C 
ATOM     26  C   UNL     1      45.964  -6.287   2.367  1.00  0.00     0.033 C 
ATOM     27  C   UNL     1      45.885  -7.657   3.048  1.00  0.00     0.120 C 
ATOM     28  C   UNL     1      48.215  -8.504   2.456  1.00  0.00     0.014 C 
ATOM     29  C   UNL     1      46.382 -10.125   2.914  1.00  0.00     0.014 C 
ENDROOT
BRANCH   1  30
ATOM     30  C   UNL     1      46.118  -8.718  -7.152  1.00  0.00     0.048 C 
ATOM     31  O   UNL     1      46.028  -7.706  -7.910  1.00  0.00    -0.550 OA
ATOM     32  O   UNL     1      45.185  -9.744  -7.302  1.00  0.00    -0.550 OA
ENDBRANCH   1  30
BRANCH  27  33
ATOM     33  O   UNL     1      44.536  -8.041   3.170  1.00  0.00    -0.393 OA
ATOM     34  H   UNL     1      44.511  -9.036   3.172  1.00  0.00     0.210 HD
ENDBRANCH  27  33
TORSDOF 2
ENDMDL
