MODEL 1
REMARK VINA RESULT:    48.237      0.000      0.000
REMARK INTER + INTRA:          64.990
REMARK INTER:                  65.156
REMARK INTRA:                  -0.166
REMARK UNBOUND:                -0.166
REMARK SMILES O=c1c(-c2ccc(O)cc2)coc2c([C@@H]3O[C@@H](CO)[C@H](O)[C@H](O)[C@@H]3O)c(O)ccc12
REMARK SMILES IDX 3 1 11 2 12 3 13 4 30 5 2 6 1 7 29 8 28 9 26 10 14 11 4 12
REMARK SMILES IDX 5 13 6 14 7 15 10 16 9 17 8 18 15 20 24 21 16 22 22 23 17 24
REMARK SMILES IDX 20 25 25 26 23 28 18 30 19 31 21 33 27 35
REMARK H PARENT 8 19 25 27 23 29 19 32 21 34 27 36
REMARK Flexibility Score: inf
ROOT
ATOM      1  C   UNL     1      31.632   9.309  41.354  1.00  0.00     0.065 A 
ATOM      2  C   UNL     1      31.577  10.231  42.404  1.00  0.00     0.208 A 
ATOM      3  O   UNL     1      32.357  11.306  42.402  1.00  0.00    -0.463 OA
ATOM      4  C   UNL     1      33.196  11.598  41.411  1.00  0.00     0.147 A 
ATOM      5  C   UNL     1      33.271  10.744  40.285  1.00  0.00     0.066 A 
ATOM      6  C   UNL     1      32.509   9.566  40.285  1.00  0.00     0.200 A 
ATOM      7  O   UNL     1      32.599   8.747  39.332  1.00  0.00    -0.288 OA
ATOM      8  C   UNL     1      34.092  11.094  39.205  1.00  0.00     0.020 A 
ATOM      9  C   UNL     1      34.743  12.327  39.200  1.00  0.00     0.047 A 
ATOM     10  C   UNL     1      34.642  13.189  40.291  1.00  0.00     0.125 A 
ATOM     11  C   UNL     1      34.008  12.760  41.484  1.00  0.00     0.069 A 
ENDROOT
BRANCH   1  12
ATOM     12  C   UNL     1      30.737   8.128  41.351  1.00  0.00    -0.011 A 
ATOM     13  C   UNL     1      31.223   6.874  41.754  1.00  0.00     0.013 A 
ATOM     14  C   UNL     1      30.352   5.785  41.876  1.00  0.00     0.047 A 
ATOM     15  C   UNL     1      28.992   5.942  41.587  1.00  0.00     0.115 A 
ATOM     16  C   UNL     1      29.379   8.265  41.018  1.00  0.00     0.013 A 
ATOM     17  C   UNL     1      28.516   7.173  41.121  1.00  0.00     0.047 A 
BRANCH  15  18
ATOM     18  O   UNL     1      28.120   4.875  41.778  1.00  0.00    -0.508 OA
ATOM     19  H   UNL     1      27.157   4.916  41.465  1.00  0.00     0.293 HD
ENDBRANCH  15  18
ENDBRANCH   1  12
BRANCH  11  20
ATOM     20  C   UNL     1      34.168  13.491  42.831  1.00  0.00     0.188 C 
ATOM     21  C   UNL     1      35.621  13.407  43.420  1.00  0.00     0.179 C 
ATOM     22  O   UNL     1      33.666  14.832  42.802  1.00  0.00    -0.362 OA
ATOM     23  C   UNL     1      35.870  14.605  44.353  1.00  0.00     0.177 C 
ATOM     24  C   UNL     1      34.662  15.778  42.444  1.00  0.00     0.176 C 
ATOM     25  C   UNL     1      35.673  15.950  43.607  1.00  0.00     0.177 C 
BRANCH  21  26
ATOM     26  O   UNL     1      36.570  13.418  42.381  1.00  0.00    -0.387 OA
ATOM     27  H   UNL     1      36.072  13.421  41.520  1.00  0.00     0.211 HD
ENDBRANCH  21  26
BRANCH  23  28
ATOM     28  O   UNL     1      37.125  14.530  44.989  1.00  0.00    -0.387 OA
ATOM     29  H   UNL     1      36.992  14.632  45.968  1.00  0.00     0.211 HD
ENDBRANCH  23  28
BRANCH  24  30
ATOM     30  C   UNL     1      34.003  17.124  42.103  1.00  0.00     0.191 C 
BRANCH  30  31
ATOM     31  O   UNL     1      33.777  17.244  40.726  1.00  0.00    -0.394 OA
ATOM     32  H   UNL     1      33.298  18.105  40.588  1.00  0.00     0.210 HD
ENDBRANCH  30  31
ENDBRANCH  24  30
BRANCH  25  33
ATOM     33  O   UNL     1      36.895  16.417  43.091  1.00  0.00    -0.388 OA
ATOM     34  H   UNL     1      37.383  15.632  42.727  1.00  0.00     0.211 HD
ENDBRANCH  25  33
ENDBRANCH  11  20
BRANCH  10  35
ATOM     35  O   UNL     1      35.134  14.477  40.120  1.00  0.00    -0.507 OA
ATOM     36  H   UNL     1      35.250  14.895  39.205  1.00  0.00     0.293 HD
ENDBRANCH  10  35
TORSDOF 9
ENDMDL
MODEL 2
REMARK VINA RESULT:    48.374      9.846     14.527
REMARK INTER + INTRA:          65.175
REMARK INTER:                  64.581
REMARK INTRA:                   0.594
REMARK UNBOUND:                -0.166
REMARK SMILES O=c1c(-c2ccc(O)cc2)coc2c([C@@H]3O[C@@H](CO)[C@H](O)[C@H](O)[C@@H]3O)c(O)ccc12
REMARK SMILES IDX 3 1 11 2 12 3 13 4 30 5 2 6 1 7 29 8 28 9 26 10 14 11 4 12
REMARK SMILES IDX 5 13 6 14 7 15 10 16 9 17 8 18 15 20 24 21 16 22 22 23 17 24
REMARK SMILES IDX 20 25 25 26 23 28 18 30 19 31 21 33 27 35
REMARK H PARENT 8 19 25 27 23 29 19 32 21 34 27 36
REMARK Flexibility Score: inf
ROOT
ATOM      1  C   UNL     1      31.201  23.947  33.101  1.00  0.00     0.065 A 
ATOM      2  C   UNL     1      30.339  23.261  33.964  1.00  0.00     0.208 A 
ATOM      3  O   UNL     1      30.735  22.919  35.185  1.00  0.00    -0.463 OA
ATOM      4  C   UNL     1      31.931  23.230  35.679  1.00  0.00     0.147 A 
ATOM      5  C   UNL     1      32.842  23.972  34.888  1.00  0.00     0.066 A 
ATOM      6  C   UNL     1      32.480  24.292  33.571  1.00  0.00     0.200 A 
ATOM      7  O   UNL     1      33.290  24.892  32.815  1.00  0.00    -0.288 OA
ATOM      8  C   UNL     1      34.067  24.371  35.438  1.00  0.00     0.020 A 
ATOM      9  C   UNL     1      34.336  24.130  36.784  1.00  0.00     0.047 A 
ATOM     10  C   UNL     1      33.426  23.432  37.577  1.00  0.00     0.125 A 
ATOM     11  C   UNL     1      32.288  22.821  36.990  1.00  0.00     0.069 A 
ENDROOT
BRANCH   1  12
ATOM     12  C   UNL     1      30.740  24.348  31.752  1.00  0.00    -0.011 A 
ATOM     13  C   UNL     1      31.573  24.161  30.637  1.00  0.00     0.013 A 
ATOM     14  C   UNL     1      31.096  24.418  29.347  1.00  0.00     0.047 A 
ATOM     15  C   UNL     1      29.785  24.873  29.165  1.00  0.00     0.115 A 
ATOM     16  C   UNL     1      29.441  24.849  31.563  1.00  0.00     0.013 A 
ATOM     17  C   UNL     1      28.973  25.125  30.277  1.00  0.00     0.047 A 
BRANCH  15  18
ATOM     18  O   UNL     1      29.294  25.059  27.876  1.00  0.00    -0.508 OA
ATOM     19  H   UNL     1      28.361  25.418  27.712  1.00  0.00     0.293 HD
ENDBRANCH  15  18
ENDBRANCH   1  12
BRANCH  11  20
ATOM     20  C   UNL     1      31.446  21.749  37.707  1.00  0.00     0.188 C 
ATOM     21  C   UNL     1      30.713  20.769  36.723  1.00  0.00     0.179 C 
ATOM     22  O   UNL     1      32.174  21.057  38.728  1.00  0.00    -0.362 OA
ATOM     23  C   UNL     1      30.442  19.431  37.435  1.00  0.00     0.177 C 
ATOM     24  C   UNL     1      32.813  19.886  38.242  1.00  0.00     0.176 C 
ATOM     25  C   UNL     1      31.757  18.789  37.947  1.00  0.00     0.177 C 
BRANCH  21  26
ATOM     26  O   UNL     1      31.504  20.541  35.582  1.00  0.00    -0.387 OA
ATOM     27  H   UNL     1      32.345  21.059  35.692  1.00  0.00     0.211 HD
ENDBRANCH  21  26
BRANCH  23  28
ATOM     28  O   UNL     1      29.697  18.545  36.631  1.00  0.00    -0.387 OA
ATOM     29  H   UNL     1      29.503  17.726  37.157  1.00  0.00     0.211 HD
ENDBRANCH  23  28
BRANCH  24  30
ATOM     30  C   UNL     1      33.833  19.383  39.275  1.00  0.00     0.191 C 
BRANCH  30  31
ATOM     31  O   UNL     1      34.053  18.006  39.142  1.00  0.00    -0.394 OA
ATOM     32  H   UNL     1      34.195  17.830  38.174  1.00  0.00     0.210 HD
ENDBRANCH  30  31
ENDBRANCH  24  30
BRANCH  25  33
ATOM     33  O   UNL     1      32.277  17.893  36.995  1.00  0.00    -0.388 OA
ATOM     34  H   UNL     1      31.808  18.066  36.137  1.00  0.00     0.211 HD
ENDBRANCH  25  33
ENDBRANCH  11  20
BRANCH  10  35
ATOM     35  O   UNL     1      33.665  23.423  38.945  1.00  0.00    -0.507 OA
ATOM     36  H   UNL     1      34.502  23.822  39.351  1.00  0.00     0.293 HD
ENDBRANCH  10  35
TORSDOF 9
ENDMDL
MODEL 3
REMARK VINA RESULT:    48.949     12.423     15.404
REMARK INTER + INTRA:          65.952
REMARK INTER:                  63.632
REMARK INTRA:                   2.320
REMARK UNBOUND:                -0.166
REMARK SMILES O=c1c(-c2ccc(O)cc2)coc2c([C@@H]3O[C@@H](CO)[C@H](O)[C@H](O)[C@@H]3O)c(O)ccc12
REMARK SMILES IDX 3 1 11 2 12 3 13 4 30 5 2 6 1 7 29 8 28 9 26 10 14 11 4 12
REMARK SMILES IDX 5 13 6 14 7 15 10 16 9 17 8 18 15 20 24 21 16 22 22 23 17 24
REMARK SMILES IDX 20 25 25 26 23 28 18 30 19 31 21 33 27 35
REMARK H PARENT 8 19 25 27 23 29 19 32 21 34 27 36
REMARK Flexibility Score: inf
ROOT
ATOM      1  C   UNL     1      22.141  23.095  46.466  1.00  0.00     0.065 A 
ATOM      2  C   UNL     1      23.158  24.055  46.483  1.00  0.00     0.208 A 
ATOM      3  O   UNL     1      24.424  23.703  46.291  1.00  0.00    -0.463 OA
ATOM      4  C   UNL     1      24.804  22.453  46.036  1.00  0.00     0.147 A 
ATOM      5  C   UNL     1      23.829  21.431  45.946  1.00  0.00     0.066 A 
ATOM      6  C   UNL     1      22.490  21.757  46.209  1.00  0.00     0.200 A 
ATOM      7  O   UNL     1      21.602  20.863  46.205  1.00  0.00    -0.288 OA
ATOM      8  C   UNL     1      24.219  20.132  45.594  1.00  0.00     0.020 A 
ATOM      9  C   UNL     1      25.541  19.879  45.232  1.00  0.00     0.047 A 
ATOM     10  C   UNL     1      26.499  20.891  45.283  1.00  0.00     0.125 A 
ATOM     11  C   UNL     1      26.179  22.150  45.852  1.00  0.00     0.069 A 
ENDROOT
BRANCH   1  12
ATOM     12  C   UNL     1      20.729  23.502  46.653  1.00  0.00    -0.011 A 
ATOM     13  C   UNL     1      20.234  23.761  47.941  1.00  0.00     0.013 A 
ATOM     14  C   UNL     1      18.941  24.268  48.112  1.00  0.00     0.047 A 
ATOM     15  C   UNL     1      18.132  24.511  46.996  1.00  0.00     0.115 A 
ATOM     16  C   UNL     1      19.894  23.704  45.541  1.00  0.00     0.013 A 
ATOM     17  C   UNL     1      18.597  24.192  45.715  1.00  0.00     0.047 A 
BRANCH  15  18
ATOM     18  O   UNL     1      16.875  25.082  47.169  1.00  0.00    -0.508 OA
ATOM     19  H   UNL     1      16.079  24.529  47.465  1.00  0.00     0.293 HD
ENDBRANCH  15  18
ENDBRANCH   1  12
BRANCH  11  20
ATOM     20  C   UNL     1      27.246  23.178  46.274  1.00  0.00     0.188 C 
ATOM     21  C   UNL     1      28.645  22.535  46.584  1.00  0.00     0.179 C 
ATOM     22  O   UNL     1      27.340  24.287  45.373  1.00  0.00    -0.362 OA
ATOM     23  C   UNL     1      29.752  23.585  46.377  1.00  0.00     0.177 C 
ATOM     24  C   UNL     1      28.297  24.074  44.346  1.00  0.00     0.176 C 
ATOM     25  C   UNL     1      29.730  24.149  44.933  1.00  0.00     0.177 C 
BRANCH  21  26
ATOM     26  O   UNL     1      28.876  21.437  45.735  1.00  0.00    -0.387 OA
ATOM     27  H   UNL     1      28.005  20.980  45.592  1.00  0.00     0.211 HD
ENDBRANCH  21  26
BRANCH  23  28
ATOM     28  O   UNL     1      31.022  23.093  46.736  1.00  0.00    -0.387 OA
ATOM     29  H   UNL     1      31.130  23.181  47.719  1.00  0.00     0.211 HD
ENDBRANCH  23  28
BRANCH  24  30
ATOM     30  C   UNL     1      28.115  25.125  43.240  1.00  0.00     0.191 C 
BRANCH  30  31
ATOM     31  O   UNL     1      28.413  24.591  41.979  1.00  0.00    -0.394 OA
ATOM     32  H   UNL     1      27.623  24.056  41.700  1.00  0.00     0.210 HD
ENDBRANCH  30  31
ENDBRANCH  24  30
BRANCH  25  33
ATOM     33  O   UNL     1      30.606  23.425  44.103  1.00  0.00    -0.388 OA
ATOM     34  H   UNL     1      30.090  23.140  43.304  1.00  0.00     0.211 HD
ENDBRANCH  25  33
ENDBRANCH  11  20
BRANCH  10  35
ATOM     35  O   UNL     1      27.731  20.617  44.704  1.00  0.00    -0.507 OA
ATOM     36  H   UNL     1      28.015  19.678  44.452  1.00  0.00     0.293 HD
ENDBRANCH  10  35
TORSDOF 9
ENDMDL
MODEL 4
REMARK VINA RESULT:    50.578      1.770      8.696
REMARK INTER + INTRA:          68.153
REMARK INTER:                  67.643
REMARK INTRA:                   0.510
REMARK UNBOUND:                -0.166
REMARK SMILES O=c1c(-c2ccc(O)cc2)coc2c([C@@H]3O[C@@H](CO)[C@H](O)[C@H](O)[C@@H]3O)c(O)ccc12
REMARK SMILES IDX 3 1 11 2 12 3 13 4 30 5 2 6 1 7 29 8 28 9 26 10 14 11 4 12
REMARK SMILES IDX 5 13 6 14 7 15 10 16 9 17 8 18 15 20 24 21 16 22 22 23 17 24
REMARK SMILES IDX 20 25 25 26 23 28 18 30 19 31 21 33 27 35
REMARK H PARENT 8 19 25 27 23 29 19 32 21 34 27 36
REMARK Flexibility Score: inf
ROOT
ATOM      1  C   UNL     1      34.277  12.915  42.087  1.00  0.00     0.065 A 
ATOM      2  C   UNL     1      32.964  12.558  42.411  1.00  0.00     0.208 A 
ATOM      3  O   UNL     1      32.409  11.472  41.884  1.00  0.00    -0.463 OA
ATOM      4  C   UNL     1      33.055  10.646  41.064  1.00  0.00     0.147 A 
ATOM      5  C   UNL     1      34.406  10.908  40.730  1.00  0.00     0.066 A 
ATOM      6  C   UNL     1      35.001  12.081  41.217  1.00  0.00     0.200 A 
ATOM      7  O   UNL     1      36.179  12.383  40.888  1.00  0.00    -0.288 OA
ATOM      8  C   UNL     1      35.110   9.994  39.935  1.00  0.00     0.020 A 
ATOM      9  C   UNL     1      34.514   8.789  39.569  1.00  0.00     0.047 A 
ATOM     10  C   UNL     1      33.196   8.509  39.926  1.00  0.00     0.125 A 
ATOM     11  C   UNL     1      32.392   9.510  40.531  1.00  0.00     0.069 A 
ENDROOT
BRANCH   1  12
ATOM     12  C   UNL     1      34.897  14.112  42.702  1.00  0.00    -0.011 A 
ATOM     13  C   UNL     1      36.240  14.080  43.112  1.00  0.00     0.013 A 
ATOM     14  C   UNL     1      36.865  15.243  43.574  1.00  0.00     0.047 A 
ATOM     15  C   UNL     1      36.148  16.444  43.638  1.00  0.00     0.115 A 
ATOM     16  C   UNL     1      34.172  15.310  42.814  1.00  0.00     0.013 A 
ATOM     17  C   UNL     1      34.792  16.466  43.294  1.00  0.00     0.047 A 
BRANCH  15  18
ATOM     18  O   UNL     1      36.795  17.611  44.031  1.00  0.00    -0.508 OA
ATOM     19  H   UNL     1      37.730  17.592  44.421  1.00  0.00     0.293 HD
ENDBRANCH  15  18
ENDBRANCH   1  12
BRANCH  11  20
ATOM     20  C   UNL     1      30.857   9.413  40.624  1.00  0.00     0.188 C 
ATOM     21  C   UNL     1      30.145   9.409  39.224  1.00  0.00     0.179 C 
ATOM     22  O   UNL     1      30.415   8.342  41.466  1.00  0.00    -0.362 OA
ATOM     23  C   UNL     1      28.781   8.706  39.341  1.00  0.00     0.177 C 
ATOM     24  C   UNL     1      30.208   7.135  40.747  1.00  0.00     0.176 C 
ATOM     25  C   UNL     1      28.939   7.255  39.865  1.00  0.00     0.177 C 
BRANCH  21  26
ATOM     26  O   UNL     1      30.938   8.738  38.275  1.00  0.00    -0.387 OA
ATOM     27  H   UNL     1      31.886   8.825  38.561  1.00  0.00     0.211 HD
ENDBRANCH  21  26
BRANCH  23  28
ATOM     28  O   UNL     1      28.052   8.760  38.137  1.00  0.00    -0.387 OA
ATOM     29  H   UNL     1      27.150   9.129  38.328  1.00  0.00     0.211 HD
ENDBRANCH  23  28
BRANCH  24  30
ATOM     30  C   UNL     1      30.068   5.962  41.730  1.00  0.00     0.191 C 
BRANCH  30  31
ATOM     31  O   UNL     1      28.862   6.035  42.439  1.00  0.00    -0.394 OA
ATOM     32  H   UNL     1      28.639   5.108  42.722  1.00  0.00     0.210 HD
ENDBRANCH  30  31
ENDBRANCH  24  30
BRANCH  25  33
ATOM     33  O   UNL     1      29.035   6.347  38.794  1.00  0.00    -0.388 OA
ATOM     34  H   UNL     1      28.418   5.593  38.987  1.00  0.00     0.211 HD
ENDBRANCH  25  33
ENDBRANCH  11  20
BRANCH  10  35
ATOM     35  O   UNL     1      32.751   7.211  39.715  1.00  0.00    -0.507 OA
ATOM     36  H   UNL     1      32.465   6.606  40.475  1.00  0.00     0.293 HD
ENDBRANCH  10  35
TORSDOF 9
ENDMDL
