MODEL 1
REMARK VINA RESULT:     8.220      0.000      0.000
REMARK INTER + INTRA:           8.698
REMARK INTER:                   8.941
REMARK INTRA:                  -0.243
REMARK UNBOUND:                -0.243
REMARK SMILES CC1(C)CC[C@]2(C(=O)[O-])CC[C@]3(C)C(=CC[C@@H]4[C@]5(C)CC[C@@H](O)C(C)(C)[C@@H]5CC[C@]43C)[C@@H]2C1
REMARK SMILES IDX 6 1 5 2 10 3 32 4 4 5 11 6 14 7 33 8 2 9 12 10 15 11 1 12
REMARK SMILES IDX 3 13 13 14 30 15 16 16 17 17 29 18 31 19 18 20 28 21 27 22
REMARK SMILES IDX 20 23 19 24 24 25 21 26 22 27 25 28 26 29 7 30 8 31 9 32
REMARK SMILES IDX 23 33
REMARK H PARENT 23 34
REMARK Flexibility Score: inf
ROOT
ATOM      1  C   UNL     1      -9.775  -8.495   3.463  1.00  0.00     0.017 C 
ATOM      2  C   UNL     1      -9.133  -8.560   4.895  1.00  0.00     0.014 C 
ATOM      3  C   UNL     1      -9.111  -9.589   2.594  1.00  0.00     0.014 C 
ATOM      4  C   UNL     1      -9.563  -7.065   2.836  1.00  0.00     0.028 C 
ATOM      5  C   UNL     1      -9.199  -7.210   5.620  1.00  0.00     0.007 C 
ATOM      6  C   UNL     1      -9.562  -9.534   1.129  1.00  0.00     0.013 C 
ATOM      7  C   UNL     1      -9.658  -7.000   1.305  1.00  0.00    -0.064 C 
ATOM      8  C   UNL     1      -8.273  -6.390   3.357  1.00  0.00     0.015 C 
ATOM      9  C   UNL     1      -8.339  -6.126   4.897  1.00  0.00    -0.035 C 
ATOM     10  C   UNL     1      -9.240  -8.180   0.406  1.00  0.00    -0.006 C 
ATOM     11  C   UNL     1     -10.036  -5.812   0.768  1.00  0.00    -0.027 C 
ATOM     12  C   UNL     1      -8.956  -4.735   5.164  1.00  0.00     0.011 C 
ATOM     13  C   UNL     1      -6.905  -6.133   5.471  1.00  0.00     0.011 C 
ATOM     14  C   UNL     1      -7.682  -8.109   0.255  1.00  0.00     0.017 C 
ATOM     15  C   UNL     1     -10.011  -8.081  -1.016  1.00  0.00    -0.020 C 
ATOM     16  C   UNL     1     -10.372  -5.586  -0.685  1.00  0.00     0.032 C 
ATOM     17  C   UNL     1      -9.762  -6.649  -1.632  1.00  0.00     0.006 C 
ATOM     18  C   UNL     1      -9.493  -9.134  -2.018  1.00  0.00     0.008 C 
ATOM     19  C   UNL     1     -11.539  -8.348  -0.784  1.00  0.00     0.012 C 
ATOM     20  C   UNL     1     -10.031  -6.382  -3.199  1.00  0.00    -0.025 C 
ATOM     21  C   UNL     1     -10.126  -8.979  -3.399  1.00  0.00     0.005 C 
ATOM     22  C   UNL     1      -9.687  -7.662  -4.092  1.00  0.00     0.003 C 
ATOM     23  C   UNL     1     -11.493  -5.887  -3.457  1.00  0.00     0.010 C 
ATOM     24  C   UNL     1      -9.062  -5.215  -3.607  1.00  0.00     0.012 C 
ATOM     25  C   UNL     1     -10.178  -7.588  -5.613  1.00  0.00    -0.006 C 
ATOM     26  C   UNL     1     -11.890  -5.779  -4.933  1.00  0.00     0.033 C 
ATOM     27  C   UNL     1     -11.658  -7.101  -5.677  1.00  0.00     0.120 C 
ATOM     28  C   UNL     1     -10.112  -8.983  -6.305  1.00  0.00     0.014 C 
ATOM     29  C   UNL     1      -9.238  -6.676  -6.460  1.00  0.00     0.014 C 
ENDROOT
BRANCH   1  30
ATOM     30  C   UNL     1     -11.271  -8.800   3.569  1.00  0.00     0.048 C 
ATOM     31  O   UNL     1     -12.125  -7.891   3.380  1.00  0.00    -0.550 OA
ATOM     32  O   UNL     1     -11.718 -10.059   3.958  1.00  0.00    -0.550 OA
ENDBRANCH   1  30
BRANCH  27  33
ATOM     33  O   UNL     1     -12.124  -7.013  -7.004  1.00  0.00    -0.393 OA
ATOM     34  H   UNL     1     -12.155  -7.928  -7.384  1.00  0.00     0.210 HD
ENDBRANCH  27  33
TORSDOF 2
ENDMDL
MODEL 2
REMARK VINA RESULT:    10.563      2.273      8.720
REMARK INTER + INTRA:          11.246
REMARK INTER:                  10.743
REMARK INTRA:                   0.503
REMARK UNBOUND:                -0.243
REMARK SMILES CC1(C)CC[C@]2(C(=O)[O-])CC[C@]3(C)C(=CC[C@@H]4[C@]5(C)CC[C@@H](O)C(C)(C)[C@@H]5CC[C@]43C)[C@@H]2C1
REMARK SMILES IDX 6 1 5 2 10 3 32 4 4 5 11 6 14 7 33 8 2 9 12 10 15 11 1 12
REMARK SMILES IDX 3 13 13 14 30 15 16 16 17 17 29 18 31 19 18 20 28 21 27 22
REMARK SMILES IDX 20 23 19 24 24 25 21 26 22 27 25 28 26 29 7 30 8 31 9 32
REMARK SMILES IDX 23 33
REMARK H PARENT 23 34
REMARK Flexibility Score: inf
ROOT
ATOM      1  C   UNL     1     -11.476  -6.773  -0.497  1.00  0.00     0.017 C 
ATOM      2  C   UNL     1     -11.994  -6.450  -1.943  1.00  0.00     0.014 C 
ATOM      3  C   UNL     1     -12.125  -5.762   0.477  1.00  0.00     0.014 C 
ATOM      4  C   UNL     1      -9.904  -6.681  -0.447  1.00  0.00     0.028 C 
ATOM      5  C   UNL     1     -11.003  -6.899  -3.026  1.00  0.00     0.007 C 
ATOM      6  C   UNL     1     -11.588  -5.893   1.909  1.00  0.00     0.013 C 
ATOM      7  C   UNL     1      -9.304  -6.458   0.948  1.00  0.00    -0.064 C 
ATOM      8  C   UNL     1      -9.351  -5.667  -1.475  1.00  0.00     0.015 C 
ATOM      9  C   UNL     1      -9.662  -6.104  -2.945  1.00  0.00    -0.035 C 
ATOM     10  C   UNL     1     -10.043  -5.661   2.042  1.00  0.00    -0.006 C 
ATOM     11  C   UNL     1      -8.039  -6.910   1.147  1.00  0.00    -0.027 C 
ATOM     12  C   UNL     1      -8.518  -6.992  -3.480  1.00  0.00     0.011 C 
ATOM     13  C   UNL     1      -9.751  -4.845  -3.836  1.00  0.00     0.011 C 
ATOM     14  C   UNL     1      -9.788  -4.143   1.752  1.00  0.00     0.017 C 
ATOM     15  C   UNL     1      -9.509  -6.117   3.502  1.00  0.00    -0.020 C 
ATOM     16  C   UNL     1      -7.339  -6.962   2.482  1.00  0.00     0.032 C 
ATOM     17  C   UNL     1      -7.936  -5.992   3.531  1.00  0.00     0.006 C 
ATOM     18  C   UNL     1     -10.085  -5.225   4.622  1.00  0.00     0.008 C 
ATOM     19  C   UNL     1      -9.972  -7.590   3.774  1.00  0.00     0.012 C 
ATOM     20  C   UNL     1      -7.149  -5.962   4.938  1.00  0.00    -0.025 C 
ATOM     21  C   UNL     1      -9.501  -5.566   5.991  1.00  0.00     0.005 C 
ATOM     22  C   UNL     1      -7.990  -5.222   6.078  1.00  0.00     0.003 C 
ATOM     23  C   UNL     1      -6.723  -7.399   5.391  1.00  0.00     0.010 C 
ATOM     24  C   UNL     1      -5.835  -5.144   4.678  1.00  0.00     0.012 C 
ATOM     25  C   UNL     1      -7.420  -5.383   7.564  1.00  0.00    -0.006 C 
ATOM     26  C   UNL     1      -6.129  -7.484   6.800  1.00  0.00     0.033 C 
ATOM     27  C   UNL     1      -7.072  -6.876   7.848  1.00  0.00     0.120 C 
ATOM     28  C   UNL     1      -8.464  -4.932   8.631  1.00  0.00     0.014 C 
ATOM     29  C   UNL     1      -6.188  -4.454   7.794  1.00  0.00     0.014 C 
ENDROOT
BRANCH   1  30
ATOM     30  C   UNL     1     -11.927  -8.183  -0.105  1.00  0.00     0.048 C 
ATOM     31  O   UNL     1     -12.068  -8.496   1.109  1.00  0.00    -0.550 OA
ATOM     32  O   UNL     1     -12.108  -9.169  -1.070  1.00  0.00    -0.550 OA
ENDBRANCH   1  30
BRANCH  27  33
ATOM     33  O   UNL     1      -6.555  -7.056   9.146  1.00  0.00    -0.393 OA
ATOM     34  H   UNL     1      -7.312  -7.034   9.787  1.00  0.00     0.210 HD
ENDBRANCH  27  33
TORSDOF 2
ENDMDL
MODEL 3
REMARK VINA RESULT:    11.029      2.522      8.720
REMARK INTER + INTRA:          11.753
REMARK INTER:                  11.332
REMARK INTRA:                   0.421
REMARK UNBOUND:                -0.243
REMARK SMILES CC1(C)CC[C@]2(C(=O)[O-])CC[C@]3(C)C(=CC[C@@H]4[C@]5(C)CC[C@@H](O)C(C)(C)[C@@H]5CC[C@]43C)[C@@H]2C1
REMARK SMILES IDX 6 1 5 2 10 3 32 4 4 5 11 6 14 7 33 8 2 9 12 10 15 11 1 12
REMARK SMILES IDX 3 13 13 14 30 15 16 16 17 17 29 18 31 19 18 20 28 21 27 22
REMARK SMILES IDX 20 23 19 24 24 25 21 26 22 27 25 28 26 29 7 30 8 31 9 32
REMARK SMILES IDX 23 33
REMARK H PARENT 23 34
REMARK Flexibility Score: inf
ROOT
ATOM      1  C   UNL     1     -10.639  -8.270  -0.392  1.00  0.00     0.017 C 
ATOM      2  C   UNL     1     -11.493  -8.280  -1.709  1.00  0.00     0.014 C 
ATOM      3  C   UNL     1     -11.592  -8.548   0.795  1.00  0.00     0.014 C 
ATOM      4  C   UNL     1      -9.913  -6.882  -0.223  1.00  0.00     0.028 C 
ATOM      5  C   UNL     1     -10.861  -7.423  -2.814  1.00  0.00     0.007 C 
ATOM      6  C   UNL     1     -10.892  -8.429   2.155  1.00  0.00     0.013 C 
ATOM      7  C   UNL     1      -9.485  -6.535   1.210  1.00  0.00    -0.064 C 
ATOM      8  C   UNL     1     -10.710  -5.729  -0.876  1.00  0.00     0.015 C 
ATOM      9  C   UNL     1     -10.831  -5.912  -2.424  1.00  0.00    -0.035 C 
ATOM     10  C   UNL     1     -10.278  -7.016   2.442  1.00  0.00    -0.006 C 
ATOM     11  C   UNL     1      -8.426  -5.696   1.343  1.00  0.00    -0.027 C 
ATOM     12  C   UNL     1      -9.633  -5.236  -3.127  1.00  0.00     0.011 C 
ATOM     13  C   UNL     1     -12.125  -5.224  -2.914  1.00  0.00     0.011 C 
ATOM     14  C   UNL     1     -11.481  -6.028   2.623  1.00  0.00     0.017 C 
ATOM     15  C   UNL     1      -9.302  -7.056   3.735  1.00  0.00    -0.020 C 
ATOM     16  C   UNL     1      -7.732  -5.380   2.644  1.00  0.00     0.032 C 
ATOM     17  C   UNL     1      -8.607  -5.647   3.893  1.00  0.00     0.006 C 
ATOM     18  C   UNL     1     -10.086  -7.355   5.030  1.00  0.00     0.008 C 
ATOM     19  C   UNL     1      -8.245  -8.198   3.537  1.00  0.00     0.012 C 
ATOM     20  C   UNL     1      -7.921  -5.233   5.292  1.00  0.00    -0.025 C 
ATOM     21  C   UNL     1      -9.202  -7.281   6.272  1.00  0.00     0.005 C 
ATOM     22  C   UNL     1      -8.708  -5.836   6.546  1.00  0.00     0.003 C 
ATOM     23  C   UNL     1      -6.407  -5.627   5.331  1.00  0.00     0.010 C 
ATOM     24  C   UNL     1      -8.000  -3.667   5.361  1.00  0.00     0.012 C 
ATOM     25  C   UNL     1      -7.954  -5.712   7.952  1.00  0.00    -0.006 C 
ATOM     26  C   UNL     1      -5.721  -5.433   6.687  1.00  0.00     0.033 C 
ATOM     27  C   UNL     1      -6.470  -6.166   7.808  1.00  0.00     0.120 C 
ATOM     28  C   UNL     1      -8.618  -6.611   9.039  1.00  0.00     0.014 C 
ATOM     29  C   UNL     1      -8.057  -4.262   8.515  1.00  0.00     0.014 C 
ENDROOT
BRANCH   1  30
ATOM     30  C   UNL     1      -9.603  -9.395  -0.456  1.00  0.00     0.048 C 
ATOM     31  O   UNL     1      -9.515 -10.125  -1.481  1.00  0.00    -0.550 OA
ATOM     32  O   UNL     1      -8.799  -9.690   0.640  1.00  0.00    -0.550 OA
ENDBRANCH   1  30
BRANCH  27  33
ATOM     33  O   UNL     1      -5.769  -6.061   9.025  1.00  0.00    -0.393 OA
ATOM     34  H   UNL     1      -5.133  -5.304   8.953  1.00  0.00     0.210 HD
ENDBRANCH  27  33
TORSDOF 2
ENDMDL
