MODEL 1
REMARK VINA RESULT:    -3.674      0.000      0.000
REMARK INTER + INTRA:          -4.936
REMARK INTER:                  -5.392
REMARK INTRA:                   0.456
REMARK UNBOUND:                 0.456
REMARK SMILES C=C1CC=CC(C)(C)CC=C(C)CCC1
REMARK SMILES IDX 2 1 1 2 15 3 14 4 13 5 11 6 12 7 10 8 3 10 4 11 5 12 6 13
REMARK SMILES IDX 7 14 8 15 9 16
REMARK H PARENT
REMARK Flexibility Score: 60.00
ROOT
ATOM      1  C   UNL     1       2.964  13.967  13.810  1.00  0.00    -0.074 C 
ATOM      2  C   UNL     1       4.209  13.884  13.307  1.00  0.00     0.008 C 
ENDROOT
BRANCH   1   3
ATOM      3  C   UNL     1       1.847  14.505  12.929  1.00  0.00     0.031 C 
BRANCH   3   4
ATOM      4  C   UNL     1       1.400  15.931  13.322  1.00  0.00     0.009 C 
BRANCH   4   5
ATOM      5  C   UNL     1       0.246  15.910  14.348  1.00  0.00     0.030 C 
BRANCH   5   6
ATOM      6  C   UNL     1       0.533  16.676  15.631  1.00  0.00    -0.077 C 
ATOM      7  C   UNL     1       1.224  18.012  15.540  1.00  0.00     0.039 C 
ATOM      8  C   UNL     1       0.290  16.168  16.864  1.00  0.00    -0.027 CG0
ATOM      9  G   UNL     1      -0.469  14.889  17.134  1.00  0.00     0.000 G0
ENDBRANCH   5   6
ENDBRANCH   4   5
ENDBRANCH   3   4
ENDBRANCH   1   3
BRANCH   1  10
ATOM     10  C   UNL     1       2.689  13.648  15.272  1.00  0.00     0.057 C 
BRANCH  10  11
ATOM     11  C   UNL     1       1.536  12.686  15.527  1.00  0.00    -0.026 C 
ATOM     12  C   UNL     1       0.605  12.682  16.520  1.00  0.00    -0.024 C 
BRANCH  12  13
ATOM     13  C   UNL     1       0.389  13.682  17.666  1.00  0.00    -0.014 C 
ATOM     14  C   UNL     1       1.741  14.073  18.307  1.00  0.00     0.016 C 
ATOM     15  C   UNL     1      -0.431  12.972  18.773  1.00  0.00     0.016 C 
BRANCH  13  16
ATOM     16  C   UNL     1      -0.457  14.884  17.154  1.00  0.00     0.038 CG0
ATOM     17  G   UNL     1       0.296  16.163  16.869  1.00  0.00     0.000 G0
ENDBRANCH  13  16
ENDBRANCH  12  13
ENDBRANCH  10  11
ENDBRANCH   1  10
TORSDOF 0
ENDMDL
MODEL 2
REMARK VINA RESULT:    -3.394      1.443      4.178
REMARK INTER + INTRA:          -4.525
REMARK INTER:                  -5.037
REMARK INTRA:                   0.512
REMARK UNBOUND:                 0.456
REMARK SMILES C=C1CC=CC(C)(C)CC=C(C)CCC1
REMARK SMILES IDX 2 1 1 2 15 3 14 4 13 5 11 6 12 7 10 8 3 10 4 11 5 12 6 13
REMARK SMILES IDX 7 14 8 15 9 16
REMARK H PARENT
REMARK Flexibility Score: 60.00
ROOT
ATOM      1  C   UNL     1       0.583  13.236  17.126  1.00  0.00    -0.074 C 
ATOM      2  C   UNL     1      -0.396  12.515  17.701  1.00  0.00     0.008 C 
ENDROOT
BRANCH   1   3
ATOM      3  C   UNL     1       0.955  14.585  17.723  1.00  0.00     0.031 C 
BRANCH   3   4
ATOM      4  C   UNL     1      -0.136  15.660  17.517  1.00  0.00     0.009 C 
BRANCH   4   5
ATOM      5  C   UNL     1      -0.367  15.965  16.021  1.00  0.00     0.030 C 
BRANCH   5   6
ATOM      6  C   UNL     1       0.730  16.797  15.374  1.00  0.00    -0.077 C 
ATOM      7  C   UNL     1       1.152  18.083  16.035  1.00  0.00     0.039 C 
ATOM      8  C   UNL     1       1.280  16.489  14.174  1.00  0.00    -0.027 CG0
ATOM      9  G   UNL     1       1.035  15.201  13.420  1.00  0.00     0.000 G0
ENDBRANCH   5   6
ENDBRANCH   4   5
ENDBRANCH   3   4
ENDBRANCH   1   3
BRANCH   1  10
ATOM     10  C   UNL     1       1.230  12.780  15.826  1.00  0.00     0.057 C 
BRANCH  10  11
ATOM     11  C   UNL     1       2.598  13.381  15.529  1.00  0.00    -0.026 C 
ATOM     12  C   UNL     1       3.054  14.000  14.406  1.00  0.00    -0.024 C 
BRANCH  12  13
ATOM     13  C   UNL     1       2.314  14.341  13.103  1.00  0.00    -0.014 C 
ATOM     14  C   UNL     1       2.038  13.057  12.286  1.00  0.00     0.016 C 
ATOM     15  C   UNL     1       3.251  15.220  12.237  1.00  0.00     0.016 C 
BRANCH  13  16
ATOM     16  C   UNL     1       1.048  15.186  13.431  1.00  0.00     0.038 CG0
ATOM     17  G   UNL     1       1.279  16.488  14.162  1.00  0.00     0.000 G0
ENDBRANCH  13  16
ENDBRANCH  12  13
ENDBRANCH  10  11
ENDBRANCH   1  10
TORSDOF 0
ENDMDL
MODEL 3
REMARK VINA RESULT:    -3.385      1.718      4.514
REMARK INTER + INTRA:          -4.512
REMARK INTER:                  -4.736
REMARK INTRA:                   0.224
REMARK UNBOUND:                 0.456
REMARK SMILES C=C1CC=CC(C)(C)CC=C(C)CCC1
REMARK SMILES IDX 2 1 1 2 15 3 14 4 13 5 11 6 12 7 10 8 3 10 4 11 5 12 6 13
REMARK SMILES IDX 7 14 8 15 9 16
REMARK H PARENT
REMARK Flexibility Score: 60.00
ROOT
ATOM      1  C   UNL     1       1.125  14.743  17.162  1.00  0.00    -0.074 C 
ATOM      2  C   UNL     1       2.295  14.441  17.751  1.00  0.00     0.008 C 
ENDROOT
BRANCH   1   3
ATOM      3  C   UNL     1       0.364  13.649  16.428  1.00  0.00     0.031 C 
BRANCH   3   4
ATOM      4  C   UNL     1       1.292  12.643  15.710  1.00  0.00     0.009 C 
BRANCH   4   5
ATOM      5  C   UNL     1       1.400  12.939  14.198  1.00  0.00     0.030 C 
BRANCH   5   6
ATOM      6  C   UNL     1       2.296  14.118  13.853  1.00  0.00    -0.077 C 
ATOM      7  C   UNL     1       3.791  13.939  13.921  1.00  0.00     0.039 C 
ATOM      8  C   UNL     1       1.816  15.357  13.583  1.00  0.00    -0.027 CG0
ATOM      9  G   UNL     1       0.354  15.690  13.391  1.00  0.00     0.000 G0
ENDBRANCH   5   6
ENDBRANCH   4   5
ENDBRANCH   3   4
ENDBRANCH   1   3
BRANCH   1  10
ATOM     10  C   UNL     1       0.619  16.178  17.117  1.00  0.00     0.057 C 
BRANCH  10  11
ATOM     11  C   UNL     1      -0.746  16.371  16.470  1.00  0.00    -0.026 C 
ATOM     12  C   UNL     1      -1.066  16.749  15.202  1.00  0.00    -0.024 C 
BRANCH  12  13
ATOM     13  C   UNL     1      -0.149  17.042  14.004  1.00  0.00    -0.014 C 
ATOM     14  C   UNL     1       0.974  18.025  14.411  1.00  0.00     0.016 C 
ATOM     15  C   UNL     1      -0.992  17.763  12.922  1.00  0.00     0.016 C 
BRANCH  13  16
ATOM     16  C   UNL     1       0.353  15.701  13.393  1.00  0.00     0.038 CG0
ATOM     17  G   UNL     1       1.815  15.378  13.592  1.00  0.00     0.000 G0
ENDBRANCH  13  16
ENDBRANCH  12  13
ENDBRANCH  10  11
ENDBRANCH   1  10
TORSDOF 0
ENDMDL
MODEL 4
REMARK VINA RESULT:    -3.151      1.955      4.746
REMARK INTER + INTRA:          -4.169
REMARK INTER:                  -4.308
REMARK INTRA:                   0.139
REMARK UNBOUND:                 0.456
REMARK SMILES C=C1CC=CC(C)(C)CC=C(C)CCC1
REMARK SMILES IDX 2 1 1 2 15 3 14 4 13 5 11 6 12 7 10 8 3 10 4 11 5 12 6 13
REMARK SMILES IDX 7 14 8 15 9 16
REMARK H PARENT
REMARK Flexibility Score: 60.00
ROOT
ATOM      1  C   UNL     1       1.279  15.155  17.702  1.00  0.00    -0.074 C 
ATOM      2  C   UNL     1       2.350  14.534  18.227  1.00  0.00     0.008 C 
ENDROOT
BRANCH   1   3
ATOM      3  C   UNL     1      -0.106  14.579  17.957  1.00  0.00     0.031 C 
BRANCH   3   4
ATOM      4  C   UNL     1      -0.321  13.202  17.288  1.00  0.00     0.009 C 
BRANCH   4   5
ATOM      5  C   UNL     1      -0.793  13.342  15.824  1.00  0.00     0.030 C 
BRANCH   5   6
ATOM      6  C   UNL     1       0.327  13.277  14.796  1.00  0.00    -0.077 C 
ATOM      7  C   UNL     1       1.343  12.169  14.898  1.00  0.00     0.039 C 
ATOM      8  C   UNL     1       0.515  14.229  13.849  1.00  0.00    -0.027 CG0
ATOM      9  G   UNL     1      -0.450  15.353  13.555  1.00  0.00     0.000 G0
ENDBRANCH   5   6
ENDBRANCH   4   5
ENDBRANCH   3   4
ENDBRANCH   1   3
BRANCH   1  10
ATOM     10  C   UNL     1       1.444  16.343  16.766  1.00  0.00     0.057 C 
BRANCH  10  11
ATOM     11  C   UNL     1       0.157  17.068  16.394  1.00  0.00    -0.026 C 
ATOM     12  C   UNL     1      -0.403  17.282  15.172  1.00  0.00    -0.024 C 
BRANCH  12  13
ATOM     13  C   UNL     1       0.058  16.809  13.785  1.00  0.00    -0.014 C 
ATOM     14  C   UNL     1       1.586  16.992  13.630  1.00  0.00     0.016 C 
ATOM     15  C   UNL     1      -0.603  17.723  12.723  1.00  0.00     0.016 C 
BRANCH  13  16
ATOM     16  C   UNL     1      -0.450  15.358  13.536  1.00  0.00     0.038 CG0
ATOM     17  G   UNL     1       0.516  14.243  13.864  1.00  0.00     0.000 G0
ENDBRANCH  13  16
ENDBRANCH  12  13
ENDBRANCH  10  11
ENDBRANCH   1  10
TORSDOF 0
ENDMDL
MODEL 5
REMARK VINA RESULT:    -3.143      2.051      4.231
REMARK INTER + INTRA:          -4.157
REMARK INTER:                  -4.595
REMARK INTRA:                   0.438
REMARK UNBOUND:                 0.456
REMARK SMILES C=C1CC=CC(C)(C)CC=C(C)CCC1
REMARK SMILES IDX 2 1 1 2 15 3 14 4 13 5 11 6 12 7 10 8 3 10 4 11 5 12 6 13
REMARK SMILES IDX 7 14 8 15 9 16
REMARK H PARENT
REMARK Flexibility Score: 60.00
ROOT
ATOM      1  C   UNL     1       0.319  15.375  16.859  1.00  0.00    -0.074 C 
ATOM      2  C   UNL     1      -0.677  15.484  17.755  1.00  0.00     0.008 C 
ENDROOT
BRANCH   1   3
ATOM      3  C   UNL     1       0.954  16.641  16.304  1.00  0.00     0.031 C 
BRANCH   3   4
ATOM      4  C   UNL     1       0.015  17.426  15.360  1.00  0.00     0.009 C 
BRANCH   4   5
ATOM      5  C   UNL     1      -0.124  16.737  13.985  1.00  0.00     0.030 C 
BRANCH   5   6
ATOM      6  C   UNL     1       1.179  16.620  13.209  1.00  0.00    -0.077 C 
ATOM      7  C   UNL     1       2.000  17.862  12.974  1.00  0.00     0.039 C 
ATOM      8  C   UNL     1       1.591  15.466  12.628  1.00  0.00    -0.027 CG0
ATOM      9  G   UNL     1       0.938  14.119  12.832  1.00  0.00     0.000 G0
ENDBRANCH   5   6
ENDBRANCH   4   5
ENDBRANCH   3   4
ENDBRANCH   1   3
BRANCH   1  10
ATOM     10  C   UNL     1       0.731  14.017  16.309  1.00  0.00     0.057 C 
BRANCH  10  11
ATOM     11  C   UNL     1       2.164  13.924  15.800  1.00  0.00    -0.026 C 
ATOM     12  C   UNL     1       2.640  13.473  14.607  1.00  0.00    -0.024 C 
BRANCH  12  13
ATOM     13  C   UNL     1       1.876  12.971  13.372  1.00  0.00    -0.014 C 
ATOM     14  C   UNL     1       1.139  11.649  13.692  1.00  0.00     0.016 C 
ATOM     15  C   UNL     1       2.913  12.639  12.270  1.00  0.00     0.016 C 
BRANCH  13  16
ATOM     16  C   UNL     1       0.962  14.108  12.830  1.00  0.00     0.038 CG0
ATOM     17  G   UNL     1       1.608  15.462  12.649  1.00  0.00     0.000 G0
ENDBRANCH  13  16
ENDBRANCH  12  13
ENDBRANCH  10  11
ENDBRANCH   1  10
TORSDOF 0
ENDMDL
MODEL 6
REMARK VINA RESULT:    -3.140      1.532      4.386
REMARK INTER + INTRA:          -4.153
REMARK INTER:                  -4.421
REMARK INTRA:                   0.268
REMARK UNBOUND:                 0.456
REMARK SMILES C=C1CC=CC(C)(C)CC=C(C)CCC1
REMARK SMILES IDX 2 1 1 2 15 3 14 4 13 5 11 6 12 7 10 8 3 10 4 11 5 12 6 13
REMARK SMILES IDX 7 14 8 15 9 16
REMARK H PARENT
REMARK Flexibility Score: 60.00
ROOT
ATOM      1  C   UNL     1       0.796  16.487  16.461  1.00  0.00    -0.074 C 
ATOM      2  C   UNL     1       1.497  16.480  17.608  1.00  0.00     0.008 C 
ENDROOT
BRANCH   1   3
ATOM      3  C   UNL     1      -0.703  16.234  16.510  1.00  0.00     0.031 C 
BRANCH   3   4
ATOM      4  C   UNL     1      -1.106  15.187  17.573  1.00  0.00     0.009 C 
BRANCH   4   5
ATOM      5  C   UNL     1      -1.068  13.750  17.009  1.00  0.00     0.030 C 
BRANCH   5   6
ATOM      6  C   UNL     1       0.207  12.984  17.331  1.00  0.00    -0.077 C 
ATOM      7  C   UNL     1       0.594  12.792  18.774  1.00  0.00     0.039 C 
ATOM      8  C   UNL     1       1.068  12.551  16.378  1.00  0.00    -0.027 CG0
ATOM      9  G   UNL     1       0.796  12.585  14.892  1.00  0.00     0.000 G0
ENDBRANCH   5   6
ENDBRANCH   4   5
ENDBRANCH   3   4
ENDBRANCH   1   3
BRANCH   1  10
ATOM     10  C   UNL     1       1.497  16.623  15.117  1.00  0.00     0.057 C 
BRANCH  10  11
ATOM     11  C   UNL     1       0.798  15.948  13.942  1.00  0.00    -0.026 C 
ATOM     12  C   UNL     1       0.908  14.675  13.476  1.00  0.00    -0.024 C 
BRANCH  12  13
ATOM     13  C   UNL     1       1.727  13.496  14.024  1.00  0.00    -0.014 C 
ATOM     14  C   UNL     1       2.991  14.008  14.753  1.00  0.00     0.016 C 
ATOM     15  C   UNL     1       2.225  12.658  12.819  1.00  0.00     0.016 C 
BRANCH  13  16
ATOM     16  C   UNL     1       0.809  12.580  14.884  1.00  0.00     0.038 CG0
ATOM     17  G   UNL     1       1.081  12.561  16.371  1.00  0.00     0.000 G0
ENDBRANCH  13  16
ENDBRANCH  12  13
ENDBRANCH  10  11
ENDBRANCH   1  10
TORSDOF 0
ENDMDL
MODEL 7
REMARK VINA RESULT:    -3.132      1.105      3.698
REMARK INTER + INTRA:          -4.142
REMARK INTER:                  -4.800
REMARK INTRA:                   0.659
REMARK UNBOUND:                 0.456
REMARK SMILES C=C1CC=CC(C)(C)CC=C(C)CCC1
REMARK SMILES IDX 2 1 1 2 15 3 14 4 13 5 11 6 12 7 10 8 3 10 4 11 5 12 6 13
REMARK SMILES IDX 7 14 8 15 9 16
REMARK H PARENT
REMARK Flexibility Score: 60.00
ROOT
ATOM      1  C   UNL     1       2.969  14.054  13.276  1.00  0.00    -0.074 C 
ATOM      2  C   UNL     1       4.282  13.806  13.424  1.00  0.00     0.008 C 
ENDROOT
BRANCH   1   3
ATOM      3  C   UNL     1       1.993  12.887  13.272  1.00  0.00     0.031 C 
BRANCH   3   4
ATOM      4  C   UNL     1       1.547  12.466  14.691  1.00  0.00     0.009 C 
BRANCH   4   5
ATOM      5  C   UNL     1       1.806  13.580  15.729  1.00  0.00     0.030 C 
BRANCH   5   6
ATOM      6  C   UNL     1       0.563  14.043  16.474  1.00  0.00    -0.077 C 
ATOM      7  C   UNL     1      -0.303  13.014  17.153  1.00  0.00     0.039 C 
ATOM      8  C   UNL     1       0.138  15.331  16.472  1.00  0.00    -0.027 CG0
ATOM      9  G   UNL     1       0.924  16.496  15.916  1.00  0.00     0.000 G0
ENDBRANCH   5   6
ENDBRANCH   4   5
ENDBRANCH   3   4
ENDBRANCH   1   3
BRANCH   1  10
ATOM     10  C   UNL     1       2.466  15.462  12.994  1.00  0.00     0.057 C 
BRANCH  10  11
ATOM     11  C   UNL     1       0.957  15.599  12.834  1.00  0.00    -0.026 C 
ATOM     12  C   UNL     1       0.064  16.324  13.561  1.00  0.00    -0.024 C 
BRANCH  12  13
ATOM     13  C   UNL     1       0.304  17.283  14.737  1.00  0.00    -0.014 C 
ATOM     14  C   UNL     1      -0.992  18.055  15.078  1.00  0.00     0.016 C 
ATOM     15  C   UNL     1       1.340  18.343  14.287  1.00  0.00     0.016 C 
BRANCH  13  16
ATOM     16  C   UNL     1       0.923  16.498  15.929  1.00  0.00     0.038 CG0
ATOM     17  G   UNL     1       0.123  15.327  16.452  1.00  0.00     0.000 G0
ENDBRANCH  13  16
ENDBRANCH  12  13
ENDBRANCH  10  11
ENDBRANCH   1  10
TORSDOF 0
ENDMDL
MODEL 8
REMARK VINA RESULT:    -3.087      1.772      3.313
REMARK INTER + INTRA:          -4.075
REMARK INTER:                  -4.352
REMARK INTRA:                   0.277
REMARK UNBOUND:                 0.456
REMARK SMILES C=C1CC=CC(C)(C)CC=C(C)CCC1
REMARK SMILES IDX 2 1 1 2 15 3 14 4 13 5 11 6 12 7 10 8 3 10 4 11 5 12 6 13
REMARK SMILES IDX 7 14 8 15 9 16
REMARK H PARENT
REMARK Flexibility Score: 60.00
ROOT
ATOM      1  C   UNL     1       0.902  17.273  13.086  1.00  0.00    -0.074 C 
ATOM      2  C   UNL     1       1.879  18.118  13.459  1.00  0.00     0.008 C 
ENDROOT
BRANCH   1   3
ATOM      3  C   UNL     1      -0.511  17.503  13.601  1.00  0.00     0.031 C 
BRANCH   3   4
ATOM      4  C   UNL     1      -0.549  18.007  15.061  1.00  0.00     0.009 C 
BRANCH   4   5
ATOM      5  C   UNL     1      -0.484  16.842  16.073  1.00  0.00     0.030 C 
BRANCH   5   6
ATOM      6  C   UNL     1       0.926  16.452  16.491  1.00  0.00    -0.077 C 
ATOM      7  C   UNL     1       1.812  17.496  17.121  1.00  0.00     0.039 C 
ATOM      8  C   UNL     1       1.463  15.234  16.232  1.00  0.00    -0.027 CG0
ATOM      9  G   UNL     1       0.693  14.053  15.688  1.00  0.00     0.000 G0
ENDBRANCH   5   6
ENDBRANCH   4   5
ENDBRANCH   3   4
ENDBRANCH   1   3
BRANCH   1  10
ATOM     10  C   UNL     1       1.215  16.031  12.264  1.00  0.00     0.057 C 
BRANCH  10  11
ATOM     11  C   UNL     1       0.212  14.891  12.392  1.00  0.00    -0.026 C 
ATOM     12  C   UNL     1       0.214  13.816  13.227  1.00  0.00    -0.024 C 
BRANCH  12  13
ATOM     13  C   UNL     1       1.199  13.443  14.346  1.00  0.00    -0.014 C 
ATOM     14  C   UNL     1       2.639  13.854  13.958  1.00  0.00     0.016 C 
ATOM     15  C   UNL     1       1.205  11.900  14.485  1.00  0.00     0.016 C 
BRANCH  13  16
ATOM     16  C   UNL     1       0.698  14.034  15.696  1.00  0.00     0.038 CG0
ATOM     17  G   UNL     1       1.455  15.229  16.229  1.00  0.00     0.000 G0
ENDBRANCH  13  16
ENDBRANCH  12  13
ENDBRANCH  10  11
ENDBRANCH   1  10
TORSDOF 0
ENDMDL
MODEL 9
REMARK VINA RESULT:    -3.072      1.700      4.878
REMARK INTER + INTRA:          -4.054
REMARK INTER:                  -4.814
REMARK INTRA:                   0.760
REMARK UNBOUND:                 0.456
REMARK SMILES C=C1CC=CC(C)(C)CC=C(C)CCC1
REMARK SMILES IDX 2 1 1 2 15 3 14 4 13 5 11 6 12 7 10 8 3 10 4 11 5 12 6 13
REMARK SMILES IDX 7 14 8 15 9 16
REMARK H PARENT
REMARK Flexibility Score: 60.00
ROOT
ATOM      1  C   UNL     1       1.794  17.997  16.907  1.00  0.00    -0.074 C 
ATOM      2  C   UNL     1       2.484  19.130  17.128  1.00  0.00     0.008 C 
ENDROOT
BRANCH   1   3
ATOM      3  C   UNL     1       2.084  16.776  17.767  1.00  0.00     0.031 C 
BRANCH   3   4
ATOM      4  C   UNL     1       0.937  15.742  17.758  1.00  0.00     0.009 C 
BRANCH   4   5
ATOM      5  C   UNL     1       1.452  14.314  17.472  1.00  0.00     0.030 C 
BRANCH   5   6
ATOM      6  C   UNL     1       0.658  13.562  16.414  1.00  0.00    -0.077 C 
ATOM      7  C   UNL     1      -0.303  12.488  16.853  1.00  0.00     0.039 C 
ATOM      8  C   UNL     1       0.848  13.740  15.083  1.00  0.00    -0.027 CG0
ATOM      9  G   UNL     1       1.705  14.826  14.474  1.00  0.00     0.000 G0
ENDBRANCH   5   6
ENDBRANCH   4   5
ENDBRANCH   3   4
ENDBRANCH   1   3
BRANCH   1  10
ATOM     10  C   UNL     1       0.823  17.887  15.740  1.00  0.00     0.057 C 
BRANCH  10  11
ATOM     11  C   UNL     1       1.447  18.020  14.356  1.00  0.00    -0.026 C 
ATOM     12  C   UNL     1       1.568  17.099  13.361  1.00  0.00    -0.024 C 
BRANCH  12  13
ATOM     13  C   UNL     1       1.062  15.650  13.297  1.00  0.00    -0.014 C 
ATOM     14  C   UNL     1       1.283  15.061  11.884  1.00  0.00     0.016 C 
ATOM     15  C   UNL     1      -0.470  15.667  13.531  1.00  0.00     0.016 C 
BRANCH  13  16
ATOM     16  C   UNL     1       1.703  14.824  14.451  1.00  0.00     0.038 CG0
ATOM     17  G   UNL     1       0.839  13.749  15.069  1.00  0.00     0.000 G0
ENDBRANCH  13  16
ENDBRANCH  12  13
ENDBRANCH  10  11
ENDBRANCH   1  10
TORSDOF 0
ENDMDL
