MODEL 1
REMARK VINA RESULT:    -1.115      0.000      0.000
REMARK INTER + INTRA:          -1.115
REMARK INTER:                  -1.115
REMARK INTRA:                   0.000
REMARK UNBOUND:                 0.000
REMARK SMILES CC(=O)[O-]
REMARK SMILES IDX 1 1 2 2 3 3 4 4
REMARK H PARENT
REMARK Flexibility Score: inf
ROOT
ATOM      1  C   UNL     1     173.224 178.870 195.324  1.00  0.00     0.063 C 
ATOM      2  C   UNL     1     172.691 177.490 195.507  1.00  0.00     0.038 C 
ATOM      3  O   UNL     1     172.133 176.896 194.547  1.00  0.00    -0.550 OA
ATOM      4  O   UNL     1     172.758 176.876 196.752  1.00  0.00    -0.550 OA
ENDROOT
TORSDOF 0
ENDMDL
MODEL 2
REMARK VINA RESULT:    -1.058      0.214      1.634
REMARK INTER + INTRA:          -1.058
REMARK INTER:                  -1.058
REMARK INTRA:                   0.000
REMARK UNBOUND:                 0.000
REMARK SMILES CC(=O)[O-]
REMARK SMILES IDX 1 1 2 2 3 3 4 4
REMARK H PARENT
REMARK Flexibility Score: inf
ROOT
ATOM      1  C   UNL     1     173.257 178.902 195.272  1.00  0.00     0.063 C 
ATOM      2  C   UNL     1     172.739 177.508 195.386  1.00  0.00     0.038 C 
ATOM      3  O   UNL     1     172.845 176.882 196.472  1.00  0.00    -0.550 OA
ATOM      4  O   UNL     1     172.188 176.878 194.278  1.00  0.00    -0.550 OA
ENDROOT
TORSDOF 0
ENDMDL
MODEL 3
REMARK VINA RESULT:    -1.046      4.388      4.963
REMARK INTER + INTRA:          -1.046
REMARK INTER:                  -1.046
REMARK INTRA:                   0.000
REMARK UNBOUND:                 0.000
REMARK SMILES CC(=O)[O-]
REMARK SMILES IDX 1 1 2 2 3 3 4 4
REMARK H PARENT
REMARK Flexibility Score: inf
ROOT
ATOM      1  C   UNL     1     170.875 177.020 200.731  1.00  0.00     0.063 C 
ATOM      2  C   UNL     1     172.093 177.625 200.119  1.00  0.00     0.038 C 
ATOM      3  O   UNL     1     172.330 177.464 198.894  1.00  0.00    -0.550 OA
ATOM      4  O   UNL     1     172.998 178.321 200.910  1.00  0.00    -0.550 OA
ENDROOT
TORSDOF 0
ENDMDL
MODEL 4
REMARK VINA RESULT:    -1.040      1.477      1.705
REMARK INTER + INTRA:          -1.040
REMARK INTER:                  -1.040
REMARK INTRA:                   0.000
REMARK UNBOUND:                 0.000
REMARK SMILES CC(=O)[O-]
REMARK SMILES IDX 1 1 2 2 3 3 4 4
REMARK H PARENT
REMARK Flexibility Score: inf
ROOT
ATOM      1  C   UNL     1     172.623 177.122 194.540  1.00  0.00     0.063 C 
ATOM      2  C   UNL     1     172.873 177.696 195.893  1.00  0.00     0.038 C 
ATOM      3  O   UNL     1     173.157 178.916 196.019  1.00  0.00    -0.550 OA
ATOM      4  O   UNL     1     172.848 176.875 197.014  1.00  0.00    -0.550 OA
ENDROOT
TORSDOF 0
ENDMDL
MODEL 5
REMARK VINA RESULT:    -1.039      4.604      4.942
REMARK INTER + INTRA:          -1.039
REMARK INTER:                  -1.039
REMARK INTRA:                   0.000
REMARK UNBOUND:                 0.000
REMARK SMILES CC(=O)[O-]
REMARK SMILES IDX 1 1 2 2 3 3 4 4
REMARK H PARENT
REMARK Flexibility Score: inf
ROOT
ATOM      1  C   UNL     1     172.721 177.832 199.272  1.00  0.00     0.063 C 
ATOM      2  C   UNL     1     171.473 177.923 200.082  1.00  0.00     0.038 C 
ATOM      3  O   UNL     1     170.878 176.876 200.446  1.00  0.00    -0.550 OA
ATOM      4  O   UNL     1     170.931 179.166 200.389  1.00  0.00    -0.550 OA
ENDROOT
TORSDOF 0
ENDMDL
MODEL 6
REMARK VINA RESULT:    -1.033      1.632      2.129
REMARK INTER + INTRA:          -1.033
REMARK INTER:                  -1.033
REMARK INTRA:                   0.000
REMARK UNBOUND:                 0.000
REMARK SMILES CC(=O)[O-]
REMARK SMILES IDX 1 1 2 2 3 3 4 4
REMARK H PARENT
REMARK Flexibility Score: inf
ROOT
ATOM      1  C   UNL     1     173.112 177.180 197.588  1.00  0.00     0.063 C 
ATOM      2  C   UNL     1     172.903 177.708 196.209  1.00  0.00     0.038 C 
ATOM      3  O   UNL     1     173.124 178.921 195.957  1.00  0.00    -0.550 OA
ATOM      4  O   UNL     1     172.411 176.875 195.211  1.00  0.00    -0.550 OA
ENDROOT
TORSDOF 0
ENDMDL
MODEL 7
REMARK VINA RESULT:    -0.947      3.628      3.915
REMARK INTER + INTRA:          -0.947
REMARK INTER:                  -0.947
REMARK INTRA:                   0.000
REMARK UNBOUND:                 0.000
REMARK SMILES CC(=O)[O-]
REMARK SMILES IDX 1 1 2 2 3 3 4 4
REMARK H PARENT
REMARK Flexibility Score: inf
ROOT
ATOM      1  C   UNL     1     172.369 179.356 199.260  1.00  0.00     0.063 C 
ATOM      2  C   UNL     1     172.371 177.865 199.284  1.00  0.00     0.038 C 
ATOM      3  O   UNL     1     173.225 177.224 198.618  1.00  0.00    -0.550 OA
ATOM      4  O   UNL     1     171.395 177.178 199.995  1.00  0.00    -0.550 OA
ENDROOT
TORSDOF 0
ENDMDL
MODEL 8
REMARK VINA RESULT:    -0.943      2.153      2.413
REMARK INTER + INTRA:          -0.943
REMARK INTER:                  -0.943
REMARK INTRA:                   0.000
REMARK UNBOUND:                 0.000
REMARK SMILES CC(=O)[O-]
REMARK SMILES IDX 1 1 2 2 3 3 4 4
REMARK H PARENT
REMARK Flexibility Score: inf
ROOT
ATOM      1  C   UNL     1     172.679 176.875 195.613  1.00  0.00     0.063 C 
ATOM      2  C   UNL     1     173.328 177.302 196.886  1.00  0.00     0.038 C 
ATOM      3  O   UNL     1     172.715 177.185 197.979  1.00  0.00    -0.550 OA
ATOM      4  O   UNL     1     174.591 177.883 196.864  1.00  0.00    -0.550 OA
ENDROOT
TORSDOF 0
ENDMDL
