MODEL 1
REMARK VINA RESULT:    -2.111      0.000      0.000
REMARK INTER + INTRA:          -2.918
REMARK INTER:                  -2.727
REMARK INTRA:                  -0.191
REMARK UNBOUND:                -0.191
REMARK SMILES CCCCCCC(=O)[O-]
REMARK SMILES IDX 5 1 6 2 7 3 8 4 9 5 4 6 3 7 2 8 1 9
REMARK H PARENT
REMARK Flexibility Score: inf
ROOT
ATOM      1  C   UNL     1      16.181  38.275  47.178  1.00  0.00     0.006 C 
ENDROOT
BRANCH   1   2
ATOM      2  C   UNL     1      15.266  39.505  47.192  1.00  0.00     0.053 C 
BRANCH   2   3
ATOM      3  C   UNL     1      13.903  39.149  46.689  1.00  0.00     0.041 C 
ATOM      4  O   UNL     1      13.268  39.953  45.957  1.00  0.00    -0.550 OA
ATOM      5  O   UNL     1      13.354  37.908  46.987  1.00  0.00    -0.550 OA
ENDBRANCH   2   3
ENDBRANCH   1   2
BRANCH   1   6
ATOM      6  C   UNL     1      17.308  38.379  46.136  1.00  0.00     0.000 C 
BRANCH   6   7
ATOM      7  C   UNL     1      18.555  37.521  46.434  1.00  0.00    -0.000 C 
BRANCH   7   8
ATOM      8  C   UNL     1      19.709  38.269  47.125  1.00  0.00    -0.003 C 
ATOM      9  C   UNL     1      19.767  39.749  46.750  1.00  0.00     0.004 C 
ENDBRANCH   7   8
ENDBRANCH   6   7
ENDBRANCH   1   6
TORSDOF 5
ENDMDL
MODEL 2
REMARK VINA RESULT:    -1.148      3.144      5.201
REMARK INTER + INTRA:          -1.674
REMARK INTER:                  -1.512
REMARK INTRA:                  -0.162
REMARK UNBOUND:                -0.191
REMARK SMILES CCCCCCC(=O)[O-]
REMARK SMILES IDX 5 1 6 2 7 3 8 4 9 5 4 6 3 7 2 8 1 9
REMARK H PARENT
REMARK Flexibility Score: inf
ROOT
ATOM      1  C   UNL     1      16.837  38.663  46.088  1.00  0.00     0.006 C 
ENDROOT
BRANCH   1   2
ATOM      2  C   UNL     1      17.927  37.630  46.394  1.00  0.00     0.053 C 
BRANCH   2   3
ATOM      3  C   UNL     1      19.178  38.311  46.852  1.00  0.00     0.041 C 
ATOM      4  O   UNL     1      20.192  37.631  47.162  1.00  0.00    -0.550 OA
ATOM      5  O   UNL     1      19.241  39.698  46.890  1.00  0.00    -0.550 OA
ENDBRANCH   2   3
ENDBRANCH   1   2
BRANCH   1   6
ATOM      6  C   UNL     1      15.952  38.978  47.307  1.00  0.00     0.000 C 
BRANCH   6   7
ATOM      7  C   UNL     1      14.662  39.765  46.993  1.00  0.00    -0.000 C 
BRANCH   7   8
ATOM      8  C   UNL     1      13.467  38.903  46.550  1.00  0.00    -0.003 C 
ATOM      9  C   UNL     1      13.414  37.551  47.260  1.00  0.00     0.004 C 
ENDBRANCH   7   8
ENDBRANCH   6   7
ENDBRANCH   1   6
TORSDOF 5
ENDMDL
MODEL 3
REMARK VINA RESULT:    -1.005     18.129     19.220
REMARK INTER + INTRA:          -1.489
REMARK INTER:                  -1.915
REMARK INTRA:                   0.426
REMARK UNBOUND:                -0.191
REMARK SMILES CCCCCCC(=O)[O-]
REMARK SMILES IDX 5 1 6 2 7 3 8 4 9 5 4 6 3 7 2 8 1 9
REMARK H PARENT
REMARK Flexibility Score: inf
ROOT
ATOM      1  C   UNL     1      17.526  20.191  51.233  1.00  0.00     0.006 C 
ENDROOT
BRANCH   1   2
ATOM      2  C   UNL     1      16.951  19.943  52.633  1.00  0.00     0.053 C 
BRANCH   2   3
ATOM      3  C   UNL     1      15.456  19.909  52.584  1.00  0.00     0.041 C 
ATOM      4  O   UNL     1      14.787  19.950  53.650  1.00  0.00    -0.550 OA
ATOM      5  O   UNL     1      14.800  19.881  51.360  1.00  0.00    -0.550 OA
ENDBRANCH   2   3
ENDBRANCH   1   2
BRANCH   1   6
ATOM      6  C   UNL     1      19.061  20.086  51.190  1.00  0.00     0.000 C 
BRANCH   6   7
ATOM      7  C   UNL     1      19.665  19.902  49.782  1.00  0.00    -0.000 C 
BRANCH   7   8
ATOM      8  C   UNL     1      18.714  20.234  48.619  1.00  0.00    -0.003 C 
ATOM      9  C   UNL     1      18.123  21.640  48.716  1.00  0.00     0.004 C 
ENDBRANCH   7   8
ENDBRANCH   6   7
ENDBRANCH   1   6
TORSDOF 5
ENDMDL
MODEL 4
REMARK VINA RESULT:    -0.287     19.052     19.924
REMARK INTER + INTRA:          -0.562
REMARK INTER:                  -0.837
REMARK INTRA:                   0.276
REMARK UNBOUND:                -0.191
REMARK SMILES CCCCCCC(=O)[O-]
REMARK SMILES IDX 5 1 6 2 7 3 8 4 9 5 4 6 3 7 2 8 1 9
REMARK H PARENT
REMARK Flexibility Score: inf
ROOT
ATOM      1  C   UNL     1      18.806  20.727  50.126  1.00  0.00     0.006 C 
ENDROOT
BRANCH   1   2
ATOM      2  C   UNL     1      20.095  19.950  50.419  1.00  0.00     0.053 C 
BRANCH   2   3
ATOM      3  C   UNL     1      20.530  20.173  51.833  1.00  0.00     0.041 C 
ATOM      4  O   UNL     1      19.763  19.875  52.785  1.00  0.00    -0.550 OA
ATOM      5  O   UNL     1      21.801  20.666  52.100  1.00  0.00    -0.550 OA
ENDBRANCH   2   3
ENDBRANCH   1   2
BRANCH   1   6
ATOM      6  C   UNL     1      17.539  19.875  50.311  1.00  0.00     0.000 C 
BRANCH   6   7
ATOM      7  C   UNL     1      16.952  19.877  51.738  1.00  0.00    -0.000 C 
BRANCH   7   8
ATOM      8  C   UNL     1      15.466  20.265  51.829  1.00  0.00    -0.003 C 
ATOM      9  C   UNL     1      14.908  20.158  53.248  1.00  0.00     0.004 C 
ENDBRANCH   7   8
ENDBRANCH   6   7
ENDBRANCH   1   6
TORSDOF 5
ENDMDL
MODEL 5
REMARK VINA RESULT:     0.725     18.193     19.423
REMARK INTER + INTRA:           0.746
REMARK INTER:                   0.524
REMARK INTRA:                   0.222
REMARK UNBOUND:                -0.191
REMARK SMILES CCCCCCC(=O)[O-]
REMARK SMILES IDX 5 1 6 2 7 3 8 4 9 5 4 6 3 7 2 8 1 9
REMARK H PARENT
REMARK Flexibility Score: inf
ROOT
ATOM      1  C   UNL     1      18.207  20.004  52.536  1.00  0.00     0.006 C 
ENDROOT
BRANCH   1   2
ATOM      2  C   UNL     1      19.050  19.892  51.261  1.00  0.00     0.053 C 
BRANCH   2   3
ATOM      3  C   UNL     1      20.482  20.215  51.551  1.00  0.00     0.041 C 
ATOM      4  O   UNL     1      21.178  20.827  50.700  1.00  0.00    -0.550 OA
ATOM      5  O   UNL     1      21.034  19.882  52.781  1.00  0.00    -0.550 OA
ENDBRANCH   2   3
ENDBRANCH   1   2
BRANCH   1   6
ATOM      6  C   UNL     1      16.697  19.876  52.269  1.00  0.00     0.000 C 
BRANCH   6   7
ATOM      7  C   UNL     1      16.239  20.335  50.868  1.00  0.00    -0.000 C 
BRANCH   7   8
ATOM      8  C   UNL     1      16.478  21.824  50.562  1.00  0.00    -0.003 C 
ATOM      9  C   UNL     1      17.461  22.044  49.413  1.00  0.00     0.004 C 
ENDBRANCH   7   8
ENDBRANCH   6   7
ENDBRANCH   1   6
TORSDOF 5
ENDMDL
MODEL 6
REMARK VINA RESULT:     0.739      1.999      2.602
REMARK INTER + INTRA:           0.764
REMARK INTER:                   1.041
REMARK INTRA:                  -0.277
REMARK UNBOUND:                -0.191
REMARK SMILES CCCCCCC(=O)[O-]
REMARK SMILES IDX 5 1 6 2 7 3 8 4 9 5 4 6 3 7 2 8 1 9
REMARK H PARENT
REMARK Flexibility Score: inf
ROOT
ATOM      1  C   UNL     1      14.554  38.965  47.587  1.00  0.00     0.006 C 
ENDROOT
BRANCH   1   2
ATOM      2  C   UNL     1      13.513  37.909  47.199  1.00  0.00     0.053 C 
BRANCH   2   3
ATOM      3  C   UNL     1      13.845  36.592  47.828  1.00  0.00     0.041 C 
ATOM      4  O   UNL     1      14.865  36.479  48.558  1.00  0.00    -0.550 OA
ATOM      5  O   UNL     1      13.002  35.503  47.648  1.00  0.00    -0.550 OA
ENDBRANCH   2   3
ENDBRANCH   1   2
BRANCH   1   6
ATOM      6  C   UNL     1      15.407  39.431  46.394  1.00  0.00     0.000 C 
BRANCH   6   7
ATOM      7  C   UNL     1      16.544  38.470  45.989  1.00  0.00    -0.000 C 
BRANCH   7   8
ATOM      8  C   UNL     1      17.573  38.177  47.096  1.00  0.00    -0.003 C 
ATOM      9  C   UNL     1      18.995  38.578  46.707  1.00  0.00     0.004 C 
ENDBRANCH   7   8
ENDBRANCH   6   7
ENDBRANCH   1   6
TORSDOF 5
ENDMDL
