MODEL 1
REMARK VINA RESULT:    -4.239      0.000      0.000
REMARK INTER + INTRA:          -6.802
REMARK INTER:                  -6.222
REMARK INTRA:                  -0.580
REMARK UNBOUND:                -0.580
REMARK SMILES O=C([O-])CCCCCCCC(=O)[O-]
REMARK SMILES IDX 7 1 6 2 5 3 4 4 2 5 1 6 3 7 8 8 9 9 10 10 11 11 12 12 13 13
REMARK H PARENT
REMARK Flexibility Score: inf
ROOT
ATOM      1  C   UNL     1     120.372 179.251 124.285  1.00  0.00     0.000 C 
ENDROOT
BRANCH   1   2
ATOM      2  C   UNL     1     120.264 179.821 125.708  1.00  0.00     0.000 C 
BRANCH   2   3
ATOM      3  C   UNL     1     121.347 179.272 126.649  1.00  0.00     0.006 C 
BRANCH   3   4
ATOM      4  C   UNL     1     120.740 178.827 127.983  1.00  0.00     0.053 C 
BRANCH   4   5
ATOM      5  C   UNL     1     120.332 177.389 127.918  1.00  0.00     0.041 C 
ATOM      6  O   UNL     1     119.137 177.058 128.141  1.00  0.00    -0.550 OA
ATOM      7  O   UNL     1     121.260 176.418 127.563  1.00  0.00    -0.550 OA
ENDBRANCH   4   5
ENDBRANCH   3   4
ENDBRANCH   2   3
ENDBRANCH   1   2
BRANCH   1   8
ATOM      8  C   UNL     1     119.365 178.122 124.021  1.00  0.00     0.000 C 
BRANCH   8   9
ATOM      9  C   UNL     1     118.156 178.236 124.961  1.00  0.00     0.006 C 
BRANCH   9  10
ATOM     10  C   UNL     1     116.864 178.578 124.206  1.00  0.00     0.053 C 
BRANCH  10  11
ATOM     11  C   UNL     1     115.953 179.437 125.027  1.00  0.00     0.041 C 
ATOM     12  O   UNL     1     114.899 178.955 125.519  1.00  0.00    -0.550 OA
ATOM     13  O   UNL     1     116.252 180.779 125.224  1.00  0.00    -0.550 OA
ENDBRANCH  10  11
ENDBRANCH   9  10
ENDBRANCH   8   9
ENDBRANCH   1   8
TORSDOF 8
ENDMDL
MODEL 2
REMARK VINA RESULT:    -4.233      0.919      5.219
REMARK INTER + INTRA:          -6.793
REMARK INTER:                  -6.317
REMARK INTRA:                  -0.476
REMARK UNBOUND:                -0.580
REMARK SMILES O=C([O-])CCCCCCCC(=O)[O-]
REMARK SMILES IDX 7 1 6 2 5 3 4 4 2 5 1 6 3 7 8 8 9 9 10 10 11 11 12 12 13 13
REMARK H PARENT
REMARK Flexibility Score: inf
ROOT
ATOM      1  C   UNL     1     119.181 178.417 123.889  1.00  0.00     0.000 C 
ENDROOT
BRANCH   1   2
ATOM      2  C   UNL     1     118.241 178.066 125.053  1.00  0.00     0.000 C 
BRANCH   2   3
ATOM      3  C   UNL     1     116.762 178.297 124.710  1.00  0.00     0.006 C 
BRANCH   3   4
ATOM      4  C   UNL     1     115.908 178.358 125.980  1.00  0.00     0.053 C 
BRANCH   4   5
ATOM      5  C   UNL     1     114.980 179.531 125.933  1.00  0.00     0.041 C 
ATOM      6  O   UNL     1     113.740 179.353 125.801  1.00  0.00    -0.550 OA
ATOM      7  O   UNL     1     115.479 180.818 126.085  1.00  0.00    -0.550 OA
ENDBRANCH   4   5
ENDBRANCH   3   4
ENDBRANCH   2   3
ENDBRANCH   1   2
BRANCH   1   8
ATOM      8  C   UNL     1     120.501 179.044 124.362  1.00  0.00     0.000 C 
BRANCH   8   9
ATOM      9  C   UNL     1     120.328 179.716 125.732  1.00  0.00     0.006 C 
BRANCH   9  10
ATOM     10  C   UNL     1     121.421 179.300 126.725  1.00  0.00     0.053 C 
BRANCH  10  11
ATOM     11  C   UNL     1     121.141 177.957 127.328  1.00  0.00     0.041 C 
ATOM     12  O   UNL     1     121.896 176.981 127.083  1.00  0.00    -0.550 OA
ATOM     13  O   UNL     1     120.027 177.778 128.138  1.00  0.00    -0.550 OA
ENDBRANCH  10  11
ENDBRANCH   9  10
ENDBRANCH   8   9
ENDBRANCH   1   8
TORSDOF 8
ENDMDL
MODEL 3
REMARK VINA RESULT:    -4.229      7.679      9.734
REMARK INTER + INTRA:          -6.787
REMARK INTER:                  -5.983
REMARK INTRA:                  -0.804
REMARK UNBOUND:                -0.580
REMARK SMILES O=C([O-])CCCCCCCC(=O)[O-]
REMARK SMILES IDX 7 1 6 2 5 3 4 4 2 5 1 6 3 7 8 8 9 9 10 10 11 11 12 12 13 13
REMARK H PARENT
REMARK Flexibility Score: inf
ROOT
ATOM      1  C   UNL     1     124.693 176.586 123.079  1.00  0.00     0.000 C 
ENDROOT
BRANCH   1   2
ATOM      2  C   UNL     1     123.366 177.175 122.574  1.00  0.00     0.000 C 
BRANCH   2   3
ATOM      3  C   UNL     1     123.555 178.123 121.380  1.00  0.00     0.006 C 
BRANCH   3   4
ATOM      4  C   UNL     1     123.778 177.334 120.085  1.00  0.00     0.053 C 
BRANCH   4   5
ATOM      5  C   UNL     1     124.908 177.923 119.301  1.00  0.00     0.041 C 
ATOM      6  O   UNL     1     125.199 179.142 119.426  1.00  0.00    -0.550 OA
ATOM      7  O   UNL     1     125.673 177.115 118.469  1.00  0.00    -0.550 OA
ENDBRANCH   4   5
ENDBRANCH   3   4
ENDBRANCH   2   3
ENDBRANCH   1   2
BRANCH   1   8
ATOM      8  C   UNL     1     125.367 177.467 124.140  1.00  0.00     0.000 C 
BRANCH   8   9
ATOM      9  C   UNL     1     126.861 177.647 123.835  1.00  0.00     0.006 C 
BRANCH   9  10
ATOM     10  C   UNL     1     127.099 178.481 122.569  1.00  0.00     0.053 C 
BRANCH  10  11
ATOM     11  C   UNL     1     127.861 177.712 121.533  1.00  0.00     0.041 C 
ATOM     12  O   UNL     1     128.343 178.303 120.532  1.00  0.00    -0.550 OA
ATOM     13  O   UNL     1     128.012 176.337 121.659  1.00  0.00    -0.550 OA
ENDBRANCH  10  11
ENDBRANCH   9  10
ENDBRANCH   8   9
ENDBRANCH   1   8
TORSDOF 8
ENDMDL
MODEL 4
REMARK VINA RESULT:    -4.227      1.973      4.591
REMARK INTER + INTRA:          -6.785
REMARK INTER:                  -5.962
REMARK INTRA:                  -0.823
REMARK UNBOUND:                -0.580
REMARK SMILES O=C([O-])CCCCCCCC(=O)[O-]
REMARK SMILES IDX 7 1 6 2 5 3 4 4 2 5 1 6 3 7 8 8 9 9 10 10 11 11 12 12 13 13
REMARK H PARENT
REMARK Flexibility Score: inf
ROOT
ATOM      1  C   UNL     1     120.830 178.759 123.798  1.00  0.00     0.000 C 
ENDROOT
BRANCH   1   2
ATOM      2  C   UNL     1     120.368 179.512 125.057  1.00  0.00     0.000 C 
BRANCH   2   3
ATOM      3  C   UNL     1     118.890 179.259 125.389  1.00  0.00     0.006 C 
BRANCH   3   4
ATOM      4  C   UNL     1     118.218 178.423 124.295  1.00  0.00     0.053 C 
BRANCH   4   5
ATOM      5  C   UNL     1     116.740 178.359 124.519  1.00  0.00     0.041 C 
ATOM      6  O   UNL     1     115.946 178.772 123.633  1.00  0.00    -0.550 OA
ATOM      7  O   UNL     1     116.237 177.797 125.686  1.00  0.00    -0.550 OA
ENDBRANCH   4   5
ENDBRANCH   3   4
ENDBRANCH   2   3
ENDBRANCH   1   2
BRANCH   1   8
ATOM      8  C   UNL     1     121.927 177.727 124.094  1.00  0.00     0.000 C 
BRANCH   8   9
ATOM      9  C   UNL     1     121.401 176.297 123.903  1.00  0.00     0.006 C 
BRANCH   9  10
ATOM     10  C   UNL     1     121.428 175.488 125.206  1.00  0.00     0.053 C 
BRANCH  10  11
ATOM     11  C   UNL     1     120.270 175.827 126.094  1.00  0.00     0.041 C 
ATOM     12  O   UNL     1     119.117 175.402 125.822  1.00  0.00    -0.550 OA
ATOM     13  O   UNL     1     120.459 176.639 127.205  1.00  0.00    -0.550 OA
ENDBRANCH  10  11
ENDBRANCH   9  10
ENDBRANCH   8   9
ENDBRANCH   1   8
TORSDOF 8
ENDMDL
MODEL 5
REMARK VINA RESULT:    -4.204      8.082      9.327
REMARK INTER + INTRA:          -6.751
REMARK INTER:                  -6.016
REMARK INTRA:                  -0.734
REMARK UNBOUND:                -0.580
REMARK SMILES O=C([O-])CCCCCCCC(=O)[O-]
REMARK SMILES IDX 7 1 6 2 5 3 4 4 2 5 1 6 3 7 8 8 9 9 10 10 11 11 12 12 13 13
REMARK H PARENT
REMARK Flexibility Score: inf
ROOT
ATOM      1  C   UNL     1     124.819 176.641 122.918  1.00  0.00     0.000 C 
ENDROOT
BRANCH   1   2
ATOM      2  C   UNL     1     125.531 177.390 124.055  1.00  0.00     0.000 C 
BRANCH   2   3
ATOM      3  C   UNL     1     127.055 177.435 123.872  1.00  0.00     0.006 C 
BRANCH   3   4
ATOM      4  C   UNL     1     127.444 178.409 122.755  1.00  0.00     0.053 C 
BRANCH   4   5
ATOM      5  C   UNL     1     128.242 177.706 121.702  1.00  0.00     0.041 C 
ATOM      6  O   UNL     1     129.338 178.187 121.312  1.00  0.00    -0.550 OA
ATOM      7  O   UNL     1     127.799 176.494 121.188  1.00  0.00    -0.550 OA
ENDBRANCH   4   5
ENDBRANCH   3   4
ENDBRANCH   2   3
ENDBRANCH   1   2
BRANCH   1   8
ATOM      8  C   UNL     1     123.854 177.538 122.130  1.00  0.00     0.000 C 
BRANCH   8   9
ATOM      9  C   UNL     1     124.074 177.384 120.618  1.00  0.00     0.006 C 
BRANCH   9  10
ATOM     10  C   UNL     1     124.962 178.496 120.044  1.00  0.00     0.053 C 
BRANCH  10  11
ATOM     11  C   UNL     1     125.404 178.188 118.646  1.00  0.00     0.041 C 
ATOM     12  O   UNL     1     124.565 178.154 117.709  1.00  0.00    -0.550 OA
ATOM     13  O   UNL     1     126.739 177.907 118.384  1.00  0.00    -0.550 OA
ENDBRANCH  10  11
ENDBRANCH   9  10
ENDBRANCH   8   9
ENDBRANCH   1   8
TORSDOF 8
ENDMDL
MODEL 6
REMARK VINA RESULT:    -4.203      2.128      2.908
REMARK INTER + INTRA:          -6.749
REMARK INTER:                  -5.913
REMARK INTRA:                  -0.836
REMARK UNBOUND:                -0.580
REMARK SMILES O=C([O-])CCCCCCCC(=O)[O-]
REMARK SMILES IDX 7 1 6 2 5 3 4 4 2 5 1 6 3 7 8 8 9 9 10 10 11 11 12 12 13 13
REMARK H PARENT
REMARK Flexibility Score: inf
ROOT
ATOM      1  C   UNL     1     118.887 176.387 126.467  1.00  0.00     0.000 C 
ENDROOT
BRANCH   1   2
ATOM      2  C   UNL     1     120.309 176.847 126.826  1.00  0.00     0.000 C 
BRANCH   2   3
ATOM      3  C   UNL     1     120.332 178.228 127.498  1.00  0.00     0.006 C 
BRANCH   3   4
ATOM      4  C   UNL     1     121.078 179.247 126.630  1.00  0.00     0.053 C 
BRANCH   4   5
ATOM      5  C   UNL     1     120.217 179.695 125.491  1.00  0.00     0.041 C 
ATOM      6  O   UNL     1     119.251 180.477 125.695  1.00  0.00    -0.550 OA
ATOM      7  O   UNL     1     120.512 179.289 124.195  1.00  0.00    -0.550 OA
ENDBRANCH   4   5
ENDBRANCH   3   4
ENDBRANCH   2   3
ENDBRANCH   1   2
BRANCH   1   8
ATOM      8  C   UNL     1     117.814 177.022 127.362  1.00  0.00     0.000 C 
BRANCH   8   9
ATOM      9  C   UNL     1     116.746 177.732 126.518  1.00  0.00     0.006 C 
BRANCH   9  10
ATOM     10  C   UNL     1     117.098 177.741 125.024  1.00  0.00     0.053 C 
BRANCH  10  11
ATOM     11  C   UNL     1     116.420 178.865 124.301  1.00  0.00     0.041 C 
ATOM     12  O   UNL     1     116.271 178.817 123.053  1.00  0.00    -0.550 OA
ATOM     13  O   UNL     1     115.981 179.979 125.005  1.00  0.00    -0.550 OA
ENDBRANCH  10  11
ENDBRANCH   9  10
ENDBRANCH   8   9
ENDBRANCH   1   8
TORSDOF 8
ENDMDL
MODEL 7
REMARK VINA RESULT:    -4.198      8.392      9.884
REMARK INTER + INTRA:          -6.742
REMARK INTER:                  -5.919
REMARK INTRA:                  -0.823
REMARK UNBOUND:                -0.580
REMARK SMILES O=C([O-])CCCCCCCC(=O)[O-]
REMARK SMILES IDX 7 1 6 2 5 3 4 4 2 5 1 6 3 7 8 8 9 9 10 10 11 11 12 12 13 13
REMARK H PARENT
REMARK Flexibility Score: inf
ROOT
ATOM      1  C   UNL     1     125.997 177.436 122.920  1.00  0.00     0.000 C 
ENDROOT
BRANCH   1   2
ATOM      2  C   UNL     1     127.078 178.363 122.340  1.00  0.00     0.000 C 
BRANCH   2   3
ATOM      3  C   UNL     1     128.281 177.591 121.778  1.00  0.00     0.006 C 
BRANCH   3   4
ATOM      4  C   UNL     1     128.389 177.775 120.261  1.00  0.00     0.053 C 
BRANCH   4   5
ATOM      5  C   UNL     1     128.329 176.452 119.566  1.00  0.00     0.041 C 
ATOM      6  O   UNL     1     128.063 175.406 120.216  1.00  0.00    -0.550 OA
ATOM      7  O   UNL     1     128.519 176.378 118.192  1.00  0.00    -0.550 OA
ENDBRANCH   4   5
ENDBRANCH   3   4
ENDBRANCH   2   3
ENDBRANCH   1   2
BRANCH   1   8
ATOM      8  C   UNL     1     125.192 176.711 121.832  1.00  0.00     0.000 C 
BRANCH   8   9
ATOM      9  C   UNL     1     123.964 177.535 121.420  1.00  0.00     0.006 C 
BRANCH   9  10
ATOM     10  C   UNL     1     123.673 177.431 119.917  1.00  0.00     0.053 C 
BRANCH  10  11
ATOM     11  C   UNL     1     124.780 178.017 119.095  1.00  0.00     0.041 C 
ATOM     12  O   UNL     1     125.244 179.153 119.376  1.00  0.00    -0.550 OA
ATOM     13  O   UNL     1     125.276 177.322 118.000  1.00  0.00    -0.550 OA
ENDBRANCH  10  11
ENDBRANCH   9  10
ENDBRANCH   8   9
ENDBRANCH   1   8
TORSDOF 8
ENDMDL
MODEL 8
REMARK VINA RESULT:    -4.174      1.679      5.683
REMARK INTER + INTRA:          -6.706
REMARK INTER:                  -6.233
REMARK INTRA:                  -0.473
REMARK UNBOUND:                -0.580
REMARK SMILES O=C([O-])CCCCCCCC(=O)[O-]
REMARK SMILES IDX 7 1 6 2 5 3 4 4 2 5 1 6 3 7 8 8 9 9 10 10 11 11 12 12 13 13
REMARK H PARENT
REMARK Flexibility Score: inf
ROOT
ATOM      1  C   UNL     1     118.818 178.440 124.724  1.00  0.00     0.000 C 
ENDROOT
BRANCH   1   2
ATOM      2  C   UNL     1     118.349 177.382 125.735  1.00  0.00     0.000 C 
BRANCH   2   3
ATOM      3  C   UNL     1     116.965 177.697 126.323  1.00  0.00     0.006 C 
BRANCH   3   4
ATOM      4  C   UNL     1     115.978 178.093 125.220  1.00  0.00     0.053 C 
BRANCH   4   5
ATOM      5  C   UNL     1     115.227 179.327 125.608  1.00  0.00     0.041 C 
ATOM      6  O   UNL     1     115.829 180.428 125.720  1.00  0.00    -0.550 OA
ATOM      7  O   UNL     1     113.851 179.273 125.797  1.00  0.00    -0.550 OA
ENDBRANCH   4   5
ENDBRANCH   3   4
ENDBRANCH   2   3
ENDBRANCH   1   2
BRANCH   1   8
ATOM      8  C   UNL     1     119.535 179.622 125.394  1.00  0.00     0.000 C 
BRANCH   8   9
ATOM      9  C   UNL     1     120.438 179.138 126.537  1.00  0.00     0.006 C 
BRANCH   9  10
ATOM     10  C   UNL     1     121.808 178.663 126.034  1.00  0.00     0.053 C 
BRANCH  10  11
ATOM     11  C   UNL     1     122.828 178.652 127.131  1.00  0.00     0.041 C 
ATOM     12  O   UNL     1     122.859 177.705 127.959  1.00  0.00    -0.550 OA
ATOM     13  O   UNL     1     123.726 179.705 127.256  1.00  0.00    -0.550 OA
ENDBRANCH  10  11
ENDBRANCH   9  10
ENDBRANCH   8   9
ENDBRANCH   1   8
TORSDOF 8
ENDMDL
MODEL 9
REMARK VINA RESULT:    -4.138      2.226      4.806
REMARK INTER + INTRA:          -6.653
REMARK INTER:                  -5.748
REMARK INTRA:                  -0.905
REMARK UNBOUND:                -0.580
REMARK SMILES O=C([O-])CCCCCCCC(=O)[O-]
REMARK SMILES IDX 7 1 6 2 5 3 4 4 2 5 1 6 3 7 8 8 9 9 10 10 11 11 12 12 13 13
REMARK H PARENT
REMARK Flexibility Score: inf
ROOT
ATOM      1  C   UNL     1     123.742 178.191 126.124  1.00  0.00     0.000 C 
ENDROOT
BRANCH   1   2
ATOM      2  C   UNL     1     122.937 177.136 125.348  1.00  0.00     0.000 C 
BRANCH   2   3
ATOM      3  C   UNL     1     122.008 177.756 124.294  1.00  0.00     0.006 C 
BRANCH   3   4
ATOM      4  C   UNL     1     120.556 177.323 124.521  1.00  0.00     0.053 C 
BRANCH   4   5
ATOM      5  C   UNL     1     119.634 178.495 124.396  1.00  0.00     0.041 C 
ATOM      6  O   UNL     1     119.880 179.564 125.015  1.00  0.00    -0.550 OA
ATOM      7  O   UNL     1     118.529 178.424 123.557  1.00  0.00    -0.550 OA
ENDBRANCH   4   5
ENDBRANCH   3   4
ENDBRANCH   2   3
ENDBRANCH   1   2
BRANCH   1   8
ATOM      8  C   UNL     1     122.845 179.163 126.905  1.00  0.00     0.000 C 
BRANCH   8   9
ATOM      9  C   UNL     1     122.289 178.497 128.172  1.00  0.00     0.006 C 
BRANCH   9  10
ATOM     10  C   UNL     1     120.759 178.580 128.248  1.00  0.00     0.053 C 
BRANCH  10  11
ATOM     11  C   UNL     1     120.121 177.233 128.089  1.00  0.00     0.041 C 
ATOM     12  O   UNL     1     118.870 177.130 128.002  1.00  0.00    -0.550 OA
ATOM     13  O   UNL     1     120.909 176.090 128.069  1.00  0.00    -0.550 OA
ENDBRANCH  10  11
ENDBRANCH   9  10
ENDBRANCH   8   9
ENDBRANCH   1   8
TORSDOF 8
ENDMDL
