MODEL 1
REMARK VINA RESULT:    -4.198      0.000      0.000
REMARK INTER + INTRA:          -4.556
REMARK INTER:                  -5.179
REMARK INTRA:                   0.623
REMARK UNBOUND:                 0.623
REMARK SMILES C=C1[C@@H]2CC[C@H]3[C@@H]2C(C)(C)CCC[C@@]13C
REMARK SMILES IDX 14 1 6 2 7 3 3 4 2 5 1 6 4 7 5 8 15 9 8 10 9 11 10 12 11 13
REMARK SMILES IDX 13 15 12 16
REMARK H PARENT
REMARK Flexibility Score: 80.00
ROOT
ATOM      1  C   UNL     1      -0.698   3.308  12.728  1.00  0.00    -0.008 C 
ATOM      2  C   UNL     1       0.029   2.484  13.862  1.00  0.00     0.003 C 
ATOM      3  C   UNL     1      -1.094   1.666  14.531  1.00  0.00     0.006 C 
ATOM      4  C   UNL     1      -1.983   2.888  14.762  1.00  0.00     0.019 C 
ATOM      5  C   UNL     1      -2.040   3.499  13.390  1.00  0.00    -0.068 C 
ATOM      6  C   UNL     1      -3.081   4.176  12.892  1.00  0.00     0.009 C 
ATOM      7  C   UNL     1      -1.040   3.781  15.604  1.00  0.00     0.008 C 
ATOM      8  C   UNL     1       0.363   3.424  15.054  1.00  0.00     0.005 C 
ATOM      9  C   UNL     1      -0.032   4.680  12.434  1.00  0.00     0.016 C 
ENDROOT
BRANCH   3  10
ATOM     10  C   UNL     1      -1.686   0.385  13.799  1.00  0.00    -0.032 C 
ATOM     11  C   UNL     1      -1.119  -0.875  14.511  1.00  0.00     0.011 C 
ATOM     12  C   UNL     1      -3.227   0.307  13.947  1.00  0.00     0.011 C 
BRANCH  10  13
ATOM     13  C   UNL     1      -1.273   0.233  12.307  1.00  0.00     0.007 CG0
ATOM     14  G   UNL     1      -1.736   1.346  11.371  1.00  0.00     0.000 G0
ENDBRANCH  10  13
ENDBRANCH   3  10
BRANCH   1  15
ATOM     15  C   UNL     1      -0.782   2.537  11.384  1.00  0.00     0.011 C 
BRANCH  15  16
ATOM     16  C   UNL     1      -1.716   1.329  11.364  1.00  0.00     0.001 CG0
ATOM     17  G   UNL     1      -1.269   0.231  12.325  1.00  0.00     0.000 G0
ENDBRANCH  15  16
ENDBRANCH   1  15
TORSDOF 0
ENDMDL
MODEL 2
REMARK VINA RESULT:    -4.124      2.414      4.825
REMARK INTER + INTRA:          -4.466
REMARK INTER:                  -5.106
REMARK INTRA:                   0.640
REMARK UNBOUND:                 0.623
REMARK SMILES C=C1[C@@H]2CC[C@H]3[C@@H]2C(C)(C)CCC[C@@]13C
REMARK SMILES IDX 14 1 6 2 7 3 3 4 2 5 1 6 4 7 5 8 15 9 8 10 9 11 10 12 11 13
REMARK SMILES IDX 13 15 12 16
REMARK H PARENT
REMARK Flexibility Score: 80.00
ROOT
ATOM      1  C   UNL     1      -1.232   3.192  13.741  1.00  0.00    -0.008 C 
ATOM      2  C   UNL     1       0.124   3.373  12.951  1.00  0.00     0.003 C 
ATOM      3  C   UNL     1       0.058   4.807  12.387  1.00  0.00     0.006 C 
ATOM      4  C   UNL     1      -1.314   4.598  11.746  1.00  0.00     0.019 C 
ATOM      5  C   UNL     1      -2.122   4.070  12.897  1.00  0.00    -0.068 C 
ATOM      6  C   UNL     1      -3.432   4.278  13.078  1.00  0.00     0.009 C 
ATOM      7  C   UNL     1      -1.024   3.392  10.821  1.00  0.00     0.008 C 
ATOM      8  C   UNL     1       0.049   2.598  11.606  1.00  0.00     0.005 C 
ATOM      9  C   UNL     1      -1.754   1.729  13.749  1.00  0.00     0.016 C 
ENDROOT
BRANCH   3  10
ATOM     10  C   UNL     1       0.301   6.050  13.348  1.00  0.00    -0.032 C 
ATOM     11  C   UNL     1       1.714   6.618  13.044  1.00  0.00     0.011 C 
ATOM     12  C   UNL     1      -0.698   7.198  13.056  1.00  0.00     0.011 C 
BRANCH  10  13
ATOM     13  C   UNL     1       0.314   5.711  14.866  1.00  0.00     0.007 CG0
ATOM     14  G   UNL     1      -0.988   5.156  15.436  1.00  0.00     0.000 G0
ENDBRANCH  10  13
ENDBRANCH   3  10
BRANCH   1  15
ATOM     15  C   UNL     1      -1.134   3.656  15.218  1.00  0.00     0.011 C 
BRANCH  15  16
ATOM     16  C   UNL     1      -0.990   5.160  15.437  1.00  0.00     0.001 CG0
ATOM     17  G   UNL     1       0.317   5.709  14.872  1.00  0.00     0.000 G0
ENDBRANCH  15  16
ENDBRANCH   1  15
TORSDOF 0
ENDMDL
MODEL 3
REMARK VINA RESULT:    -4.085      3.139      5.396
REMARK INTER + INTRA:          -4.417
REMARK INTER:                  -5.049
REMARK INTRA:                   0.632
REMARK UNBOUND:                 0.623
REMARK SMILES C=C1[C@@H]2CC[C@H]3[C@@H]2C(C)(C)CCC[C@@]13C
REMARK SMILES IDX 14 1 6 2 7 3 3 4 2 5 1 6 4 7 5 8 15 9 8 10 9 11 10 12 11 13
REMARK SMILES IDX 13 15 12 16
REMARK H PARENT
REMARK Flexibility Score: 80.00
ROOT
ATOM      1  C   UNL     1      -1.395   4.752  12.955  1.00  0.00    -0.008 C 
ATOM      2  C   UNL     1      -0.291   4.357  11.897  1.00  0.00     0.003 C 
ATOM      3  C   UNL     1      -0.868   4.817  10.542  1.00  0.00     0.006 C 
ATOM      4  C   UNL     1      -2.195   4.085  10.746  1.00  0.00     0.019 C 
ATOM      5  C   UNL     1      -2.624   4.584  12.098  1.00  0.00    -0.068 C 
ATOM      6  C   UNL     1      -3.893   4.755  12.488  1.00  0.00     0.009 C 
ATOM      7  C   UNL     1      -1.701   2.633  10.948  1.00  0.00     0.008 C 
ATOM      8  C   UNL     1      -0.333   2.823  11.650  1.00  0.00     0.005 C 
ATOM      9  C   UNL     1      -1.447   3.799  14.181  1.00  0.00     0.016 C 
ENDROOT
BRANCH   3  10
ATOM     10  C   UNL     1      -0.866   6.361  10.162  1.00  0.00    -0.032 C 
ATOM     11  C   UNL     1       0.252   6.591   9.109  1.00  0.00     0.011 C 
ATOM     12  C   UNL     1      -2.194   6.780   9.480  1.00  0.00     0.011 C 
BRANCH  10  13
ATOM     13  C   UNL     1      -0.529   7.324  11.336  1.00  0.00     0.007 CG0
ATOM     14  G   UNL     1      -1.510   7.321  12.504  1.00  0.00     0.000 G0
ENDBRANCH  10  13
ENDBRANCH   3  10
BRANCH   1  15
ATOM     15  C   UNL     1      -1.218   6.194  13.498  1.00  0.00     0.011 C 
BRANCH  15  16
ATOM     16  C   UNL     1      -1.507   7.321  12.509  1.00  0.00     0.001 CG0
ATOM     17  G   UNL     1      -0.529   7.332  11.337  1.00  0.00     0.000 G0
ENDBRANCH  15  16
ENDBRANCH   1  15
TORSDOF 0
ENDMDL
MODEL 4
REMARK VINA RESULT:    -4.066      1.590      2.460
REMARK INTER + INTRA:          -4.393
REMARK INTER:                  -5.025
REMARK INTRA:                   0.631
REMARK UNBOUND:                 0.623
REMARK SMILES C=C1[C@@H]2CC[C@H]3[C@@H]2C(C)(C)CCC[C@@]13C
REMARK SMILES IDX 14 1 6 2 7 3 3 4 2 5 1 6 4 7 5 8 15 9 8 10 9 11 10 12 11 13
REMARK SMILES IDX 13 15 12 16
REMARK H PARENT
REMARK Flexibility Score: 80.00
ROOT
ATOM      1  C   UNL     1      -0.985   4.638  11.344  1.00  0.00    -0.008 C 
ATOM      2  C   UNL     1      -0.093   4.902  12.620  1.00  0.00     0.003 C 
ATOM      3  C   UNL     1      -0.960   4.433  13.807  1.00  0.00     0.006 C 
ATOM      4  C   UNL     1      -2.167   5.272  13.386  1.00  0.00     0.019 C 
ATOM      5  C   UNL     1      -2.348   4.864  11.951  1.00  0.00    -0.068 C 
ATOM      6  C   UNL     1      -3.521   4.807  11.309  1.00  0.00     0.009 C 
ATOM      7  C   UNL     1      -1.546   6.689  13.367  1.00  0.00     0.008 C 
ATOM      8  C   UNL     1      -0.081   6.424  12.939  1.00  0.00     0.005 C 
ATOM      9  C   UNL     1      -0.726   5.642  10.188  1.00  0.00     0.016 C 
ENDROOT
BRANCH   3  10
ATOM     10  C   UNL     1      -1.138   2.879  14.093  1.00  0.00    -0.032 C 
ATOM     11  C   UNL     1      -0.267   2.520  15.328  1.00  0.00     0.011 C 
ATOM     12  C   UNL     1      -2.599   2.536  14.479  1.00  0.00     0.011 C 
BRANCH  10  13
ATOM     13  C   UNL     1      -0.641   1.942  12.955  1.00  0.00     0.007 CG0
ATOM     14  G   UNL     1      -1.359   2.081  11.615  1.00  0.00     0.000 G0
ENDBRANCH  10  13
ENDBRANCH   3  10
BRANCH   1  15
ATOM     15  C   UNL     1      -0.800   3.210  10.767  1.00  0.00     0.011 C 
BRANCH  15  16
ATOM     16  C   UNL     1      -1.356   2.069  11.616  1.00  0.00     0.001 CG0
ATOM     17  G   UNL     1      -0.650   1.946  12.963  1.00  0.00     0.000 G0
ENDBRANCH  15  16
ENDBRANCH   1  15
TORSDOF 0
ENDMDL
MODEL 5
REMARK VINA RESULT:    -4.008      2.337      4.153
REMARK INTER + INTRA:          -4.322
REMARK INTER:                  -4.954
REMARK INTRA:                   0.632
REMARK UNBOUND:                 0.623
REMARK SMILES C=C1[C@@H]2CC[C@H]3[C@@H]2C(C)(C)CCC[C@@]13C
REMARK SMILES IDX 14 1 6 2 7 3 3 4 2 5 1 6 4 7 5 8 15 9 8 10 9 11 10 12 11 13
REMARK SMILES IDX 13 15 12 16
REMARK H PARENT
REMARK Flexibility Score: 80.00
ROOT
ATOM      1  C   UNL     1      -1.588   6.153  12.260  1.00  0.00    -0.008 C 
ATOM      2  C   UNL     1      -2.605   5.102  12.855  1.00  0.00     0.003 C 
ATOM      3  C   UNL     1      -2.121   3.740  12.315  1.00  0.00     0.006 C 
ATOM      4  C   UNL     1      -2.092   4.215  10.862  1.00  0.00     0.019 C 
ATOM      5  C   UNL     1      -1.266   5.466  10.956  1.00  0.00    -0.068 C 
ATOM      6  C   UNL     1      -0.456   5.928   9.995  1.00  0.00     0.009 C 
ATOM      7  C   UNL     1      -3.559   4.668  10.673  1.00  0.00     0.008 C 
ATOM      8  C   UNL     1      -3.950   5.185  12.080  1.00  0.00     0.005 C 
ATOM      9  C   UNL     1      -2.217   7.549  12.004  1.00  0.00     0.016 C 
ENDROOT
BRANCH   3  10
ATOM     10  C   UNL     1      -0.836   3.049  12.947  1.00  0.00    -0.032 C 
ATOM     11  C   UNL     1      -1.319   1.873  13.840  1.00  0.00     0.011 C 
ATOM     12  C   UNL     1       0.065   2.419  11.854  1.00  0.00     0.011 C 
BRANCH  10  13
ATOM     13  C   UNL     1       0.003   3.960  13.887  1.00  0.00     0.007 CG0
ATOM     14  G   UNL     1       0.628   5.192  13.238  1.00  0.00     0.000 G0
ENDBRANCH  10  13
ENDBRANCH   3  10
BRANCH   1  15
ATOM     15  C   UNL     1      -0.345   6.364  13.165  1.00  0.00     0.011 C 
BRANCH  15  16
ATOM     16  C   UNL     1       0.631   5.193  13.244  1.00  0.00     0.001 CG0
ATOM     17  G   UNL     1       0.009   3.959  13.891  1.00  0.00     0.000 G0
ENDBRANCH  15  16
ENDBRANCH   1  15
TORSDOF 0
ENDMDL
MODEL 6
REMARK VINA RESULT:    -3.805      2.619      3.717
REMARK INTER + INTRA:          -4.072
REMARK INTER:                  -4.706
REMARK INTRA:                   0.635
REMARK UNBOUND:                 0.623
REMARK SMILES C=C1[C@@H]2CC[C@H]3[C@@H]2C(C)(C)CCC[C@@]13C
REMARK SMILES IDX 14 1 6 2 7 3 3 4 2 5 1 6 4 7 5 8 15 9 8 10 9 11 10 12 11 13
REMARK SMILES IDX 13 15 12 16
REMARK H PARENT
REMARK Flexibility Score: 80.00
ROOT
ATOM      1  C   UNL     1       0.273   5.734  13.413  1.00  0.00    -0.008 C 
ATOM      2  C   UNL     1       0.387   4.163  13.299  1.00  0.00     0.003 C 
ATOM      3  C   UNL     1      -1.021   3.700  12.871  1.00  0.00     0.006 C 
ATOM      4  C   UNL     1      -1.721   4.454  14.002  1.00  0.00     0.019 C 
ATOM      5  C   UNL     1      -1.168   5.842  13.844  1.00  0.00    -0.068 C 
ATOM      6  C   UNL     1      -1.827   6.971  14.132  1.00  0.00     0.009 C 
ATOM      7  C   UNL     1      -1.025   3.839  15.239  1.00  0.00     0.008 C 
ATOM      8  C   UNL     1       0.405   3.540  14.723  1.00  0.00     0.005 C 
ATOM      9  C   UNL     1       1.214   6.348  14.486  1.00  0.00     0.016 C 
ENDROOT
BRANCH   3  10
ATOM     10  C   UNL     1      -1.500   3.905  11.369  1.00  0.00    -0.032 C 
ATOM     11  C   UNL     1      -1.456   2.521  10.663  1.00  0.00     0.011 C 
ATOM     12  C   UNL     1      -2.974   4.377  11.302  1.00  0.00     0.011 C 
BRANCH  10  13
ATOM     13  C   UNL     1      -0.591   4.831  10.512  1.00  0.00     0.007 CG0
ATOM     14  G   UNL     1      -0.489   6.281  10.977  1.00  0.00     0.000 G0
ENDBRANCH  10  13
ENDBRANCH   3  10
BRANCH   1  15
ATOM     15  C   UNL     1       0.568   6.456  12.072  1.00  0.00     0.011 C 
BRANCH  15  16
ATOM     16  C   UNL     1      -0.479   6.282  10.975  1.00  0.00     0.001 CG0
ATOM     17  G   UNL     1      -0.602   4.833  10.512  1.00  0.00     0.000 G0
ENDBRANCH  15  16
ENDBRANCH   1  15
TORSDOF 0
ENDMDL
MODEL 7
REMARK VINA RESULT:    -3.771      1.919      2.774
REMARK INTER + INTRA:          -4.029
REMARK INTER:                  -4.664
REMARK INTRA:                   0.635
REMARK UNBOUND:                 0.623
REMARK SMILES C=C1[C@@H]2CC[C@H]3[C@@H]2C(C)(C)CCC[C@@]13C
REMARK SMILES IDX 14 1 6 2 7 3 3 4 2 5 1 6 4 7 5 8 15 9 8 10 9 11 10 12 11 13
REMARK SMILES IDX 13 15 12 16
REMARK H PARENT
REMARK Flexibility Score: 80.00
ROOT
ATOM      1  C   UNL     1      -0.134   5.859  12.475  1.00  0.00    -0.008 C 
ATOM      2  C   UNL     1       0.811   4.765  13.109  1.00  0.00     0.003 C 
ATOM      3  C   UNL     1      -0.081   4.020  14.124  1.00  0.00     0.006 C 
ATOM      4  C   UNL     1      -0.533   5.304  14.819  1.00  0.00     0.019 C 
ATOM      5  C   UNL     1      -1.021   6.132  13.664  1.00  0.00    -0.068 C 
ATOM      6  C   UNL     1      -2.017   7.024  13.722  1.00  0.00     0.009 C 
ATOM      7  C   UNL     1       0.828   5.902  15.246  1.00  0.00     0.008 C 
ATOM      8  C   UNL     1       1.783   5.441  14.117  1.00  0.00     0.005 C 
ATOM      9  C   UNL     1       0.613   7.149  12.041  1.00  0.00     0.016 C 
ENDROOT
BRANCH   3  10
ATOM     10  C   UNL     1      -1.163   2.974  13.611  1.00  0.00    -0.032 C 
ATOM     11  C   UNL     1      -0.626   1.548  13.910  1.00  0.00     0.011 C 
ATOM     12  C   UNL     1      -2.495   3.107  14.391  1.00  0.00     0.011 C 
BRANCH  10  13
ATOM     13  C   UNL     1      -1.423   3.000  12.078  1.00  0.00     0.007 CG0
ATOM     14  G   UNL     1      -1.992   4.302  11.520  1.00  0.00     0.000 G0
ENDBRANCH  10  13
ENDBRANCH   3  10
BRANCH   1  15
ATOM     15  C   UNL     1      -0.911   5.337  11.237  1.00  0.00     0.011 C 
BRANCH  15  16
ATOM     16  C   UNL     1      -1.993   4.297  11.517  1.00  0.00     0.001 CG0
ATOM     17  G   UNL     1      -1.423   3.003  12.092  1.00  0.00     0.000 G0
ENDBRANCH  15  16
ENDBRANCH   1  15
TORSDOF 0
ENDMDL
MODEL 8
REMARK VINA RESULT:    -3.740      1.992      4.030
REMARK INTER + INTRA:          -3.992
REMARK INTER:                  -4.638
REMARK INTRA:                   0.646
REMARK UNBOUND:                 0.623
REMARK SMILES C=C1[C@@H]2CC[C@H]3[C@@H]2C(C)(C)CCC[C@@]13C
REMARK SMILES IDX 14 1 6 2 7 3 3 4 2 5 1 6 4 7 5 8 15 9 8 10 9 11 10 12 11 13
REMARK SMILES IDX 13 15 12 16
REMARK H PARENT
REMARK Flexibility Score: 80.00
ROOT
ATOM      1  C   UNL     1      -1.583   3.672  11.698  1.00  0.00    -0.008 C 
ATOM      2  C   UNL     1      -0.311   4.575  11.453  1.00  0.00     0.003 C 
ATOM      3  C   UNL     1      -0.249   5.504  12.683  1.00  0.00     0.006 C 
ATOM      4  C   UNL     1      -1.699   5.964  12.532  1.00  0.00     0.019 C 
ATOM      5  C   UNL     1      -2.437   4.658  12.456  1.00  0.00    -0.068 C 
ATOM      6  C   UNL     1      -3.680   4.448  12.906  1.00  0.00     0.009 C 
ATOM      7  C   UNL     1      -1.676   6.543  11.098  1.00  0.00     0.008 C 
ATOM      8  C   UNL     1      -0.637   5.648  10.377  1.00  0.00     0.005 C 
ATOM      9  C   UNL     1      -2.289   3.226  10.389  1.00  0.00     0.016 C 
ENDROOT
BRANCH   3  10
ATOM     10  C   UNL     1       0.261   4.939  14.079  1.00  0.00    -0.032 C 
ATOM     11  C   UNL     1       1.692   5.492  14.322  1.00  0.00     0.011 C 
ATOM     12  C   UNL     1      -0.608   5.458  15.253  1.00  0.00     0.011 C 
BRANCH  10  13
ATOM     13  C   UNL     1       0.402   3.392  14.147  1.00  0.00     0.007 CG0
ATOM     14  G   UNL     1      -0.890   2.596  13.985  1.00  0.00     0.000 G0
ENDBRANCH  10  13
ENDBRANCH   3  10
BRANCH   1  15
ATOM     15  C   UNL     1      -1.261   2.389  12.510  1.00  0.00     0.011 C 
BRANCH  15  16
ATOM     16  C   UNL     1      -0.894   2.600  13.977  1.00  0.00     0.001 CG0
ATOM     17  G   UNL     1       0.403   3.387  14.145  1.00  0.00     0.000 G0
ENDBRANCH  15  16
ENDBRANCH   1  15
TORSDOF 0
ENDMDL
MODEL 9
REMARK VINA RESULT:    -3.704      2.432      4.283
REMARK INTER + INTRA:          -3.947
REMARK INTER:                  -4.585
REMARK INTRA:                   0.638
REMARK UNBOUND:                 0.623
REMARK SMILES C=C1[C@@H]2CC[C@H]3[C@@H]2C(C)(C)CCC[C@@]13C
REMARK SMILES IDX 14 1 6 2 7 3 3 4 2 5 1 6 4 7 5 8 15 9 8 10 9 11 10 12 11 13
REMARK SMILES IDX 13 15 12 16
REMARK H PARENT
REMARK Flexibility Score: 80.00
ROOT
ATOM      1  C   UNL     1      -0.864   3.704  12.225  1.00  0.00    -0.008 C 
ATOM      2  C   UNL     1      -2.250   3.406  12.920  1.00  0.00     0.003 C 
ATOM      3  C   UNL     1      -2.732   4.778  13.435  1.00  0.00     0.006 C 
ATOM      4  C   UNL     1      -1.423   5.074  14.168  1.00  0.00     0.019 C 
ATOM      5  C   UNL     1      -0.401   4.851  13.089  1.00  0.00    -0.068 C 
ATOM      6  C   UNL     1       0.762   5.505  12.983  1.00  0.00     0.009 C 
ATOM      7  C   UNL     1      -1.337   3.855  15.117  1.00  0.00     0.008 C 
ATOM      8  C   UNL     1      -2.004   2.724  14.295  1.00  0.00     0.005 C 
ATOM      9  C   UNL     1       0.137   2.520  12.302  1.00  0.00     0.016 C 
ENDROOT
BRANCH   3  10
ATOM     10  C   UNL     1      -3.326   5.843  12.415  1.00  0.00    -0.032 C 
ATOM     11  C   UNL     1      -4.867   5.879  12.608  1.00  0.00     0.011 C 
ATOM     12  C   UNL     1      -2.818   7.273  12.728  1.00  0.00     0.011 C 
BRANCH  10  13
ATOM     13  C   UNL     1      -3.108   5.504  10.913  1.00  0.00     0.007 CG0
ATOM     14  G   UNL     1      -1.657   5.452  10.444  1.00  0.00     0.000 G0
ENDBRANCH  10  13
ENDBRANCH   3  10
BRANCH   1  15
ATOM     15  C   UNL     1      -1.013   4.086  10.728  1.00  0.00     0.011 C 
BRANCH  15  16
ATOM     16  C   UNL     1      -1.655   5.442  10.445  1.00  0.00     0.001 CG0
ATOM     17  G   UNL     1      -3.105   5.510  10.916  1.00  0.00     0.000 G0
ENDBRANCH  15  16
ENDBRANCH   1  15
TORSDOF 0
ENDMDL
