MODEL 1
REMARK VINA RESULT:    -4.451      0.000      0.000
REMARK INTER + INTRA:          -4.451
REMARK INTER:                  -4.451
REMARK INTRA:                   0.000
REMARK UNBOUND:                 0.000
REMARK SMILES C=C1CCC[C@@]2(C)CC(=O)C(=C(C)C)C[C@H]12
REMARK SMILES IDX 13 1 12 2 11 3 15 4 16 5 2 6 1 7 3 8 4 9 5 10 6 11 8 12 9 13
REMARK SMILES IDX 10 14 7 15 14 16
REMARK H PARENT
REMARK Flexibility Score: inf
ROOT
ATOM      1  C   UNL     1      70.591  72.405  25.351  1.00  0.00     0.039 C 
ATOM      2  C   UNL     1      70.871  73.614  24.488  1.00  0.00    -0.070 C 
ATOM      3  C   UNL     1      71.860  73.614  23.546  1.00  0.00    -0.006 C 
ATOM      4  C   UNL     1      72.166  74.863  22.730  1.00  0.00     0.047 C 
ATOM      5  C   UNL     1      73.641  74.946  22.256  1.00  0.00     0.025 C 
ATOM      6  C   UNL     1      73.951  76.132  21.336  1.00  0.00    -0.073 C 
ATOM      7  C   UNL     1      73.082  77.125  21.075  1.00  0.00     0.008 C 
ATOM      8  C   UNL     1      75.323  76.202  20.705  1.00  0.00     0.031 C 
ATOM      9  C   UNL     1      76.261  75.138  21.279  1.00  0.00     0.005 C 
ATOM     10  C   UNL     1      75.662  73.727  21.177  1.00  0.00     0.008 C 
ATOM     11  C   UNL     1      74.146  73.618  21.597  1.00  0.00    -0.018 C 
ATOM     12  C   UNL     1      73.999  72.475  22.632  1.00  0.00     0.088 C 
ATOM     13  C   UNL     1      72.604  72.378  23.175  1.00  0.00     0.159 C 
ATOM     14  O   UNL     1      72.080  71.238  23.291  1.00  0.00    -0.295 OA
ATOM     15  C   UNL     1      73.311  73.274  20.333  1.00  0.00     0.012 C 
ATOM     16  C   UNL     1      70.028  74.844  24.741  1.00  0.00     0.039 C 
ENDROOT
TORSDOF 0
ENDMDL
MODEL 2
REMARK VINA RESULT:    -4.244      1.697      2.827
REMARK INTER + INTRA:          -4.244
REMARK INTER:                  -4.244
REMARK INTRA:                   0.000
REMARK UNBOUND:                 0.000
REMARK SMILES C=C1CCC[C@@]2(C)CC(=O)C(=C(C)C)C[C@H]12
REMARK SMILES IDX 13 1 12 2 11 3 15 4 16 5 2 6 1 7 3 8 4 9 5 10 6 11 8 12 9 13
REMARK SMILES IDX 10 14 7 15 14 16
REMARK H PARENT
REMARK Flexibility Score: inf
ROOT
ATOM      1  C   UNL     1      70.631  72.650  25.621  1.00  0.00     0.039 C 
ATOM      2  C   UNL     1      71.424  72.413  24.357  1.00  0.00    -0.070 C 
ATOM      3  C   UNL     1      72.302  73.341  23.872  1.00  0.00    -0.006 C 
ATOM      4  C   UNL     1      73.046  73.109  22.564  1.00  0.00     0.047 C 
ATOM      5  C   UNL     1      73.423  74.421  21.826  1.00  0.00     0.025 C 
ATOM      6  C   UNL     1      74.273  74.224  20.567  1.00  0.00    -0.073 C 
ATOM      7  C   UNL     1      74.547  73.022  20.028  1.00  0.00     0.008 C 
ATOM      8  C   UNL     1      74.814  75.454  19.875  1.00  0.00     0.031 C 
ATOM      9  C   UNL     1      74.226  76.736  20.467  1.00  0.00     0.005 C 
ATOM     10  C   UNL     1      74.424  76.810  21.990  1.00  0.00     0.008 C 
ATOM     11  C   UNL     1      74.103  75.475  22.764  1.00  0.00    -0.018 C 
ATOM     12  C   UNL     1      73.127  75.795  23.924  1.00  0.00     0.088 C 
ATOM     13  C   UNL     1      72.676  74.559  24.644  1.00  0.00     0.159 C 
ATOM     14  O   UNL     1      72.640  74.574  25.903  1.00  0.00    -0.295 OA
ATOM     15  C   UNL     1      75.430  74.919  23.352  1.00  0.00     0.012 C 
ATOM     16  C   UNL     1      71.174  71.113  23.626  1.00  0.00     0.039 C 
ENDROOT
TORSDOF 0
ENDMDL
MODEL 3
REMARK VINA RESULT:    -4.112      2.451      4.117
REMARK INTER + INTRA:          -4.112
REMARK INTER:                  -4.112
REMARK INTRA:                   0.000
REMARK UNBOUND:                 0.000
REMARK SMILES C=C1CCC[C@@]2(C)CC(=O)C(=C(C)C)C[C@H]12
REMARK SMILES IDX 13 1 12 2 11 3 15 4 16 5 2 6 1 7 3 8 4 9 5 10 6 11 8 12 9 13
REMARK SMILES IDX 10 14 7 15 14 16
REMARK H PARENT
REMARK Flexibility Score: inf
ROOT
ATOM      1  C   UNL     1      70.727  73.388  22.671  1.00  0.00     0.039 C 
ATOM      2  C   UNL     1      71.908  72.915  23.488  1.00  0.00    -0.070 C 
ATOM      3  C   UNL     1      73.146  72.746  22.935  1.00  0.00    -0.006 C 
ATOM      4  C   UNL     1      74.307  72.209  23.762  1.00  0.00     0.047 C 
ATOM      5  C   UNL     1      75.367  71.451  22.919  1.00  0.00     0.025 C 
ATOM      6  C   UNL     1      76.604  71.001  23.703  1.00  0.00    -0.073 C 
ATOM      7  C   UNL     1      76.718  71.093  25.041  1.00  0.00     0.008 C 
ATOM      8  C   UNL     1      77.753  70.394  22.931  1.00  0.00     0.031 C 
ATOM      9  C   UNL     1      77.378  70.145  21.469  1.00  0.00     0.005 C 
ATOM     10  C   UNL     1      76.846  71.415  20.787  1.00  0.00     0.008 C 
ATOM     11  C   UNL     1      75.808  72.240  21.640  1.00  0.00    -0.018 C 
ATOM     12  C   UNL     1      74.552  72.506  20.774  1.00  0.00     0.088 C 
ATOM     13  C   UNL     1      73.463  73.187  21.548  1.00  0.00     0.159 C 
ATOM     14  O   UNL     1      72.844  74.142  21.006  1.00  0.00    -0.295 OA
ATOM     15  C   UNL     1      76.460  73.598  22.025  1.00  0.00     0.012 C 
ATOM     16  C   UNL     1      71.649  72.598  24.944  1.00  0.00     0.039 C 
ENDROOT
TORSDOF 0
ENDMDL
MODEL 4
REMARK VINA RESULT:    -3.942      1.916      5.048
REMARK INTER + INTRA:          -3.942
REMARK INTER:                  -3.942
REMARK INTRA:                   0.000
REMARK UNBOUND:                 0.000
REMARK SMILES C=C1CCC[C@@]2(C)CC(=O)C(=C(C)C)C[C@H]12
REMARK SMILES IDX 13 1 12 2 11 3 15 4 16 5 2 6 1 7 3 8 4 9 5 10 6 11 8 12 9 13
REMARK SMILES IDX 10 14 7 15 14 16
REMARK H PARENT
REMARK Flexibility Score: inf
ROOT
ATOM      1  C   UNL     1      75.581  76.565  20.119  1.00  0.00     0.039 C 
ATOM      2  C   UNL     1      75.440  76.185  21.575  1.00  0.00    -0.070 C 
ATOM      3  C   UNL     1      74.555  75.229  21.988  1.00  0.00    -0.006 C 
ATOM      4  C   UNL     1      74.385  74.905  23.466  1.00  0.00     0.047 C 
ATOM      5  C   UNL     1      72.971  74.372  23.822  1.00  0.00     0.025 C 
ATOM      6  C   UNL     1      72.805  73.927  25.279  1.00  0.00    -0.073 C 
ATOM      7  C   UNL     1      73.734  74.122  26.233  1.00  0.00     0.008 C 
ATOM      8  C   UNL     1      71.510  73.253  25.672  1.00  0.00     0.031 C 
ATOM      9  C   UNL     1      70.478  73.317  24.546  1.00  0.00     0.005 C 
ATOM     10  C   UNL     1      71.030  72.756  23.226  1.00  0.00     0.008 C 
ATOM     11  C   UNL     1      72.488  73.233  22.862  1.00  0.00    -0.018 C 
ATOM     12  C   UNL     1      72.483  73.785  21.415  1.00  0.00     0.088 C 
ATOM     13  C   UNL     1      73.808  74.370  21.027  1.00  0.00     0.159 C 
ATOM     14  O   UNL     1      74.274  74.104  19.886  1.00  0.00    -0.295 OA
ATOM     15  C   UNL     1      73.438  72.005  22.937  1.00  0.00     0.012 C 
ATOM     16  C   UNL     1      76.297  76.941  22.566  1.00  0.00     0.039 C 
ENDROOT
TORSDOF 0
ENDMDL
MODEL 5
REMARK VINA RESULT:    -3.940      1.845      3.404
REMARK INTER + INTRA:          -3.940
REMARK INTER:                  -3.940
REMARK INTRA:                   0.000
REMARK UNBOUND:                 0.000
REMARK SMILES C=C1CCC[C@@]2(C)CC(=O)C(=C(C)C)C[C@H]12
REMARK SMILES IDX 13 1 12 2 11 3 15 4 16 5 2 6 1 7 3 8 4 9 5 10 6 11 8 12 9 13
REMARK SMILES IDX 10 14 7 15 14 16
REMARK H PARENT
REMARK Flexibility Score: inf
ROOT
ATOM      1  C   UNL     1      70.260  72.642  25.211  1.00  0.00     0.039 C 
ATOM      2  C   UNL     1      71.675  72.133  25.056  1.00  0.00    -0.070 C 
ATOM      3  C   UNL     1      72.510  72.608  24.084  1.00  0.00    -0.006 C 
ATOM      4  C   UNL     1      73.910  72.038  23.906  1.00  0.00     0.047 C 
ATOM      5  C   UNL     1      74.441  72.144  22.452  1.00  0.00     0.025 C 
ATOM      6  C   UNL     1      75.891  71.686  22.265  1.00  0.00    -0.073 C 
ATOM      7  C   UNL     1      76.615  71.083  23.225  1.00  0.00     0.008 C 
ATOM      8  C   UNL     1      76.536  71.900  20.914  1.00  0.00     0.031 C 
ATOM      9  C   UNL     1      75.519  72.375  19.875  1.00  0.00     0.005 C 
ATOM     10  C   UNL     1      74.758  73.625  20.343  1.00  0.00     0.008 C 
ATOM     11  C   UNL     1      74.254  73.573  21.837  1.00  0.00    -0.018 C 
ATOM     12  C   UNL     1      72.745  73.921  21.864  1.00  0.00     0.088 C 
ATOM     13  C   UNL     1      72.155  73.780  23.236  1.00  0.00     0.159 C 
ATOM     14  O   UNL     1      71.376  74.679  23.652  1.00  0.00    -0.295 OA
ATOM     15  C   UNL     1      75.038  74.635  22.656  1.00  0.00     0.012 C 
ATOM     16  C   UNL     1      72.116  71.040  26.003  1.00  0.00     0.039 C 
ENDROOT
TORSDOF 0
ENDMDL
MODEL 6
REMARK VINA RESULT:    -3.883      2.777      5.197
REMARK INTER + INTRA:          -3.883
REMARK INTER:                  -3.883
REMARK INTRA:                   0.000
REMARK UNBOUND:                 0.000
REMARK SMILES C=C1CCC[C@@]2(C)CC(=O)C(=C(C)C)C[C@H]12
REMARK SMILES IDX 13 1 12 2 11 3 15 4 16 5 2 6 1 7 3 8 4 9 5 10 6 11 8 12 9 13
REMARK SMILES IDX 10 14 7 15 14 16
REMARK H PARENT
REMARK Flexibility Score: inf
ROOT
ATOM      1  C   UNL     1      78.028  69.345  23.494  1.00  0.00     0.039 C 
ATOM      2  C   UNL     1      77.297  70.149  22.444  1.00  0.00    -0.070 C 
ATOM      3  C   UNL     1      76.330  71.057  22.775  1.00  0.00    -0.006 C 
ATOM      4  C   UNL     1      75.562  71.812  21.699  1.00  0.00     0.047 C 
ATOM      5  C   UNL     1      74.135  72.232  22.138  1.00  0.00     0.025 C 
ATOM      6  C   UNL     1      73.380  73.094  21.120  1.00  0.00    -0.073 C 
ATOM      7  C   UNL     1      73.825  73.344  19.875  1.00  0.00     0.008 C 
ATOM      8  C   UNL     1      72.047  73.675  21.531  1.00  0.00     0.031 C 
ATOM      9  C   UNL     1      71.577  73.111  22.873  1.00  0.00     0.005 C 
ATOM     10  C   UNL     1      72.635  73.290  23.974  1.00  0.00     0.008 C 
ATOM     11  C   UNL     1      74.107  72.925  23.542  1.00  0.00    -0.018 C 
ATOM     12  C   UNL     1      74.700  71.942  24.582  1.00  0.00     0.088 C 
ATOM     13  C   UNL     1      76.060  71.451  24.187  1.00  0.00     0.159 C 
ATOM     14  O   UNL     1      76.962  71.398  25.066  1.00  0.00    -0.295 OA
ATOM     15  C   UNL     1      74.952  74.230  23.533  1.00  0.00     0.012 C 
ATOM     16  C   UNL     1      77.655  69.876  21.001  1.00  0.00     0.039 C 
ENDROOT
TORSDOF 0
ENDMDL
MODEL 7
REMARK VINA RESULT:    -3.834      1.407      2.225
REMARK INTER + INTRA:          -3.834
REMARK INTER:                  -3.834
REMARK INTRA:                   0.000
REMARK UNBOUND:                 0.000
REMARK SMILES C=C1CCC[C@@]2(C)CC(=O)C(=C(C)C)C[C@H]12
REMARK SMILES IDX 13 1 12 2 11 3 15 4 16 5 2 6 1 7 3 8 4 9 5 10 6 11 8 12 9 13
REMARK SMILES IDX 10 14 7 15 14 16
REMARK H PARENT
REMARK Flexibility Score: inf
ROOT
ATOM      1  C   UNL     1      70.282  74.269  24.756  1.00  0.00     0.039 C 
ATOM      2  C   UNL     1      71.527  74.862  24.137  1.00  0.00    -0.070 C 
ATOM      3  C   UNL     1      72.423  74.095  23.447  1.00  0.00    -0.006 C 
ATOM      4  C   UNL     1      73.702  74.701  22.884  1.00  0.00     0.047 C 
ATOM      5  C   UNL     1      74.867  73.683  22.765  1.00  0.00     0.025 C 
ATOM      6  C   UNL     1      76.130  74.233  22.094  1.00  0.00    -0.073 C 
ATOM      7  C   UNL     1      76.305  75.529  21.773  1.00  0.00     0.008 C 
ATOM      8  C   UNL     1      77.256  73.269  21.798  1.00  0.00     0.031 C 
ATOM      9  C   UNL     1      77.001  71.898  22.428  1.00  0.00     0.005 C 
ATOM     10  C   UNL     1      75.638  71.320  22.018  1.00  0.00     0.008 C 
ATOM     11  C   UNL     1      74.440  72.345  22.073  1.00  0.00    -0.018 C 
ATOM     12  C   UNL     1      73.288  71.717  22.896  1.00  0.00     0.088 C 
ATOM     13  C   UNL     1      72.150  72.673  23.098  1.00  0.00     0.159 C 
ATOM     14  O   UNL     1      70.972  72.249  22.949  1.00  0.00    -0.295 OA
ATOM     15  C   UNL     1      73.950  72.603  20.621  1.00  0.00     0.012 C 
ATOM     16  C   UNL     1      71.758  76.341  24.349  1.00  0.00     0.039 C 
ENDROOT
TORSDOF 0
ENDMDL
MODEL 8
REMARK VINA RESULT:    -3.815      3.014      4.428
REMARK INTER + INTRA:          -3.815
REMARK INTER:                  -3.815
REMARK INTRA:                   0.000
REMARK UNBOUND:                 0.000
REMARK SMILES C=C1CCC[C@@]2(C)CC(=O)C(=C(C)C)C[C@H]12
REMARK SMILES IDX 13 1 12 2 11 3 15 4 16 5 2 6 1 7 3 8 4 9 5 10 6 11 8 12 9 13
REMARK SMILES IDX 10 14 7 15 14 16
REMARK H PARENT
REMARK Flexibility Score: inf
ROOT
ATOM      1  C   UNL     1      75.204  69.966  27.458  1.00  0.00     0.039 C 
ATOM      2  C   UNL     1      75.048  71.422  27.081  1.00  0.00    -0.070 C 
ATOM      3  C   UNL     1      74.025  71.853  26.284  1.00  0.00    -0.006 C 
ATOM      4  C   UNL     1      73.921  73.314  25.865  1.00  0.00     0.047 C 
ATOM      5  C   UNL     1      73.202  73.517  24.505  1.00  0.00     0.025 C 
ATOM      6  C   UNL     1      72.978  74.981  24.112  1.00  0.00    -0.073 C 
ATOM      7  C   UNL     1      73.494  76.024  24.787  1.00  0.00     0.008 C 
ATOM      8  C   UNL     1      72.149  75.268  22.881  1.00  0.00     0.031 C 
ATOM      9  C   UNL     1      71.837  73.988  22.103  1.00  0.00     0.005 C 
ATOM     10  C   UNL     1      71.179  72.921  22.991  1.00  0.00     0.008 C 
ATOM     11  C   UNL     1      71.852  72.729  24.405  1.00  0.00    -0.018 C 
ATOM     12  C   UNL     1      72.150  71.223  24.613  1.00  0.00     0.088 C 
ATOM     13  C   UNL     1      72.898  70.964  25.886  1.00  0.00     0.159 C 
ATOM     14  O   UNL     1      72.540  69.997  26.610  1.00  0.00    -0.295 OA
ATOM     15  C   UNL     1      70.850  73.206  25.492  1.00  0.00     0.012 C 
ATOM     16  C   UNL     1      76.100  72.378  27.594  1.00  0.00     0.039 C 
ENDROOT
TORSDOF 0
ENDMDL
MODEL 9
REMARK VINA RESULT:    -3.801      2.317      3.507
REMARK INTER + INTRA:          -3.801
REMARK INTER:                  -3.801
REMARK INTRA:                   0.000
REMARK UNBOUND:                 0.000
REMARK SMILES C=C1CCC[C@@]2(C)CC(=O)C(=C(C)C)C[C@H]12
REMARK SMILES IDX 13 1 12 2 11 3 15 4 16 5 2 6 1 7 3 8 4 9 5 10 6 11 8 12 9 13
REMARK SMILES IDX 10 14 7 15 14 16
REMARK H PARENT
REMARK Flexibility Score: inf
ROOT
ATOM      1  C   UNL     1      74.734  70.748  26.963  1.00  0.00     0.039 C 
ATOM      2  C   UNL     1      75.362  71.828  26.112  1.00  0.00    -0.070 C 
ATOM      3  C   UNL     1      74.753  72.304  24.986  1.00  0.00    -0.006 C 
ATOM      4  C   UNL     1      75.431  73.347  24.109  1.00  0.00     0.047 C 
ATOM      5  C   UNL     1      75.001  73.277  22.619  1.00  0.00     0.025 C 
ATOM      6  C   UNL     1      75.577  74.388  21.735  1.00  0.00    -0.073 C 
ATOM      7  C   UNL     1      76.509  75.266  22.147  1.00  0.00     0.008 C 
ATOM      8  C   UNL     1      75.088  74.485  20.308  1.00  0.00     0.031 C 
ATOM      9  C   UNL     1      74.218  73.286  19.929  1.00  0.00     0.005 C 
ATOM     10  C   UNL     1      73.055  73.085  20.913  1.00  0.00     0.008 C 
ATOM     11  C   UNL     1      73.447  73.206  22.435  1.00  0.00    -0.018 C 
ATOM     12  C   UNL     1      72.925  71.955  23.184  1.00  0.00     0.088 C 
ATOM     13  C   UNL     1      73.357  71.932  24.620  1.00  0.00     0.159 C 
ATOM     14  O   UNL     1      72.513  71.611  25.499  1.00  0.00    -0.295 OA
ATOM     15  C   UNL     1      72.762  74.473  23.018  1.00  0.00     0.012 C 
ATOM     16  C   UNL     1      76.721  72.334  26.542  1.00  0.00     0.039 C 
ENDROOT
TORSDOF 0
ENDMDL
