MODEL 1
REMARK VINA RESULT:    -3.585      0.000      0.000
REMARK INTER + INTRA:          -5.248
REMARK INTER:                  -4.738
REMARK INTRA:                  -0.510
REMARK UNBOUND:                -0.510
REMARK SMILES C=CCC[C@@H](O)CCC
REMARK SMILES IDX 4 1 5 2 7 3 8 4 9 5 6 6 3 8 2 9 1 10
REMARK H PARENT 6 7
REMARK Flexibility Score: inf
ROOT
ATOM      1  C   UNL     1     138.963 143.584 147.992  1.00  0.00     0.036 C 
ENDROOT
BRANCH   1   2
ATOM      2  C   UNL     1     140.191 142.649 147.915  1.00  0.00     0.114 C 
BRANCH   2   3
ATOM      3  C   UNL     1     139.815 141.218 148.355  1.00  0.00     0.031 C 
BRANCH   3   4
ATOM      4  C   UNL     1     139.919 140.181 147.224  1.00  0.00    -0.001 C 
ATOM      5  C   UNL     1     140.652 140.715 145.995  1.00  0.00     0.004 C 
ENDBRANCH   3   4
ENDBRANCH   2   3
BRANCH   2   6
ATOM      6  O   UNL     1     141.250 143.152 148.692  1.00  0.00    -0.393 OA
ATOM      7  H   UNL     1     141.722 142.375 149.093  1.00  0.00     0.210 HD
ENDBRANCH   2   6
ENDBRANCH   1   2
BRANCH   1   8
ATOM      8  C   UNL     1     137.629 142.832 147.858  1.00  0.00     0.029 C 
BRANCH   8   9
ATOM      9  C   UNL     1     137.025 142.971 146.485  1.00  0.00    -0.035 C 
ATOM     10  C   UNL     1     137.751 142.807 145.376  1.00  0.00     0.004 C 
ENDBRANCH   8   9
ENDBRANCH   1   8
TORSDOF 6
ENDMDL
MODEL 2
REMARK VINA RESULT:    -3.547      0.930      3.238
REMARK INTER + INTRA:          -5.198
REMARK INTER:                  -4.626
REMARK INTRA:                  -0.572
REMARK UNBOUND:                -0.510
REMARK SMILES C=CCC[C@@H](O)CCC
REMARK SMILES IDX 4 1 5 2 7 3 8 4 9 5 6 6 3 8 2 9 1 10
REMARK H PARENT 6 7
REMARK Flexibility Score: inf
ROOT
ATOM      1  C   UNL     1     139.244 140.336 147.604  1.00  0.00     0.036 C 
ENDROOT
BRANCH   1   2
ATOM      2  C   UNL     1     139.449 141.467 148.637  1.00  0.00     0.114 C 
BRANCH   2   3
ATOM      3  C   UNL     1     138.943 142.814 148.078  1.00  0.00     0.031 C 
BRANCH   3   4
ATOM      4  C   UNL     1     137.480 142.771 147.604  1.00  0.00    -0.001 C 
ATOM      5  C   UNL     1     137.341 142.929 146.091  1.00  0.00     0.004 C 
ENDBRANCH   3   4
ENDBRANCH   2   3
BRANCH   2   6
ATOM      6  O   UNL     1     140.800 141.557 149.017  1.00  0.00    -0.393 OA
ATOM      7  H   UNL     1     141.319 141.832 148.215  1.00  0.00     0.210 HD
ENDBRANCH   2   6
ENDBRANCH   1   2
BRANCH   1   8
ATOM      8  C   UNL     1     140.511 140.035 146.786  1.00  0.00     0.029 C 
BRANCH   8   9
ATOM      9  C   UNL     1     140.429 140.570 145.380  1.00  0.00    -0.035 C 
ATOM     10  C   UNL     1     140.801 141.817 145.078  1.00  0.00     0.004 C 
ENDBRANCH   8   9
ENDBRANCH   1   8
TORSDOF 6
ENDMDL
MODEL 3
REMARK VINA RESULT:    -3.409      1.426      2.896
REMARK INTER + INTRA:          -5.015
REMARK INTER:                  -4.401
REMARK INTRA:                  -0.614
REMARK UNBOUND:                -0.510
REMARK SMILES C=CCC[C@@H](O)CCC
REMARK SMILES IDX 4 1 5 2 7 3 8 4 9 5 6 6 3 8 2 9 1 10
REMARK H PARENT 6 7
REMARK Flexibility Score: inf
ROOT
ATOM      1  C   UNL     1     139.976 141.134 147.165  1.00  0.00     0.036 C 
ENDROOT
BRANCH   1   2
ATOM      2  C   UNL     1     140.158 142.317 146.188  1.00  0.00     0.114 C 
BRANCH   2   3
ATOM      3  C   UNL     1     139.933 141.859 144.730  1.00  0.00     0.031 C 
BRANCH   3   4
ATOM      4  C   UNL     1     138.449 141.680 144.366  1.00  0.00    -0.001 C 
ATOM      5  C   UNL     1     137.663 142.989 144.421  1.00  0.00     0.004 C 
ENDBRANCH   3   4
ENDBRANCH   2   3
BRANCH   2   6
ATOM      6  O   UNL     1     141.429 142.899 146.341  1.00  0.00    -0.393 OA
ATOM      7  H   UNL     1     141.450 143.343 147.229  1.00  0.00     0.210 HD
ENDBRANCH   2   6
ENDBRANCH   1   2
BRANCH   1   8
ATOM      8  C   UNL     1     138.991 141.443 148.304  1.00  0.00     0.029 C 
BRANCH   8   9
ATOM      9  C   UNL     1     138.317 142.780 148.134  1.00  0.00    -0.035 C 
ATOM     10  C   UNL     1     136.988 142.897 148.082  1.00  0.00     0.004 C 
ENDBRANCH   8   9
ENDBRANCH   1   8
TORSDOF 6
ENDMDL
MODEL 4
REMARK VINA RESULT:    -3.322      2.184      3.965
REMARK INTER + INTRA:          -4.901
REMARK INTER:                  -4.566
REMARK INTRA:                  -0.335
REMARK UNBOUND:                -0.510
REMARK SMILES C=CCC[C@@H](O)CCC
REMARK SMILES IDX 4 1 5 2 7 3 8 4 9 5 6 6 3 8 2 9 1 10
REMARK H PARENT 6 7
REMARK Flexibility Score: inf
ROOT
ATOM      1  C   UNL     1     137.442 142.621 146.659  1.00  0.00     0.036 C 
ENDROOT
BRANCH   1   2
ATOM      2  C   UNL     1     138.498 141.941 145.759  1.00  0.00     0.114 C 
BRANCH   2   3
ATOM      3  C   UNL     1     138.270 142.312 144.277  1.00  0.00     0.031 C 
BRANCH   3   4
ATOM      4  C   UNL     1     137.271 143.464 144.080  1.00  0.00    -0.001 C 
ATOM      5  C   UNL     1     136.764 143.572 142.643  1.00  0.00     0.004 C 
ENDBRANCH   3   4
ENDBRANCH   2   3
BRANCH   2   6
ATOM      6  O   UNL     1     138.480 140.546 145.936  1.00  0.00    -0.393 OA
ATOM      7  H   UNL     1     139.071 140.335 146.707  1.00  0.00     0.210 HD
ENDBRANCH   2   6
ENDBRANCH   1   2
BRANCH   1   8
ATOM      8  C   UNL     1     137.991 143.004 148.043  1.00  0.00     0.029 C 
BRANCH   8   9
ATOM      9  C   UNL     1     139.483 143.209 148.033  1.00  0.00    -0.035 C 
ATOM     10  C   UNL     1     140.028 144.426 148.111  1.00  0.00     0.004 C 
ENDBRANCH   8   9
ENDBRANCH   1   8
TORSDOF 6
ENDMDL
MODEL 5
REMARK VINA RESULT:    -3.305      1.622      2.926
REMARK INTER + INTRA:          -4.878
REMARK INTER:                  -4.273
REMARK INTRA:                  -0.605
REMARK UNBOUND:                -0.510
REMARK SMILES C=CCC[C@@H](O)CCC
REMARK SMILES IDX 4 1 5 2 7 3 8 4 9 5 6 6 3 8 2 9 1 10
REMARK H PARENT 6 7
REMARK Flexibility Score: inf
ROOT
ATOM      1  C   UNL     1     140.691 141.877 145.902  1.00  0.00     0.036 C 
ENDROOT
BRANCH   1   2
ATOM      2  C   UNL     1     140.789 143.160 146.758  1.00  0.00     0.114 C 
BRANCH   2   3
ATOM      3  C   UNL     1     140.160 142.935 148.150  1.00  0.00     0.031 C 
BRANCH   3   4
ATOM      4  C   UNL     1     138.872 142.095 148.113  1.00  0.00    -0.001 C 
ATOM      5  C   UNL     1     137.606 142.947 148.166  1.00  0.00     0.004 C 
ENDBRANCH   3   4
ENDBRANCH   2   3
BRANCH   2   6
ATOM      6  O   UNL     1     140.180 144.245 146.102  1.00  0.00    -0.393 OA
ATOM      7  H   UNL     1     140.149 144.030 145.132  1.00  0.00     0.210 HD
ENDBRANCH   2   6
ENDBRANCH   1   2
BRANCH   1   8
ATOM      8  C   UNL     1     140.141 142.139 144.490  1.00  0.00     0.029 C 
BRANCH   8   9
ATOM      9  C   UNL     1     138.704 141.714 144.344  1.00  0.00    -0.035 C 
ATOM     10  C   UNL     1     137.700 142.595 144.385  1.00  0.00     0.004 C 
ENDBRANCH   8   9
ENDBRANCH   1   8
TORSDOF 6
ENDMDL
MODEL 6
REMARK VINA RESULT:    -3.299      1.869      3.019
REMARK INTER + INTRA:          -4.870
REMARK INTER:                  -4.238
REMARK INTRA:                  -0.632
REMARK UNBOUND:                -0.510
REMARK SMILES C=CCC[C@@H](O)CCC
REMARK SMILES IDX 4 1 5 2 7 3 8 4 9 5 6 6 3 8 2 9 1 10
REMARK H PARENT 6 7
REMARK Flexibility Score: inf
ROOT
ATOM      1  C   UNL     1     139.558 141.091 148.225  1.00  0.00     0.036 C 
ENDROOT
BRANCH   1   2
ATOM      2  C   UNL     1     139.689 140.226 146.951  1.00  0.00     0.114 C 
BRANCH   2   3
ATOM      3  C   UNL     1     140.124 141.092 145.748  1.00  0.00     0.031 C 
BRANCH   3   4
ATOM      4  C   UNL     1     139.128 141.059 144.577  1.00  0.00    -0.001 C 
ATOM      5  C   UNL     1     138.271 142.321 144.490  1.00  0.00     0.004 C 
ENDBRANCH   3   4
ENDBRANCH   2   3
BRANCH   2   6
ATOM      6  O   UNL     1     138.484 139.555 146.677  1.00  0.00    -0.393 OA
ATOM      7  H   UNL     1     137.817 140.238 146.401  1.00  0.00     0.210 HD
ENDBRANCH   2   6
ENDBRANCH   1   2
BRANCH   1   8
ATOM      8  C   UNL     1     139.879 142.574 147.978  1.00  0.00     0.029 C 
BRANCH   8   9
ATOM      9  C   UNL     1     138.651 143.444 148.023  1.00  0.00    -0.035 C 
ATOM     10  C   UNL     1     137.422 142.926 148.095  1.00  0.00     0.004 C 
ENDBRANCH   8   9
ENDBRANCH   1   8
TORSDOF 6
ENDMDL
MODEL 7
REMARK VINA RESULT:    -3.227      1.699      2.854
REMARK INTER + INTRA:          -4.775
REMARK INTER:                  -4.128
REMARK INTRA:                  -0.646
REMARK UNBOUND:                -0.510
REMARK SMILES C=CCC[C@@H](O)CCC
REMARK SMILES IDX 4 1 5 2 7 3 8 4 9 5 6 6 3 8 2 9 1 10
REMARK H PARENT 6 7
REMARK Flexibility Score: inf
ROOT
ATOM      1  C   UNL     1     137.805 142.647 146.502  1.00  0.00     0.036 C 
ENDROOT
BRANCH   1   2
ATOM      2  C   UNL     1     138.926 143.036 145.512  1.00  0.00     0.114 C 
BRANCH   2   3
ATOM      3  C   UNL     1     139.675 141.779 145.017  1.00  0.00     0.031 C 
BRANCH   3   4
ATOM      4  C   UNL     1     138.747 140.589 144.721  1.00  0.00    -0.001 C 
ATOM      5  C   UNL     1     139.098 139.346 145.537  1.00  0.00     0.004 C 
ENDBRANCH   3   4
ENDBRANCH   2   3
BRANCH   2   6
ATOM      6  O   UNL     1     139.815 143.952 146.101  1.00  0.00    -0.393 OA
ATOM      7  H   UNL     1     140.512 144.168 145.426  1.00  0.00     0.210 HD
ENDBRANCH   2   6
ENDBRANCH   1   2
BRANCH   1   8
ATOM      8  C   UNL     1     138.197 142.875 147.971  1.00  0.00     0.029 C 
BRANCH   8   9
ATOM      9  C   UNL     1     138.801 141.648 148.602  1.00  0.00    -0.035 C 
ATOM     10  C   UNL     1     140.123 141.481 148.695  1.00  0.00     0.004 C 
ENDBRANCH   8   9
ENDBRANCH   1   8
TORSDOF 6
ENDMDL
MODEL 8
REMARK VINA RESULT:    -3.227      2.049      2.683
REMARK INTER + INTRA:          -4.774
REMARK INTER:                  -4.211
REMARK INTRA:                  -0.563
REMARK UNBOUND:                -0.510
REMARK SMILES C=CCC[C@@H](O)CCC
REMARK SMILES IDX 4 1 5 2 7 3 8 4 9 5 6 6 3 8 2 9 1 10
REMARK H PARENT 6 7
REMARK Flexibility Score: inf
ROOT
ATOM      1  C   UNL     1     138.754 143.041 146.190  1.00  0.00     0.036 C 
ENDROOT
BRANCH   1   2
ATOM      2  C   UNL     1     138.002 142.910 147.533  1.00  0.00     0.114 C 
BRANCH   2   3
ATOM      3  C   UNL     1     138.632 141.801 148.404  1.00  0.00     0.031 C 
BRANCH   3   4
ATOM      4  C   UNL     1     139.699 140.975 147.667  1.00  0.00    -0.001 C 
ATOM      5  C   UNL     1     139.163 139.642 147.146  1.00  0.00     0.004 C 
ENDBRANCH   3   4
ENDBRANCH   2   3
BRANCH   2   6
ATOM      6  O   UNL     1     136.634 142.662 147.317  1.00  0.00    -0.393 OA
ATOM      7  H   UNL     1     136.123 143.375 147.784  1.00  0.00     0.210 HD
ENDBRANCH   2   6
ENDBRANCH   1   2
BRANCH   1   8
ATOM      8  C   UNL     1     137.847 142.809 144.970  1.00  0.00     0.029 C 
BRANCH   8   9
ATOM      9  C   UNL     1     138.438 141.828 143.992  1.00  0.00    -0.035 C 
ATOM     10  C   UNL     1     139.748 141.570 143.956  1.00  0.00     0.004 C 
ENDBRANCH   8   9
ENDBRANCH   1   8
TORSDOF 6
ENDMDL
MODEL 9
REMARK VINA RESULT:    -3.176      1.807      3.241
REMARK INTER + INTRA:          -4.708
REMARK INTER:                  -4.105
REMARK INTRA:                  -0.602
REMARK UNBOUND:                -0.510
REMARK SMILES C=CCC[C@@H](O)CCC
REMARK SMILES IDX 4 1 5 2 7 3 8 4 9 5 6 6 3 8 2 9 1 10
REMARK H PARENT 6 7
REMARK Flexibility Score: inf
ROOT
ATOM      1  C   UNL     1     140.425 141.021 146.174  1.00  0.00     0.036 C 
ENDROOT
BRANCH   1   2
ATOM      2  C   UNL     1     139.227 140.584 147.047  1.00  0.00     0.114 C 
BRANCH   2   3
ATOM      3  C   UNL     1     139.186 141.396 148.360  1.00  0.00     0.031 C 
BRANCH   3   4
ATOM      4  C   UNL     1     138.727 142.852 148.166  1.00  0.00    -0.001 C 
ATOM      5  C   UNL     1     137.209 142.987 148.063  1.00  0.00     0.004 C 
ENDBRANCH   3   4
ENDBRANCH   2   3
BRANCH   2   6
ATOM      6  O   UNL     1     139.279 139.204 147.311  1.00  0.00    -0.393 OA
ATOM      7  H   UNL     1     138.499 138.980 147.884  1.00  0.00     0.210 HD
ENDBRANCH   2   6
ENDBRANCH   1   2
BRANCH   1   8
ATOM      8  C   UNL     1     139.996 141.665 144.846  1.00  0.00     0.029 C 
BRANCH   8   9
ATOM      9  C   UNL     1     138.499 141.689 144.675  1.00  0.00    -0.035 C 
ATOM     10  C   UNL     1     137.837 142.821 144.421  1.00  0.00     0.004 C 
ENDBRANCH   8   9
ENDBRANCH   1   8
TORSDOF 6
ENDMDL
