MODEL 1
REMARK VINA RESULT:    -2.986      0.000      0.000
REMARK INTER + INTRA:          -3.743
REMARK INTER:                  -3.684
REMARK INTRA:                  -0.059
REMARK UNBOUND:                -0.059
REMARK SMILES CCCCCC(=O)[O-]
REMARK SMILES IDX 4 1 5 2 6 3 7 4 8 5 3 6 2 7 1 8
REMARK H PARENT
REMARK Flexibility Score: inf
ROOT
ATOM      1  C   UNL     1      57.614  34.464  12.279  1.00  0.00     0.006 C 
ENDROOT
BRANCH   1   2
ATOM      2  C   UNL     1      56.544  35.194  13.106  1.00  0.00     0.053 C 
BRANCH   2   3
ATOM      3  C   UNL     1      55.879  36.282  12.318  1.00  0.00     0.041 C 
ATOM      4  O   UNL     1      56.452  36.775  11.311  1.00  0.00    -0.550 OA
ATOM      5  O   UNL     1      54.618  36.735  12.683  1.00  0.00    -0.550 OA
ENDBRANCH   2   3
ENDBRANCH   1   2
BRANCH   1   6
ATOM      6  C   UNL     1      58.874  34.101  13.096  1.00  0.00     0.000 C 
BRANCH   6   7
ATOM      7  C   UNL     1      60.185  34.270  12.311  1.00  0.00    -0.003 C 
ATOM      8  C   UNL     1      61.418  34.319  13.211  1.00  0.00     0.004 C 
ENDBRANCH   6   7
ENDBRANCH   1   6
TORSDOF 4
ENDMDL
MODEL 2
REMARK VINA RESULT:    -2.910     13.907     15.487
REMARK INTER + INTRA:          -3.650
REMARK INTER:                  -3.524
REMARK INTRA:                  -0.125
REMARK UNBOUND:                -0.059
REMARK SMILES CCCCCC(=O)[O-]
REMARK SMILES IDX 4 1 5 2 6 3 7 4 8 5 3 6 2 7 1 8
REMARK H PARENT
REMARK Flexibility Score: inf
ROOT
ATOM      1  C   UNL     1      50.508  49.455  12.312  1.00  0.00     0.006 C 
ENDROOT
BRANCH   1   2
ATOM      2  C   UNL     1      50.766  50.544  11.259  1.00  0.00     0.053 C 
BRANCH   2   3
ATOM      3  C   UNL     1      51.124  49.957   9.928  1.00  0.00     0.041 C 
ATOM      4  O   UNL     1      52.317  49.644   9.673  1.00  0.00    -0.550 OA
ATOM      5  O   UNL     1      50.136  49.733   8.977  1.00  0.00    -0.550 OA
ENDBRANCH   2   3
ENDBRANCH   1   2
BRANCH   1   6
ATOM      6  C   UNL     1      51.786  49.008  13.056  1.00  0.00     0.000 C 
BRANCH   6   7
ATOM      7  C   UNL     1      52.115  47.518  12.873  1.00  0.00    -0.003 C 
ATOM      8  C   UNL     1      51.272  46.607  13.763  1.00  0.00     0.004 C 
ENDBRANCH   6   7
ENDBRANCH   1   6
TORSDOF 4
ENDMDL
MODEL 3
REMARK VINA RESULT:    -2.888     10.247     11.144
REMARK INTER + INTRA:          -3.622
REMARK INTER:                  -3.544
REMARK INTRA:                  -0.078
REMARK UNBOUND:                -0.059
REMARK SMILES CCCCCC(=O)[O-]
REMARK SMILES IDX 4 1 5 2 6 3 7 4 8 5 3 6 2 7 1 8
REMARK H PARENT
REMARK Flexibility Score: inf
ROOT
ATOM      1  C   UNL     1      63.708  42.954  15.182  1.00  0.00     0.006 C 
ENDROOT
BRANCH   1   2
ATOM      2  C   UNL     1      64.296  44.371  15.093  1.00  0.00     0.053 C 
BRANCH   2   3
ATOM      3  C   UNL     1      63.655  45.301  16.077  1.00  0.00     0.041 C 
ATOM      4  O   UNL     1      62.672  44.918  16.764  1.00  0.00    -0.550 OA
ATOM      5  O   UNL     1      64.157  46.585  16.251  1.00  0.00    -0.550 OA
ENDBRANCH   2   3
ENDBRANCH   1   2
BRANCH   1   6
ATOM      6  C   UNL     1      64.608  41.966  15.956  1.00  0.00     0.000 C 
BRANCH   6   7
ATOM      7  C   UNL     1      63.919  40.631  16.282  1.00  0.00    -0.003 C 
ATOM      8  C   UNL     1      63.841  40.349  17.780  1.00  0.00     0.004 C 
ENDBRANCH   6   7
ENDBRANCH   1   6
TORSDOF 4
ENDMDL
MODEL 4
REMARK VINA RESULT:    -2.814     10.408     11.107
REMARK INTER + INTRA:          -3.532
REMARK INTER:                  -3.276
REMARK INTRA:                  -0.255
REMARK UNBOUND:                -0.059
REMARK SMILES CCCCCC(=O)[O-]
REMARK SMILES IDX 4 1 5 2 6 3 7 4 8 5 3 6 2 7 1 8
REMARK H PARENT
REMARK Flexibility Score: inf
ROOT
ATOM      1  C   UNL     1      63.496  44.440  15.968  1.00  0.00     0.006 C 
ENDROOT
BRANCH   1   2
ATOM      2  C   UNL     1      62.295  44.402  16.926  1.00  0.00     0.053 C 
BRANCH   2   3
ATOM      3  C   UNL     1      62.680  43.887  18.280  1.00  0.00     0.041 C 
ATOM      4  O   UNL     1      61.797  43.678  19.153  1.00  0.00    -0.550 OA
ATOM      5  O   UNL     1      64.012  43.615  18.569  1.00  0.00    -0.550 OA
ENDBRANCH   2   3
ENDBRANCH   1   2
BRANCH   1   6
ATOM      6  C   UNL     1      63.531  43.248  14.985  1.00  0.00     0.000 C 
BRANCH   6   7
ATOM      7  C   UNL     1      64.578  42.183  15.348  1.00  0.00    -0.003 C 
ATOM      8  C   UNL     1      63.980  40.979  16.072  1.00  0.00     0.004 C 
ENDBRANCH   6   7
ENDBRANCH   1   6
TORSDOF 4
ENDMDL
MODEL 5
REMARK VINA RESULT:    -2.801     10.301     11.320
REMARK INTER + INTRA:          -3.516
REMARK INTER:                  -3.287
REMARK INTRA:                  -0.228
REMARK UNBOUND:                -0.059
REMARK SMILES CCCCCC(=O)[O-]
REMARK SMILES IDX 4 1 5 2 6 3 7 4 8 5 3 6 2 7 1 8
REMARK H PARENT
REMARK Flexibility Score: inf
ROOT
ATOM      1  C   UNL     1      63.592  43.311  15.078  1.00  0.00     0.006 C 
ENDROOT
BRANCH   1   2
ATOM      2  C   UNL     1      64.521  42.117  15.343  1.00  0.00     0.053 C 
BRANCH   2   3
ATOM      3  C   UNL     1      64.275  41.510  16.692  1.00  0.00     0.041 C 
ATOM      4  O   UNL     1      64.642  42.114  17.734  1.00  0.00    -0.550 OA
ATOM      5  O   UNL     1      63.621  40.289  16.797  1.00  0.00    -0.550 OA
ENDBRANCH   2   3
ENDBRANCH   1   2
BRANCH   1   6
ATOM      6  C   UNL     1      64.230  44.673  15.432  1.00  0.00     0.000 C 
BRANCH   6   7
ATOM      7  C   UNL     1      63.445  45.465  16.489  1.00  0.00    -0.003 C 
ATOM      8  C   UNL     1      62.271  44.681  17.072  1.00  0.00     0.004 C 
ENDBRANCH   6   7
ENDBRANCH   1   6
TORSDOF 4
ENDMDL
MODEL 6
REMARK VINA RESULT:    -2.796     14.000     15.445
REMARK INTER + INTRA:          -3.509
REMARK INTER:                  -3.423
REMARK INTRA:                  -0.086
REMARK UNBOUND:                -0.059
REMARK SMILES CCCCCC(=O)[O-]
REMARK SMILES IDX 4 1 5 2 6 3 7 4 8 5 3 6 2 7 1 8
REMARK H PARENT
REMARK Flexibility Score: inf
ROOT
ATOM      1  C   UNL     1      50.681  49.249  12.373  1.00  0.00     0.006 C 
ENDROOT
BRANCH   1   2
ATOM      2  C   UNL     1      50.662  50.429  11.388  1.00  0.00     0.053 C 
BRANCH   2   3
ATOM      3  C   UNL     1      51.048  50.003  10.004  1.00  0.00     0.041 C 
ATOM      4  O   UNL     1      50.160  49.708   9.161  1.00  0.00    -0.550 OA
ATOM      5  O   UNL     1      52.387  49.955   9.639  1.00  0.00    -0.550 OA
ENDBRANCH   2   3
ENDBRANCH   1   2
BRANCH   1   6
ATOM      6  C   UNL     1      52.099  48.887  12.867  1.00  0.00     0.000 C 
BRANCH   6   7
ATOM      7  C   UNL     1      52.340  47.374  12.993  1.00  0.00    -0.003 C 
ATOM      8  C   UNL     1      51.220  46.652  13.737  1.00  0.00     0.004 C 
ENDBRANCH   6   7
ENDBRANCH   1   6
TORSDOF 4
ENDMDL
MODEL 7
REMARK VINA RESULT:    -2.721     15.370     16.385
REMARK INTER + INTRA:          -3.416
REMARK INTER:                  -3.162
REMARK INTRA:                  -0.254
REMARK UNBOUND:                -0.059
REMARK SMILES CCCCCC(=O)[O-]
REMARK SMILES IDX 4 1 5 2 6 3 7 4 8 5 3 6 2 7 1 8
REMARK H PARENT
REMARK Flexibility Score: inf
ROOT
ATOM      1  C   UNL     1      51.934  49.130  11.560  1.00  0.00     0.006 C 
ENDROOT
BRANCH   1   2
ATOM      2  C   UNL     1      51.555  49.433  13.018  1.00  0.00     0.053 C 
BRANCH   2   3
ATOM      3  C   UNL     1      50.072  49.572  13.189  1.00  0.00     0.041 C 
ATOM      4  O   UNL     1      49.475  50.586  12.742  1.00  0.00    -0.550 OA
ATOM      5  O   UNL     1      49.347  48.570  13.822  1.00  0.00    -0.550 OA
ENDBRANCH   2   3
ENDBRANCH   1   2
BRANCH   1   6
ATOM      6  C   UNL     1      52.506  50.353  10.810  1.00  0.00     0.000 C 
BRANCH   6   7
ATOM      7  C   UNL     1      51.523  50.972   9.802  1.00  0.00    -0.003 C 
ATOM      8  C   UNL     1      50.473  49.979   9.306  1.00  0.00     0.004 C 
ENDBRANCH   6   7
ENDBRANCH   1   6
TORSDOF 4
ENDMDL
MODEL 8
REMARK VINA RESULT:    -2.680     13.894     14.936
REMARK INTER + INTRA:          -3.366
REMARK INTER:                  -3.279
REMARK INTRA:                  -0.087
REMARK UNBOUND:                -0.059
REMARK SMILES CCCCCC(=O)[O-]
REMARK SMILES IDX 4 1 5 2 6 3 7 4 8 5 3 6 2 7 1 8
REMARK H PARENT
REMARK Flexibility Score: inf
ROOT
ATOM      1  C   UNL     1      51.513  48.490  12.973  1.00  0.00     0.006 C 
ENDROOT
BRANCH   1   2
ATOM      2  C   UNL     1      52.474  49.161  11.980  1.00  0.00     0.053 C 
BRANCH   2   3
ATOM      3  C   UNL     1      51.760  49.635  10.750  1.00  0.00     0.041 C 
ATOM      4  O   UNL     1      52.367  49.691   9.648  1.00  0.00    -0.550 OA
ATOM      5  O   UNL     1      50.419  49.992  10.817  1.00  0.00    -0.550 OA
ENDBRANCH   2   3
ENDBRANCH   1   2
BRANCH   1   6
ATOM      6  C   UNL     1      51.842  47.003  13.232  1.00  0.00     0.000 C 
BRANCH   6   7
ATOM      7  C   UNL     1      50.866  46.316  14.200  1.00  0.00    -0.003 C 
ATOM      8  C   UNL     1      49.792  47.260  14.735  1.00  0.00     0.004 C 
ENDBRANCH   6   7
ENDBRANCH   1   6
TORSDOF 4
ENDMDL
MODEL 9
REMARK VINA RESULT:    -2.623      2.909      4.412
REMARK INTER + INTRA:          -3.296
REMARK INTER:                  -3.142
REMARK INTRA:                  -0.154
REMARK UNBOUND:                -0.059
REMARK SMILES CCCCCC(=O)[O-]
REMARK SMILES IDX 4 1 5 2 6 3 7 4 8 5 3 6 2 7 1 8
REMARK H PARENT
REMARK Flexibility Score: inf
ROOT
ATOM      1  C   UNL     1      57.162  34.256  13.141  1.00  0.00     0.006 C 
ENDROOT
BRANCH   1   2
ATOM      2  C   UNL     1      58.628  34.179  13.597  1.00  0.00     0.053 C 
BRANCH   2   3
ATOM      3  C   UNL     1      59.555  33.930  12.446  1.00  0.00     0.041 C 
ATOM      4  O   UNL     1      60.590  34.634  12.302  1.00  0.00    -0.550 OA
ATOM      5  O   UNL     1      59.288  32.907  11.545  1.00  0.00    -0.550 OA
ENDBRANCH   2   3
ENDBRANCH   1   2
BRANCH   1   6
ATOM      6  C   UNL     1      56.892  35.401  12.139  1.00  0.00     0.000 C 
BRANCH   6   7
ATOM      7  C   UNL     1      55.724  36.313  12.548  1.00  0.00    -0.003 C 
ATOM      8  C   UNL     1      55.658  36.561  14.053  1.00  0.00     0.004 C 
ENDBRANCH   6   7
ENDBRANCH   1   6
TORSDOF 4
ENDMDL
