MODEL 1
REMARK VINA RESULT:    -4.983      0.000      0.000
REMARK INTER + INTRA:          -5.451
REMARK INTER:                  -5.420
REMARK INTRA:                  -0.031
REMARK UNBOUND:                -0.031
REMARK SMILES O=C([O-])c1ccc(O)cc1
REMARK SMILES IDX 4 1 5 2 10 3 6 4 9 5 7 6 2 7 1 8 3 9 8 10
REMARK H PARENT 8 11
REMARK Flexibility Score: inf
ROOT
ATOM      1  C   UNL     1      10.696   9.588  13.504  1.00  0.00    -0.003 A 
ATOM      2  C   UNL     1      10.260  10.088  14.744  1.00  0.00     0.014 A 
ATOM      3  C   UNL     1       9.754   9.015  12.630  1.00  0.00     0.014 A 
ATOM      4  C   UNL     1       8.909  10.014  15.102  1.00  0.00     0.047 A 
ATOM      5  C   UNL     1       8.405   8.944  12.991  1.00  0.00     0.047 A 
ATOM      6  C   UNL     1       7.979   9.440  14.225  1.00  0.00     0.115 A 
ENDROOT
BRANCH   1   7
ATOM      7  C   UNL     1      12.125   9.667  13.127  1.00  0.00     0.071 C 
ATOM      8  O   UNL     1      13.020   9.299  13.932  1.00  0.00    -0.545 OA
ATOM      9  O   UNL     1      12.498  10.148  11.877  1.00  0.00    -0.545 OA
ENDBRANCH   1   7
BRANCH   6  10
ATOM     10  O   UNL     1       6.631   9.362  14.571  1.00  0.00    -0.508 OA
ATOM     11  H   UNL     1       5.901   9.405  13.869  1.00  0.00     0.293 HD
ENDBRANCH   6  10
TORSDOF 2
ENDMDL
MODEL 2
REMARK VINA RESULT:    -4.977      0.043      1.532
REMARK INTER + INTRA:          -5.444
REMARK INTER:                  -5.413
REMARK INTRA:                  -0.031
REMARK UNBOUND:                -0.031
REMARK SMILES O=C([O-])c1ccc(O)cc1
REMARK SMILES IDX 4 1 5 2 10 3 6 4 9 5 7 6 2 7 1 8 3 9 8 10
REMARK H PARENT 8 11
REMARK Flexibility Score: inf
ROOT
ATOM      1  C   UNL     1      10.710   9.601  13.525  1.00  0.00    -0.003 A 
ATOM      2  C   UNL     1       9.789   9.015  12.638  1.00  0.00     0.014 A 
ATOM      3  C   UNL     1      10.246  10.111  14.752  1.00  0.00     0.014 A 
ATOM      4  C   UNL     1       8.432   8.943  12.971  1.00  0.00     0.047 A 
ATOM      5  C   UNL     1       8.889  10.036  15.082  1.00  0.00     0.047 A 
ATOM      6  C   UNL     1       7.980   9.454  14.195  1.00  0.00     0.115 A 
ENDROOT
BRANCH   1   7
ATOM      7  C   UNL     1      12.145   9.677  13.170  1.00  0.00     0.071 C 
ATOM      8  O   UNL     1      13.028   9.321  13.994  1.00  0.00    -0.545 OA
ATOM      9  O   UNL     1      12.537  10.143  11.920  1.00  0.00    -0.545 OA
ENDBRANCH   1   7
BRANCH   6  10
ATOM     10  O   UNL     1       6.631   9.386  14.538  1.00  0.00    -0.508 OA
ATOM     11  H   UNL     1       6.319   8.890  15.364  1.00  0.00     0.293 HD
ENDBRANCH   6  10
TORSDOF 2
ENDMDL
MODEL 3
REMARK VINA RESULT:    -4.794      1.476      4.092
REMARK INTER + INTRA:          -5.245
REMARK INTER:                  -5.209
REMARK INTRA:                  -0.036
REMARK UNBOUND:                -0.031
REMARK SMILES O=C([O-])c1ccc(O)cc1
REMARK SMILES IDX 4 1 5 2 10 3 6 4 9 5 7 6 2 7 1 8 3 9 8 10
REMARK H PARENT 8 11
REMARK Flexibility Score: inf
ROOT
ATOM      1  C   UNL     1       9.606   9.629  13.970  1.00  0.00    -0.003 A 
ATOM      2  C   UNL     1       9.755  10.305  15.194  1.00  0.00     0.014 A 
ATOM      3  C   UNL     1      10.752   9.354  13.200  1.00  0.00     0.014 A 
ATOM      4  C   UNL     1      11.022  10.698  15.637  1.00  0.00     0.047 A 
ATOM      5  C   UNL     1      12.017   9.747  13.646  1.00  0.00     0.047 A 
ATOM      6  C   UNL     1      12.157  10.420  14.863  1.00  0.00     0.115 A 
ENDROOT
BRANCH   1   7
ATOM      7  C   UNL     1       8.265   9.215  13.502  1.00  0.00     0.071 C 
ATOM      8  O   UNL     1       8.116   8.687  12.369  1.00  0.00    -0.545 OA
ATOM      9  O   UNL     1       7.149   9.404  14.310  1.00  0.00    -0.545 OA
ENDBRANCH   1   7
BRANCH   6  10
ATOM     10  O   UNL     1      13.424  10.806  15.295  1.00  0.00    -0.508 OA
ATOM     11  H   UNL     1      13.659  11.780  15.442  1.00  0.00     0.293 HD
ENDBRANCH   6  10
TORSDOF 2
ENDMDL
MODEL 4
REMARK VINA RESULT:    -4.759      1.482      4.258
REMARK INTER + INTRA:          -5.207
REMARK INTER:                  -5.171
REMARK INTRA:                  -0.036
REMARK UNBOUND:                -0.031
REMARK SMILES O=C([O-])c1ccc(O)cc1
REMARK SMILES IDX 4 1 5 2 10 3 6 4 9 5 7 6 2 7 1 8 3 9 8 10
REMARK H PARENT 8 11
REMARK Flexibility Score: inf
ROOT
ATOM      1  C   UNL     1       9.702   9.657  13.969  1.00  0.00    -0.003 A 
ATOM      2  C   UNL     1      10.821   9.384  13.162  1.00  0.00     0.014 A 
ATOM      3  C   UNL     1       9.890  10.328  15.192  1.00  0.00     0.014 A 
ATOM      4  C   UNL     1      12.101   9.773  13.571  1.00  0.00     0.047 A 
ATOM      5  C   UNL     1      11.171  10.716  15.597  1.00  0.00     0.047 A 
ATOM      6  C   UNL     1      12.278  10.441  14.790  1.00  0.00     0.115 A 
ENDROOT
BRANCH   1   7
ATOM      7  C   UNL     1       8.349   9.243  13.535  1.00  0.00     0.071 C 
ATOM      8  O   UNL     1       7.356   9.410  14.291  1.00  0.00    -0.545 OA
ATOM      9  O   UNL     1       8.157   8.666  12.285  1.00  0.00    -0.545 OA
ENDBRANCH   1   7
BRANCH   6  10
ATOM     10  O   UNL     1      13.548  10.834  15.207  1.00  0.00    -0.508 OA
ATOM     11  H   UNL     1      13.919  10.556  16.108  1.00  0.00     0.293 HD
ENDBRANCH   6  10
TORSDOF 2
ENDMDL
MODEL 5
REMARK VINA RESULT:    -4.621      1.687      2.085
REMARK INTER + INTRA:          -5.057
REMARK INTER:                  -5.025
REMARK INTRA:                  -0.031
REMARK UNBOUND:                -0.031
REMARK SMILES O=C([O-])c1ccc(O)cc1
REMARK SMILES IDX 4 1 5 2 10 3 6 4 9 5 7 6 2 7 1 8 3 9 8 10
REMARK H PARENT 8 11
REMARK Flexibility Score: inf
ROOT
ATOM      1  C   UNL     1      11.154  10.517  14.315  1.00  0.00    -0.003 A 
ATOM      2  C   UNL     1       9.933  10.519  15.013  1.00  0.00     0.014 A 
ATOM      3  C   UNL     1      11.218   9.894  13.055  1.00  0.00     0.014 A 
ATOM      4  C   UNL     1       8.801   9.909  14.463  1.00  0.00     0.047 A 
ATOM      5  C   UNL     1      10.084   9.287  12.507  1.00  0.00     0.047 A 
ATOM      6  C   UNL     1       8.874   9.291  13.207  1.00  0.00     0.115 A 
ENDROOT
BRANCH   1   7
ATOM      7  C   UNL     1      12.351  11.161  14.900  1.00  0.00     0.071 C 
ATOM      8  O   UNL     1      12.265  12.288  15.455  1.00  0.00    -0.545 OA
ATOM      9  O   UNL     1      13.588  10.529  14.846  1.00  0.00    -0.545 OA
ENDBRANCH   1   7
BRANCH   6  10
ATOM     10  O   UNL     1       7.753   8.682  12.648  1.00  0.00    -0.508 OA
ATOM     11  H   UNL     1       6.916   8.512  13.194  1.00  0.00     0.293 HD
ENDBRANCH   6  10
TORSDOF 2
ENDMDL
MODEL 6
REMARK VINA RESULT:    -4.532      2.074      2.772
REMARK INTER + INTRA:          -4.960
REMARK INTER:                  -4.925
REMARK INTRA:                  -0.035
REMARK UNBOUND:                -0.031
REMARK SMILES O=C([O-])c1ccc(O)cc1
REMARK SMILES IDX 4 1 5 2 10 3 6 4 9 5 7 6 2 7 1 8 3 9 8 10
REMARK H PARENT 8 11
REMARK Flexibility Score: inf
ROOT
ATOM      1  C   UNL     1       9.576   9.017  12.557  1.00  0.00    -0.003 A 
ATOM      2  C   UNL     1      10.684   9.626  13.175  1.00  0.00     0.014 A 
ATOM      3  C   UNL     1       8.340   9.011  13.228  1.00  0.00     0.014 A 
ATOM      4  C   UNL     1      10.556  10.215  14.437  1.00  0.00     0.047 A 
ATOM      5  C   UNL     1       8.215   9.602  14.490  1.00  0.00     0.047 A 
ATOM      6  C   UNL     1       9.320  10.204  15.098  1.00  0.00     0.115 A 
ENDROOT
BRANCH   1   7
ATOM      7  C   UNL     1       9.714   8.394  11.222  1.00  0.00     0.071 C 
ATOM      8  O   UNL     1       8.840   7.597  10.794  1.00  0.00    -0.545 OA
ATOM      9  O   UNL     1      10.814   8.683  10.421  1.00  0.00    -0.545 OA
ENDBRANCH   1   7
BRANCH   6  10
ATOM     10  O   UNL     1       9.181  10.788  16.355  1.00  0.00    -0.508 OA
ATOM     11  H   UNL     1       9.654  11.652  16.592  1.00  0.00     0.293 HD
ENDBRANCH   6  10
TORSDOF 2
ENDMDL
MODEL 7
REMARK VINA RESULT:    -4.527      1.934      2.519
REMARK INTER + INTRA:          -4.954
REMARK INTER:                  -4.926
REMARK INTRA:                  -0.028
REMARK UNBOUND:                -0.031
REMARK SMILES O=C([O-])c1ccc(O)cc1
REMARK SMILES IDX 4 1 5 2 10 3 6 4 9 5 7 6 2 7 1 8 3 9 8 10
REMARK H PARENT 8 11
REMARK Flexibility Score: inf
ROOT
ATOM      1  C   UNL     1      12.251  10.315  13.802  1.00  0.00    -0.003 A 
ATOM      2  C   UNL     1      12.052  11.670  14.124  1.00  0.00     0.014 A 
ATOM      3  C   UNL     1      11.292   9.370  14.211  1.00  0.00     0.014 A 
ATOM      4  C   UNL     1      10.919  12.069  14.841  1.00  0.00     0.047 A 
ATOM      5  C   UNL     1      10.160   9.772  14.926  1.00  0.00     0.047 A 
ATOM      6  C   UNL     1       9.970  11.119  15.244  1.00  0.00     0.115 A 
ENDROOT
BRANCH   1   7
ATOM      7  C   UNL     1      13.450   9.895  13.044  1.00  0.00     0.071 C 
ATOM      8  O   UNL     1      13.347   9.480  11.860  1.00  0.00    -0.545 OA
ATOM      9  O   UNL     1      14.710   9.955  13.631  1.00  0.00    -0.545 OA
ENDBRANCH   1   7
BRANCH   6  10
ATOM     10  O   UNL     1       8.838  11.505  15.958  1.00  0.00    -0.508 OA
ATOM     11  H   UNL     1       8.239  10.824  16.409  1.00  0.00     0.293 HD
ENDBRANCH   6  10
TORSDOF 2
ENDMDL
MODEL 8
REMARK VINA RESULT:    -4.419      2.006      4.521
REMARK INTER + INTRA:          -4.837
REMARK INTER:                  -4.807
REMARK INTRA:                  -0.030
REMARK UNBOUND:                -0.031
REMARK SMILES O=C([O-])c1ccc(O)cc1
REMARK SMILES IDX 4 1 5 2 10 3 6 4 9 5 7 6 2 7 1 8 3 9 8 10
REMARK H PARENT 8 11
REMARK Flexibility Score: inf
ROOT
ATOM      1  C   UNL     1      10.405  10.364  14.565  1.00  0.00    -0.003 A 
ATOM      2  C   UNL     1      10.788   9.746  13.361  1.00  0.00     0.014 A 
ATOM      3  C   UNL     1      10.914  11.641  14.867  1.00  0.00     0.014 A 
ATOM      4  C   UNL     1      11.662  10.391  12.480  1.00  0.00     0.047 A 
ATOM      5  C   UNL     1      11.786  12.284  13.983  1.00  0.00     0.047 A 
ATOM      6  C   UNL     1      12.163  11.662  12.789  1.00  0.00     0.115 A 
ENDROOT
BRANCH   1   7
ATOM      7  C   UNL     1       9.482   9.680  15.496  1.00  0.00     0.071 C 
ATOM      8  O   UNL     1       8.369   9.249  15.094  1.00  0.00    -0.545 OA
ATOM      9  O   UNL     1       9.831   9.502  16.830  1.00  0.00    -0.545 OA
ENDBRANCH   1   7
BRANCH   6  10
ATOM     10  O   UNL     1      13.033  12.314  11.918  1.00  0.00    -0.508 OA
ATOM     11  H   UNL     1      12.969  13.312  11.755  1.00  0.00     0.293 HD
ENDBRANCH   6  10
TORSDOF 2
ENDMDL
MODEL 9
REMARK VINA RESULT:    -4.307      1.927      2.368
REMARK INTER + INTRA:          -4.715
REMARK INTER:                  -4.680
REMARK INTRA:                  -0.036
REMARK UNBOUND:                -0.031
REMARK SMILES O=C([O-])c1ccc(O)cc1
REMARK SMILES IDX 4 1 5 2 10 3 6 4 9 5 7 6 2 7 1 8 3 9 8 10
REMARK H PARENT 8 11
REMARK Flexibility Score: inf
ROOT
ATOM      1  C   UNL     1      11.224  10.117  13.161  1.00  0.00    -0.003 A 
ATOM      2  C   UNL     1      11.859  10.856  14.177  1.00  0.00     0.014 A 
ATOM      3  C   UNL     1      10.078   9.366  13.480  1.00  0.00     0.014 A 
ATOM      4  C   UNL     1      11.357  10.842  15.482  1.00  0.00     0.047 A 
ATOM      5  C   UNL     1       9.578   9.355  14.785  1.00  0.00     0.047 A 
ATOM      6  C   UNL     1      10.214  10.090  15.789  1.00  0.00     0.115 A 
ENDROOT
BRANCH   1   7
ATOM      7  C   UNL     1      11.758  10.132  11.781  1.00  0.00     0.071 C 
ATOM      8  O   UNL     1      11.311   9.338  10.913  1.00  0.00    -0.545 OA
ATOM      9  O   UNL     1      12.761  11.027  11.424  1.00  0.00    -0.545 OA
ENDBRANCH   1   7
BRANCH   6  10
ATOM     10  O   UNL     1       9.705  10.070  17.086  1.00  0.00    -0.508 OA
ATOM     11  H   UNL     1       8.772  10.409  17.293  1.00  0.00     0.293 HD
ENDBRANCH   6  10
TORSDOF 2
ENDMDL
