MODEL 1
REMARK VINA RESULT:    -3.706      0.000      0.000
REMARK INTER + INTRA:          -4.051
REMARK INTER:                  -3.923
REMARK INTRA:                  -0.128
REMARK UNBOUND:                -0.128
REMARK SMILES C=C(C)[C@H]1CC=C(C)CC1
REMARK SMILES IDX 8 1 7 2 6 3 5 4 4 5 10 6 9 7 2 8 1 9 3 10
REMARK H PARENT
REMARK Flexibility Score: inf
ROOT
ATOM      1  C   UNL     1       9.164  67.889  23.900  1.00  0.00     0.039 C 
ATOM      2  C   UNL     1       7.828  68.204  23.285  1.00  0.00    -0.077 C 
ATOM      3  C   UNL     1       7.114  69.244  23.767  1.00  0.00    -0.027 C 
ATOM      4  C   UNL     1       5.742  69.609  23.254  1.00  0.00     0.035 C 
ATOM      5  C   UNL     1       5.493  69.073  21.833  1.00  0.00     0.018 C 
ATOM      6  C   UNL     1       5.891  67.592  21.756  1.00  0.00     0.013 C 
ATOM      7  C   UNL     1       7.386  67.430  22.058  1.00  0.00     0.031 C 
ENDROOT
BRANCH   5   8
ATOM      8  C   UNL     1       4.047  69.287  21.406  1.00  0.00    -0.077 C 
ATOM      9  C   UNL     1       3.044  68.829  22.173  1.00  0.00     0.008 C 
ATOM     10  C   UNL     1       3.702  69.999  20.121  1.00  0.00     0.039 C 
ENDBRANCH   5   8
TORSDOF 1
ENDMDL
MODEL 2
REMARK VINA RESULT:    -3.602      0.703      1.743
REMARK INTER + INTRA:          -3.941
REMARK INTER:                  -3.820
REMARK INTRA:                  -0.121
REMARK UNBOUND:                -0.128
REMARK SMILES C=C(C)[C@H]1CC=C(C)CC1
REMARK SMILES IDX 8 1 7 2 6 3 5 4 4 5 10 6 9 7 2 8 1 9 3 10
REMARK H PARENT
REMARK Flexibility Score: inf
ROOT
ATOM      1  C   UNL     1       9.777  67.824  23.759  1.00  0.00     0.039 C 
ATOM      2  C   UNL     1       8.376  68.137  23.310  1.00  0.00    -0.077 C 
ATOM      3  C   UNL     1       7.829  67.405  22.316  1.00  0.00    -0.027 C 
ATOM      4  C   UNL     1       6.451  67.673  21.759  1.00  0.00     0.035 C 
ATOM      5  C   UNL     1       5.563  68.441  22.753  1.00  0.00     0.018 C 
ATOM      6  C   UNL     1       6.330  69.647  23.315  1.00  0.00     0.013 C 
ATOM      7  C   UNL     1       7.575  69.173  24.075  1.00  0.00     0.031 C 
ENDROOT
BRANCH   5   8
ATOM      8  C   UNL     1       4.250  68.865  22.108  1.00  0.00    -0.077 C 
ATOM      9  C   UNL     1       3.082  68.575  22.706  1.00  0.00     0.008 C 
ATOM     10  C   UNL     1       4.221  69.601  20.791  1.00  0.00     0.039 C 
ENDBRANCH   5   8
TORSDOF 1
ENDMDL
MODEL 3
REMARK VINA RESULT:    -3.580     14.183     15.398
REMARK INTER + INTRA:          -3.918
REMARK INTER:                  -3.797
REMARK INTRA:                  -0.121
REMARK UNBOUND:                -0.128
REMARK SMILES C=C(C)[C@H]1CC=C(C)CC1
REMARK SMILES IDX 8 1 7 2 6 3 5 4 4 5 10 6 9 7 2 8 1 9 3 10
REMARK H PARENT
REMARK Flexibility Score: inf
ROOT
ATOM      1  C   UNL     1       3.783  69.138   7.510  1.00  0.00     0.039 C 
ATOM      2  C   UNL     1       3.404  67.694   7.699  1.00  0.00    -0.077 C 
ATOM      3  C   UNL     1       2.695  67.341   8.793  1.00  0.00    -0.027 C 
ATOM      4  C   UNL     1       2.312  65.914   9.099  1.00  0.00     0.035 C 
ATOM      5  C   UNL     1       2.307  65.031   7.838  1.00  0.00     0.018 C 
ATOM      6  C   UNL     1       3.605  65.246   7.046  1.00  0.00     0.013 C 
ATOM      7  C   UNL     1       3.712  66.706   6.591  1.00  0.00     0.031 C 
ENDROOT
BRANCH   5   8
ATOM      8  C   UNL     1       2.103  63.564   8.191  1.00  0.00    -0.077 C 
ATOM      9  C   UNL     1       1.083  62.877   7.650  1.00  0.00     0.008 C 
ATOM     10  C   UNL     1       3.019  62.851   9.156  1.00  0.00     0.039 C 
ENDBRANCH   5   8
TORSDOF 1
ENDMDL
MODEL 4
REMARK VINA RESULT:    -3.486     15.345     16.153
REMARK INTER + INTRA:          -3.818
REMARK INTER:                  -3.699
REMARK INTRA:                  -0.120
REMARK UNBOUND:                -0.128
REMARK SMILES C=C(C)[C@H]1CC=C(C)CC1
REMARK SMILES IDX 8 1 7 2 6 3 5 4 4 5 10 6 9 7 2 8 1 9 3 10
REMARK H PARENT
REMARK Flexibility Score: inf
ROOT
ATOM      1  C   UNL     1       2.650  62.156   9.068  1.00  0.00     0.039 C 
ATOM      2  C   UNL     1       2.433  63.455   8.341  1.00  0.00    -0.077 C 
ATOM      3  C   UNL     1       3.506  64.183   7.966  1.00  0.00    -0.027 C 
ATOM      4  C   UNL     1       3.393  65.523   7.280  1.00  0.00     0.035 C 
ATOM      5  C   UNL     1       2.034  65.703   6.579  1.00  0.00     0.018 C 
ATOM      6  C   UNL     1       0.898  65.315   7.537  1.00  0.00     0.013 C 
ATOM      7  C   UNL     1       1.023  63.840   7.937  1.00  0.00     0.031 C 
ENDROOT
BRANCH   5   8
ATOM      8  C   UNL     1       1.866  67.123   6.056  1.00  0.00    -0.077 C 
ATOM      9  C   UNL     1       2.069  67.390   4.755  1.00  0.00     0.008 C 
ATOM     10  C   UNL     1       1.482  68.260   6.973  1.00  0.00     0.039 C 
ENDBRANCH   5   8
TORSDOF 1
ENDMDL
MODEL 5
REMARK VINA RESULT:    -3.428      3.189      4.789
REMARK INTER + INTRA:          -3.757
REMARK INTER:                  -3.634
REMARK INTRA:                  -0.123
REMARK UNBOUND:                -0.128
REMARK SMILES C=C(C)[C@H]1CC=C(C)CC1
REMARK SMILES IDX 8 1 7 2 6 3 5 4 4 5 10 6 9 7 2 8 1 9 3 10
REMARK H PARENT
REMARK Flexibility Score: inf
ROOT
ATOM      1  C   UNL     1       2.752  67.821  23.158  1.00  0.00     0.039 C 
ATOM      2  C   UNL     1       2.756  68.656  21.906  1.00  0.00    -0.077 C 
ATOM      3  C   UNL     1       3.915  69.215  21.497  1.00  0.00    -0.027 C 
ATOM      4  C   UNL     1       4.013  70.111  20.286  1.00  0.00     0.035 C 
ATOM      5  C   UNL     1       2.858  69.879  19.297  1.00  0.00     0.018 C 
ATOM      6  C   UNL     1       1.519  69.875  20.050  1.00  0.00     0.013 C 
ATOM      7  C   UNL     1       1.491  68.734  21.074  1.00  0.00     0.031 C 
ENDROOT
BRANCH   5   8
ATOM      8  C   UNL     1       2.868  70.915  18.180  1.00  0.00    -0.077 C 
ATOM      9  C   UNL     1       2.523  70.561  16.931  1.00  0.00     0.008 C 
ATOM     10  C   UNL     1       3.274  72.346  18.437  1.00  0.00     0.039 C 
ENDBRANCH   5   8
TORSDOF 1
ENDMDL
MODEL 6
REMARK VINA RESULT:    -3.410      4.179      5.812
REMARK INTER + INTRA:          -3.738
REMARK INTER:                  -3.615
REMARK INTRA:                  -0.122
REMARK UNBOUND:                -0.128
REMARK SMILES C=C(C)[C@H]1CC=C(C)CC1
REMARK SMILES IDX 8 1 7 2 6 3 5 4 4 5 10 6 9 7 2 8 1 9 3 10
REMARK H PARENT
REMARK Flexibility Score: inf
ROOT
ATOM      1  C   UNL     1       2.985  73.191  18.137  1.00  0.00     0.039 C 
ATOM      2  C   UNL     1       2.708  71.899  18.855  1.00  0.00    -0.077 C 
ATOM      3  C   UNL     1       3.747  71.174  19.322  1.00  0.00    -0.027 C 
ATOM      4  C   UNL     1       3.577  69.841  20.009  1.00  0.00     0.035 C 
ATOM      5  C   UNL     1       2.167  69.667  20.600  1.00  0.00     0.018 C 
ATOM      6  C   UNL     1       1.111  70.046  19.550  1.00  0.00     0.013 C 
ATOM      7  C   UNL     1       1.270  71.517  19.148  1.00  0.00     0.031 C 
ENDROOT
BRANCH   5   8
ATOM      8  C   UNL     1       1.955  68.252  21.121  1.00  0.00    -0.077 C 
ATOM      9  C   UNL     1       1.342  68.053  22.299  1.00  0.00     0.008 C 
ATOM     10  C   UNL     1       2.432  67.048  20.345  1.00  0.00     0.039 C 
ENDBRANCH   5   8
TORSDOF 1
ENDMDL
MODEL 7
REMARK VINA RESULT:    -3.369     14.890     16.244
REMARK INTER + INTRA:          -3.694
REMARK INTER:                  -3.566
REMARK INTRA:                  -0.129
REMARK UNBOUND:                -0.128
REMARK SMILES C=C(C)[C@H]1CC=C(C)CC1
REMARK SMILES IDX 8 1 7 2 6 3 5 4 4 5 10 6 9 7 2 8 1 9 3 10
REMARK H PARENT
REMARK Flexibility Score: inf
ROOT
ATOM      1  C   UNL     1       3.109  69.086   5.727  1.00  0.00     0.039 C 
ATOM      2  C   UNL     1       2.857  67.720   6.304  1.00  0.00    -0.077 C 
ATOM      3  C   UNL     1       3.875  66.834   6.357  1.00  0.00    -0.027 C 
ATOM      4  C   UNL     1       3.712  65.423   6.868  1.00  0.00     0.035 C 
ATOM      5  C   UNL     1       2.493  65.279   7.796  1.00  0.00     0.018 C 
ATOM      6  C   UNL     1       1.263  65.928   7.146  1.00  0.00     0.013 C 
ATOM      7  C   UNL     1       1.507  67.426   6.928  1.00  0.00     0.031 C 
ENDROOT
BRANCH   5   8
ATOM      8  C   UNL     1       2.236  63.820   8.150  1.00  0.00    -0.077 C 
ATOM      9  C   UNL     1       1.162  63.186   7.651  1.00  0.00     0.008 C 
ATOM     10  C   UNL     1       3.160  63.058   9.069  1.00  0.00     0.039 C 
ENDBRANCH   5   8
TORSDOF 1
ENDMDL
MODEL 8
REMARK VINA RESULT:    -3.353      2.968      4.579
REMARK INTER + INTRA:          -3.678
REMARK INTER:                  -3.553
REMARK INTRA:                  -0.125
REMARK UNBOUND:                -0.128
REMARK SMILES C=C(C)[C@H]1CC=C(C)CC1
REMARK SMILES IDX 8 1 7 2 6 3 5 4 4 5 10 6 9 7 2 8 1 9 3 10
REMARK H PARENT
REMARK Flexibility Score: inf
ROOT
ATOM      1  C   UNL     1       2.927  67.591  23.379  1.00  0.00     0.039 C 
ATOM      2  C   UNL     1       2.907  68.448  22.143  1.00  0.00    -0.077 C 
ATOM      3  C   UNL     1       1.754  68.573  21.452  1.00  0.00    -0.027 C 
ATOM      4  C   UNL     1       1.644  69.367  20.173  1.00  0.00     0.035 C 
ATOM      5  C   UNL     1       2.756  70.423  20.047  1.00  0.00     0.018 C 
ATOM      6  C   UNL     1       4.119  69.784  20.351  1.00  0.00     0.013 C 
ATOM      7  C   UNL     1       4.144  69.250  21.789  1.00  0.00     0.031 C 
ENDROOT
BRANCH   5   8
ATOM      8  C   UNL     1       2.742  71.082  18.674  1.00  0.00    -0.077 C 
ATOM      9  C   UNL     1       3.328  72.277  18.495  1.00  0.00     0.008 C 
ATOM     10  C   UNL     1       2.066  70.427  17.494  1.00  0.00     0.039 C 
ENDBRANCH   5   8
TORSDOF 1
ENDMDL
MODEL 9
REMARK VINA RESULT:    -3.331      1.325      4.834
REMARK INTER + INTRA:          -3.654
REMARK INTER:                  -3.526
REMARK INTRA:                  -0.129
REMARK UNBOUND:                -0.128
REMARK SMILES C=C(C)[C@H]1CC=C(C)CC1
REMARK SMILES IDX 8 1 7 2 6 3 5 4 4 5 10 6 9 7 2 8 1 9 3 10
REMARK H PARENT
REMARK Flexibility Score: inf
ROOT
ATOM      1  C   UNL     1       0.724  69.035  20.162  1.00  0.00     0.039 C 
ATOM      2  C   UNL     1       2.083  69.016  20.808  1.00  0.00    -0.077 C 
ATOM      3  C   UNL     1       2.207  68.518  22.056  1.00  0.00    -0.027 C 
ATOM      4  C   UNL     1       3.515  68.504  22.810  1.00  0.00     0.035 C 
ATOM      5  C   UNL     1       4.729  68.578  21.867  1.00  0.00     0.018 C 
ATOM      6  C   UNL     1       4.529  69.709  20.847  1.00  0.00     0.013 C 
ATOM      7  C   UNL     1       3.289  69.433  19.988  1.00  0.00     0.031 C 
ENDROOT
BRANCH   5   8
ATOM      8  C   UNL     1       6.026  68.751  22.647  1.00  0.00    -0.077 C 
ATOM      9  C   UNL     1       6.145  69.743  23.544  1.00  0.00     0.008 C 
ATOM     10  C   UNL     1       7.204  67.833  22.428  1.00  0.00     0.039 C 
ENDBRANCH   5   8
TORSDOF 1
ENDMDL
