MODEL 1
REMARK VINA RESULT:    -6.816      0.000      0.000
REMARK INTER + INTRA:         -13.598
REMARK INTER:                 -11.199
REMARK INTRA:                  -2.399
REMARK UNBOUND:                -2.399
REMARK SMILES COc1ccc([C@H]2CC(=O)c3c(O)cc(O[C@@H]4O[C@H](CO[C@@H]5O[C@@H](C)[C@H](O)[C@H](O)[C@H]5O)[C@@H](O)[C@H](O)[C@@H]4O)cc3O2)cc1O
REMARK SMILES IDX 19 1 32 2 34 3 36 4 17 5 18 6 20 7 21 8 22 9 25 10 24 11
REMARK SMILES IDX 26 12 23 13 28 14 30 15 27 16 29 18 31 20 33 22 35 24 16 26
REMARK SMILES IDX 15 27 14 28 38 29 12 30 39 31 11 32 40 33 9 34 7 35 10 36
REMARK SMILES IDX 8 37 13 38 6 40 41 41 5 42 42 43 4 44 3 45 43 46 2 48 1 49
REMARK SMILES IDX 37 50
REMARK H PARENT 27 17 29 19 31 21 33 23 35 25 13 39 43 47 37 51
REMARK Flexibility Score: inf
ROOT
ATOM      1  C   UNL     1     267.918 -31.574  44.556  1.00  0.00     0.180 C 
ATOM      2  C   UNL     1     267.529 -32.422  43.309  1.00  0.00     0.177 C 
ATOM      3  C   UNL     1     267.159 -33.866  43.673  1.00  0.00     0.180 C 
ATOM      4  C   UNL     1     268.221 -34.461  44.603  1.00  0.00     0.214 C 
ATOM      5  C   UNL     1     268.484 -33.536  45.806  1.00  0.00     0.339 C 
ATOM      6  O   UNL     1     268.848 -32.217  45.423  1.00  0.00    -0.332 OA
ENDROOT
BRANCH   1   7
ATOM      7  C   UNL     1     266.717 -30.984  45.320  1.00  0.00     0.198 C 
BRANCH   7   8
ATOM      8  O   UNL     1     266.908 -29.592  45.489  1.00  0.00    -0.347 OA
BRANCH   8   9
ATOM      9  C   UNL     1     266.836 -29.185  46.846  1.00  0.00     0.281 C 
ATOM     10  C   UNL     1     266.405 -25.569  46.298  1.00  0.00     0.041 C 
ATOM     11  C   UNL     1     267.104 -26.928  46.227  1.00  0.00     0.150 C 
ATOM     12  C   UNL     1     268.525 -26.837  46.837  1.00  0.00     0.174 C 
ATOM     13  O   UNL     1     266.306 -27.871  46.931  1.00  0.00    -0.344 OA
ATOM     14  C   UNL     1     269.187 -28.233  46.873  1.00  0.00     0.179 C 
ATOM     15  C   UNL     1     268.225 -29.251  47.524  1.00  0.00     0.202 C 
BRANCH  12  16
ATOM     16  O   UNL     1     269.308 -25.943  46.085  1.00  0.00    -0.388 OA
ATOM     17  H   UNL     1     269.932 -25.504  46.725  1.00  0.00     0.211 HD
ENDBRANCH  12  16
BRANCH  14  18
ATOM     18  O   UNL     1     269.517 -28.662  45.572  1.00  0.00    -0.387 OA
ATOM     19  H   UNL     1     268.850 -28.270  44.953  1.00  0.00     0.211 HD
ENDBRANCH  14  18
BRANCH  15  20
ATOM     20  O   UNL     1     268.072 -28.986  48.895  1.00  0.00    -0.385 OA
ATOM     21  H   UNL     1     268.939 -29.172  49.333  1.00  0.00     0.211 HD
ENDBRANCH  15  20
ENDBRANCH   8   9
ENDBRANCH   7   8
ENDBRANCH   1   7
BRANCH   2  22
ATOM     22  O   UNL     1     268.561 -32.410  42.353  1.00  0.00    -0.387 OA
ATOM     23  H   UNL     1     268.146 -32.387  41.452  1.00  0.00     0.211 HD
ENDBRANCH   2  22
BRANCH   3  24
ATOM     24  O   UNL     1     265.896 -33.905  44.294  1.00  0.00    -0.387 OA
ATOM     25  H   UNL     1     266.027 -33.617  45.235  1.00  0.00     0.211 HD
ENDBRANCH   3  24
BRANCH   5  26
ATOM     26  O   UNL     1     267.363 -33.530  46.694  1.00  0.00    -0.462 OA
BRANCH  26  27
ATOM     27  C   UNL     1     267.434 -33.445  48.094  1.00  0.00     0.130 A 
ATOM     28  C   UNL     1     268.005 -34.452  48.896  1.00  0.00     0.093 A 
ATOM     29  C   UNL     1     266.899 -32.313  48.706  1.00  0.00     0.094 A 
ATOM     30  C   UNL     1     267.955 -34.374  50.292  1.00  0.00     0.133 A 
ATOM     31  C   UNL     1     266.863 -32.205  50.096  1.00  0.00     0.138 A 
ATOM     32  C   UNL     1     267.311 -33.269  50.908  1.00  0.00     0.102 A 
ATOM     33  O   UNL     1     266.364 -31.036  50.679  1.00  0.00    -0.484 OA
ATOM     34  C   UNL     1     266.988 -33.195  52.362  1.00  0.00     0.174 C 
ATOM     35  C   UNL     1     266.577 -30.752  52.065  1.00  0.00     0.211 C 
ATOM     36  O   UNL     1     267.174 -34.177  53.131  1.00  0.00    -0.294 OA
ATOM     37  C   UNL     1     266.258 -31.997  52.903  1.00  0.00     0.131 C 
BRANCH  30  38
ATOM     38  O   UNL     1     268.577 -35.397  51.014  1.00  0.00    -0.507 OA
ATOM     39  H   UNL     1     268.106 -36.230  51.337  1.00  0.00     0.293 HD
ENDBRANCH  30  38
BRANCH  35  40
ATOM     40  C   UNL     1     265.738 -29.578  52.511  1.00  0.00    -0.003 A 
ATOM     41  C   UNL     1     265.629 -29.280  53.878  1.00  0.00     0.057 A 
ATOM     42  C   UNL     1     264.998 -28.818  51.591  1.00  0.00     0.011 A 
ATOM     43  C   UNL     1     264.820 -28.229  54.324  1.00  0.00     0.158 A 
ATOM     44  C   UNL     1     264.198 -27.760  52.027  1.00  0.00     0.051 A 
ATOM     45  C   UNL     1     264.104 -27.451  53.398  1.00  0.00     0.160 A 
BRANCH  43  46
ATOM     46  O   UNL     1     264.742 -27.972  55.691  1.00  0.00    -0.504 OA
ATOM     47  H   UNL     1     265.567 -27.891  56.272  1.00  0.00     0.293 HD
ENDBRANCH  43  46
BRANCH  45  48
ATOM     48  O   UNL     1     263.321 -26.388  53.869  1.00  0.00    -0.493 OA
ATOM     49  C   UNL     1     262.273 -25.771  53.128  1.00  0.00     0.278 C 
ENDBRANCH  45  48
ENDBRANCH  35  40
ENDBRANCH  26  27
ENDBRANCH   5  26
BRANCH   4  50
ATOM     50  O   UNL     1     267.824 -35.730  45.060  1.00  0.00    -0.384 OA
ATOM     51  H   UNL     1     268.652 -36.216  45.307  1.00  0.00     0.211 HD
ENDBRANCH   4  50
TORSDOF 15
ENDMDL
MODEL 2
REMARK VINA RESULT:    -6.684      2.434      7.195
REMARK INTER + INTRA:         -13.382
REMARK INTER:                 -10.986
REMARK INTRA:                  -2.395
REMARK UNBOUND:                -2.399
REMARK SMILES COc1ccc([C@H]2CC(=O)c3c(O)cc(O[C@@H]4O[C@H](CO[C@@H]5O[C@@H](C)[C@H](O)[C@H](O)[C@H]5O)[C@@H](O)[C@H](O)[C@@H]4O)cc3O2)cc1O
REMARK SMILES IDX 19 1 32 2 34 3 36 4 17 5 18 6 20 7 21 8 22 9 25 10 24 11
REMARK SMILES IDX 26 12 23 13 28 14 30 15 27 16 29 18 31 20 33 22 35 24 16 26
REMARK SMILES IDX 15 27 14 28 38 29 12 30 39 31 11 32 40 33 9 34 7 35 10 36
REMARK SMILES IDX 8 37 13 38 6 40 41 41 5 42 42 43 4 44 3 45 43 46 2 48 1 49
REMARK SMILES IDX 37 50
REMARK H PARENT 27 17 29 19 31 21 33 23 35 25 13 39 43 47 37 51
REMARK Flexibility Score: inf
ROOT
ATOM      1  C   UNL     1     267.904 -27.869  49.657  1.00  0.00     0.180 C 
ATOM      2  C   UNL     1     267.621 -26.697  48.671  1.00  0.00     0.177 C 
ATOM      3  C   UNL     1     267.646 -27.145  47.204  1.00  0.00     0.180 C 
ATOM      4  C   UNL     1     268.901 -27.982  46.933  1.00  0.00     0.214 C 
ATOM      5  C   UNL     1     269.039 -29.120  47.961  1.00  0.00     0.339 C 
ATOM      6  O   UNL     1     269.037 -28.659  49.305  1.00  0.00    -0.332 OA
ENDROOT
BRANCH   1   7
ATOM      7  C   UNL     1     266.670 -28.731  49.987  1.00  0.00     0.198 C 
BRANCH   7   8
ATOM      8  O   UNL     1     266.802 -29.256  51.295  1.00  0.00    -0.347 OA
BRANCH   8   9
ATOM      9  C   UNL     1     265.637 -29.932  51.739  1.00  0.00     0.281 C 
ATOM     10  C   UNL     1     265.973 -29.268  55.345  1.00  0.00     0.041 C 
ATOM     11  C   UNL     1     266.370 -29.818  53.975  1.00  0.00     0.150 C 
ATOM     12  C   UNL     1     266.633 -31.342  54.059  1.00  0.00     0.174 C 
ATOM     13  O   UNL     1     265.318 -29.532  53.063  1.00  0.00    -0.344 OA
ATOM     14  C   UNL     1     266.919 -31.920  52.655  1.00  0.00     0.179 C 
ATOM     15  C   UNL     1     265.820 -31.467  51.669  1.00  0.00     0.202 C 
BRANCH  12  16
ATOM     16  O   UNL     1     267.716 -31.590  54.921  1.00  0.00    -0.388 OA
ATOM     17  H   UNL     1     268.485 -31.851  54.343  1.00  0.00     0.211 HD
ENDBRANCH  12  16
BRANCH  14  18
ATOM     18  O   UNL     1     268.177 -31.491  52.187  1.00  0.00    -0.387 OA
ATOM     19  H   UNL     1     268.104 -31.374  51.206  1.00  0.00     0.211 HD
ENDBRANCH  14  18
BRANCH  15  20
ATOM     20  O   UNL     1     264.593 -32.083  51.973  1.00  0.00    -0.385 OA
ATOM     21  H   UNL     1     264.329 -32.623  51.188  1.00  0.00     0.211 HD
ENDBRANCH  15  20
ENDBRANCH   8   9
ENDBRANCH   7   8
ENDBRANCH   1   7
BRANCH   2  22
ATOM     22  O   UNL     1     268.528 -25.642  48.874  1.00  0.00    -0.387 OA
ATOM     23  H   UNL     1     268.208 -25.104  49.645  1.00  0.00     0.211 HD
ENDBRANCH   2  22
BRANCH   3  24
ATOM     24  O   UNL     1     266.492 -27.893  46.902  1.00  0.00    -0.387 OA
ATOM     25  H   UNL     1     266.084 -27.482  46.096  1.00  0.00     0.211 HD
ENDBRANCH   3  24
BRANCH   5  26
ATOM     26  O   UNL     1     268.035 -30.117  47.750  1.00  0.00    -0.462 OA
BRANCH  26  27
ATOM     27  C   UNL     1     268.247 -31.505  47.782  1.00  0.00     0.130 A 
ATOM     28  C   UNL     1     268.422 -32.282  46.620  1.00  0.00     0.093 A 
ATOM     29  C   UNL     1     268.270 -32.132  49.026  1.00  0.00     0.094 A 
ATOM     30  C   UNL     1     268.521 -33.675  46.695  1.00  0.00     0.133 A 
ATOM     31  C   UNL     1     268.392 -33.519  49.123  1.00  0.00     0.138 A 
ATOM     32  C   UNL     1     268.433 -34.315  47.959  1.00  0.00     0.102 A 
ATOM     33  O   UNL     1     268.460 -34.113  50.387  1.00  0.00    -0.484 OA
ATOM     34  C   UNL     1     268.286 -35.789  48.140  1.00  0.00     0.174 C 
ATOM     35  C   UNL     1     268.881 -35.472  50.542  1.00  0.00     0.211 C 
ATOM     36  O   UNL     1     268.118 -36.561  47.158  1.00  0.00    -0.294 OA
ATOM     37  C   UNL     1     268.152 -36.359  49.525  1.00  0.00     0.131 C 
BRANCH  30  38
ATOM     38  O   UNL     1     268.728 -34.368  45.498  1.00  0.00    -0.507 OA
ATOM     39  H   UNL     1     268.548 -33.983  44.582  1.00  0.00     0.293 HD
ENDBRANCH  30  38
BRANCH  35  40
ATOM     40  C   UNL     1     268.632 -35.957  51.951  1.00  0.00    -0.003 A 
ATOM     41  C   UNL     1     267.319 -36.211  52.376  1.00  0.00     0.057 A 
ATOM     42  C   UNL     1     269.681 -36.085  52.875  1.00  0.00     0.011 A 
ATOM     43  C   UNL     1     267.053 -36.614  53.690  1.00  0.00     0.158 A 
ATOM     44  C   UNL     1     269.424 -36.498  54.185  1.00  0.00     0.051 A 
ATOM     45  C   UNL     1     268.109 -36.771  54.604  1.00  0.00     0.160 A 
BRANCH  43  46
ATOM     46  O   UNL     1     265.734 -36.854  54.067  1.00  0.00    -0.504 OA
ATOM     47  H   UNL     1     265.271 -36.312  54.786  1.00  0.00     0.293 HD
ENDBRANCH  43  46
BRANCH  45  48
ATOM     48  O   UNL     1     267.817 -37.199  55.907  1.00  0.00    -0.493 OA
ATOM     49  C   UNL     1     268.178 -38.471  56.435  1.00  0.00     0.278 C 
ENDBRANCH  45  48
ENDBRANCH  35  40
ENDBRANCH  26  27
ENDBRANCH   5  26
BRANCH   4  50
ATOM     50  O   UNL     1     268.866 -28.519  45.634  1.00  0.00    -0.384 OA
ATOM     51  H   UNL     1     268.157 -28.031  45.142  1.00  0.00     0.211 HD
ENDBRANCH   4  50
TORSDOF 15
ENDMDL
MODEL 3
REMARK VINA RESULT:    -6.677      3.963     10.751
REMARK INTER + INTRA:         -13.369
REMARK INTER:                 -11.235
REMARK INTRA:                  -2.134
REMARK UNBOUND:                -2.399
REMARK SMILES COc1ccc([C@H]2CC(=O)c3c(O)cc(O[C@@H]4O[C@H](CO[C@@H]5O[C@@H](C)[C@H](O)[C@H](O)[C@H]5O)[C@@H](O)[C@H](O)[C@@H]4O)cc3O2)cc1O
REMARK SMILES IDX 19 1 32 2 34 3 36 4 17 5 18 6 20 7 21 8 22 9 25 10 24 11
REMARK SMILES IDX 26 12 23 13 28 14 30 15 27 16 29 18 31 20 33 22 35 24 16 26
REMARK SMILES IDX 15 27 14 28 38 29 12 30 39 31 11 32 40 33 9 34 7 35 10 36
REMARK SMILES IDX 8 37 13 38 6 40 41 41 5 42 42 43 4 44 3 45 43 46 2 48 1 49
REMARK SMILES IDX 37 50
REMARK H PARENT 27 17 29 19 31 21 33 23 35 25 13 39 43 47 37 51
REMARK Flexibility Score: inf
ROOT
ATOM      1  C   UNL     1     262.107 -25.808  54.909  1.00  0.00     0.180 C 
ATOM      2  C   UNL     1     262.238 -25.134  53.511  1.00  0.00     0.177 C 
ATOM      3  C   UNL     1     263.375 -25.734  52.673  1.00  0.00     0.180 C 
ATOM      4  C   UNL     1     264.653 -25.826  53.513  1.00  0.00     0.214 C 
ATOM      5  C   UNL     1     264.386 -26.541  54.851  1.00  0.00     0.339 C 
ATOM      6  O   UNL     1     263.344 -25.937  55.605  1.00  0.00    -0.332 OA
ENDROOT
BRANCH   1   7
ATOM      7  C   UNL     1     261.298 -27.120  54.906  1.00  0.00     0.198 C 
BRANCH   7   8
ATOM      8  O   UNL     1     260.689 -27.296  56.171  1.00  0.00    -0.347 OA
BRANCH   8   9
ATOM      9  C   UNL     1     261.013 -28.540  56.771  1.00  0.00     0.281 C 
ATOM     10  C   UNL     1     258.459 -28.536  59.423  1.00  0.00     0.041 C 
ATOM     11  C   UNL     1     259.674 -28.034  58.642  1.00  0.00     0.150 C 
ATOM     12  C   UNL     1     260.894 -27.874  59.584  1.00  0.00     0.174 C 
ATOM     13  O   UNL     1     259.948 -28.968  57.606  1.00  0.00    -0.344 OA
ATOM     14  C   UNL     1     262.151 -27.480  58.776  1.00  0.00     0.179 C 
ATOM     15  C   UNL     1     262.328 -28.443  57.582  1.00  0.00     0.202 C 
BRANCH  12  16
ATOM     16  O   UNL     1     260.615 -26.902  60.561  1.00  0.00    -0.388 OA
ATOM     17  H   UNL     1     261.025 -27.225  61.409  1.00  0.00     0.211 HD
ENDBRANCH  12  16
BRANCH  14  18
ATOM     18  O   UNL     1     262.045 -26.157  58.303  1.00  0.00    -0.387 OA
ATOM     19  H   UNL     1     262.965 -25.827  58.139  1.00  0.00     0.211 HD
ENDBRANCH  14  18
BRANCH  15  20
ATOM     20  O   UNL     1     262.680 -29.729  58.026  1.00  0.00    -0.385 OA
ATOM     21  H   UNL     1     263.642 -29.857  57.836  1.00  0.00     0.211 HD
ENDBRANCH  15  20
ENDBRANCH   8   9
ENDBRANCH   7   8
ENDBRANCH   1   7
BRANCH   2  22
ATOM     22  O   UNL     1     262.409 -23.744  53.639  1.00  0.00    -0.387 OA
ATOM     23  H   UNL     1     263.199 -23.583  54.218  1.00  0.00     0.211 HD
ENDBRANCH   2  22
BRANCH   3  24
ATOM     24  O   UNL     1     263.012 -27.011  52.203  1.00  0.00    -0.387 OA
ATOM     25  H   UNL     1     263.746 -27.320  51.611  1.00  0.00     0.211 HD
ENDBRANCH   3  24
BRANCH   5  26
ATOM     26  O   UNL     1     264.136 -27.933  54.640  1.00  0.00    -0.462 OA
BRANCH  26  27
ATOM     27  C   UNL     1     265.047 -28.971  54.896  1.00  0.00     0.130 A 
ATOM     28  C   UNL     1     265.667 -29.157  56.147  1.00  0.00     0.093 A 
ATOM     29  C   UNL     1     265.353 -29.841  53.851  1.00  0.00     0.094 A 
ATOM     30  C   UNL     1     266.650 -30.137  56.323  1.00  0.00     0.133 A 
ATOM     31  C   UNL     1     266.312 -30.841  54.015  1.00  0.00     0.138 A 
ATOM     32  C   UNL     1     267.034 -30.948  55.223  1.00  0.00     0.102 A 
ATOM     33  O   UNL     1     266.562 -31.728  52.964  1.00  0.00    -0.484 OA
ATOM     34  C   UNL     1     268.221 -31.851  55.225  1.00  0.00     0.174 C 
ATOM     35  C   UNL     1     267.302 -32.935  53.175  1.00  0.00     0.211 C 
ATOM     36  O   UNL     1     269.036 -31.868  56.187  1.00  0.00    -0.294 OA
ATOM     37  C   UNL     1     268.567 -32.631  53.987  1.00  0.00     0.131 C 
BRANCH  30  38
ATOM     38  O   UNL     1     267.190 -30.279  57.605  1.00  0.00    -0.507 OA
ATOM     39  H   UNL     1     267.144 -29.569  58.321  1.00  0.00     0.293 HD
ENDBRANCH  30  38
BRANCH  35  40
ATOM     40  C   UNL     1     267.654 -33.590  51.861  1.00  0.00    -0.003 A 
ATOM     41  C   UNL     1     267.266 -32.984  50.656  1.00  0.00     0.057 A 
ATOM     42  C   UNL     1     268.297 -34.838  51.816  1.00  0.00     0.011 A 
ATOM     43  C   UNL     1     267.536 -33.593  49.425  1.00  0.00     0.158 A 
ATOM     44  C   UNL     1     268.580 -35.446  50.590  1.00  0.00     0.051 A 
ATOM     45  C   UNL     1     268.206 -34.827  49.382  1.00  0.00     0.160 A 
BRANCH  43  46
ATOM     46  O   UNL     1     267.130 -32.954  48.255  1.00  0.00    -0.504 OA
ATOM     47  H   UNL     1     267.717 -32.283  47.775  1.00  0.00     0.293 HD
ENDBRANCH  43  46
BRANCH  45  48
ATOM     48  O   UNL     1     268.486 -35.403  48.135  1.00  0.00    -0.493 OA
ATOM     49  C   UNL     1     267.857 -36.577  47.632  1.00  0.00     0.278 C 
ENDBRANCH  45  48
ENDBRANCH  35  40
ENDBRANCH  26  27
ENDBRANCH   5  26
BRANCH   4  50
ATOM     50  O   UNL     1     265.661 -26.505  52.807  1.00  0.00    -0.384 OA
ATOM     51  H   UNL     1     265.919 -25.923  52.048  1.00  0.00     0.211 HD
ENDBRANCH   4  50
TORSDOF 15
ENDMDL
MODEL 4
REMARK VINA RESULT:    -6.632      3.108     10.293
REMARK INTER + INTRA:         -13.296
REMARK INTER:                 -11.082
REMARK INTRA:                  -2.213
REMARK UNBOUND:                -2.399
REMARK SMILES COc1ccc([C@H]2CC(=O)c3c(O)cc(O[C@@H]4O[C@H](CO[C@@H]5O[C@@H](C)[C@H](O)[C@H](O)[C@H]5O)[C@@H](O)[C@H](O)[C@@H]4O)cc3O2)cc1O
REMARK SMILES IDX 19 1 32 2 34 3 36 4 17 5 18 6 20 7 21 8 22 9 25 10 24 11
REMARK SMILES IDX 26 12 23 13 28 14 30 15 27 16 29 18 31 20 33 22 35 24 16 26
REMARK SMILES IDX 15 27 14 28 38 29 12 30 39 31 11 32 40 33 9 34 7 35 10 36
REMARK SMILES IDX 8 37 13 38 6 40 41 41 5 42 42 43 4 44 3 45 43 46 2 48 1 49
REMARK SMILES IDX 37 50
REMARK H PARENT 27 17 29 19 31 21 33 23 35 25 13 39 43 47 37 51
REMARK Flexibility Score: inf
ROOT
ATOM      1  C   UNL     1     264.068 -25.024  54.239  1.00  0.00     0.180 C 
ATOM      2  C   UNL     1     262.530 -24.935  54.009  1.00  0.00     0.177 C 
ATOM      3  C   UNL     1     261.942 -26.242  53.462  1.00  0.00     0.180 C 
ATOM      4  C   UNL     1     262.784 -26.743  52.284  1.00  0.00     0.214 C 
ATOM      5  C   UNL     1     264.276 -26.811  52.660  1.00  0.00     0.339 C 
ATOM      6  O   UNL     1     264.785 -25.573  53.138  1.00  0.00    -0.332 OA
ENDROOT
BRANCH   1   7
ATOM      7  C   UNL     1     264.471 -25.668  55.580  1.00  0.00     0.198 C 
BRANCH   7   8
ATOM      8  O   UNL     1     263.357 -25.669  56.452  1.00  0.00    -0.347 OA
BRANCH   8   9
ATOM      9  C   UNL     1     263.696 -26.033  57.781  1.00  0.00     0.281 C 
ATOM     10  C   UNL     1     264.166 -29.645  57.241  1.00  0.00     0.041 C 
ATOM     11  C   UNL     1     263.411 -28.316  57.272  1.00  0.00     0.150 C 
ATOM     12  C   UNL     1     262.133 -28.440  58.138  1.00  0.00     0.174 C 
ATOM     13  O   UNL     1     264.286 -27.324  57.793  1.00  0.00    -0.344 OA
ATOM     14  C   UNL     1     261.432 -27.069  58.267  1.00  0.00     0.179 C 
ATOM     15  C   UNL     1     262.455 -25.998  58.704  1.00  0.00     0.202 C 
BRANCH  12  16
ATOM     16  O   UNL     1     261.261 -29.384  57.565  1.00  0.00    -0.388 OA
ATOM     17  H   UNL     1     260.797 -28.923  56.814  1.00  0.00     0.211 HD
ENDBRANCH  12  16
BRANCH  14  18
ATOM     18  O   UNL     1     260.849 -26.691  57.042  1.00  0.00    -0.387 OA
ATOM     19  H   UNL     1     259.865 -26.734  57.156  1.00  0.00     0.211 HD
ENDBRANCH  14  18
BRANCH  15  20
ATOM     20  O   UNL     1     262.872 -26.218  60.029  1.00  0.00    -0.385 OA
ATOM     21  H   UNL     1     263.305 -27.106  60.060  1.00  0.00     0.211 HD
ENDBRANCH  15  20
ENDBRANCH   8   9
ENDBRANCH   7   8
ENDBRANCH   1   7
BRANCH   2  22
ATOM     22  O   UNL     1     262.213 -23.862  53.156  1.00  0.00    -0.387 OA
ATOM     23  H   UNL     1     261.670 -24.217  52.405  1.00  0.00     0.211 HD
ENDBRANCH   2  22
BRANCH   3  24
ATOM     24  O   UNL     1     261.897 -27.219  54.474  1.00  0.00    -0.387 OA
ATOM     25  H   UNL     1     261.793 -26.739  55.336  1.00  0.00     0.211 HD
ENDBRANCH   3  24
BRANCH   5  26
ATOM     26  O   UNL     1     264.515 -27.867  53.593  1.00  0.00    -0.462 OA
BRANCH  26  27
ATOM     27  C   UNL     1     265.512 -28.850  53.473  1.00  0.00     0.130 A 
ATOM     28  C   UNL     1     266.458 -29.111  54.482  1.00  0.00     0.093 A 
ATOM     29  C   UNL     1     265.564 -29.583  52.289  1.00  0.00     0.094 A 
ATOM     30  C   UNL     1     267.499 -30.021  54.273  1.00  0.00     0.133 A 
ATOM     31  C   UNL     1     266.580 -30.514  52.072  1.00  0.00     0.138 A 
ATOM     32  C   UNL     1     267.608 -30.684  53.023  1.00  0.00     0.102 A 
ATOM     33  O   UNL     1     266.576 -31.268  50.894  1.00  0.00    -0.484 OA
ATOM     34  C   UNL     1     268.795 -31.485  52.602  1.00  0.00     0.174 C 
ATOM     35  C   UNL     1     267.405 -32.427  50.757  1.00  0.00     0.211 C 
ATOM     36  O   UNL     1     269.841 -31.533  53.304  1.00  0.00    -0.294 OA
ATOM     37  C   UNL     1     268.827 -32.105  51.233  1.00  0.00     0.131 C 
BRANCH  30  38
ATOM     38  O   UNL     1     268.375 -30.249  55.339  1.00  0.00    -0.507 OA
ATOM     39  H   UNL     1     268.321 -31.045  55.958  1.00  0.00     0.293 HD
ENDBRANCH  30  38
BRANCH  35  40
ATOM     40  C   UNL     1     267.417 -32.916  49.328  1.00  0.00    -0.003 A 
ATOM     41  C   UNL     1     267.854 -34.218  49.042  1.00  0.00     0.057 A 
ATOM     42  C   UNL     1     267.074 -32.067  48.263  1.00  0.00     0.011 A 
ATOM     43  C   UNL     1     267.922 -34.681  47.723  1.00  0.00     0.158 A 
ATOM     44  C   UNL     1     267.128 -32.526  46.945  1.00  0.00     0.051 A 
ATOM     45  C   UNL     1     267.548 -33.839  46.661  1.00  0.00     0.160 A 
BRANCH  43  46
ATOM     46  O   UNL     1     268.363 -35.982  47.488  1.00  0.00    -0.504 OA
ATOM     47  H   UNL     1     269.295 -36.289  47.738  1.00  0.00     0.293 HD
ENDBRANCH  43  46
BRANCH  45  48
ATOM     48  O   UNL     1     267.603 -34.337  45.352  1.00  0.00    -0.493 OA
ATOM     49  C   UNL     1     266.481 -34.845  44.638  1.00  0.00     0.278 C 
ENDBRANCH  45  48
ENDBRANCH  35  40
ENDBRANCH  26  27
ENDBRANCH   5  26
BRANCH   4  50
ATOM     50  O   UNL     1     262.344 -28.010  51.865  1.00  0.00    -0.384 OA
ATOM     51  H   UNL     1     263.111 -28.630  51.973  1.00  0.00     0.211 HD
ENDBRANCH   4  50
TORSDOF 15
ENDMDL
MODEL 5
REMARK VINA RESULT:    -6.527      2.986      7.921
REMARK INTER + INTRA:         -13.123
REMARK INTER:                 -10.342
REMARK INTRA:                  -2.781
REMARK UNBOUND:                -2.399
REMARK SMILES COc1ccc([C@H]2CC(=O)c3c(O)cc(O[C@@H]4O[C@H](CO[C@@H]5O[C@@H](C)[C@H](O)[C@H](O)[C@H]5O)[C@@H](O)[C@H](O)[C@@H]4O)cc3O2)cc1O
REMARK SMILES IDX 19 1 32 2 34 3 36 4 17 5 18 6 20 7 21 8 22 9 25 10 24 11
REMARK SMILES IDX 26 12 23 13 28 14 30 15 27 16 29 18 31 20 33 22 35 24 16 26
REMARK SMILES IDX 15 27 14 28 38 29 12 30 39 31 11 32 40 33 9 34 7 35 10 36
REMARK SMILES IDX 8 37 13 38 6 40 41 41 5 42 42 43 4 44 3 45 43 46 2 48 1 49
REMARK SMILES IDX 37 50
REMARK H PARENT 27 17 29 19 31 21 33 23 35 25 13 39 43 47 37 51
REMARK Flexibility Score: inf
ROOT
ATOM      1  C   UNL     1     269.141 -27.252  51.564  1.00  0.00     0.180 C 
ATOM      2  C   UNL     1     269.009 -25.994  50.655  1.00  0.00     0.177 C 
ATOM      3  C   UNL     1     268.913 -26.354  49.166  1.00  0.00     0.180 C 
ATOM      4  C   UNL     1     270.011 -27.356  48.797  1.00  0.00     0.214 C 
ATOM      5  C   UNL     1     270.008 -28.560  49.756  1.00  0.00     0.339 C 
ATOM      6  O   UNL     1     270.124 -28.183  51.121  1.00  0.00    -0.332 OA
ENDROOT
BRANCH   1   7
ATOM      7  C   UNL     1     267.801 -27.932  51.902  1.00  0.00     0.198 C 
BRANCH   7   8
ATOM      8  O   UNL     1     268.052 -29.179  52.524  1.00  0.00    -0.347 OA
BRANCH   8   9
ATOM      9  C   UNL     1     267.506 -29.265  53.830  1.00  0.00     0.281 C 
ATOM     10  C   UNL     1     268.740 -32.622  54.706  1.00  0.00     0.041 C 
ATOM     11  C   UNL     1     267.957 -31.576  53.912  1.00  0.00     0.150 C 
ATOM     12  C   UNL     1     266.457 -31.960  53.843  1.00  0.00     0.174 C 
ATOM     13  O   UNL     1     268.132 -30.317  54.549  1.00  0.00    -0.344 OA
ATOM     14  C   UNL     1     265.646 -30.847  53.144  1.00  0.00     0.179 C 
ATOM     15  C   UNL     1     265.975 -29.480  53.783  1.00  0.00     0.202 C 
BRANCH  12  16
ATOM     16  O   UNL     1     266.311 -33.178  53.156  1.00  0.00    -0.388 OA
ATOM     17  H   UNL     1     266.312 -32.959  52.184  1.00  0.00     0.211 HD
ENDBRANCH  12  16
BRANCH  14  18
ATOM     18  O   UNL     1     265.940 -30.806  51.766  1.00  0.00    -0.387 OA
ATOM     19  H   UNL     1     265.364 -30.109  51.361  1.00  0.00     0.211 HD
ENDBRANCH  14  18
BRANCH  15  20
ATOM     20  O   UNL     1     265.468 -29.407  55.092  1.00  0.00    -0.385 OA
ATOM     21  H   UNL     1     266.220 -29.576  55.711  1.00  0.00     0.211 HD
ENDBRANCH  15  20
ENDBRANCH   8   9
ENDBRANCH   7   8
ENDBRANCH   1   7
BRANCH   2  22
ATOM     22  O   UNL     1     270.076 -25.104  50.873  1.00  0.00    -0.387 OA
ATOM     23  H   UNL     1     270.838 -25.621  51.243  1.00  0.00     0.211 HD
ENDBRANCH   2  22
BRANCH   3  24
ATOM     24  O   UNL     1     267.646 -26.896  48.876  1.00  0.00    -0.387 OA
ATOM     25  H   UNL     1     267.502 -27.649  49.506  1.00  0.00     0.211 HD
ENDBRANCH   3  24
BRANCH   5  26
ATOM     26  O   UNL     1     268.854 -29.377  49.538  1.00  0.00    -0.462 OA
BRANCH  26  27
ATOM     27  C   UNL     1     268.870 -30.761  49.299  1.00  0.00     0.130 A 
ATOM     28  C   UNL     1     268.922 -31.316  48.006  1.00  0.00     0.093 A 
ATOM     29  C   UNL     1     268.819 -31.612  50.401  1.00  0.00     0.094 A 
ATOM     30  C   UNL     1     268.825 -32.698  47.813  1.00  0.00     0.133 A 
ATOM     31  C   UNL     1     268.748 -32.995  50.230  1.00  0.00     0.138 A 
ATOM     32  C   UNL     1     268.664 -33.552  48.936  1.00  0.00     0.102 A 
ATOM     33  O   UNL     1     268.747 -33.824  51.356  1.00  0.00    -0.484 OA
ATOM     34  C   UNL     1     268.314 -34.999  48.842  1.00  0.00     0.174 C 
ATOM     35  C   UNL     1     268.975 -35.233  51.236  1.00  0.00     0.211 C 
ATOM     36  O   UNL     1     268.028 -35.539  47.739  1.00  0.00    -0.294 OA
ATOM     37  C   UNL     1     268.118 -35.801  50.099  1.00  0.00     0.131 C 
BRANCH  30  38
ATOM     38  O   UNL     1     268.920 -33.170  46.500  1.00  0.00    -0.507 OA
ATOM     39  H   UNL     1     269.511 -33.939  46.215  1.00  0.00     0.293 HD
ENDBRANCH  30  38
BRANCH  35  40
ATOM     40  C   UNL     1     268.676 -35.940  52.537  1.00  0.00    -0.003 A 
ATOM     41  C   UNL     1     267.365 -36.351  52.819  1.00  0.00     0.057 A 
ATOM     42  C   UNL     1     269.671 -36.129  53.510  1.00  0.00     0.011 A 
ATOM     43  C   UNL     1     267.049 -36.965  54.037  1.00  0.00     0.158 A 
ATOM     44  C   UNL     1     269.365 -36.752  54.723  1.00  0.00     0.051 A 
ATOM     45  C   UNL     1     268.053 -37.180  54.997  1.00  0.00     0.160 A 
BRANCH  43  46
ATOM     46  O   UNL     1     265.733 -37.354  54.273  1.00  0.00    -0.504 OA
ATOM     47  H   UNL     1     265.065 -37.479  53.523  1.00  0.00     0.293 HD
ENDBRANCH  43  46
BRANCH  45  48
ATOM     48  O   UNL     1     267.715 -37.820  56.198  1.00  0.00    -0.493 OA
ATOM     49  C   UNL     1     268.366 -38.981  56.702  1.00  0.00     0.278 C 
ENDBRANCH  45  48
ENDBRANCH  35  40
ENDBRANCH  26  27
ENDBRANCH   5  26
BRANCH   4  50
ATOM     50  O   UNL     1     269.848 -27.804  47.474  1.00  0.00    -0.384 OA
ATOM     51  H   UNL     1     268.874 -27.932  47.334  1.00  0.00     0.211 HD
ENDBRANCH   4  50
TORSDOF 15
ENDMDL
MODEL 6
REMARK VINA RESULT:    -6.469      1.674      5.646
REMARK INTER + INTRA:         -13.027
REMARK INTER:                 -10.415
REMARK INTRA:                  -2.612
REMARK UNBOUND:                -2.399
REMARK SMILES COc1ccc([C@H]2CC(=O)c3c(O)cc(O[C@@H]4O[C@H](CO[C@@H]5O[C@@H](C)[C@H](O)[C@H](O)[C@H]5O)[C@@H](O)[C@H](O)[C@@H]4O)cc3O2)cc1O
REMARK SMILES IDX 19 1 32 2 34 3 36 4 17 5 18 6 20 7 21 8 22 9 25 10 24 11
REMARK SMILES IDX 26 12 23 13 28 14 30 15 27 16 29 18 31 20 33 22 35 24 16 26
REMARK SMILES IDX 15 27 14 28 38 29 12 30 39 31 11 32 40 33 9 34 7 35 10 36
REMARK SMILES IDX 8 37 13 38 6 40 41 41 5 42 42 43 4 44 3 45 43 46 2 48 1 49
REMARK SMILES IDX 37 50
REMARK H PARENT 27 17 29 19 31 21 33 23 35 25 13 39 43 47 37 51
REMARK Flexibility Score: inf
ROOT
ATOM      1  C   UNL     1     267.599 -34.384  47.538  1.00  0.00     0.180 C 
ATOM      2  C   UNL     1     268.254 -35.273  46.440  1.00  0.00     0.177 C 
ATOM      3  C   UNL     1     268.743 -34.455  45.237  1.00  0.00     0.180 C 
ATOM      4  C   UNL     1     267.644 -33.492  44.776  1.00  0.00     0.214 C 
ATOM      5  C   UNL     1     267.110 -32.657  45.953  1.00  0.00     0.339 C 
ATOM      6  O   UNL     1     266.644 -33.454  47.034  1.00  0.00    -0.332 OA
ENDROOT
BRANCH   1   7
ATOM      7  C   UNL     1     268.604 -33.725  48.502  1.00  0.00     0.198 C 
BRANCH   7   8
ATOM      8  O   UNL     1     267.925 -33.304  49.671  1.00  0.00    -0.347 OA
BRANCH   8   9
ATOM      9  C   UNL     1     268.792 -33.121  50.778  1.00  0.00     0.281 C 
ATOM     10  C   UNL     1     267.170 -35.456  53.118  1.00  0.00     0.041 C 
ATOM     11  C   UNL     1     267.282 -34.239  52.199  1.00  0.00     0.150 C 
ATOM     12  C   UNL     1     266.909 -32.946  52.966  1.00  0.00     0.174 C 
ATOM     13  O   UNL     1     268.615 -34.176  51.711  1.00  0.00    -0.344 OA
ATOM     14  C   UNL     1     267.134 -31.705  52.075  1.00  0.00     0.179 C 
ATOM     15  C   UNL     1     268.550 -31.753  51.459  1.00  0.00     0.202 C 
BRANCH  12  16
ATOM     16  O   UNL     1     265.568 -33.012  53.384  1.00  0.00    -0.388 OA
ATOM     17  H   UNL     1     265.340 -32.114  53.750  1.00  0.00     0.211 HD
ENDBRANCH  12  16
BRANCH  14  18
ATOM     18  O   UNL     1     266.175 -31.651  51.044  1.00  0.00    -0.387 OA
ATOM     19  H   UNL     1     265.401 -31.135  51.387  1.00  0.00     0.211 HD
ENDBRANCH  14  18
BRANCH  15  20
ATOM     20  O   UNL     1     269.530 -31.561  52.448  1.00  0.00    -0.385 OA
ATOM     21  H   UNL     1     269.789 -30.606  52.428  1.00  0.00     0.211 HD
ENDBRANCH  15  20
ENDBRANCH   8   9
ENDBRANCH   7   8
ENDBRANCH   1   7
BRANCH   2  22
ATOM     22  O   UNL     1     267.368 -36.280  46.017  1.00  0.00    -0.387 OA
ATOM     23  H   UNL     1     266.903 -35.958  45.201  1.00  0.00     0.211 HD
ENDBRANCH   2  22
BRANCH   3  24
ATOM     24  O   UNL     1     269.905 -33.735  45.576  1.00  0.00    -0.387 OA
ATOM     25  H   UNL     1     269.666 -33.139  46.332  1.00  0.00     0.211 HD
ENDBRANCH   3  24
BRANCH   5  26
ATOM     26  O   UNL     1     268.090 -31.712  46.389  1.00  0.00    -0.462 OA
BRANCH  26  27
ATOM     27  C   UNL     1     267.818 -30.420  46.869  1.00  0.00     0.130 A 
ATOM     28  C   UNL     1     268.098 -29.252  46.134  1.00  0.00     0.093 A 
ATOM     29  C   UNL     1     267.258 -30.303  48.140  1.00  0.00     0.094 A 
ATOM     30  C   UNL     1     267.912 -27.986  46.697  1.00  0.00     0.133 A 
ATOM     31  C   UNL     1     267.041 -29.047  48.709  1.00  0.00     0.138 A 
ATOM     32  C   UNL     1     267.443 -27.876  48.033  1.00  0.00     0.102 A 
ATOM     33  O   UNL     1     266.433 -28.963  49.966  1.00  0.00    -0.484 OA
ATOM     34  C   UNL     1     267.433 -26.605  48.813  1.00  0.00     0.174 C 
ATOM     35  C   UNL     1     265.921 -27.719  50.456  1.00  0.00     0.211 C 
ATOM     36  O   UNL     1     267.952 -25.549  48.361  1.00  0.00    -0.294 OA
ATOM     37  C   UNL     1     266.960 -26.611  50.241  1.00  0.00     0.131 C 
BRANCH  30  38
ATOM     38  O   UNL     1     268.180 -26.878  45.887  1.00  0.00    -0.507 OA
ATOM     39  H   UNL     1     267.569 -26.079  45.798  1.00  0.00     0.293 HD
ENDBRANCH  30  38
BRANCH  35  40
ATOM     40  C   UNL     1     265.548 -27.826  51.916  1.00  0.00    -0.003 A 
ATOM     41  C   UNL     1     264.274 -27.420  52.340  1.00  0.00     0.057 A 
ATOM     42  C   UNL     1     266.479 -28.253  52.877  1.00  0.00     0.011 A 
ATOM     43  C   UNL     1     263.919 -27.462  53.693  1.00  0.00     0.158 A 
ATOM     44  C   UNL     1     266.127 -28.309  54.228  1.00  0.00     0.051 A 
ATOM     45  C   UNL     1     264.842 -27.919  54.649  1.00  0.00     0.160 A 
BRANCH  43  46
ATOM     46  O   UNL     1     262.642 -27.047  54.066  1.00  0.00    -0.504 OA
ATOM     47  H   UNL     1     262.397 -26.068  54.153  1.00  0.00     0.293 HD
ENDBRANCH  43  46
BRANCH  45  48
ATOM     48  O   UNL     1     264.451 -27.974  55.994  1.00  0.00    -0.493 OA
ATOM     49  C   UNL     1     264.267 -29.180  56.729  1.00  0.00     0.278 C 
ENDBRANCH  45  48
ENDBRANCH  35  40
ENDBRANCH  26  27
ENDBRANCH   5  26
BRANCH   4  50
ATOM     50  O   UNL     1     268.126 -32.637  43.769  1.00  0.00    -0.384 OA
ATOM     51  H   UNL     1     267.618 -32.852  42.945  1.00  0.00     0.211 HD
ENDBRANCH   4  50
TORSDOF 15
ENDMDL
MODEL 7
REMARK VINA RESULT:    -6.454      3.093      6.667
REMARK INTER + INTRA:         -13.004
REMARK INTER:                 -11.197
REMARK INTRA:                  -1.807
REMARK UNBOUND:                -2.399
REMARK SMILES COc1ccc([C@H]2CC(=O)c3c(O)cc(O[C@@H]4O[C@H](CO[C@@H]5O[C@@H](C)[C@H](O)[C@H](O)[C@H]5O)[C@@H](O)[C@H](O)[C@@H]4O)cc3O2)cc1O
REMARK SMILES IDX 19 1 32 2 34 3 36 4 17 5 18 6 20 7 21 8 22 9 25 10 24 11
REMARK SMILES IDX 26 12 23 13 28 14 30 15 27 16 29 18 31 20 33 22 35 24 16 26
REMARK SMILES IDX 15 27 14 28 38 29 12 30 39 31 11 32 40 33 9 34 7 35 10 36
REMARK SMILES IDX 8 37 13 38 6 40 41 41 5 42 42 43 4 44 3 45 43 46 2 48 1 49
REMARK SMILES IDX 37 50
REMARK H PARENT 27 17 29 19 31 21 33 23 35 25 13 39 43 47 37 51
REMARK Flexibility Score: inf
ROOT
ATOM      1  C   UNL     1     268.799 -32.121  50.477  1.00  0.00     0.180 C 
ATOM      2  C   UNL     1     268.041 -33.480  50.410  1.00  0.00     0.177 C 
ATOM      3  C   UNL     1     266.741 -33.468  51.225  1.00  0.00     0.180 C 
ATOM      4  C   UNL     1     267.004 -32.896  52.622  1.00  0.00     0.214 C 
ATOM      5  C   UNL     1     267.729 -31.540  52.538  1.00  0.00     0.339 C 
ATOM      6  O   UNL     1     268.939 -31.603  51.797  1.00  0.00    -0.332 OA
ENDROOT
BRANCH   1   7
ATOM      7  C   UNL     1     268.286 -31.061  49.484  1.00  0.00     0.198 C 
BRANCH   7   8
ATOM      8  O   UNL     1     267.787 -31.706  48.326  1.00  0.00    -0.347 OA
BRANCH   8   9
ATOM      9  C   UNL     1     268.743 -31.781  47.281  1.00  0.00     0.281 C 
ATOM     10  C   UNL     1     266.659 -30.450  44.553  1.00  0.00     0.041 C 
ATOM     11  C   UNL     1     267.068 -31.416  45.665  1.00  0.00     0.150 C 
ATOM     12  C   UNL     1     267.155 -32.863  45.120  1.00  0.00     0.174 C 
ATOM     13  O   UNL     1     268.322 -30.989  46.181  1.00  0.00    -0.344 OA
ATOM     14  C   UNL     1     267.682 -33.821  46.211  1.00  0.00     0.179 C 
ATOM     15  C   UNL     1     268.971 -33.245  46.836  1.00  0.00     0.202 C 
BRANCH  12  16
ATOM     16  O   UNL     1     265.888 -33.279  44.673  1.00  0.00    -0.388 OA
ATOM     17  H   UNL     1     265.796 -34.237  44.931  1.00  0.00     0.211 HD
ENDBRANCH  12  16
BRANCH  14  18
ATOM     18  O   UNL     1     266.714 -34.009  47.219  1.00  0.00    -0.387 OA
ATOM     19  H   UNL     1     266.006 -34.593  46.845  1.00  0.00     0.211 HD
ENDBRANCH  14  18
BRANCH  15  20
ATOM     20  O   UNL     1     270.030 -33.276  45.911  1.00  0.00    -0.385 OA
ATOM     21  H   UNL     1     269.681 -32.939  45.049  1.00  0.00     0.211 HD
ENDBRANCH  15  20
ENDBRANCH   8   9
ENDBRANCH   7   8
ENDBRANCH   1   7
BRANCH   2  22
ATOM     22  O   UNL     1     268.869 -34.537  50.830  1.00  0.00    -0.387 OA
ATOM     23  H   UNL     1     269.024 -34.438  51.805  1.00  0.00     0.211 HD
ENDBRANCH   2  22
BRANCH   3  24
ATOM     24  O   UNL     1     265.759 -32.703  50.567  1.00  0.00    -0.387 OA
ATOM     25  H   UNL     1     265.853 -32.886  49.596  1.00  0.00     0.211 HD
ENDBRANCH   3  24
BRANCH   5  26
ATOM     26  O   UNL     1     266.856 -30.531  52.025  1.00  0.00    -0.462 OA
BRANCH  26  27
ATOM     27  C   UNL     1     266.548 -29.319  52.666  1.00  0.00     0.130 A 
ATOM     28  C   UNL     1     267.210 -28.109  52.380  1.00  0.00     0.093 A 
ATOM     29  C   UNL     1     265.548 -29.332  53.636  1.00  0.00     0.094 A 
ATOM     30  C   UNL     1     266.945 -26.953  53.121  1.00  0.00     0.133 A 
ATOM     31  C   UNL     1     265.252 -28.181  54.369  1.00  0.00     0.138 A 
ATOM     32  C   UNL     1     266.002 -27.002  54.182  1.00  0.00     0.102 A 
ATOM     33  O   UNL     1     264.210 -28.214  55.301  1.00  0.00    -0.484 OA
ATOM     34  C   UNL     1     265.814 -25.912  55.183  1.00  0.00     0.174 C 
ATOM     35  C   UNL     1     263.675 -27.006  55.853  1.00  0.00     0.211 C 
ATOM     36  O   UNL     1     266.572 -24.905  55.213  1.00  0.00    -0.294 OA
ATOM     37  C   UNL     1     264.820 -26.088  56.297  1.00  0.00     0.131 C 
BRANCH  30  38
ATOM     38  O   UNL     1     267.620 -25.786  52.750  1.00  0.00    -0.507 OA
ATOM     39  H   UNL     1     267.815 -25.523  51.794  1.00  0.00     0.293 HD
ENDBRANCH  30  38
BRANCH  35  40
ATOM     40  C   UNL     1     262.749 -27.305  57.009  1.00  0.00    -0.003 A 
ATOM     41  C   UNL     1     262.046 -28.519  57.041  1.00  0.00     0.057 A 
ATOM     42  C   UNL     1     262.514 -26.357  58.018  1.00  0.00     0.011 A 
ATOM     43  C   UNL     1     261.145 -28.801  58.074  1.00  0.00     0.158 A 
ATOM     44  C   UNL     1     261.624 -26.638  59.059  1.00  0.00     0.051 A 
ATOM     45  C   UNL     1     260.935 -27.864  59.100  1.00  0.00     0.160 A 
BRANCH  43  46
ATOM     46  O   UNL     1     260.470 -30.020  58.063  1.00  0.00    -0.504 OA
ATOM     47  H   UNL     1     260.347 -30.561  57.217  1.00  0.00     0.293 HD
ENDBRANCH  43  46
BRANCH  45  48
ATOM     48  O   UNL     1     260.045 -28.183  60.135  1.00  0.00    -0.493 OA
ATOM     49  C   UNL     1     258.684 -27.767  60.182  1.00  0.00     0.278 C 
ENDBRANCH  45  48
ENDBRANCH  35  40
ENDBRANCH  26  27
ENDBRANCH   5  26
BRANCH   4  50
ATOM     50  O   UNL     1     265.798 -32.744  53.329  1.00  0.00    -0.384 OA
ATOM     51  H   UNL     1     265.073 -32.705  52.653  1.00  0.00     0.211 HD
ENDBRANCH   4  50
TORSDOF 15
ENDMDL
MODEL 8
REMARK VINA RESULT:    -6.385      2.195      7.466
REMARK INTER + INTRA:         -12.890
REMARK INTER:                 -10.126
REMARK INTRA:                  -2.764
REMARK UNBOUND:                -2.399
REMARK SMILES COc1ccc([C@H]2CC(=O)c3c(O)cc(O[C@@H]4O[C@H](CO[C@@H]5O[C@@H](C)[C@H](O)[C@H](O)[C@H]5O)[C@@H](O)[C@H](O)[C@@H]4O)cc3O2)cc1O
REMARK SMILES IDX 19 1 32 2 34 3 36 4 17 5 18 6 20 7 21 8 22 9 25 10 24 11
REMARK SMILES IDX 26 12 23 13 28 14 30 15 27 16 29 18 31 20 33 22 35 24 16 26
REMARK SMILES IDX 15 27 14 28 38 29 12 30 39 31 11 32 40 33 9 34 7 35 10 36
REMARK SMILES IDX 8 37 13 38 6 40 41 41 5 42 42 43 4 44 3 45 43 46 2 48 1 49
REMARK SMILES IDX 37 50
REMARK H PARENT 27 17 29 19 31 21 33 23 35 25 13 39 43 47 37 51
REMARK Flexibility Score: inf
ROOT
ATOM      1  C   UNL     1     268.429 -25.457  49.591  1.00  0.00     0.180 C 
ATOM      2  C   UNL     1     268.288 -24.051  48.937  1.00  0.00     0.177 C 
ATOM      3  C   UNL     1     268.051 -24.129  47.423  1.00  0.00     0.180 C 
ATOM      4  C   UNL     1     269.062 -25.085  46.782  1.00  0.00     0.214 C 
ATOM      5  C   UNL     1     269.074 -26.444  47.507  1.00  0.00     0.339 C 
ATOM      6  O   UNL     1     269.323 -26.327  48.901  1.00  0.00    -0.332 OA
ENDROOT
BRANCH   1   7
ATOM      7  C   UNL     1     267.088 -26.139  49.921  1.00  0.00     0.198 C 
BRANCH   7   8
ATOM      8  O   UNL     1     267.335 -27.335  50.637  1.00  0.00    -0.347 OA
BRANCH   8   9
ATOM      9  C   UNL     1     267.528 -27.117  52.025  1.00  0.00     0.281 C 
ATOM     10  C   UNL     1     268.429 -30.556  52.986  1.00  0.00     0.041 C 
ATOM     11  C   UNL     1     267.546 -29.438  52.430  1.00  0.00     0.150 C 
ATOM     12  C   UNL     1     266.182 -29.410  53.165  1.00  0.00     0.174 C 
ATOM     13  O   UNL     1     268.238 -28.208  52.593  1.00  0.00    -0.344 OA
ATOM     14  C   UNL     1     265.336 -28.209  52.687  1.00  0.00     0.179 C 
ATOM     15  C   UNL     1     266.178 -26.916  52.754  1.00  0.00     0.202 C 
BRANCH  12  16
ATOM     16  O   UNL     1     265.495 -30.615  52.936  1.00  0.00    -0.388 OA
ATOM     17  H   UNL     1     264.644 -30.559  53.451  1.00  0.00     0.211 HD
ENDBRANCH  12  16
BRANCH  14  18
ATOM     18  O   UNL     1     264.886 -28.410  51.367  1.00  0.00    -0.387 OA
ATOM     19  H   UNL     1     264.448 -29.299  51.335  1.00  0.00     0.211 HD
ENDBRANCH  14  18
BRANCH  15  20
ATOM     20  O   UNL     1     266.433 -26.556  54.088  1.00  0.00    -0.385 OA
ATOM     21  H   UNL     1     265.659 -26.029  54.407  1.00  0.00     0.211 HD
ENDBRANCH  15  20
ENDBRANCH   8   9
ENDBRANCH   7   8
ENDBRANCH   1   7
BRANCH   2  22
ATOM     22  O   UNL     1     269.414 -23.255  49.213  1.00  0.00    -0.387 OA
ATOM     23  H   UNL     1     270.125 -23.843  49.579  1.00  0.00     0.211 HD
ENDBRANCH   2  22
BRANCH   3  24
ATOM     24  O   UNL     1     266.738 -24.563  47.156  1.00  0.00    -0.387 OA
ATOM     25  H   UNL     1     266.128 -23.842  47.458  1.00  0.00     0.211 HD
ENDBRANCH   3  24
BRANCH   5  26
ATOM     26  O   UNL     1     267.866 -27.164  47.251  1.00  0.00    -0.462 OA
BRANCH  26  27
ATOM     27  C   UNL     1     267.784 -28.532  46.941  1.00  0.00     0.130 A 
ATOM     28  C   UNL     1     267.633 -29.014  45.626  1.00  0.00     0.093 A 
ATOM     29  C   UNL     1     267.843 -29.443  47.994  1.00  0.00     0.094 A 
ATOM     30  C   UNL     1     267.446 -30.377  45.377  1.00  0.00     0.133 A 
ATOM     31  C   UNL     1     267.684 -30.810  47.763  1.00  0.00     0.138 A 
ATOM     32  C   UNL     1     267.398 -31.287  46.466  1.00  0.00     0.102 A 
ATOM     33  O   UNL     1     267.796 -31.702  48.834  1.00  0.00    -0.484 OA
ATOM     34  C   UNL     1     266.971 -32.711  46.347  1.00  0.00     0.174 C 
ATOM     35  C   UNL     1     267.939 -33.109  48.611  1.00  0.00     0.211 C 
ATOM     36  O   UNL     1     266.513 -33.175  45.267  1.00  0.00    -0.294 OA
ATOM     37  C   UNL     1     266.910 -33.576  47.575  1.00  0.00     0.131 C 
BRANCH  30  38
ATOM     38  O   UNL     1     267.340 -30.776  44.041  1.00  0.00    -0.507 OA
ATOM     39  H   UNL     1     266.502 -30.678  43.485  1.00  0.00     0.293 HD
ENDBRANCH  30  38
BRANCH  35  40
ATOM     40  C   UNL     1     267.787 -33.878  49.902  1.00  0.00    -0.003 A 
ATOM     41  C   UNL     1     267.061 -33.317  50.964  1.00  0.00     0.057 A 
ATOM     42  C   UNL     1     268.422 -35.115  50.094  1.00  0.00     0.011 A 
ATOM     43  C   UNL     1     266.945 -33.985  52.188  1.00  0.00     0.158 A 
ATOM     44  C   UNL     1     268.300 -35.794  51.309  1.00  0.00     0.051 A 
ATOM     45  C   UNL     1     267.556 -35.238  52.367  1.00  0.00     0.160 A 
BRANCH  43  46
ATOM     46  O   UNL     1     266.216 -33.388  53.215  1.00  0.00    -0.504 OA
ATOM     47  H   UNL     1     266.641 -33.121  54.094  1.00  0.00     0.293 HD
ENDBRANCH  43  46
BRANCH  45  48
ATOM     48  O   UNL     1     267.403 -35.896  53.595  1.00  0.00    -0.493 OA
ATOM     49  C   UNL     1     266.587 -37.046  53.795  1.00  0.00     0.278 C 
ENDBRANCH  45  48
ENDBRANCH  35  40
ENDBRANCH  26  27
ENDBRANCH   5  26
BRANCH   4  50
ATOM     50  O   UNL     1     268.767 -25.278  45.421  1.00  0.00    -0.384 OA
ATOM     51  H   UNL     1     268.954 -24.418  44.964  1.00  0.00     0.211 HD
ENDBRANCH   4  50
TORSDOF 15
ENDMDL
MODEL 9
REMARK VINA RESULT:    -6.332      4.124     10.240
REMARK INTER + INTRA:         -12.803
REMARK INTER:                 -10.690
REMARK INTRA:                  -2.113
REMARK UNBOUND:                -2.399
REMARK SMILES COc1ccc([C@H]2CC(=O)c3c(O)cc(O[C@@H]4O[C@H](CO[C@@H]5O[C@@H](C)[C@H](O)[C@H](O)[C@H]5O)[C@@H](O)[C@H](O)[C@@H]4O)cc3O2)cc1O
REMARK SMILES IDX 19 1 32 2 34 3 36 4 17 5 18 6 20 7 21 8 22 9 25 10 24 11
REMARK SMILES IDX 26 12 23 13 28 14 30 15 27 16 29 18 31 20 33 22 35 24 16 26
REMARK SMILES IDX 15 27 14 28 38 29 12 30 39 31 11 32 40 33 9 34 7 35 10 36
REMARK SMILES IDX 8 37 13 38 6 40 41 41 5 42 42 43 4 44 3 45 43 46 2 48 1 49
REMARK SMILES IDX 37 50
REMARK H PARENT 27 17 29 19 31 21 33 23 35 25 13 39 43 47 37 51
REMARK Flexibility Score: inf
ROOT
ATOM      1  C   UNL     1     264.239 -25.404  54.254  1.00  0.00     0.180 C 
ATOM      2  C   UNL     1     262.746 -25.241  54.665  1.00  0.00     0.177 C 
ATOM      3  C   UNL     1     261.860 -26.367  54.118  1.00  0.00     0.180 C 
ATOM      4  C   UNL     1     262.142 -26.579  52.627  1.00  0.00     0.214 C 
ATOM      5  C   UNL     1     263.649 -26.757  52.369  1.00  0.00     0.339 C 
ATOM      6  O   UNL     1     264.429 -25.680  52.869  1.00  0.00    -0.332 OA
ENDROOT
BRANCH   1   7
ATOM      7  C   UNL     1     265.044 -26.361  55.156  1.00  0.00     0.198 C 
BRANCH   7   8
ATOM      8  O   UNL     1     264.351 -26.545  56.377  1.00  0.00    -0.347 OA
BRANCH   8   9
ATOM      9  C   UNL     1     264.425 -27.878  56.857  1.00  0.00     0.281 C 
ATOM     10  C   UNL     1     261.195 -27.989  58.622  1.00  0.00     0.041 C 
ATOM     11  C   UNL     1     262.610 -27.499  58.310  1.00  0.00     0.150 C 
ATOM     12  C   UNL     1     263.497 -27.564  59.578  1.00  0.00     0.174 C 
ATOM     13  O   UNL     1     263.140 -28.314  57.274  1.00  0.00    -0.344 OA
ATOM     14  C   UNL     1     264.955 -27.182  59.238  1.00  0.00     0.179 C 
ATOM     15  C   UNL     1     265.439 -27.998  58.020  1.00  0.00     0.202 C 
BRANCH  12  16
ATOM     16  O   UNL     1     262.982 -26.703  60.563  1.00  0.00    -0.388 OA
ATOM     17  H   UNL     1     262.780 -25.840  60.109  1.00  0.00     0.211 HD
ENDBRANCH  12  16
BRANCH  14  18
ATOM     18  O   UNL     1     265.055 -25.806  58.953  1.00  0.00    -0.387 OA
ATOM     19  H   UNL     1     265.831 -25.684  58.349  1.00  0.00     0.211 HD
ENDBRANCH  14  18
BRANCH  15  20
ATOM     20  O   UNL     1     265.583 -29.355  58.354  1.00  0.00    -0.385 OA
ATOM     21  H   UNL     1     266.510 -29.486  58.674  1.00  0.00     0.211 HD
ENDBRANCH  15  20
ENDBRANCH   8   9
ENDBRANCH   7   8
ENDBRANCH   1   7
BRANCH   2  22
ATOM     22  O   UNL     1     262.249 -23.989  54.260  1.00  0.00    -0.387 OA
ATOM     23  H   UNL     1     261.464 -24.145  53.674  1.00  0.00     0.211 HD
ENDBRANCH   2  22
BRANCH   3  24
ATOM     24  O   UNL     1     262.093 -27.561  54.828  1.00  0.00    -0.387 OA
ATOM     25  H   UNL     1     261.951 -27.359  55.789  1.00  0.00     0.211 HD
ENDBRANCH   3  24
BRANCH   5  26
ATOM     26  O   UNL     1     264.105 -28.012  52.880  1.00  0.00    -0.462 OA
BRANCH  26  27
ATOM     27  C   UNL     1     265.189 -28.751  52.376  1.00  0.00     0.130 A 
ATOM     28  C   UNL     1     265.627 -28.657  51.041  1.00  0.00     0.093 A 
ATOM     29  C   UNL     1     265.843 -29.622  53.245  1.00  0.00     0.094 A 
ATOM     30  C   UNL     1     266.638 -29.493  50.556  1.00  0.00     0.133 A 
ATOM     31  C   UNL     1     266.872 -30.446  52.786  1.00  0.00     0.138 A 
ATOM     32  C   UNL     1     267.225 -30.454  51.420  1.00  0.00     0.102 A 
ATOM     33  O   UNL     1     267.540 -31.273  53.693  1.00  0.00    -0.484 OA
ATOM     34  C   UNL     1     268.131 -31.547  50.962  1.00  0.00     0.174 C 
ATOM     35  C   UNL     1     268.778 -31.903  53.344  1.00  0.00     0.211 C 
ATOM     36  O   UNL     1     268.349 -31.753  49.737  1.00  0.00    -0.294 OA
ATOM     37  C   UNL     1     268.659 -32.544  51.956  1.00  0.00     0.131 C 
BRANCH  30  38
ATOM     38  O   UNL     1     267.038 -29.312  49.229  1.00  0.00    -0.507 OA
ATOM     39  H   UNL     1     267.990 -29.134  48.942  1.00  0.00     0.293 HD
ENDBRANCH  30  38
BRANCH  35  40
ATOM     40  C   UNL     1     269.169 -32.934  54.377  1.00  0.00    -0.003 A 
ATOM     41  C   UNL     1     269.088 -34.299  54.063  1.00  0.00     0.057 A 
ATOM     42  C   UNL     1     269.540 -32.558  55.679  1.00  0.00     0.011 A 
ATOM     43  C   UNL     1     269.396 -35.276  55.016  1.00  0.00     0.158 A 
ATOM     44  C   UNL     1     269.861 -33.528  56.631  1.00  0.00     0.051 A 
ATOM     45  C   UNL     1     269.797 -34.897  56.308  1.00  0.00     0.160 A 
BRANCH  43  46
ATOM     46  O   UNL     1     269.300 -36.619  54.658  1.00  0.00    -0.504 OA
ATOM     47  H   UNL     1     268.491 -37.182  54.891  1.00  0.00     0.293 HD
ENDBRANCH  43  46
BRANCH  45  48
ATOM     48  O   UNL     1     270.125 -35.896  57.236  1.00  0.00    -0.493 OA
ATOM     49  C   UNL     1     269.241 -36.380  58.241  1.00  0.00     0.278 C 
ENDBRANCH  45  48
ENDBRANCH  35  40
ENDBRANCH  26  27
ENDBRANCH   5  26
BRANCH   4  50
ATOM     50  O   UNL     1     261.444 -27.701  52.146  1.00  0.00    -0.384 OA
ATOM     51  H   UNL     1     262.108 -28.274  51.684  1.00  0.00     0.211 HD
ENDBRANCH   4  50
TORSDOF 15
ENDMDL
