MODEL 1
REMARK VINA RESULT:    -5.770      0.000      0.000
REMARK INTER + INTRA:          -7.434
REMARK INTER:                  -7.120
REMARK INTRA:                  -0.314
REMARK UNBOUND:                -0.314
REMARK SMILES Oc1cc(O)c2cc(O)c(-c3cc(O)c(O)c(O)c3)[o+]c2c1
REMARK SMILES IDX 10 1 20 2 21 3 22 4 2 5 3 6 4 7 6 8 7 9 8 10 11 11 12 12
REMARK SMILES IDX 13 13 19 14 15 15 17 16 14 17 16 19 18 21 9 23 1 25 5 27
REMARK H PARENT 14 18 16 20 18 22 9 24 1 26 5 28
REMARK Flexibility Score: inf
ROOT
ATOM      1  C   UNL     1      65.961   2.965  13.617  1.00  0.00     0.402 A 
ATOM      2  O   UNL     1      65.080   3.368  14.529  1.00  0.00    -0.202 OA
ATOM      3  C   UNL     1      63.958   2.709  14.801  1.00  0.00     0.368 A 
ATOM      4  C   UNL     1      63.094   3.211  15.778  1.00  0.00     0.162 A 
ATOM      5  C   UNL     1      61.909   2.536  16.086  1.00  0.00     0.128 A 
ATOM      6  C   UNL     1      61.586   1.357  15.413  1.00  0.00     0.093 A 
ATOM      7  C   UNL     1      62.434   0.833  14.430  1.00  0.00     0.136 A 
ATOM      8  C   UNL     1      63.638   1.516  14.111  1.00  0.00     0.125 A 
ATOM      9  C   UNL     1      64.541   1.072  13.131  1.00  0.00     0.078 A 
ATOM     10  C   UNL     1      65.705   1.802  12.870  1.00  0.00     0.223 A 
ENDROOT
BRANCH   1  11
ATOM     11  C   UNL     1      67.180   3.781  13.414  1.00  0.00     0.091 A 
ATOM     12  C   UNL     1      68.442   3.324  13.823  1.00  0.00     0.068 A 
ATOM     13  C   UNL     1      69.580   4.120  13.641  1.00  0.00     0.162 A 
ATOM     14  C   UNL     1      67.068   5.061  12.852  1.00  0.00     0.068 A 
ATOM     15  C   UNL     1      69.469   5.390  13.058  1.00  0.00     0.200 A 
ATOM     16  C   UNL     1      68.197   5.867  12.663  1.00  0.00     0.162 A 
BRANCH  13  17
ATOM     17  O   UNL     1      70.830   3.656  14.045  1.00  0.00    -0.504 OA
ATOM     18  H   UNL     1      71.054   2.668  14.053  1.00  0.00     0.293 HD
ENDBRANCH  13  17
BRANCH  15  19
ATOM     19  O   UNL     1      70.636   6.140  12.892  1.00  0.00    -0.502 OA
ATOM     20  H   UNL     1      71.478   5.790  12.458  1.00  0.00     0.293 HD
ENDBRANCH  15  19
BRANCH  16  21
ATOM     21  O   UNL     1      68.008   7.124  12.085  1.00  0.00    -0.504 OA
ATOM     22  H   UNL     1      68.185   7.333  11.113  1.00  0.00     0.293 HD
ENDBRANCH  16  21
ENDBRANCH   1  11
BRANCH  10  23
ATOM     23  O   UNL     1      66.577   1.389  11.863  1.00  0.00    -0.500 OA
ATOM     24  H   UNL     1      66.427   0.529  11.347  1.00  0.00     0.294 HD
ENDBRANCH  10  23
BRANCH   5  25
ATOM     25  O   UNL     1      61.044   3.031  17.060  1.00  0.00    -0.507 OA
ATOM     26  H   UNL     1      61.015   4.017  17.292  1.00  0.00     0.293 HD
ENDBRANCH   5  25
BRANCH   7  27
ATOM     27  O   UNL     1      62.041  -0.354  13.805  1.00  0.00    -0.507 OA
ATOM     28  H   UNL     1      61.083  -0.620  13.636  1.00  0.00     0.293 HD
ENDBRANCH   7  27
TORSDOF 7
ENDMDL
MODEL 2
REMARK VINA RESULT:    -5.755      1.231      7.264
REMARK INTER + INTRA:          -7.414
REMARK INTER:                  -7.110
REMARK INTRA:                  -0.304
REMARK UNBOUND:                -0.314
REMARK SMILES Oc1cc(O)c2cc(O)c(-c3cc(O)c(O)c(O)c3)[o+]c2c1
REMARK SMILES IDX 10 1 20 2 21 3 22 4 2 5 3 6 4 7 6 8 7 9 8 10 11 11 12 12
REMARK SMILES IDX 13 13 19 14 15 15 17 16 14 17 16 19 18 21 9 23 1 25 5 27
REMARK H PARENT 14 18 16 20 18 22 9 24 1 26 5 28
REMARK Flexibility Score: inf
ROOT
ATOM      1  C   UNL     1      65.604   3.782  13.753  1.00  0.00     0.402 A 
ATOM      2  O   UNL     1      66.791   3.395  14.214  1.00  0.00    -0.202 OA
ATOM      3  C   UNL     1      67.924   4.034  13.942  1.00  0.00     0.368 A 
ATOM      4  C   UNL     1      69.122   3.552  14.475  1.00  0.00     0.162 A 
ATOM      5  C   UNL     1      70.328   4.207  14.207  1.00  0.00     0.128 A 
ATOM      6  C   UNL     1      70.335   5.348  13.402  1.00  0.00     0.093 A 
ATOM      7  C   UNL     1      69.148   5.852  12.855  1.00  0.00     0.136 A 
ATOM      8  C   UNL     1      67.921   5.188  13.122  1.00  0.00     0.125 A 
ATOM      9  C   UNL     1      66.685   5.613  12.607  1.00  0.00     0.078 A 
ATOM     10  C   UNL     1      65.519   4.905  12.911  1.00  0.00     0.223 A 
ENDROOT
BRANCH   1  11
ATOM     11  C   UNL     1      64.412   2.991  14.137  1.00  0.00     0.091 A 
ATOM     12  C   UNL     1      63.442   3.509  15.009  1.00  0.00     0.068 A 
ATOM     13  C   UNL     1      62.333   2.737  15.376  1.00  0.00     0.162 A 
ATOM     14  C   UNL     1      64.275   1.678  13.666  1.00  0.00     0.068 A 
ATOM     15  C   UNL     1      62.185   1.432  14.887  1.00  0.00     0.200 A 
ATOM     16  C   UNL     1      63.171   0.895  14.025  1.00  0.00     0.162 A 
BRANCH  13  17
ATOM     17  O   UNL     1      61.370   3.261  16.237  1.00  0.00    -0.504 OA
ATOM     18  H   UNL     1      61.487   3.238  17.243  1.00  0.00     0.293 HD
ENDBRANCH  13  17
BRANCH  15  19
ATOM     19  O   UNL     1      61.057   0.707  15.278  1.00  0.00    -0.502 OA
ATOM     20  H   UNL     1      60.108   1.041  15.184  1.00  0.00     0.293 HD
ENDBRANCH  15  19
BRANCH  16  21
ATOM     21  O   UNL     1      63.097  -0.400  13.507  1.00  0.00    -0.504 OA
ATOM     22  H   UNL     1      63.856  -1.065  13.535  1.00  0.00     0.293 HD
ENDBRANCH  16  21
ENDBRANCH   1  11
BRANCH  10  23
ATOM     23  O   UNL     1      64.299   5.297  12.359  1.00  0.00    -0.500 OA
ATOM     24  H   UNL     1      64.119   5.231  11.363  1.00  0.00     0.294 HD
ENDBRANCH  10  23
BRANCH   5  25
ATOM     25  O   UNL     1      71.526   3.732  14.735  1.00  0.00    -0.507 OA
ATOM     26  H   UNL     1      72.390   4.253  14.644  1.00  0.00     0.293 HD
ENDBRANCH   5  25
BRANCH   7  27
ATOM     27  O   UNL     1      69.239   6.999  12.063  1.00  0.00    -0.507 OA
ATOM     28  H   UNL     1      69.585   7.890  12.385  1.00  0.00     0.293 HD
ENDBRANCH   7  27
TORSDOF 7
ENDMDL
MODEL 3
REMARK VINA RESULT:    -5.718      3.614      6.708
REMARK INTER + INTRA:          -7.369
REMARK INTER:                  -7.248
REMARK INTRA:                  -0.121
REMARK UNBOUND:                -0.314
REMARK SMILES Oc1cc(O)c2cc(O)c(-c3cc(O)c(O)c(O)c3)[o+]c2c1
REMARK SMILES IDX 10 1 20 2 21 3 22 4 2 5 3 6 4 7 6 8 7 9 8 10 11 11 12 12
REMARK SMILES IDX 13 13 19 14 15 15 17 16 14 17 16 19 18 21 9 23 1 25 5 27
REMARK H PARENT 14 18 16 20 18 22 9 24 1 26 5 28
REMARK Flexibility Score: inf
ROOT
ATOM      1  C   UNL     1      64.453   4.087  12.721  1.00  0.00     0.402 A 
ATOM      2  O   UNL     1      65.591   4.765  12.594  1.00  0.00    -0.202 OA
ATOM      3  C   UNL     1      66.762   4.315  13.032  1.00  0.00     0.368 A 
ATOM      4  C   UNL     1      67.903   5.100  12.850  1.00  0.00     0.162 A 
ATOM      5  C   UNL     1      69.149   4.649  13.299  1.00  0.00     0.128 A 
ATOM      6  C   UNL     1      69.251   3.410  13.933  1.00  0.00     0.093 A 
ATOM      7  C   UNL     1      68.123   2.604  14.128  1.00  0.00     0.136 A 
ATOM      8  C   UNL     1      66.856   3.058  13.677  1.00  0.00     0.125 A 
ATOM      9  C   UNL     1      65.669   2.325  13.840  1.00  0.00     0.078 A 
ATOM     10  C   UNL     1      64.457   2.841  13.372  1.00  0.00     0.223 A 
ENDROOT
BRANCH   1  11
ATOM     11  C   UNL     1      63.213   4.691  12.181  1.00  0.00     0.091 A 
ATOM     12  C   UNL     1      62.088   4.899  12.993  1.00  0.00     0.068 A 
ATOM     13  C   UNL     1      60.918   5.452  12.458  1.00  0.00     0.162 A 
ATOM     14  C   UNL     1      63.140   5.012  10.818  1.00  0.00     0.068 A 
ATOM     15  C   UNL     1      60.853   5.793  11.100  1.00  0.00     0.200 A 
ATOM     16  C   UNL     1      61.977   5.567  10.270  1.00  0.00     0.162 A 
BRANCH  13  17
ATOM     17  O   UNL     1      59.806   5.661  13.273  1.00  0.00    -0.504 OA
ATOM     18  H   UNL     1      59.481   6.593  13.499  1.00  0.00     0.293 HD
ENDBRANCH  13  17
BRANCH  15  19
ATOM     19  O   UNL     1      59.665   6.349  10.619  1.00  0.00    -0.502 OA
ATOM     20  H   UNL     1      58.821   6.442  11.165  1.00  0.00     0.293 HD
ENDBRANCH  15  19
BRANCH  16  21
ATOM     21  O   UNL     1      61.982   5.872   8.907  1.00  0.00    -0.504 OA
ATOM     22  H   UNL     1      61.295   6.458   8.456  1.00  0.00     0.293 HD
ENDBRANCH  16  21
ENDBRANCH   1  11
BRANCH  10  23
ATOM     23  O   UNL     1      63.271   2.136  13.579  1.00  0.00    -0.500 OA
ATOM     24  H   UNL     1      62.379   2.609  13.671  1.00  0.00     0.294 HD
ENDBRANCH  10  23
BRANCH   5  25
ATOM     25  O   UNL     1      70.291   5.427  13.121  1.00  0.00    -0.507 OA
ATOM     26  H   UNL     1      71.142   5.038  12.732  1.00  0.00     0.293 HD
ENDBRANCH   5  25
BRANCH   7  27
ATOM     27  O   UNL     1      68.310   1.376  14.768  1.00  0.00    -0.507 OA
ATOM     28  H   UNL     1      67.584   0.690  14.912  1.00  0.00     0.293 HD
ENDBRANCH   7  27
TORSDOF 7
ENDMDL
MODEL 4
REMARK VINA RESULT:    -5.689      3.660      6.732
REMARK INTER + INTRA:          -7.333
REMARK INTER:                  -7.184
REMARK INTRA:                  -0.149
REMARK UNBOUND:                -0.314
REMARK SMILES Oc1cc(O)c2cc(O)c(-c3cc(O)c(O)c(O)c3)[o+]c2c1
REMARK SMILES IDX 10 1 20 2 21 3 22 4 2 5 3 6 4 7 6 8 7 9 8 10 11 11 12 12
REMARK SMILES IDX 13 13 19 14 15 15 17 16 14 17 16 19 18 21 9 23 1 25 5 27
REMARK H PARENT 14 18 16 20 18 22 9 24 1 26 5 28
REMARK Flexibility Score: inf
ROOT
ATOM      1  C   UNL     1      64.375   4.125  12.659  1.00  0.00     0.402 A 
ATOM      2  O   UNL     1      65.514   4.811  12.593  1.00  0.00    -0.202 OA
ATOM      3  C   UNL     1      66.677   4.338  13.031  1.00  0.00     0.368 A 
ATOM      4  C   UNL     1      67.820   5.133  12.917  1.00  0.00     0.162 A 
ATOM      5  C   UNL     1      69.057   4.659  13.367  1.00  0.00     0.128 A 
ATOM      6  C   UNL     1      69.148   3.386  13.933  1.00  0.00     0.093 A 
ATOM      7  C   UNL     1      68.018   2.570  14.060  1.00  0.00     0.136 A 
ATOM      8  C   UNL     1      66.759   3.048  13.607  1.00  0.00     0.125 A 
ATOM      9  C   UNL     1      65.571   2.305  13.705  1.00  0.00     0.078 A 
ATOM     10  C   UNL     1      64.368   2.845  13.240  1.00  0.00     0.223 A 
ENDROOT
BRANCH   1  11
ATOM     11  C   UNL     1      63.146   4.758  12.127  1.00  0.00     0.091 A 
ATOM     12  C   UNL     1      63.062   5.180  10.791  1.00  0.00     0.068 A 
ATOM     13  C   UNL     1      61.898   5.796  10.313  1.00  0.00     0.162 A 
ATOM     14  C   UNL     1      62.064   4.992  12.986  1.00  0.00     0.068 A 
ATOM     15  C   UNL     1      60.808   6.008  11.167  1.00  0.00     0.200 A 
ATOM     16  C   UNL     1      60.894   5.605  12.521  1.00  0.00     0.162 A 
BRANCH  13  17
ATOM     17  O   UNL     1      61.819   6.206   8.983  1.00  0.00    -0.504 OA
ATOM     18  H   UNL     1      60.934   6.444   8.552  1.00  0.00     0.293 HD
ENDBRANCH  13  17
BRANCH  15  19
ATOM     19  O   UNL     1      59.668   6.619  10.638  1.00  0.00    -0.502 OA
ATOM     20  H   UNL     1      59.621   7.590  10.363  1.00  0.00     0.293 HD
ENDBRANCH  15  19
BRANCH  16  21
ATOM     21  O   UNL     1      59.853   5.794  13.433  1.00  0.00    -0.504 OA
ATOM     22  H   UNL     1      59.211   5.067  13.717  1.00  0.00     0.293 HD
ENDBRANCH  16  21
ENDBRANCH   1  11
BRANCH  10  23
ATOM     23  O   UNL     1      63.179   2.129  13.383  1.00  0.00    -0.500 OA
ATOM     24  H   UNL     1      63.164   1.115  13.373  1.00  0.00     0.294 HD
ENDBRANCH  10  23
BRANCH   5  25
ATOM     25  O   UNL     1      70.200   5.446  13.256  1.00  0.00    -0.507 OA
ATOM     26  H   UNL     1      71.077   5.172  13.685  1.00  0.00     0.293 HD
ENDBRANCH   5  25
BRANCH   7  27
ATOM     27  O   UNL     1      68.194   1.308  14.635  1.00  0.00    -0.507 OA
ATOM     28  H   UNL     1      67.465   0.618  14.732  1.00  0.00     0.293 HD
ENDBRANCH   7  27
TORSDOF 7
ENDMDL
MODEL 5
REMARK VINA RESULT:    -5.540      3.702      5.183
REMARK INTER + INTRA:          -7.150
REMARK INTER:                  -6.865
REMARK INTRA:                  -0.284
REMARK UNBOUND:                -0.314
REMARK SMILES Oc1cc(O)c2cc(O)c(-c3cc(O)c(O)c(O)c3)[o+]c2c1
REMARK SMILES IDX 10 1 20 2 21 3 22 4 2 5 3 6 4 7 6 8 7 9 8 10 11 11 12 12
REMARK SMILES IDX 13 13 19 14 15 15 17 16 14 17 16 19 18 21 9 23 1 25 5 27
REMARK H PARENT 14 18 16 20 18 22 9 24 1 26 5 28
REMARK Flexibility Score: inf
ROOT
ATOM      1  C   UNL     1      65.567   5.274  12.648  1.00  0.00     0.402 A 
ATOM      2  O   UNL     1      65.301   5.296  11.344  1.00  0.00    -0.202 OA
ATOM      3  C   UNL     1      64.129   5.672  10.845  1.00  0.00     0.368 A 
ATOM      4  C   UNL     1      63.945   5.663   9.459  1.00  0.00     0.162 A 
ATOM      5  C   UNL     1      62.722   6.057   8.907  1.00  0.00     0.128 A 
ATOM      6  C   UNL     1      61.680   6.461   9.743  1.00  0.00     0.093 A 
ATOM      7  C   UNL     1      61.838   6.480  11.135  1.00  0.00     0.136 A 
ATOM      8  C   UNL     1      63.077   6.077  11.701  1.00  0.00     0.125 A 
ATOM      9  C   UNL     1      63.321   6.051  13.084  1.00  0.00     0.078 A 
ATOM     10  C   UNL     1      64.567   5.639  13.567  1.00  0.00     0.223 A 
ENDROOT
BRANCH   1  11
ATOM     11  C   UNL     1      66.917   4.845  13.080  1.00  0.00     0.091 A 
ATOM     12  C   UNL     1      68.046   5.648  12.856  1.00  0.00     0.068 A 
ATOM     13  C   UNL     1      69.317   5.214  13.252  1.00  0.00     0.162 A 
ATOM     14  C   UNL     1      67.083   3.586  13.675  1.00  0.00     0.068 A 
ATOM     15  C   UNL     1      69.478   3.965  13.868  1.00  0.00     0.200 A 
ATOM     16  C   UNL     1      68.348   3.140  14.077  1.00  0.00     0.162 A 
BRANCH  13  17
ATOM     17  O   UNL     1      70.432   6.020  13.033  1.00  0.00    -0.504 OA
ATOM     18  H   UNL     1      70.955   5.980  12.166  1.00  0.00     0.293 HD
ENDBRANCH  13  17
BRANCH  15  19
ATOM     19  O   UNL     1      70.766   3.583  14.251  1.00  0.00    -0.502 OA
ATOM     20  H   UNL     1      71.464   3.224  13.616  1.00  0.00     0.293 HD
ENDBRANCH  15  19
BRANCH  16  21
ATOM     21  O   UNL     1      68.432   1.880  14.674  1.00  0.00    -0.504 OA
ATOM     22  H   UNL     1      68.977   1.681  15.501  1.00  0.00     0.293 HD
ENDBRANCH  16  21
ENDBRANCH   1  11
BRANCH  10  23
ATOM     23  O   UNL     1      64.794   5.564  14.941  1.00  0.00    -0.500 OA
ATOM     24  H   UNL     1      64.035   5.625  15.611  1.00  0.00     0.294 HD
ENDBRANCH  10  23
BRANCH   5  25
ATOM     25  O   UNL     1      62.533   6.050   7.527  1.00  0.00    -0.507 OA
ATOM     26  H   UNL     1      61.799   6.596   7.089  1.00  0.00     0.293 HD
ENDBRANCH   5  25
BRANCH   7  27
ATOM     27  O   UNL     1      60.748   6.900  11.902  1.00  0.00    -0.507 OA
ATOM     28  H   UNL     1      60.812   7.526  12.691  1.00  0.00     0.293 HD
ENDBRANCH   7  27
TORSDOF 7
ENDMDL
MODEL 6
REMARK VINA RESULT:    -5.481      3.478      7.311
REMARK INTER + INTRA:          -7.076
REMARK INTER:                  -6.716
REMARK INTRA:                  -0.361
REMARK UNBOUND:                -0.314
REMARK SMILES Oc1cc(O)c2cc(O)c(-c3cc(O)c(O)c(O)c3)[o+]c2c1
REMARK SMILES IDX 10 1 20 2 21 3 22 4 2 5 3 6 4 7 6 8 7 9 8 10 11 11 12 12
REMARK SMILES IDX 13 13 19 14 15 15 17 16 14 17 16 19 18 21 9 23 1 25 5 27
REMARK H PARENT 14 18 16 20 18 22 9 24 1 26 5 28
REMARK Flexibility Score: inf
ROOT
ATOM      1  C   UNL     1      63.529   4.026  12.687  1.00  0.00     0.402 A 
ATOM      2  O   UNL     1      62.706   4.506  11.759  1.00  0.00    -0.202 OA
ATOM      3  C   UNL     1      63.095   5.338  10.798  1.00  0.00     0.368 A 
ATOM      4  C   UNL     1      62.156   5.787   9.866  1.00  0.00     0.162 A 
ATOM      5  C   UNL     1      62.540   6.660   8.842  1.00  0.00     0.128 A 
ATOM      6  C   UNL     1      63.867   7.085   8.753  1.00  0.00     0.093 A 
ATOM      7  C   UNL     1      64.827   6.650   9.675  1.00  0.00     0.136 A 
ATOM      8  C   UNL     1      64.442   5.766  10.717  1.00  0.00     0.125 A 
ATOM      9  C   UNL     1      65.333   5.289  11.693  1.00  0.00     0.078 A 
ATOM     10  C   UNL     1      64.878   4.423  12.692  1.00  0.00     0.223 A 
ENDROOT
BRANCH   1  11
ATOM     11  C   UNL     1      62.976   3.097  13.700  1.00  0.00     0.091 A 
ATOM     12  C   UNL     1      62.306   3.572  14.838  1.00  0.00     0.068 A 
ATOM     13  C   UNL     1      61.809   2.678  15.795  1.00  0.00     0.162 A 
ATOM     14  C   UNL     1      63.174   1.718  13.551  1.00  0.00     0.068 A 
ATOM     15  C   UNL     1      61.987   1.298  15.633  1.00  0.00     0.200 A 
ATOM     16  C   UNL     1      62.682   0.812  14.499  1.00  0.00     0.162 A 
BRANCH  13  17
ATOM     17  O   UNL     1      61.138   3.157  16.918  1.00  0.00    -0.504 OA
ATOM     18  H   UNL     1      61.284   2.755  17.837  1.00  0.00     0.293 HD
ENDBRANCH  13  17
BRANCH  15  19
ATOM     19  O   UNL     1      61.465   0.449  16.612  1.00  0.00    -0.502 OA
ATOM     20  H   UNL     1      61.683  -0.535  16.684  1.00  0.00     0.293 HD
ENDBRANCH  15  19
BRANCH  16  21
ATOM     21  O   UNL     1      62.906  -0.548  14.277  1.00  0.00    -0.504 OA
ATOM     22  H   UNL     1      62.360  -1.116  13.645  1.00  0.00     0.293 HD
ENDBRANCH  16  21
ENDBRANCH   1  11
BRANCH  10  23
ATOM     23  O   UNL     1      65.750   3.988  13.690  1.00  0.00    -0.500 OA
ATOM     24  H   UNL     1      66.751   4.141  13.628  1.00  0.00     0.294 HD
ENDBRANCH  10  23
BRANCH   5  25
ATOM     25  O   UNL     1      61.610   7.112   7.910  1.00  0.00    -0.507 OA
ATOM     26  H   UNL     1      61.711   6.914   6.921  1.00  0.00     0.293 HD
ENDBRANCH   5  25
BRANCH   7  27
ATOM     27  O   UNL     1      66.134   7.119   9.515  1.00  0.00    -0.507 OA
ATOM     28  H   UNL     1      66.496   7.523   8.664  1.00  0.00     0.293 HD
ENDBRANCH   7  27
TORSDOF 7
ENDMDL
MODEL 7
REMARK VINA RESULT:    -5.432      3.275      4.432
REMARK INTER + INTRA:          -7.017
REMARK INTER:                  -6.637
REMARK INTRA:                  -0.379
REMARK UNBOUND:                -0.314
REMARK SMILES Oc1cc(O)c2cc(O)c(-c3cc(O)c(O)c(O)c3)[o+]c2c1
REMARK SMILES IDX 10 1 20 2 21 3 22 4 2 5 3 6 4 7 6 8 7 9 8 10 11 11 12 12
REMARK SMILES IDX 13 13 19 14 15 15 17 16 14 17 16 19 18 21 9 23 1 25 5 27
REMARK H PARENT 14 18 16 20 18 22 9 24 1 26 5 28
REMARK Flexibility Score: inf
ROOT
ATOM      1  C   UNL     1      66.114   4.705  12.920  1.00  0.00     0.402 A 
ATOM      2  O   UNL     1      65.866   5.508  11.888  1.00  0.00    -0.202 OA
ATOM      3  C   UNL     1      64.771   5.419  11.141  1.00  0.00     0.368 A 
ATOM      4  C   UNL     1      64.599   6.310  10.078  1.00  0.00     0.162 A 
ATOM      5  C   UNL     1      63.454   6.240   9.277  1.00  0.00     0.128 A 
ATOM      6  C   UNL     1      62.480   5.275   9.541  1.00  0.00     0.093 A 
ATOM      7  C   UNL     1      62.628   4.371  10.599  1.00  0.00     0.136 A 
ATOM      8  C   UNL     1      63.790   4.436  11.413  1.00  0.00     0.125 A 
ATOM      9  C   UNL     1      64.030   3.562  12.487  1.00  0.00     0.078 A 
ATOM     10  C   UNL     1      65.201   3.685  13.241  1.00  0.00     0.223 A 
ENDROOT
BRANCH   1  11
ATOM     11  C   UNL     1      67.367   4.912  13.683  1.00  0.00     0.091 A 
ATOM     12  C   UNL     1      68.548   4.233  13.346  1.00  0.00     0.068 A 
ATOM     13  C   UNL     1      69.716   4.426  14.093  1.00  0.00     0.162 A 
ATOM     14  C   UNL     1      67.362   5.760  14.799  1.00  0.00     0.068 A 
ATOM     15  C   UNL     1      69.716   5.292  15.195  1.00  0.00     0.200 A 
ATOM     16  C   UNL     1      68.523   5.963  15.555  1.00  0.00     0.162 A 
BRANCH  13  17
ATOM     17  O   UNL     1      70.887   3.754  13.748  1.00  0.00    -0.504 OA
ATOM     18  H   UNL     1      71.098   3.511  12.787  1.00  0.00     0.293 HD
ENDBRANCH  13  17
BRANCH  15  19
ATOM     19  O   UNL     1      70.910   5.455  15.902  1.00  0.00    -0.502 OA
ATOM     20  H   UNL     1      71.779   5.759  15.486  1.00  0.00     0.293 HD
ENDBRANCH  15  19
BRANCH  16  21
ATOM     21  O   UNL     1      68.445   6.831  16.646  1.00  0.00    -0.504 OA
ATOM     22  H   UNL     1      68.400   7.837  16.566  1.00  0.00     0.293 HD
ENDBRANCH  16  21
ENDBRANCH   1  11
BRANCH  10  23
ATOM     23  O   UNL     1      65.464   2.787  14.276  1.00  0.00    -0.500 OA
ATOM     24  H   UNL     1      64.739   2.487  14.918  1.00  0.00     0.294 HD
ENDBRANCH  10  23
BRANCH   5  25
ATOM     25  O   UNL     1      63.276   7.125   8.217  1.00  0.00    -0.507 OA
ATOM     26  H   UNL     1      62.578   6.960   7.500  1.00  0.00     0.293 HD
ENDBRANCH   5  25
BRANCH   7  27
ATOM     27  O   UNL     1      61.607   3.438  10.799  1.00  0.00    -0.507 OA
ATOM     28  H   UNL     1      61.078   3.343  11.653  1.00  0.00     0.293 HD
ENDBRANCH   7  27
TORSDOF 7
ENDMDL
MODEL 8
REMARK VINA RESULT:    -5.291      3.279      6.464
REMARK INTER + INTRA:          -6.842
REMARK INTER:                  -6.924
REMARK INTRA:                   0.081
REMARK UNBOUND:                -0.314
REMARK SMILES Oc1cc(O)c2cc(O)c(-c3cc(O)c(O)c(O)c3)[o+]c2c1
REMARK SMILES IDX 10 1 20 2 21 3 22 4 2 5 3 6 4 7 6 8 7 9 8 10 11 11 12 12
REMARK SMILES IDX 13 13 19 14 15 15 17 16 14 17 16 19 18 21 9 23 1 25 5 27
REMARK H PARENT 14 18 16 20 18 22 9 24 1 26 5 28
REMARK Flexibility Score: inf
ROOT
ATOM      1  C   UNL     1      65.596   4.490  13.130  1.00  0.00     0.402 A 
ATOM      2  O   UNL     1      66.912   4.503  12.932  1.00  0.00    -0.202 OA
ATOM      3  C   UNL     1      67.797   4.246  13.891  1.00  0.00     0.368 A 
ATOM      4  C   UNL     1      69.160   4.282  13.585  1.00  0.00     0.162 A 
ATOM      5  C   UNL     1      70.112   4.013  14.574  1.00  0.00     0.128 A 
ATOM      6  C   UNL     1      69.698   3.708  15.872  1.00  0.00     0.093 A 
ATOM      7  C   UNL     1      68.338   3.666  16.204  1.00  0.00     0.136 A 
ATOM      8  C   UNL     1      67.368   3.942  15.205  1.00  0.00     0.125 A 
ATOM      9  C   UNL     1      65.985   3.935  15.449  1.00  0.00     0.078 A 
ATOM     10  C   UNL     1      65.089   4.221  14.414  1.00  0.00     0.223 A 
ENDROOT
BRANCH   1  11
ATOM     11  C   UNL     1      64.713   4.782  11.978  1.00  0.00     0.091 A 
ATOM     12  C   UNL     1      65.002   5.821  11.081  1.00  0.00     0.068 A 
ATOM     13  C   UNL     1      64.143   6.096  10.010  1.00  0.00     0.162 A 
ATOM     14  C   UNL     1      63.532   4.045  11.810  1.00  0.00     0.068 A 
ATOM     15  C   UNL     1      62.975   5.343   9.829  1.00  0.00     0.200 A 
ATOM     16  C   UNL     1      62.664   4.308  10.743  1.00  0.00     0.162 A 
BRANCH  13  17
ATOM     17  O   UNL     1      64.441   7.125   9.118  1.00  0.00    -0.504 OA
ATOM     18  H   UNL     1      64.646   8.064   9.439  1.00  0.00     0.293 HD
ENDBRANCH  13  17
BRANCH  15  19
ATOM     19  O   UNL     1      62.155   5.652   8.740  1.00  0.00    -0.502 OA
ATOM     20  H   UNL     1      61.268   5.207   8.554  1.00  0.00     0.293 HD
ENDBRANCH  15  19
BRANCH  16  21
ATOM     21  O   UNL     1      61.514   3.523  10.633  1.00  0.00    -0.504 OA
ATOM     22  H   UNL     1      60.700   3.784  10.095  1.00  0.00     0.293 HD
ENDBRANCH  16  21
ENDBRANCH   1  11
BRANCH  10  23
ATOM     23  O   UNL     1      63.718   4.264  14.667  1.00  0.00    -0.500 OA
ATOM     24  H   UNL     1      63.094   4.850  14.123  1.00  0.00     0.294 HD
ENDBRANCH  10  23
BRANCH   5  25
ATOM     25  O   UNL     1      71.472   4.046  14.276  1.00  0.00    -0.507 OA
ATOM     26  H   UNL     1      72.001   4.910  14.311  1.00  0.00     0.293 HD
ENDBRANCH   5  25
BRANCH   7  27
ATOM     27  O   UNL     1      68.006   3.351  17.525  1.00  0.00    -0.507 OA
ATOM     28  H   UNL     1      68.669   3.298  18.284  1.00  0.00     0.293 HD
ENDBRANCH   7  27
TORSDOF 7
ENDMDL
MODEL 9
REMARK VINA RESULT:    -5.275      2.474      3.929
REMARK INTER + INTRA:          -6.823
REMARK INTER:                  -6.456
REMARK INTRA:                  -0.367
REMARK UNBOUND:                -0.314
REMARK SMILES Oc1cc(O)c2cc(O)c(-c3cc(O)c(O)c(O)c3)[o+]c2c1
REMARK SMILES IDX 10 1 20 2 21 3 22 4 2 5 3 6 4 7 6 8 7 9 8 10 11 11 12 12
REMARK SMILES IDX 13 13 19 14 15 15 17 16 14 17 16 19 18 21 9 23 1 25 5 27
REMARK H PARENT 14 18 16 20 18 22 9 24 1 26 5 28
REMARK Flexibility Score: inf
ROOT
ATOM      1  C   UNL     1      67.538   4.773  13.951  1.00  0.00     0.402 A 
ATOM      2  O   UNL     1      66.621   3.857  14.251  1.00  0.00    -0.202 OA
ATOM      3  C   UNL     1      65.494   3.700  13.564  1.00  0.00     0.368 A 
ATOM      4  C   UNL     1      64.592   2.707  13.956  1.00  0.00     0.162 A 
ATOM      5  C   UNL     1      63.400   2.518  13.248  1.00  0.00     0.128 A 
ATOM      6  C   UNL     1      63.111   3.326  12.147  1.00  0.00     0.093 A 
ATOM      7  C   UNL     1      63.997   4.327  11.734  1.00  0.00     0.136 A 
ATOM      8  C   UNL     1      65.208   4.525  12.450  1.00  0.00     0.125 A 
ATOM      9  C   UNL     1      66.149   5.513  12.117  1.00  0.00     0.078 A 
ATOM     10  C   UNL     1      67.317   5.650  12.873  1.00  0.00     0.223 A 
ENDROOT
BRANCH   1  11
ATOM     11  C   UNL     1      68.758   4.843  14.787  1.00  0.00     0.091 A 
ATOM     12  C   UNL     1      69.969   4.276  14.361  1.00  0.00     0.068 A 
ATOM     13  C   UNL     1      71.107   4.333  15.175  1.00  0.00     0.162 A 
ATOM     14  C   UNL     1      68.693   5.436  16.055  1.00  0.00     0.068 A 
ATOM     15  C   UNL     1      71.045   4.947  16.434  1.00  0.00     0.200 A 
ATOM     16  C   UNL     1      69.822   5.501  16.880  1.00  0.00     0.162 A 
BRANCH  13  17
ATOM     17  O   UNL     1      72.307   3.774  14.742  1.00  0.00    -0.504 OA
ATOM     18  H   UNL     1      72.457   3.521  13.772  1.00  0.00     0.293 HD
ENDBRANCH  13  17
BRANCH  15  19
ATOM     19  O   UNL     1      72.211   4.984  17.204  1.00  0.00    -0.502 OA
ATOM     20  H   UNL     1      72.808   5.793  17.289  1.00  0.00     0.293 HD
ENDBRANCH  15  19
BRANCH  16  21
ATOM     21  O   UNL     1      69.683   6.119  18.125  1.00  0.00    -0.504 OA
ATOM     22  H   UNL     1      70.256   5.906  18.929  1.00  0.00     0.293 HD
ENDBRANCH  16  21
ENDBRANCH   1  11
BRANCH  10  23
ATOM     23  O   UNL     1      68.229   6.663  12.574  1.00  0.00    -0.500 OA
ATOM     24  H   UNL     1      69.096   6.472  12.084  1.00  0.00     0.294 HD
ENDBRANCH  10  23
BRANCH   5  25
ATOM     25  O   UNL     1      62.497   1.531  13.633  1.00  0.00    -0.507 OA
ATOM     26  H   UNL     1      61.796   1.701  14.346  1.00  0.00     0.293 HD
ENDBRANCH   5  25
BRANCH   7  27
ATOM     27  O   UNL     1      63.635   5.091  10.620  1.00  0.00    -0.507 OA
ATOM     28  H   UNL     1      63.416   6.075  10.649  1.00  0.00     0.293 HD
ENDBRANCH   7  27
TORSDOF 7
ENDMDL
