MODEL 1
REMARK VINA RESULT:    -5.913      0.000      0.000
REMARK INTER + INTRA:         -11.961
REMARK INTER:                 -11.099
REMARK INTRA:                  -0.862
REMARK UNBOUND:                -0.862
REMARK SMILES O=C([O-])CCCCCCCCCCCCCCC(=O)[O-]
REMARK SMILES IDX 10 1 9 2 8 3 7 4 6 5 5 6 4 7 2 8 1 9 3 10 11 11 12 12 13 13
REMARK SMILES IDX 14 14 15 15 16 16 17 17 18 18 19 19 20 20
REMARK H PARENT
REMARK Flexibility Score: inf
ROOT
ATOM      1  C   UNL     1     -10.674  -1.381  -8.845  1.00  0.00     0.000 C 
ENDROOT
BRANCH   1   2
ATOM      2  C   UNL     1     -10.280  -2.509  -7.872  1.00  0.00     0.000 C 
BRANCH   2   3
ATOM      3  C   UNL     1      -9.392  -3.581  -8.527  1.00  0.00     0.000 C 
BRANCH   3   4
ATOM      4  C   UNL     1     -10.098  -4.942  -8.641  1.00  0.00     0.000 C 
BRANCH   4   5
ATOM      5  C   UNL     1     -11.272  -5.084  -7.660  1.00  0.00     0.000 C 
BRANCH   5   6
ATOM      6  C   UNL     1     -10.824  -5.774  -6.366  1.00  0.00     0.006 C 
BRANCH   6   7
ATOM      7  C   UNL     1     -11.987  -5.895  -5.376  1.00  0.00     0.053 C 
BRANCH   7   8
ATOM      8  C   UNL     1     -12.978  -6.908  -5.852  1.00  0.00     0.041 C 
ATOM      9  O   UNL     1     -14.211  -6.715  -5.687  1.00  0.00    -0.550 OA
ATOM     10  O   UNL     1     -12.539  -8.090  -6.435  1.00  0.00    -0.550 OA
ENDBRANCH   7   8
ENDBRANCH   6   7
ENDBRANCH   5   6
ENDBRANCH   4   5
ENDBRANCH   3   4
ENDBRANCH   2   3
ENDBRANCH   1   2
BRANCH   1  11
ATOM     11  C   UNL     1     -11.584  -1.811 -10.011  1.00  0.00     0.000 C 
BRANCH  11  12
ATOM     12  C   UNL     1     -12.545  -0.703 -10.462  1.00  0.00     0.000 C 
BRANCH  12  13
ATOM     13  C   UNL     1     -13.999  -1.192 -10.437  1.00  0.00     0.000 C 
BRANCH  13  14
ATOM     14  C   UNL     1     -14.976  -0.026 -10.627  1.00  0.00     0.000 C 
BRANCH  14  15
ATOM     15  C   UNL     1     -15.095   0.806  -9.341  1.00  0.00     0.000 C 
BRANCH  15  16
ATOM     16  C   UNL     1     -14.605   2.251  -9.523  1.00  0.00     0.006 C 
BRANCH  16  17
ATOM     17  C   UNL     1     -13.088   2.388  -9.335  1.00  0.00     0.053 C 
BRANCH  17  18
ATOM     18  C   UNL     1     -12.765   3.647  -8.594  1.00  0.00     0.041 C 
ATOM     19  O   UNL     1     -11.593   3.859  -8.186  1.00  0.00    -0.550 OA
ATOM     20  O   UNL     1     -13.769   4.564  -8.311  1.00  0.00    -0.550 OA
ENDBRANCH  17  18
ENDBRANCH  16  17
ENDBRANCH  15  16
ENDBRANCH  14  15
ENDBRANCH  13  14
ENDBRANCH  12  13
ENDBRANCH  11  12
ENDBRANCH   1  11
TORSDOF 15
ENDMDL
MODEL 2
REMARK VINA RESULT:    -5.880      0.787      8.568
REMARK INTER + INTRA:         -11.899
REMARK INTER:                 -10.947
REMARK INTRA:                  -0.952
REMARK UNBOUND:                -0.862
REMARK SMILES O=C([O-])CCCCCCCCCCCCCCC(=O)[O-]
REMARK SMILES IDX 10 1 9 2 8 3 7 4 6 5 5 6 4 7 2 8 1 9 3 10 11 11 12 12 13 13
REMARK SMILES IDX 14 14 15 15 16 16 17 17 18 18 19 19 20 20
REMARK H PARENT
REMARK Flexibility Score: inf
ROOT
ATOM      1  C   UNL     1     -10.998  -1.164  -9.255  1.00  0.00     0.000 C 
ENDROOT
BRANCH   1   2
ATOM      2  C   UNL     1     -11.894  -0.691 -10.415  1.00  0.00     0.000 C 
BRANCH   2   3
ATOM      3  C   UNL     1     -13.320  -1.264 -10.342  1.00  0.00     0.000 C 
BRANCH   3   4
ATOM      4  C   UNL     1     -14.392  -0.226 -10.717  1.00  0.00     0.000 C 
BRANCH   4   5
ATOM      5  C   UNL     1     -14.910   0.555  -9.499  1.00  0.00     0.000 C 
BRANCH   5   6
ATOM      6  C   UNL     1     -14.533   2.038  -9.600  1.00  0.00     0.006 C 
BRANCH   6   7
ATOM      7  C   UNL     1     -13.049   2.251  -9.282  1.00  0.00     0.053 C 
BRANCH   7   8
ATOM      8  C   UNL     1     -12.834   3.591  -8.655  1.00  0.00     0.041 C 
ATOM      9  O   UNL     1     -11.685   3.935  -8.272  1.00  0.00    -0.550 OA
ATOM     10  O   UNL     1     -13.912   4.443  -8.447  1.00  0.00    -0.550 OA
ENDBRANCH   7   8
ENDBRANCH   6   7
ENDBRANCH   5   6
ENDBRANCH   4   5
ENDBRANCH   3   4
ENDBRANCH   2   3
ENDBRANCH   1   2
BRANCH   1  11
ATOM     11  C   UNL     1     -10.937  -2.689  -9.056  1.00  0.00     0.000 C 
BRANCH  11  12
ATOM     12  C   UNL     1      -9.505  -3.217  -8.892  1.00  0.00     0.000 C 
BRANCH  12  13
ATOM     13  C   UNL     1      -9.482  -4.750  -8.873  1.00  0.00     0.000 C 
BRANCH  13  14
ATOM     14  C   UNL     1     -10.904  -5.323  -8.866  1.00  0.00     0.000 C 
BRANCH  14  15
ATOM     15  C   UNL     1     -10.953  -6.661  -8.113  1.00  0.00     0.000 C 
BRANCH  15  16
ATOM     16  C   UNL     1     -10.520  -6.530  -6.644  1.00  0.00     0.006 C 
BRANCH  16  17
ATOM     17  C   UNL     1     -11.594  -5.872  -5.769  1.00  0.00     0.053 C 
BRANCH  17  18
ATOM     18  C   UNL     1     -12.709  -6.833  -5.497  1.00  0.00     0.041 C 
ATOM     19  O   UNL     1     -12.508  -7.849  -4.781  1.00  0.00    -0.550 OA
ATOM     20  O   UNL     1     -13.955  -6.634  -6.077  1.00  0.00    -0.550 OA
ENDBRANCH  17  18
ENDBRANCH  16  17
ENDBRANCH  15  16
ENDBRANCH  14  15
ENDBRANCH  13  14
ENDBRANCH  12  13
ENDBRANCH  11  12
ENDBRANCH   1  11
TORSDOF 15
ENDMDL
MODEL 3
REMARK VINA RESULT:    -5.581      1.409      8.422
REMARK INTER + INTRA:         -11.337
REMARK INTER:                 -10.199
REMARK INTRA:                  -1.137
REMARK UNBOUND:                -0.862
REMARK SMILES O=C([O-])CCCCCCCCCCCCCCC(=O)[O-]
REMARK SMILES IDX 10 1 9 2 8 3 7 4 6 5 5 6 4 7 2 8 1 9 3 10 11 11 12 12 13 13
REMARK SMILES IDX 14 14 15 15 16 16 17 17 18 18 19 19 20 20
REMARK H PARENT
REMARK Flexibility Score: inf
ROOT
ATOM      1  C   UNL     1     -10.506  -3.104  -9.590  1.00  0.00     0.000 C 
ENDROOT
BRANCH   1   2
ATOM      2  C   UNL     1     -10.623  -1.747  -8.870  1.00  0.00     0.000 C 
BRANCH   2   3
ATOM      3  C   UNL     1     -11.093  -0.615  -9.798  1.00  0.00     0.000 C 
BRANCH   3   4
ATOM      4  C   UNL     1     -12.427  -0.937 -10.492  1.00  0.00     0.000 C 
BRANCH   4   5
ATOM      5  C   UNL     1     -13.497   0.138 -10.248  1.00  0.00     0.000 C 
BRANCH   5   6
ATOM      6  C   UNL     1     -12.909   1.332  -9.486  1.00  0.00     0.006 C 
BRANCH   6   7
ATOM      7  C   UNL     1     -13.976   2.401  -9.230  1.00  0.00     0.053 C 
BRANCH   7   8
ATOM      8  C   UNL     1     -13.362   3.617  -8.613  1.00  0.00     0.041 C 
ATOM      9  O   UNL     1     -14.012   4.303  -7.781  1.00  0.00    -0.550 OA
ATOM     10  O   UNL     1     -12.089   4.023  -8.994  1.00  0.00    -0.550 OA
ENDBRANCH   7   8
ENDBRANCH   6   7
ENDBRANCH   5   6
ENDBRANCH   4   5
ENDBRANCH   3   4
ENDBRANCH   2   3
ENDBRANCH   1   2
BRANCH   1  11
ATOM     11  C   UNL     1     -11.017  -4.316  -8.789  1.00  0.00     0.000 C 
BRANCH  11  12
ATOM     12  C   UNL     1      -9.887  -5.129  -8.142  1.00  0.00     0.000 C 
BRANCH  12  13
ATOM     13  C   UNL     1     -10.446  -6.147  -7.141  1.00  0.00     0.000 C 
BRANCH  13  14
ATOM     14  C   UNL     1     -10.967  -5.450  -5.878  1.00  0.00     0.000 C 
BRANCH  14  15
ATOM     15  C   UNL     1     -12.353  -5.986  -5.488  1.00  0.00     0.000 C 
BRANCH  15  16
ATOM     16  C   UNL     1     -12.667  -7.343  -6.138  1.00  0.00     0.006 C 
BRANCH  16  17
ATOM     17  C   UNL     1     -13.991  -7.333  -6.913  1.00  0.00     0.053 C 
BRANCH  17  18
ATOM     18  C   UNL     1     -13.793  -6.751  -8.277  1.00  0.00     0.041 C 
ATOM     19  O   UNL     1     -14.355  -5.669  -8.592  1.00  0.00    -0.550 OA
ATOM     20  O   UNL     1     -13.029  -7.429  -9.218  1.00  0.00    -0.550 OA
ENDBRANCH  17  18
ENDBRANCH  16  17
ENDBRANCH  15  16
ENDBRANCH  14  15
ENDBRANCH  13  14
ENDBRANCH  12  13
ENDBRANCH  11  12
ENDBRANCH   1  11
TORSDOF 15
ENDMDL
MODEL 4
REMARK VINA RESULT:    -5.515      1.391      8.544
REMARK INTER + INTRA:         -11.213
REMARK INTER:                  -9.844
REMARK INTRA:                  -1.368
REMARK UNBOUND:                -0.862
REMARK SMILES O=C([O-])CCCCCCCCCCCCCCC(=O)[O-]
REMARK SMILES IDX 10 1 9 2 8 3 7 4 6 5 5 6 4 7 2 8 1 9 3 10 11 11 12 12 13 13
REMARK SMILES IDX 14 14 15 15 16 16 17 17 18 18 19 19 20 20
REMARK H PARENT
REMARK Flexibility Score: inf
ROOT
ATOM      1  C   UNL     1     -10.596  -4.036  -8.135  1.00  0.00     0.000 C 
ENDROOT
BRANCH   1   2
ATOM      2  C   UNL     1     -10.237  -2.572  -8.453  1.00  0.00     0.000 C 
BRANCH   2   3
ATOM      3  C   UNL     1     -10.666  -2.144  -9.868  1.00  0.00     0.000 C 
BRANCH   3   4
ATOM      4  C   UNL     1     -11.258  -0.725  -9.900  1.00  0.00     0.000 C 
BRANCH   4   5
ATOM      5  C   UNL     1     -12.739  -0.711 -10.307  1.00  0.00     0.000 C 
BRANCH   5   6
ATOM      6  C   UNL     1     -13.406   0.608  -9.900  1.00  0.00     0.006 C 
BRANCH   6   7
ATOM      7  C   UNL     1     -12.389   1.570  -9.279  1.00  0.00     0.053 C 
BRANCH   7   8
ATOM      8  C   UNL     1     -12.970   2.943  -9.162  1.00  0.00     0.041 C 
ATOM      9  O   UNL     1     -12.261   3.954  -9.410  1.00  0.00    -0.550 OA
ATOM     10  O   UNL     1     -14.280   3.110  -8.732  1.00  0.00    -0.550 OA
ENDBRANCH   7   8
ENDBRANCH   6   7
ENDBRANCH   5   6
ENDBRANCH   4   5
ENDBRANCH   3   4
ENDBRANCH   2   3
ENDBRANCH   1   2
BRANCH   1  11
ATOM     11  C   UNL     1     -11.917  -4.534  -8.749  1.00  0.00     0.000 C 
BRANCH  11  12
ATOM     12  C   UNL     1     -11.912  -6.040  -9.042  1.00  0.00     0.000 C 
BRANCH  12  13
ATOM     13  C   UNL     1     -10.572  -6.674  -8.649  1.00  0.00     0.000 C 
BRANCH  13  14
ATOM     14  C   UNL     1     -10.781  -7.872  -7.716  1.00  0.00     0.000 C 
BRANCH  14  15
ATOM     15  C   UNL     1     -10.557  -7.472  -6.249  1.00  0.00     0.000 C 
BRANCH  15  16
ATOM     16  C   UNL     1     -11.814  -7.662  -5.385  1.00  0.00     0.006 C 
BRANCH  16  17
ATOM     17  C   UNL     1     -12.791  -6.484  -5.497  1.00  0.00     0.053 C 
BRANCH  17  18
ATOM     18  C   UNL     1     -14.137  -6.963  -5.942  1.00  0.00     0.041 C 
ATOM     19  O   UNL     1     -14.634  -6.545  -7.021  1.00  0.00    -0.550 OA
ATOM     20  O   UNL     1     -14.866  -7.831  -5.139  1.00  0.00    -0.550 OA
ENDBRANCH  17  18
ENDBRANCH  16  17
ENDBRANCH  15  16
ENDBRANCH  14  15
ENDBRANCH  13  14
ENDBRANCH  12  13
ENDBRANCH  11  12
ENDBRANCH   1  11
TORSDOF 15
ENDMDL
MODEL 5
REMARK VINA RESULT:    -5.227     16.018     18.252
REMARK INTER + INTRA:         -10.673
REMARK INTER:                  -8.907
REMARK INTRA:                  -1.766
REMARK UNBOUND:                -0.862
REMARK SMILES O=C([O-])CCCCCCCCCCCCCCC(=O)[O-]
REMARK SMILES IDX 10 1 9 2 8 3 7 4 6 5 5 6 4 7 2 8 1 9 3 10 11 11 12 12 13 13
REMARK SMILES IDX 14 14 15 15 16 16 17 17 18 18 19 19 20 20
REMARK H PARENT
REMARK Flexibility Score: inf
ROOT
ATOM      1  C   UNL     1     -10.970   3.821   8.018  1.00  0.00     0.000 C 
ENDROOT
BRANCH   1   2
ATOM      2  C   UNL     1     -12.465   4.015   8.335  1.00  0.00     0.000 C 
BRANCH   2   3
ATOM      3  C   UNL     1     -12.757   5.339   9.062  1.00  0.00     0.000 C 
BRANCH   3   4
ATOM      4  C   UNL     1     -13.646   6.281   8.235  1.00  0.00     0.000 C 
BRANCH   4   5
ATOM      5  C   UNL     1     -12.862   7.456   7.630  1.00  0.00     0.000 C 
BRANCH   5   6
ATOM      6  C   UNL     1     -12.759   7.319   6.107  1.00  0.00     0.006 C 
BRANCH   6   7
ATOM      7  C   UNL     1     -13.889   6.446   5.555  1.00  0.00     0.053 C 
BRANCH   7   8
ATOM      8  C   UNL     1     -13.362   5.491   4.531  1.00  0.00     0.041 C 
ATOM      9  O   UNL     1     -12.372   4.760   4.796  1.00  0.00    -0.550 OA
ATOM     10  O   UNL     1     -13.934   5.443   3.265  1.00  0.00    -0.550 OA
ENDBRANCH   7   8
ENDBRANCH   6   7
ENDBRANCH   5   6
ENDBRANCH   4   5
ENDBRANCH   3   4
ENDBRANCH   2   3
ENDBRANCH   1   2
BRANCH   1  11
ATOM     11  C   UNL     1     -10.118   5.103   8.076  1.00  0.00     0.000 C 
BRANCH  11  12
ATOM     12  C   UNL     1      -9.665   5.586   6.691  1.00  0.00     0.000 C 
BRANCH  12  13
ATOM     13  C   UNL     1      -8.897   6.909   6.794  1.00  0.00     0.000 C 
BRANCH  13  14
ATOM     14  C   UNL     1      -8.974   7.696   5.481  1.00  0.00     0.000 C 
BRANCH  14  15
ATOM     15  C   UNL     1      -9.085   9.204   5.749  1.00  0.00     0.000 C 
BRANCH  15  16
ATOM     16  C   UNL     1      -7.825   9.781   6.414  1.00  0.00     0.006 C 
BRANCH  16  17
ATOM     17  C   UNL     1      -6.693  10.038   5.410  1.00  0.00     0.053 C 
BRANCH  17  18
ATOM     18  C   UNL     1      -5.519  10.663   6.095  1.00  0.00     0.041 C 
ATOM     19  O   UNL     1      -5.615  11.052   7.289  1.00  0.00    -0.550 OA
ATOM     20  O   UNL     1      -4.333  10.861   5.400  1.00  0.00    -0.550 OA
ENDBRANCH  17  18
ENDBRANCH  16  17
ENDBRANCH  15  16
ENDBRANCH  14  15
ENDBRANCH  13  14
ENDBRANCH  12  13
ENDBRANCH  11  12
ENDBRANCH   1  11
TORSDOF 15
ENDMDL
MODEL 6
REMARK VINA RESULT:    -5.216      1.369      8.613
REMARK INTER + INTRA:         -10.652
REMARK INTER:                 -10.123
REMARK INTRA:                  -0.529
REMARK UNBOUND:                -0.862
REMARK SMILES O=C([O-])CCCCCCCCCCCCCCC(=O)[O-]
REMARK SMILES IDX 10 1 9 2 8 3 7 4 6 5 5 6 4 7 2 8 1 9 3 10 11 11 12 12 13 13
REMARK SMILES IDX 14 14 15 15 16 16 17 17 18 18 19 19 20 20
REMARK H PARENT
REMARK Flexibility Score: inf
ROOT
ATOM      1  C   UNL     1     -10.475  -1.994  -8.606  1.00  0.00     0.000 C 
ENDROOT
BRANCH   1   2
ATOM      2  C   UNL     1     -11.007  -0.713  -9.276  1.00  0.00     0.000 C 
BRANCH   2   3
ATOM      3  C   UNL     1     -12.092  -0.993 -10.329  1.00  0.00     0.000 C 
BRANCH   3   4
ATOM      4  C   UNL     1     -13.289  -0.035 -10.211  1.00  0.00     0.000 C 
BRANCH   4   5
ATOM      5  C   UNL     1     -12.936   1.266  -9.475  1.00  0.00     0.000 C 
BRANCH   5   6
ATOM      6  C   UNL     1     -14.194   2.098  -9.198  1.00  0.00     0.006 C 
BRANCH   6   7
ATOM      7  C   UNL     1     -13.838   3.428  -8.527  1.00  0.00     0.053 C 
BRANCH   7   8
ATOM      8  C   UNL     1     -12.429   3.815  -8.845  1.00  0.00     0.041 C 
ATOM      9  O   UNL     1     -12.136   4.263  -9.985  1.00  0.00    -0.550 OA
ATOM     10  O   UNL     1     -11.427   3.634  -7.900  1.00  0.00    -0.550 OA
ENDBRANCH   7   8
ENDBRANCH   6   7
ENDBRANCH   5   6
ENDBRANCH   4   5
ENDBRANCH   3   4
ENDBRANCH   2   3
ENDBRANCH   1   2
BRANCH   1  11
ATOM     11  C   UNL     1     -10.734  -3.295  -9.387  1.00  0.00     0.000 C 
BRANCH  11  12
ATOM     12  C   UNL     1      -9.630  -4.344  -9.189  1.00  0.00     0.000 C 
BRANCH  12  13
ATOM     13  C   UNL     1     -10.138  -5.526  -8.354  1.00  0.00     0.000 C 
BRANCH  13  14
ATOM     14  C   UNL     1     -11.622  -5.799  -8.630  1.00  0.00     0.000 C 
BRANCH  14  15
ATOM     15  C   UNL     1     -11.910  -7.308  -8.642  1.00  0.00     0.000 C 
BRANCH  15  16
ATOM     16  C   UNL     1     -12.960  -7.719  -7.598  1.00  0.00     0.006 C 
BRANCH  16  17
ATOM     17  C   UNL     1     -13.118  -6.681  -6.479  1.00  0.00     0.053 C 
BRANCH  17  18
ATOM     18  C   UNL     1     -12.111  -6.921  -5.398  1.00  0.00     0.041 C 
ATOM     19  O   UNL     1     -11.787  -8.097  -5.085  1.00  0.00    -0.550 OA
ATOM     20  O   UNL     1     -11.569  -5.849  -4.702  1.00  0.00    -0.550 OA
ENDBRANCH  17  18
ENDBRANCH  16  17
ENDBRANCH  15  16
ENDBRANCH  14  15
ENDBRANCH  13  14
ENDBRANCH  12  13
ENDBRANCH  11  12
ENDBRANCH   1  11
TORSDOF 15
ENDMDL
MODEL 7
REMARK VINA RESULT:    -5.062      2.669      7.750
REMARK INTER + INTRA:         -10.364
REMARK INTER:                  -9.083
REMARK INTRA:                  -1.281
REMARK UNBOUND:                -0.862
REMARK SMILES O=C([O-])CCCCCCCCCCCCCCC(=O)[O-]
REMARK SMILES IDX 10 1 9 2 8 3 7 4 6 5 5 6 4 7 2 8 1 9 3 10 11 11 12 12 13 13
REMARK SMILES IDX 14 14 15 15 16 16 17 17 18 18 19 19 20 20
REMARK H PARENT
REMARK Flexibility Score: inf
ROOT
ATOM      1  C   UNL     1     -14.353  -3.205  -9.931  1.00  0.00     0.000 C 
ENDROOT
BRANCH   1   2
ATOM      2  C   UNL     1     -14.890  -2.074 -10.828  1.00  0.00     0.000 C 
BRANCH   2   3
ATOM      3  C   UNL     1     -14.282  -0.702 -10.489  1.00  0.00     0.000 C 
BRANCH   3   4
ATOM      4  C   UNL     1     -12.774  -0.781 -10.198  1.00  0.00     0.000 C 
BRANCH   4   5
ATOM      5  C   UNL     1     -12.182   0.571  -9.770  1.00  0.00     0.000 C 
BRANCH   5   6
ATOM      6  C   UNL     1     -13.287   1.536  -9.326  1.00  0.00     0.006 C 
BRANCH   6   7
ATOM      7  C   UNL     1     -12.861   2.993  -9.534  1.00  0.00     0.053 C 
BRANCH   7   8
ATOM      8  C   UNL     1     -12.341   3.574  -8.258  1.00  0.00     0.041 C 
ATOM      9  O   UNL     1     -13.114   4.195  -7.482  1.00  0.00    -0.550 OA
ATOM     10  O   UNL     1     -10.990   3.474  -7.948  1.00  0.00    -0.550 OA
ENDBRANCH   7   8
ENDBRANCH   6   7
ENDBRANCH   5   6
ENDBRANCH   4   5
ENDBRANCH   3   4
ENDBRANCH   2   3
ENDBRANCH   1   2
BRANCH   1  11
ATOM     11  C   UNL     1     -15.125  -4.534 -10.022  1.00  0.00     0.000 C 
BRANCH  11  12
ATOM     12  C   UNL     1     -15.032  -5.372  -8.739  1.00  0.00     0.000 C 
BRANCH  12  13
ATOM     13  C   UNL     1     -14.091  -6.568  -8.930  1.00  0.00     0.000 C 
BRANCH  13  14
ATOM     14  C   UNL     1     -13.063  -6.647  -7.795  1.00  0.00     0.000 C 
BRANCH  14  15
ATOM     15  C   UNL     1     -11.654  -6.911  -8.347  1.00  0.00     0.000 C 
BRANCH  15  16
ATOM     16  C   UNL     1     -11.024  -5.662  -8.983  1.00  0.00     0.006 C 
BRANCH  16  17
ATOM     17  C   UNL     1     -10.985  -4.466  -8.023  1.00  0.00     0.053 C 
BRANCH  17  18
ATOM     18  C   UNL     1     -10.391  -3.271  -8.701  1.00  0.00     0.041 C 
ATOM     19  O   UNL     1     -10.164  -2.220  -8.046  1.00  0.00    -0.550 OA
ATOM     20  O   UNL     1     -10.136  -3.302 -10.066  1.00  0.00    -0.550 OA
ENDBRANCH  17  18
ENDBRANCH  16  17
ENDBRANCH  15  16
ENDBRANCH  14  15
ENDBRANCH  13  14
ENDBRANCH  12  13
ENDBRANCH  11  12
ENDBRANCH   1  11
TORSDOF 15
ENDMDL
MODEL 8
REMARK VINA RESULT:    -5.021     15.929     18.677
REMARK INTER + INTRA:         -10.285
REMARK INTER:                  -8.732
REMARK INTRA:                  -1.553
REMARK UNBOUND:                -0.862
REMARK SMILES O=C([O-])CCCCCCCCCCCCCCC(=O)[O-]
REMARK SMILES IDX 10 1 9 2 8 3 7 4 6 5 5 6 4 7 2 8 1 9 3 10 11 11 12 12 13 13
REMARK SMILES IDX 14 14 15 15 16 16 17 17 18 18 19 19 20 20
REMARK H PARENT
REMARK Flexibility Score: inf
ROOT
ATOM      1  C   UNL     1      -9.789   5.975   7.975  1.00  0.00     0.000 C 
ENDROOT
BRANCH   1   2
ATOM      2  C   UNL     1      -9.396   5.389   6.606  1.00  0.00     0.000 C 
BRANCH   2   3
ATOM      3  C   UNL     1      -9.673   6.353   5.440  1.00  0.00     0.000 C 
BRANCH   3   4
ATOM      4  C   UNL     1      -9.617   7.828   5.869  1.00  0.00     0.000 C 
BRANCH   4   5
ATOM      5  C   UNL     1      -8.328   8.529   5.413  1.00  0.00     0.000 C 
BRANCH   5   6
ATOM      6  C   UNL     1      -8.160   9.880   6.118  1.00  0.00     0.006 C 
BRANCH   6   7
ATOM      7  C   UNL     1      -7.098  10.736   5.421  1.00  0.00     0.053 C 
BRANCH   7   8
ATOM      8  C   UNL     1      -5.869  10.839   6.267  1.00  0.00     0.041 C 
ATOM      9  O   UNL     1      -5.145   9.827   6.458  1.00  0.00    -0.550 OA
ATOM     10  O   UNL     1      -5.549  12.041   6.886  1.00  0.00    -0.550 OA
ENDBRANCH   7   8
ENDBRANCH   6   7
ENDBRANCH   5   6
ENDBRANCH   4   5
ENDBRANCH   3   4
ENDBRANCH   2   3
ENDBRANCH   1   2
BRANCH   1  11
ATOM     11  C   UNL     1     -10.518   5.001   8.919  1.00  0.00     0.000 C 
BRANCH  11  12
ATOM     12  C   UNL     1     -11.206   3.847   8.176  1.00  0.00     0.000 C 
BRANCH  12  13
ATOM     13  C   UNL     1     -12.672   4.181   7.877  1.00  0.00     0.000 C 
BRANCH  13  14
ATOM     14  C   UNL     1     -13.164   5.340   8.753  1.00  0.00     0.000 C 
BRANCH  14  15
ATOM     15  C   UNL     1     -13.743   6.473   7.892  1.00  0.00     0.000 C 
BRANCH  15  16
ATOM     16  C   UNL     1     -13.118   6.528   6.489  1.00  0.00     0.006 C 
BRANCH  16  17
ATOM     17  C   UNL     1     -14.148   6.299   5.375  1.00  0.00     0.053 C 
BRANCH  17  18
ATOM     18  C   UNL     1     -13.543   5.506   4.259  1.00  0.00     0.041 C 
ATOM     19  O   UNL     1     -13.954   5.659   3.078  1.00  0.00    -0.550 OA
ATOM     20  O   UNL     1     -12.562   4.562   4.530  1.00  0.00    -0.550 OA
ENDBRANCH  17  18
ENDBRANCH  16  17
ENDBRANCH  15  16
ENDBRANCH  14  15
ENDBRANCH  13  14
ENDBRANCH  12  13
ENDBRANCH  11  12
ENDBRANCH   1  11
TORSDOF 15
ENDMDL
MODEL 9
REMARK VINA RESULT:    -4.919     16.015     18.686
REMARK INTER + INTRA:         -10.095
REMARK INTER:                  -8.357
REMARK INTRA:                  -1.738
REMARK UNBOUND:                -0.862
REMARK SMILES O=C([O-])CCCCCCCCCCCCCCC(=O)[O-]
REMARK SMILES IDX 10 1 9 2 8 3 7 4 6 5 5 6 4 7 2 8 1 9 3 10 11 11 12 12 13 13
REMARK SMILES IDX 14 14 15 15 16 16 17 17 18 18 19 19 20 20
REMARK H PARENT
REMARK Flexibility Score: inf
ROOT
ATOM      1  C   UNL     1     -11.109   4.679   5.329  1.00  0.00     0.000 C 
ENDROOT
BRANCH   1   2
ATOM      2  C   UNL     1      -9.871   5.403   5.891  1.00  0.00     0.000 C 
BRANCH   2   3
ATOM      3  C   UNL     1     -10.062   6.926   5.993  1.00  0.00     0.000 C 
BRANCH   3   4
ATOM      4  C   UNL     1      -8.748   7.666   6.293  1.00  0.00     0.000 C 
BRANCH   4   5
ATOM      5  C   UNL     1      -8.300   8.570   5.134  1.00  0.00     0.000 C 
BRANCH   5   6
ATOM      6  C   UNL     1      -8.418  10.050   5.517  1.00  0.00     0.006 C 
BRANCH   6   7
ATOM      7  C   UNL     1      -7.050  10.738   5.480  1.00  0.00     0.053 C 
BRANCH   7   8
ATOM      8  C   UNL     1      -6.247  10.374   6.688  1.00  0.00     0.041 C 
ATOM      9  O   UNL     1      -5.056   9.986   6.565  1.00  0.00    -0.550 OA
ATOM     10  O   UNL     1      -6.829  10.417   7.949  1.00  0.00    -0.550 OA
ENDBRANCH   7   8
ENDBRANCH   6   7
ENDBRANCH   5   6
ENDBRANCH   4   5
ENDBRANCH   3   4
ENDBRANCH   2   3
ENDBRANCH   1   2
BRANCH   1  11
ATOM     11  C   UNL     1     -11.831   3.750   6.322  1.00  0.00     0.000 C 
BRANCH  11  12
ATOM     12  C   UNL     1     -11.048   3.539   7.625  1.00  0.00     0.000 C 
BRANCH  12  13
ATOM     13  C   UNL     1     -11.916   3.866   8.847  1.00  0.00     0.000 C 
BRANCH  13  14
ATOM     14  C   UNL     1     -13.036   4.847   8.482  1.00  0.00     0.000 C 
BRANCH  14  15
ATOM     15  C   UNL     1     -12.667   6.280   8.895  1.00  0.00     0.000 C 
BRANCH  15  16
ATOM     16  C   UNL     1     -13.016   7.316   7.814  1.00  0.00     0.006 C 
BRANCH  16  17
ATOM     17  C   UNL     1     -14.285   6.949   7.033  1.00  0.00     0.053 C 
BRANCH  17  18
ATOM     18  C   UNL     1     -14.093   7.213   5.572  1.00  0.00     0.041 C 
ATOM     19  O   UNL     1     -13.899   8.387   5.161  1.00  0.00    -0.550 OA
ATOM     20  O   UNL     1     -14.178   6.169   4.660  1.00  0.00    -0.550 OA
ENDBRANCH  17  18
ENDBRANCH  16  17
ENDBRANCH  15  16
ENDBRANCH  14  15
ENDBRANCH  13  14
ENDBRANCH  12  13
ENDBRANCH  11  12
ENDBRANCH   1  11
TORSDOF 15
ENDMDL
