MODEL 1
REMARK VINA RESULT:    -6.582      0.000      0.000
REMARK INTER + INTRA:         -10.024
REMARK INTER:                  -9.083
REMARK INTRA:                  -0.941
REMARK UNBOUND:                -0.941
REMARK SMILES O=C([O-])[C@@H]1O[C@@H](Oc2cc3oc(-c4ccccc4)cc(=O)c3c(O)c2O)[C@@H](O)[C@@H](O)[C@@H]1O
REMARK SMILES IDX 7 1 6 2 4 3 31 4 5 5 29 6 27 7 2 8 1 9 3 10 32 11 30 13
REMARK SMILES IDX 28 15 8 17 25 18 9 19 23 20 10 21 22 22 11 23 20 24 12 25
REMARK SMILES IDX 19 26 21 27 26 28 24 30 13 32 14 33 18 34 15 35 17 36 16 37
REMARK H PARENT 32 12 30 14 28 16 26 29 24 31
REMARK Flexibility Score: inf
ROOT
ATOM      1  O   UNL     1       8.697  16.861  21.009  1.00  0.00    -0.458 OA
ENDROOT
BRANCH   1   2
ATOM      2  C   UNL     1       7.643  16.108  21.615  1.00  0.00     0.339 C 
ATOM      3  C   UNL     1       7.298  13.987  22.631  1.00  0.00     0.199 C 
ATOM      4  C   UNL     1       6.795  13.274  21.342  1.00  0.00     0.180 C 
ATOM      5  O   UNL     1       8.225  15.010  22.315  1.00  0.00    -0.328 OA
ATOM      6  C   UNL     1       6.801  14.213  20.110  1.00  0.00     0.181 C 
ATOM      7  C   UNL     1       6.618  15.685  20.522  1.00  0.00     0.214 C 
BRANCH   3   8
ATOM      8  C   UNL     1       6.235  14.479  23.595  1.00  0.00     0.073 C 
ATOM      9  O   UNL     1       6.502  14.562  24.825  1.00  0.00    -0.547 OA
ATOM     10  O   UNL     1       4.988  14.905  23.146  1.00  0.00    -0.547 OA
ENDBRANCH   3   8
BRANCH   4  11
ATOM     11  O   UNL     1       5.512  12.727  21.525  1.00  0.00    -0.387 OA
ATOM     12  H   UNL     1       5.246  12.924  22.461  1.00  0.00     0.211 HD
ENDBRANCH   4  11
BRANCH   6  13
ATOM     13  O   UNL     1       7.969  14.046  19.340  1.00  0.00    -0.387 OA
ATOM     14  H   UNL     1       8.111  14.876  18.814  1.00  0.00     0.211 HD
ENDBRANCH   6  13
BRANCH   7  15
ATOM     15  O   UNL     1       6.716  16.525  19.396  1.00  0.00    -0.384 OA
ATOM     16  H   UNL     1       5.865  16.435  18.894  1.00  0.00     0.211 HD
ENDBRANCH   7  15
ENDBRANCH   1   2
BRANCH   1  17
ATOM     17  C   UNL     1       8.895  18.249  21.129  1.00  0.00     0.172 A 
ATOM     18  C   UNL     1       9.388  19.064  20.083  1.00  0.00     0.201 A 
ATOM     19  C   UNL     1       8.574  18.822  22.360  1.00  0.00     0.098 A 
ATOM     20  C   UNL     1       9.515  20.465  20.284  1.00  0.00     0.176 A 
ATOM     21  C   UNL     1       8.667  20.196  22.562  1.00  0.00     0.146 A 
ATOM     22  C   UNL     1       9.137  21.033  21.529  1.00  0.00     0.111 A 
ATOM     23  O   UNL     1       8.292  20.703  23.733  1.00  0.00    -0.456 OA
ATOM     24  C   UNL     1       9.195  22.417  21.794  1.00  0.00     0.197 A 
ATOM     25  C   UNL     1       8.324  22.002  24.012  1.00  0.00     0.138 A 
ATOM     26  C   UNL     1       8.780  22.902  23.036  1.00  0.00     0.100 A 
ATOM     27  O   UNL     1       9.608  23.238  20.930  1.00  0.00    -0.289 OA
BRANCH  18  28
ATOM     28  O   UNL     1       9.759  18.463  18.875  1.00  0.00    -0.502 OA
ATOM     29  H   UNL     1       9.194  17.813  18.348  1.00  0.00     0.293 HD
ENDBRANCH  18  28
BRANCH  20  30
ATOM     30  O   UNL     1      10.006  21.306  19.281  1.00  0.00    -0.504 OA
ATOM     31  H   UNL     1      10.950  21.301  18.932  1.00  0.00     0.293 HD
ENDBRANCH  20  30
BRANCH  25  32
ATOM     32  C   UNL     1       7.846  22.461  25.342  1.00  0.00     0.017 A 
ATOM     33  C   UNL     1       6.912  21.676  26.051  1.00  0.00     0.012 A 
ATOM     34  C   UNL     1       8.311  23.658  25.927  1.00  0.00     0.012 A 
ATOM     35  C   UNL     1       6.435  22.091  27.298  1.00  0.00     0.001 A 
ATOM     36  C   UNL     1       7.831  24.066  27.177  1.00  0.00     0.001 A 
ATOM     37  C   UNL     1       6.893  23.285  27.860  1.00  0.00     0.000 A 
ENDBRANCH  25  32
ENDBRANCH   1  17
TORSDOF 9
ENDMDL
MODEL 2
REMARK VINA RESULT:    -5.791      1.099      2.248
REMARK INTER + INTRA:          -8.933
REMARK INTER:                  -8.104
REMARK INTRA:                  -0.829
REMARK UNBOUND:                -0.941
REMARK SMILES O=C([O-])[C@@H]1O[C@@H](Oc2cc3oc(-c4ccccc4)cc(=O)c3c(O)c2O)[C@@H](O)[C@@H](O)[C@@H]1O
REMARK SMILES IDX 7 1 6 2 4 3 31 4 5 5 29 6 27 7 2 8 1 9 3 10 32 11 30 13
REMARK SMILES IDX 28 15 8 17 25 18 9 19 23 20 10 21 22 22 11 23 20 24 12 25
REMARK SMILES IDX 19 26 21 27 26 28 24 30 13 32 14 33 18 34 15 35 17 36 16 37
REMARK H PARENT 32 12 30 14 28 16 26 29 24 31
REMARK Flexibility Score: inf
ROOT
ATOM      1  O   UNL     1       8.886  16.873  21.217  1.00  0.00    -0.458 OA
ENDROOT
BRANCH   1   2
ATOM      2  C   UNL     1       7.799  16.089  20.716  1.00  0.00     0.339 C 
ATOM      3  C   UNL     1       5.479  15.762  21.115  1.00  0.00     0.199 C 
ATOM      4  C   UNL     1       5.653  14.547  22.072  1.00  0.00     0.180 C 
ATOM      5  O   UNL     1       6.583  16.645  21.212  1.00  0.00    -0.328 OA
ATOM      6  C   UNL     1       7.142  14.194  22.310  1.00  0.00     0.181 C 
ATOM      7  C   UNL     1       8.017  14.598  21.109  1.00  0.00     0.214 C 
BRANCH   3   8
ATOM      8  C   UNL     1       5.145  15.447  19.669  1.00  0.00     0.073 C 
ATOM      9  O   UNL     1       4.875  16.389  18.875  1.00  0.00    -0.547 OA
ATOM     10  O   UNL     1       5.192  14.145  19.180  1.00  0.00    -0.547 OA
ENDBRANCH   3   8
BRANCH   4  11
ATOM     11  O   UNL     1       4.960  13.419  21.599  1.00  0.00    -0.387 OA
ATOM     12  H   UNL     1       4.947  13.482  20.609  1.00  0.00     0.211 HD
ENDBRANCH   4  11
BRANCH   6  13
ATOM     13  O   UNL     1       7.625  14.770  23.502  1.00  0.00    -0.387 OA
ATOM     14  H   UNL     1       6.903  14.720  24.182  1.00  0.00     0.211 HD
ENDBRANCH   6  13
BRANCH   7  15
ATOM     15  O   UNL     1       9.375  14.350  21.387  1.00  0.00    -0.384 OA
ATOM     16  H   UNL     1       9.409  13.883  22.261  1.00  0.00     0.211 HD
ENDBRANCH   7  15
ENDBRANCH   1   2
BRANCH   1  17
ATOM     17  C   UNL     1       8.976  18.277  21.181  1.00  0.00     0.172 A 
ATOM     18  C   UNL     1       9.357  19.009  20.031  1.00  0.00     0.201 A 
ATOM     19  C   UNL     1       8.663  18.955  22.359  1.00  0.00     0.098 A 
ATOM     20  C   UNL     1       9.379  20.428  20.077  1.00  0.00     0.176 A 
ATOM     21  C   UNL     1       8.654  20.345  22.410  1.00  0.00     0.146 A 
ATOM     22  C   UNL     1       9.010  21.098  21.273  1.00  0.00     0.111 A 
ATOM     23  O   UNL     1       8.290  20.947  23.540  1.00  0.00    -0.456 OA
ATOM     24  C   UNL     1       8.968  22.503  21.387  1.00  0.00     0.197 A 
ATOM     25  C   UNL     1       8.229  22.267  23.678  1.00  0.00     0.138 A 
ATOM     26  C   UNL     1       8.569  23.087  22.591  1.00  0.00     0.100 A 
ATOM     27  O   UNL     1       9.276  23.254  20.422  1.00  0.00    -0.289 OA
BRANCH  18  28
ATOM     28  O   UNL     1       9.723  18.309  18.875  1.00  0.00    -0.502 OA
ATOM     29  H   UNL     1       9.133  18.162  18.069  1.00  0.00     0.293 HD
ENDBRANCH  18  28
BRANCH  20  30
ATOM     30  O   UNL     1       9.757  21.189  18.966  1.00  0.00    -0.504 OA
ATOM     31  H   UNL     1       9.967  22.173  18.983  1.00  0.00     0.293 HD
ENDBRANCH  20  30
BRANCH  25  32
ATOM     32  C   UNL     1       7.774  22.830  24.976  1.00  0.00     0.017 A 
ATOM     33  C   UNL     1       8.729  23.313  25.895  1.00  0.00     0.012 A 
ATOM     34  C   UNL     1       6.406  22.908  25.313  1.00  0.00     0.012 A 
ATOM     35  C   UNL     1       8.330  23.835  27.129  1.00  0.00     0.001 A 
ATOM     36  C   UNL     1       6.013  23.434  26.549  1.00  0.00     0.001 A 
ATOM     37  C   UNL     1       6.973  23.894  27.457  1.00  0.00     0.000 A 
ENDBRANCH  25  32
ENDBRANCH   1  17
TORSDOF 9
ENDMDL
MODEL 3
REMARK VINA RESULT:    -5.312      1.547      2.056
REMARK INTER + INTRA:          -8.271
REMARK INTER:                  -7.831
REMARK INTRA:                  -0.441
REMARK UNBOUND:                -0.941
REMARK SMILES O=C([O-])[C@@H]1O[C@@H](Oc2cc3oc(-c4ccccc4)cc(=O)c3c(O)c2O)[C@@H](O)[C@@H](O)[C@@H]1O
REMARK SMILES IDX 7 1 6 2 4 3 31 4 5 5 29 6 27 7 2 8 1 9 3 10 32 11 30 13
REMARK SMILES IDX 28 15 8 17 25 18 9 19 23 20 10 21 22 22 11 23 20 24 12 25
REMARK SMILES IDX 19 26 21 27 26 28 24 30 13 32 14 33 18 34 15 35 17 36 16 37
REMARK H PARENT 32 12 30 14 28 16 26 29 24 31
REMARK Flexibility Score: inf
ROOT
ATOM      1  O   UNL     1       6.232  16.072  20.873  1.00  0.00    -0.458 OA
ENDROOT
BRANCH   1   2
ATOM      2  C   UNL     1       5.756  15.258  21.950  1.00  0.00     0.339 C 
ATOM      3  C   UNL     1       6.615  14.019  23.787  1.00  0.00     0.199 C 
ATOM      4  C   UNL     1       6.671  12.653  23.045  1.00  0.00     0.180 C 
ATOM      5  O   UNL     1       6.818  15.094  22.888  1.00  0.00    -0.328 OA
ATOM      6  C   UNL     1       6.212  12.766  21.570  1.00  0.00     0.181 C 
ATOM      7  C   UNL     1       5.208  13.917  21.378  1.00  0.00     0.214 C 
BRANCH   3   8
ATOM      8  C   UNL     1       5.410  14.261  24.678  1.00  0.00     0.073 C 
ATOM      9  O   UNL     1       4.875  13.288  25.276  1.00  0.00    -0.547 OA
ATOM     10  O   UNL     1       4.919  15.543  24.903  1.00  0.00    -0.547 OA
ENDBRANCH   3   8
BRANCH   4  11
ATOM     11  O   UNL     1       5.914  11.675  23.713  1.00  0.00    -0.387 OA
ATOM     12  H   UNL     1       5.414  11.172  23.018  1.00  0.00     0.211 HD
ENDBRANCH   4  11
BRANCH   6  13
ATOM     13  O   UNL     1       7.309  12.902  20.697  1.00  0.00    -0.387 OA
ATOM     14  H   UNL     1       8.107  12.514  21.142  1.00  0.00     0.211 HD
ENDBRANCH   6  13
BRANCH   7  15
ATOM     15  O   UNL     1       4.876  14.056  20.017  1.00  0.00    -0.384 OA
ATOM     16  H   UNL     1       4.937  15.022  19.802  1.00  0.00     0.211 HD
ENDBRANCH   7  15
ENDBRANCH   1   2
BRANCH   1  17
ATOM     17  C   UNL     1       7.101  17.172  20.992  1.00  0.00     0.172 A 
ATOM     18  C   UNL     1       8.233  17.369  20.166  1.00  0.00     0.201 A 
ATOM     19  C   UNL     1       6.800  18.103  21.987  1.00  0.00     0.098 A 
ATOM     20  C   UNL     1       9.029  18.533  20.332  1.00  0.00     0.176 A 
ATOM     21  C   UNL     1       7.556  19.261  22.142  1.00  0.00     0.146 A 
ATOM     22  C   UNL     1       8.677  19.490  21.319  1.00  0.00     0.111 A 
ATOM     23  O   UNL     1       7.193  20.148  23.065  1.00  0.00    -0.456 OA
ATOM     24  C   UNL     1       9.392  20.690  21.520  1.00  0.00     0.197 A 
ATOM     25  C   UNL     1       7.838  21.292  23.273  1.00  0.00     0.138 A 
ATOM     26  C   UNL     1       8.965  21.594  22.494  1.00  0.00     0.100 A 
ATOM     27  O   UNL     1      10.411  20.974  20.833  1.00  0.00    -0.289 OA
BRANCH  18  28
ATOM     28  O   UNL     1       8.551  16.395  19.212  1.00  0.00    -0.502 OA
ATOM     29  H   UNL     1       9.485  16.121  18.945  1.00  0.00     0.293 HD
ENDBRANCH  18  28
BRANCH  20  30
ATOM     30  O   UNL     1      10.162  18.763  19.544  1.00  0.00    -0.504 OA
ATOM     31  H   UNL     1      10.952  18.144  19.471  1.00  0.00     0.293 HD
ENDBRANCH  20  30
BRANCH  25  32
ATOM     32  C   UNL     1       7.323  22.226  24.307  1.00  0.00     0.017 A 
ATOM     33  C   UNL     1       8.133  22.546  25.417  1.00  0.00     0.012 A 
ATOM     34  C   UNL     1       6.044  22.815  24.206  1.00  0.00     0.012 A 
ATOM     35  C   UNL     1       7.668  23.411  26.412  1.00  0.00     0.001 A 
ATOM     36  C   UNL     1       5.587  23.682  25.205  1.00  0.00     0.001 A 
ATOM     37  C   UNL     1       6.395  23.977  26.307  1.00  0.00     0.000 A 
ENDBRANCH  25  32
ENDBRANCH   1  17
TORSDOF 9
ENDMDL
MODEL 4
REMARK VINA RESULT:    -5.232      1.843      2.415
REMARK INTER + INTRA:          -8.162
REMARK INTER:                  -7.091
REMARK INTRA:                  -1.070
REMARK UNBOUND:                -0.941
REMARK SMILES O=C([O-])[C@@H]1O[C@@H](Oc2cc3oc(-c4ccccc4)cc(=O)c3c(O)c2O)[C@@H](O)[C@@H](O)[C@@H]1O
REMARK SMILES IDX 7 1 6 2 4 3 31 4 5 5 29 6 27 7 2 8 1 9 3 10 32 11 30 13
REMARK SMILES IDX 28 15 8 17 25 18 9 19 23 20 10 21 22 22 11 23 20 24 12 25
REMARK SMILES IDX 19 26 21 27 26 28 24 30 13 32 14 33 18 34 15 35 17 36 16 37
REMARK H PARENT 32 12 30 14 28 16 26 29 24 31
REMARK Flexibility Score: inf
ROOT
ATOM      1  O   UNL     1       8.385  18.221  21.230  1.00  0.00    -0.458 OA
ENDROOT
BRANCH   1   2
ATOM      2  C   UNL     1       7.645  16.997  21.287  1.00  0.00     0.339 C 
ATOM      3  C   UNL     1       7.868  14.796  22.157  1.00  0.00     0.199 C 
ATOM      4  C   UNL     1       8.427  14.165  20.849  1.00  0.00     0.180 C 
ATOM      5  O   UNL     1       8.251  16.156  22.267  1.00  0.00    -0.328 OA
ATOM      6  C   UNL     1       8.591  15.207  19.716  1.00  0.00     0.181 C 
ATOM      7  C   UNL     1       7.587  16.365  19.865  1.00  0.00     0.214 C 
BRANCH   3   8
ATOM      8  C   UNL     1       6.385  14.614  22.421  1.00  0.00     0.073 C 
ATOM      9  O   UNL     1       5.596  14.459  21.449  1.00  0.00    -0.547 OA
ATOM     10  O   UNL     1       5.880  14.547  23.716  1.00  0.00    -0.547 OA
ENDBRANCH   3   8
BRANCH   4  11
ATOM     11  O   UNL     1       7.623  13.097  20.411  1.00  0.00    -0.387 OA
ATOM     12  H   UNL     1       7.081  13.437  19.653  1.00  0.00     0.211 HD
ENDBRANCH   4  11
BRANCH   6  13
ATOM     13  O   UNL     1       9.912  15.691  19.647  1.00  0.00    -0.387 OA
ATOM     14  H   UNL     1      10.333  15.565  20.537  1.00  0.00     0.211 HD
ENDBRANCH   6  13
BRANCH   7  15
ATOM     15  O   UNL     1       7.815  17.341  18.876  1.00  0.00    -0.384 OA
ATOM     16  H   UNL     1       8.769  17.606  18.948  1.00  0.00     0.211 HD
ENDBRANCH   7  15
ENDBRANCH   1   2
BRANCH   1  17
ATOM     17  C   UNL     1       7.887  19.501  21.535  1.00  0.00     0.172 A 
ATOM     18  C   UNL     1       7.612  20.488  20.559  1.00  0.00     0.201 A 
ATOM     19  C   UNL     1       7.660  19.779  22.884  1.00  0.00     0.098 A 
ATOM     20  C   UNL     1       7.070  21.739  20.959  1.00  0.00     0.176 A 
ATOM     21  C   UNL     1       7.104  20.989  23.286  1.00  0.00     0.146 A 
ATOM     22  C   UNL     1       6.802  21.982  22.331  1.00  0.00     0.111 A 
ATOM     23  O   UNL     1       6.850  21.185  24.578  1.00  0.00    -0.456 OA
ATOM     24  C   UNL     1       6.228  23.181  22.804  1.00  0.00     0.197 A 
ATOM     25  C   UNL     1       6.301  22.297  25.054  1.00  0.00     0.138 A 
ATOM     26  C   UNL     1       5.971  23.334  24.168  1.00  0.00     0.100 A 
ATOM     27  O   UNL     1       5.932  24.125  22.022  1.00  0.00    -0.289 OA
BRANCH  18  28
ATOM     28  O   UNL     1       7.900  20.211  19.218  1.00  0.00    -0.502 OA
ATOM     29  H   UNL     1       8.317  20.857  18.564  1.00  0.00     0.293 HD
ENDBRANCH  18  28
BRANCH  20  30
ATOM     30  O   UNL     1       6.792  22.745  20.029  1.00  0.00    -0.504 OA
ATOM     31  H   UNL     1       5.922  23.246  19.961  1.00  0.00     0.293 HD
ENDBRANCH  20  30
BRANCH  25  32
ATOM     32  C   UNL     1       6.028  22.392  26.512  1.00  0.00     0.017 A 
ATOM     33  C   UNL     1       6.574  23.463  27.251  1.00  0.00     0.012 A 
ATOM     34  C   UNL     1       5.224  21.444  27.181  1.00  0.00     0.012 A 
ATOM     35  C   UNL     1       6.345  23.569  28.626  1.00  0.00     0.001 A 
ATOM     36  C   UNL     1       4.997  21.559  28.557  1.00  0.00     0.001 A 
ATOM     37  C   UNL     1       5.559  22.617  29.279  1.00  0.00     0.000 A 
ENDBRANCH  25  32
ENDBRANCH   1  17
TORSDOF 9
ENDMDL
MODEL 5
REMARK VINA RESULT:    -5.177      2.195      7.560
REMARK INTER + INTRA:          -8.085
REMARK INTER:                  -6.907
REMARK INTRA:                  -1.178
REMARK UNBOUND:                -0.941
REMARK SMILES O=C([O-])[C@@H]1O[C@@H](Oc2cc3oc(-c4ccccc4)cc(=O)c3c(O)c2O)[C@@H](O)[C@@H](O)[C@@H]1O
REMARK SMILES IDX 7 1 6 2 4 3 31 4 5 5 29 6 27 7 2 8 1 9 3 10 32 11 30 13
REMARK SMILES IDX 28 15 8 17 25 18 9 19 23 20 10 21 22 22 11 23 20 24 12 25
REMARK SMILES IDX 19 26 21 27 26 28 24 30 13 32 14 33 18 34 15 35 17 36 16 37
REMARK H PARENT 32 12 30 14 28 16 26 29 24 31
REMARK Flexibility Score: inf
ROOT
ATOM      1  O   UNL     1       8.927  20.394  22.838  1.00  0.00    -0.458 OA
ENDROOT
BRANCH   1   2
ATOM      2  C   UNL     1       7.880  21.345  23.055  1.00  0.00     0.339 C 
ATOM      3  C   UNL     1       5.557  21.597  22.618  1.00  0.00     0.199 C 
ATOM      4  C   UNL     1       5.731  22.391  21.290  1.00  0.00     0.180 C 
ATOM      5  O   UNL     1       6.632  20.696  22.814  1.00  0.00    -0.328 OA
ATOM      6  C   UNL     1       7.220  22.582  20.910  1.00  0.00     0.181 C 
ATOM      7  C   UNL     1       8.124  22.593  22.156  1.00  0.00     0.214 C 
BRANCH   3   8
ATOM      8  C   UNL     1       5.281  22.412  23.867  1.00  0.00     0.073 C 
ATOM      9  O   UNL     1       4.880  21.831  24.912  1.00  0.00    -0.547 OA
ATOM     10  O   UNL     1       5.522  23.783  23.908  1.00  0.00    -0.547 OA
ENDBRANCH   3   8
BRANCH   4  11
ATOM     11  O   UNL     1       5.085  23.639  21.351  1.00  0.00    -0.387 OA
ATOM     12  H   UNL     1       5.688  24.252  21.845  1.00  0.00     0.211 HD
ENDBRANCH   4  11
BRANCH   6  13
ATOM     13  O   UNL     1       7.645  21.605  19.987  1.00  0.00    -0.387 OA
ATOM     14  H   UNL     1       6.862  21.338  19.439  1.00  0.00     0.211 HD
ENDBRANCH   6  13
BRANCH   7  15
ATOM     15  O   UNL     1       9.478  22.677  21.778  1.00  0.00    -0.384 OA
ATOM     16  H   UNL     1       9.671  21.881  21.219  1.00  0.00     0.211 HD
ENDBRANCH   7  15
ENDBRANCH   1   2
BRANCH   1  17
ATOM     17  C   UNL     1       8.833  19.225  22.061  1.00  0.00     0.172 A 
ATOM     18  C   UNL     1       9.474  19.061  20.811  1.00  0.00     0.201 A 
ATOM     19  C   UNL     1       8.059  18.188  22.583  1.00  0.00     0.098 A 
ATOM     20  C   UNL     1       9.355  17.826  20.117  1.00  0.00     0.176 A 
ATOM     21  C   UNL     1       7.956  16.965  21.928  1.00  0.00     0.146 A 
ATOM     22  C   UNL     1       8.602  16.769  20.690  1.00  0.00     0.111 A 
ATOM     23  O   UNL     1       7.256  15.986  22.495  1.00  0.00    -0.456 OA
ATOM     24  C   UNL     1       8.469  15.501  20.085  1.00  0.00     0.197 A 
ATOM     25  C   UNL     1       7.120  14.778  21.957  1.00  0.00     0.138 A 
ATOM     26  C   UNL     1       7.732  14.503  20.725  1.00  0.00     0.100 A 
ATOM     27  O   UNL     1       9.008  15.240  18.975  1.00  0.00    -0.289 OA
BRANCH  18  28
ATOM     28  O   UNL     1      10.198  20.132  20.277  1.00  0.00    -0.502 OA
ATOM     29  H   UNL     1      10.494  20.218  19.315  1.00  0.00     0.293 HD
ENDBRANCH  18  28
BRANCH  20  30
ATOM     30  O   UNL     1       9.965  17.625  18.875  1.00  0.00    -0.504 OA
ATOM     31  H   UNL     1      10.001  16.748  18.383  1.00  0.00     0.293 HD
ENDBRANCH  20  30
BRANCH  25  32
ATOM     32  C   UNL     1       6.345  13.749  22.697  1.00  0.00     0.017 A 
ATOM     33  C   UNL     1       6.144  13.898  24.086  1.00  0.00     0.012 A 
ATOM     34  C   UNL     1       5.789  12.626  22.047  1.00  0.00     0.012 A 
ATOM     35  C   UNL     1       5.431  12.937  24.809  1.00  0.00     0.001 A 
ATOM     36  C   UNL     1       5.074  11.670  22.777  1.00  0.00     0.001 A 
ATOM     37  C   UNL     1       4.898  11.824  24.156  1.00  0.00     0.000 A 
ENDBRANCH  25  32
ENDBRANCH   1  17
TORSDOF 9
ENDMDL
MODEL 6
REMARK VINA RESULT:    -5.135      1.928      2.551
REMARK INTER + INTRA:          -8.028
REMARK INTER:                  -6.795
REMARK INTRA:                  -1.233
REMARK UNBOUND:                -0.941
REMARK SMILES O=C([O-])[C@@H]1O[C@@H](Oc2cc3oc(-c4ccccc4)cc(=O)c3c(O)c2O)[C@@H](O)[C@@H](O)[C@@H]1O
REMARK SMILES IDX 7 1 6 2 4 3 31 4 5 5 29 6 27 7 2 8 1 9 3 10 32 11 30 13
REMARK SMILES IDX 28 15 8 17 25 18 9 19 23 20 10 21 22 22 11 23 20 24 12 25
REMARK SMILES IDX 19 26 21 27 26 28 24 30 13 32 14 33 18 34 15 35 17 36 16 37
REMARK H PARENT 32 12 30 14 28 16 26 29 24 31
REMARK Flexibility Score: inf
ROOT
ATOM      1  O   UNL     1       4.901  17.391  21.016  1.00  0.00    -0.458 OA
ENDROOT
BRANCH   1   2
ATOM      2  C   UNL     1       5.366  16.065  21.287  1.00  0.00     0.339 C 
ATOM      3  C   UNL     1       7.262  14.975  22.219  1.00  0.00     0.199 C 
ATOM      4  C   UNL     1       7.990  14.739  20.864  1.00  0.00     0.180 C 
ATOM      5  O   UNL     1       6.479  16.155  22.174  1.00  0.00    -0.328 OA
ATOM      6  C   UNL     1       7.203  15.319  19.664  1.00  0.00     0.181 C 
ATOM      7  C   UNL     1       5.689  15.348  19.943  1.00  0.00     0.214 C 
BRANCH   3   8
ATOM      8  C   UNL     1       6.473  13.807  22.781  1.00  0.00     0.073 C 
ATOM      9  O   UNL     1       6.205  13.774  24.013  1.00  0.00    -0.547 OA
ATOM     10  O   UNL     1       5.981  12.800  21.956  1.00  0.00    -0.547 OA
ENDBRANCH   3   8
BRANCH   4  11
ATOM     11  O   UNL     1       8.252  13.373  20.655  1.00  0.00    -0.387 OA
ATOM     12  H   UNL     1       7.946  12.893  21.467  1.00  0.00     0.211 HD
ENDBRANCH   4  11
BRANCH   6  13
ATOM     13  O   UNL     1       7.675  16.598  19.307  1.00  0.00    -0.387 OA
ATOM     14  H   UNL     1       8.658  16.612  19.440  1.00  0.00     0.211 HD
ENDBRANCH   6  13
BRANCH   7  15
ATOM     15  O   UNL     1       5.006  15.962  18.875  1.00  0.00    -0.384 OA
ATOM     16  H   UNL     1       4.529  16.746  19.251  1.00  0.00     0.211 HD
ENDBRANCH   7  15
ENDBRANCH   1   2
BRANCH   1  17
ATOM     17  C   UNL     1       5.546  18.584  21.391  1.00  0.00     0.172 A 
ATOM     18  C   UNL     1       6.265  19.403  20.488  1.00  0.00     0.201 A 
ATOM     19  C   UNL     1       5.450  18.952  22.733  1.00  0.00     0.098 A 
ATOM     20  C   UNL     1       6.848  20.613  20.950  1.00  0.00     0.176 A 
ATOM     21  C   UNL     1       5.993  20.148  23.193  1.00  0.00     0.146 A 
ATOM     22  C   UNL     1       6.697  20.992  22.310  1.00  0.00     0.111 A 
ATOM     23  O   UNL     1       5.822  20.485  24.469  1.00  0.00    -0.456 OA
ATOM     24  C   UNL     1       7.210  22.196  22.837  1.00  0.00     0.197 A 
ATOM     25  C   UNL     1       6.284  21.615  24.994  1.00  0.00     0.138 A 
ATOM     26  C   UNL     1       6.996  22.509  24.181  1.00  0.00     0.100 A 
ATOM     27  O   UNL     1       7.858  23.007  22.120  1.00  0.00    -0.289 OA
BRANCH  18  28
ATOM     28  O   UNL     1       6.399  18.988  19.159  1.00  0.00    -0.502 OA
ATOM     29  H   UNL     1       6.547  19.597  18.367  1.00  0.00     0.293 HD
ENDBRANCH  18  28
BRANCH  20  30
ATOM     30  O   UNL     1       7.574  21.448  20.095  1.00  0.00    -0.504 OA
ATOM     31  H   UNL     1       8.225  21.134  19.394  1.00  0.00     0.293 HD
ENDBRANCH  20  30
BRANCH  25  32
ATOM     32  C   UNL     1       6.004  21.906  26.424  1.00  0.00     0.017 A 
ATOM     33  C   UNL     1       6.629  23.009  27.042  1.00  0.00     0.012 A 
ATOM     34  C   UNL     1       5.115  21.115  27.184  1.00  0.00     0.012 A 
ATOM     35  C   UNL     1       6.394  23.298  28.390  1.00  0.00     0.001 A 
ATOM     36  C   UNL     1       4.883  21.411  28.532  1.00  0.00     0.001 A 
ATOM     37  C   UNL     1       5.523  22.499  29.135  1.00  0.00     0.000 A 
ENDBRANCH  25  32
ENDBRANCH   1  17
TORSDOF 9
ENDMDL
MODEL 7
REMARK VINA RESULT:    -4.953      1.861      2.212
REMARK INTER + INTRA:          -7.776
REMARK INTER:                  -6.992
REMARK INTRA:                  -0.784
REMARK UNBOUND:                -0.941
REMARK SMILES O=C([O-])[C@@H]1O[C@@H](Oc2cc3oc(-c4ccccc4)cc(=O)c3c(O)c2O)[C@@H](O)[C@@H](O)[C@@H]1O
REMARK SMILES IDX 7 1 6 2 4 3 31 4 5 5 29 6 27 7 2 8 1 9 3 10 32 11 30 13
REMARK SMILES IDX 28 15 8 17 25 18 9 19 23 20 10 21 22 22 11 23 20 24 12 25
REMARK SMILES IDX 19 26 21 27 26 28 24 30 13 32 14 33 18 34 15 35 17 36 16 37
REMARK H PARENT 32 12 30 14 28 16 26 29 24 31
REMARK Flexibility Score: inf
ROOT
ATOM      1  O   UNL     1       7.319  16.424  21.354  1.00  0.00    -0.458 OA
ENDROOT
BRANCH   1   2
ATOM      2  C   UNL     1       6.513  15.594  22.196  1.00  0.00     0.339 C 
ATOM      3  C   UNL     1       6.776  13.857  23.796  1.00  0.00     0.199 C 
ATOM      4  C   UNL     1       6.579  12.685  22.791  1.00  0.00     0.180 C 
ATOM      5  O   UNL     1       7.365  14.977  23.159  1.00  0.00    -0.328 OA
ATOM      6  C   UNL     1       6.363  13.184  21.341  1.00  0.00     0.181 C 
ATOM      7  C   UNL     1       5.721  14.583  21.316  1.00  0.00     0.214 C 
BRANCH   3   8
ATOM      8  C   UNL     1       5.566  14.258  24.619  1.00  0.00     0.073 C 
ATOM      9  O   UNL     1       4.902  13.370  25.220  1.00  0.00    -0.547 OA
ATOM     10  O   UNL     1       5.209  15.593  24.781  1.00  0.00    -0.547 OA
ENDBRANCH   3   8
BRANCH   4  11
ATOM     11  O   UNL     1       5.515  11.851  23.178  1.00  0.00    -0.387 OA
ATOM     12  H   UNL     1       5.606  11.701  24.155  1.00  0.00     0.211 HD
ENDBRANCH   4  11
BRANCH   6  13
ATOM     13  O   UNL     1       7.564  13.166  20.605  1.00  0.00    -0.387 OA
ATOM     14  H   UNL     1       7.928  12.243  20.632  1.00  0.00     0.211 HD
ENDBRANCH   6  13
BRANCH   7  15
ATOM     15  O   UNL     1       5.618  15.050  19.991  1.00  0.00    -0.384 OA
ATOM     16  H   UNL     1       4.795  14.650  19.608  1.00  0.00     0.211 HD
ENDBRANCH   7  15
ENDBRANCH   1   2
BRANCH   1  17
ATOM     17  C   UNL     1       7.181  17.815  21.191  1.00  0.00     0.172 A 
ATOM     18  C   UNL     1       6.605  18.417  20.047  1.00  0.00     0.201 A 
ATOM     19  C   UNL     1       7.646  18.616  22.234  1.00  0.00     0.098 A 
ATOM     20  C   UNL     1       6.470  19.830  19.990  1.00  0.00     0.176 A 
ATOM     21  C   UNL     1       7.496  19.999  22.203  1.00  0.00     0.146 A 
ATOM     22  C   UNL     1       6.906  20.622  21.084  1.00  0.00     0.111 A 
ATOM     23  O   UNL     1       7.900  20.716  23.249  1.00  0.00    -0.456 OA
ATOM     24  C   UNL     1       6.771  22.026  21.122  1.00  0.00     0.197 A 
ATOM     25  C   UNL     1       7.778  22.037  23.321  1.00  0.00     0.138 A 
ATOM     26  C   UNL     1       7.201  22.732  22.247  1.00  0.00     0.100 A 
ATOM     27  O   UNL     1       6.261  22.666  20.162  1.00  0.00    -0.289 OA
BRANCH  18  28
ATOM     28  O   UNL     1       6.197  17.600  18.986  1.00  0.00    -0.502 OA
ATOM     29  H   UNL     1       6.506  17.687  18.029  1.00  0.00     0.293 HD
ENDBRANCH  18  28
BRANCH  20  30
ATOM     30  O   UNL     1       5.915  20.467  18.875  1.00  0.00    -0.504 OA
ATOM     31  H   UNL     1       6.240  21.334  18.482  1.00  0.00     0.293 HD
ENDBRANCH  20  30
BRANCH  25  32
ATOM     32  C   UNL     1       8.231  22.732  24.554  1.00  0.00     0.017 A 
ATOM     33  C   UNL     1       9.469  23.407  24.553  1.00  0.00     0.012 A 
ATOM     34  C   UNL     1       7.450  22.746  25.729  1.00  0.00     0.012 A 
ATOM     35  C   UNL     1       9.927  24.056  25.704  1.00  0.00     0.001 A 
ATOM     36  C   UNL     1       7.913  23.400  26.876  1.00  0.00     0.001 A 
ATOM     37  C   UNL     1       9.151  24.052  26.865  1.00  0.00     0.000 A 
ENDBRANCH  25  32
ENDBRANCH   1  17
TORSDOF 9
ENDMDL
MODEL 8
REMARK VINA RESULT:    -4.672      2.202      7.785
REMARK INTER + INTRA:          -7.388
REMARK INTER:                  -6.406
REMARK INTRA:                  -0.983
REMARK UNBOUND:                -0.941
REMARK SMILES O=C([O-])[C@@H]1O[C@@H](Oc2cc3oc(-c4ccccc4)cc(=O)c3c(O)c2O)[C@@H](O)[C@@H](O)[C@@H]1O
REMARK SMILES IDX 7 1 6 2 4 3 31 4 5 5 29 6 27 7 2 8 1 9 3 10 32 11 30 13
REMARK SMILES IDX 28 15 8 17 25 18 9 19 23 20 10 21 22 22 11 23 20 24 12 25
REMARK SMILES IDX 19 26 21 27 26 28 24 30 13 32 14 33 18 34 15 35 17 36 16 37
REMARK H PARENT 32 12 30 14 28 16 26 29 24 31
REMARK Flexibility Score: inf
ROOT
ATOM      1  O   UNL     1       9.063  21.288  22.552  1.00  0.00    -0.458 OA
ENDROOT
BRANCH   1   2
ATOM      2  C   UNL     1       8.803  21.971  23.783  1.00  0.00     0.339 C 
ATOM      3  C   UNL     1       7.228  21.939  25.562  1.00  0.00     0.199 C 
ATOM      4  C   UNL     1       6.310  23.054  24.981  1.00  0.00     0.180 C 
ATOM      5  O   UNL     1       7.854  21.206  24.524  1.00  0.00    -0.328 OA
ATOM      6  C   UNL     1       6.812  23.574  23.612  1.00  0.00     0.181 C 
ATOM      7  C   UNL     1       8.338  23.425  23.476  1.00  0.00     0.214 C 
BRANCH   3   8
ATOM      8  C   UNL     1       8.226  22.364  26.623  1.00  0.00     0.073 C 
ATOM      9  O   UNL     1       8.542  21.555  27.538  1.00  0.00    -0.547 OA
ATOM     10  O   UNL     1       8.854  23.605  26.574  1.00  0.00    -0.547 OA
ENDBRANCH   3   8
BRANCH   4  11
ATOM     11  O   UNL     1       6.171  24.125  25.882  1.00  0.00    -0.387 OA
ATOM     12  H   UNL     1       7.084  24.367  26.186  1.00  0.00     0.211 HD
ENDBRANCH   4  11
BRANCH   6  13
ATOM     13  O   UNL     1       6.146  22.940  22.544  1.00  0.00    -0.387 OA
ATOM     14  H   UNL     1       5.836  23.641  21.914  1.00  0.00     0.211 HD
ENDBRANCH   6  13
BRANCH   7  15
ATOM     15  O   UNL     1       8.756  23.820  22.191  1.00  0.00    -0.384 OA
ATOM     16  H   UNL     1       9.500  23.216  21.931  1.00  0.00     0.211 HD
ENDBRANCH   7  15
ENDBRANCH   1   2
BRANCH   1  17
ATOM     17  C   UNL     1       8.158  20.464  21.859  1.00  0.00     0.172 A 
ATOM     18  C   UNL     1       7.474  20.864  20.687  1.00  0.00     0.201 A 
ATOM     19  C   UNL     1       7.950  19.186  22.380  1.00  0.00     0.098 A 
ATOM     20  C   UNL     1       6.610  19.947  20.030  1.00  0.00     0.176 A 
ATOM     21  C   UNL     1       7.128  18.269  21.732  1.00  0.00     0.146 A 
ATOM     22  C   UNL     1       6.450  18.636  20.552  1.00  0.00     0.111 A 
ATOM     23  O   UNL     1       7.008  17.043  22.234  1.00  0.00    -0.456 OA
ATOM     24  C   UNL     1       5.643  17.656  19.937  1.00  0.00     0.197 A 
ATOM     25  C   UNL     1       6.265  16.093  21.675  1.00  0.00     0.138 A 
ATOM     26  C   UNL     1       5.558  16.380  20.498  1.00  0.00     0.100 A 
ATOM     27  O   UNL     1       4.996  17.899  18.882  1.00  0.00    -0.289 OA
BRANCH  18  28
ATOM     28  O   UNL     1       7.652  22.168  20.212  1.00  0.00    -0.502 OA
ATOM     29  H   UNL     1       8.482  22.728  20.338  1.00  0.00     0.293 HD
ENDBRANCH  18  28
BRANCH  20  30
ATOM     30  O   UNL     1       5.907  20.304  18.875  1.00  0.00    -0.504 OA
ATOM     31  H   UNL     1       5.530  21.217  18.686  1.00  0.00     0.293 HD
ENDBRANCH  20  30
BRANCH  25  32
ATOM     32  C   UNL     1       6.233  14.747  22.304  1.00  0.00     0.017 A 
ATOM     33  C   UNL     1       5.718  13.654  21.576  1.00  0.00     0.012 A 
ATOM     34  C   UNL     1       6.716  14.526  23.612  1.00  0.00     0.012 A 
ATOM     35  C   UNL     1       5.663  12.380  22.148  1.00  0.00     0.001 A 
ATOM     36  C   UNL     1       6.660  13.247  24.177  1.00  0.00     0.001 A 
ATOM     37  C   UNL     1       6.132  12.176  23.448  1.00  0.00     0.000 A 
ENDBRANCH  25  32
ENDBRANCH   1  17
TORSDOF 9
ENDMDL
