MODEL 1
REMARK VINA RESULT:    -3.234      0.000      0.000
REMARK INTER + INTRA:          -5.631
REMARK INTER:                  -4.936
REMARK INTRA:                  -0.696
REMARK UNBOUND:                -0.696
REMARK SMILES CCCCCCCCCCC(=O)[O-]
REMARK SMILES IDX 7 1 8 2 9 3 10 4 11 5 12 6 13 7 6 8 5 9 4 10 3 11 2 12 1 13
REMARK H PARENT
REMARK Flexibility Score: inf
ROOT
ATOM      1  C   UNL     1      -7.709   5.959   7.287  1.00  0.00     0.000 C 
ENDROOT
BRANCH   1   2
ATOM      2  C   UNL     1      -7.531   5.185   8.603  1.00  0.00     0.000 C 
BRANCH   2   3
ATOM      3  C   UNL     1      -6.747   5.985   9.658  1.00  0.00     0.006 C 
BRANCH   3   4
ATOM      4  C   UNL     1      -6.501   7.435   9.221  1.00  0.00     0.053 C 
BRANCH   4   5
ATOM      5  C   UNL     1      -5.039   7.739   9.100  1.00  0.00     0.041 C 
ATOM      6  O   UNL     1      -4.205   7.158   9.844  1.00  0.00    -0.550 OA
ATOM      7  O   UNL     1      -4.599   8.686   8.183  1.00  0.00    -0.550 OA
ENDBRANCH   4   5
ENDBRANCH   3   4
ENDBRANCH   2   3
ENDBRANCH   1   2
BRANCH   1   8
ATOM      8  C   UNL     1      -9.141   5.863   6.732  1.00  0.00     0.000 C 
BRANCH   8   9
ATOM      9  C   UNL     1      -9.913   7.185   6.854  1.00  0.00    -0.000 C 
BRANCH   9  10
ATOM     10  C   UNL     1     -10.075   7.903   5.502  1.00  0.00    -0.000 C 
BRANCH  10  11
ATOM     11  C   UNL     1      -9.477   7.090   4.335  1.00  0.00    -0.000 C 
BRANCH  11  12
ATOM     12  C   UNL     1      -8.530   7.906   3.439  1.00  0.00    -0.003 C 
ATOM     13  C   UNL     1      -7.738   8.961   4.209  1.00  0.00     0.004 C 
ENDBRANCH  11  12
ENDBRANCH  10  11
ENDBRANCH   9  10
ENDBRANCH   8   9
ENDBRANCH   1   8
TORSDOF 9
ENDMDL
MODEL 2
REMARK VINA RESULT:    -3.165      2.610      5.039
REMARK INTER + INTRA:          -5.526
REMARK INTER:                  -4.285
REMARK INTRA:                  -1.241
REMARK UNBOUND:                -0.696
REMARK SMILES CCCCCCCCCCC(=O)[O-]
REMARK SMILES IDX 7 1 8 2 9 3 10 4 11 5 12 6 13 7 6 8 5 9 4 10 3 11 2 12 1 13
REMARK H PARENT
REMARK Flexibility Score: inf
ROOT
ATOM      1  C   UNL     1      -9.048   5.605   9.720  1.00  0.00     0.000 C 
ENDROOT
BRANCH   1   2
ATOM      2  C   UNL     1      -9.640   6.295   8.482  1.00  0.00     0.000 C 
BRANCH   2   3
ATOM      3  C   UNL     1      -9.227   5.607   7.168  1.00  0.00     0.006 C 
BRANCH   3   4
ATOM      4  C   UNL     1      -8.146   6.394   6.417  1.00  0.00     0.053 C 
BRANCH   4   5
ATOM      5  C   UNL     1      -8.693   7.061   5.192  1.00  0.00     0.041 C 
ATOM      6  O   UNL     1      -9.652   6.544   4.562  1.00  0.00    -0.550 OA
ATOM      7  O   UNL     1      -8.124   8.242   4.731  1.00  0.00    -0.550 OA
ENDBRANCH   4   5
ENDBRANCH   3   4
ENDBRANCH   2   3
ENDBRANCH   1   2
BRANCH   1   8
ATOM      8  C   UNL     1      -8.283   4.316   9.372  1.00  0.00     0.000 C 
BRANCH   8   9
ATOM      9  C   UNL     1      -6.831   4.336   9.875  1.00  0.00    -0.000 C 
BRANCH   9  10
ATOM     10  C   UNL     1      -6.300   5.764  10.095  1.00  0.00    -0.000 C 
BRANCH  10  11
ATOM     11  C   UNL     1      -5.325   6.201   8.981  1.00  0.00    -0.000 C 
BRANCH  11  12
ATOM     12  C   UNL     1      -5.342   7.714   8.708  1.00  0.00    -0.003 C 
ATOM     13  C   UNL     1      -6.619   8.396   9.198  1.00  0.00     0.004 C 
ENDBRANCH  11  12
ENDBRANCH  10  11
ENDBRANCH   9  10
ENDBRANCH   8   9
ENDBRANCH   1   8
TORSDOF 9
ENDMDL
MODEL 3
REMARK VINA RESULT:    -3.134      1.509      2.387
REMARK INTER + INTRA:          -5.478
REMARK INTER:                  -4.279
REMARK INTRA:                  -1.199
REMARK UNBOUND:                -0.696
REMARK SMILES CCCCCCCCCCC(=O)[O-]
REMARK SMILES IDX 7 1 8 2 9 3 10 4 11 5 12 6 13 7 6 8 5 9 4 10 3 11 2 12 1 13
REMARK H PARENT
REMARK Flexibility Score: inf
ROOT
ATOM      1  C   UNL     1      -9.264   5.504   7.690  1.00  0.00     0.000 C 
ENDROOT
BRANCH   1   2
ATOM      2  C   UNL     1      -8.242   5.330   8.824  1.00  0.00     0.000 C 
BRANCH   2   3
ATOM      3  C   UNL     1      -6.850   5.870   8.454  1.00  0.00     0.006 C 
BRANCH   3   4
ATOM      4  C   UNL     1      -5.930   5.987   9.676  1.00  0.00     0.053 C 
BRANCH   4   5
ATOM      5  C   UNL     1      -4.728   6.833   9.388  1.00  0.00     0.041 C 
ATOM      6  O   UNL     1      -3.692   6.727  10.095  1.00  0.00    -0.550 OA
ATOM      7  O   UNL     1      -4.763   7.761   8.355  1.00  0.00    -0.550 OA
ENDBRANCH   4   5
ENDBRANCH   3   4
ENDBRANCH   2   3
ENDBRANCH   1   2
BRANCH   1   8
ATOM      8  C   UNL     1      -8.628   6.045   6.398  1.00  0.00     0.000 C 
BRANCH   8   9
ATOM      9  C   UNL     1      -9.318   7.319   5.888  1.00  0.00    -0.000 C 
BRANCH   9  10
ATOM     10  C   UNL     1      -8.315   8.410   5.472  1.00  0.00    -0.000 C 
BRANCH  10  11
ATOM     11  C   UNL     1      -7.651   9.087   6.690  1.00  0.00    -0.000 C 
BRANCH  11  12
ATOM     12  C   UNL     1      -8.656   9.561   7.753  1.00  0.00    -0.003 C 
ATOM     13  C   UNL     1      -8.294   9.105   9.165  1.00  0.00     0.004 C 
ENDBRANCH  11  12
ENDBRANCH  10  11
ENDBRANCH   9  10
ENDBRANCH   8   9
ENDBRANCH   1   8
TORSDOF 9
ENDMDL
MODEL 4
REMARK VINA RESULT:    -3.068      1.276      1.993
REMARK INTER + INTRA:          -5.378
REMARK INTER:                  -4.936
REMARK INTRA:                  -0.442
REMARK UNBOUND:                -0.696
REMARK SMILES CCCCCCCCCCC(=O)[O-]
REMARK SMILES IDX 7 1 8 2 9 3 10 4 11 5 12 6 13 7 6 8 5 9 4 10 3 11 2 12 1 13
REMARK H PARENT
REMARK Flexibility Score: inf
ROOT
ATOM      1  C   UNL     1      -8.988   7.177   7.156  1.00  0.00     0.000 C 
ENDROOT
BRANCH   1   2
ATOM      2  C   UNL     1      -7.948   6.053   7.030  1.00  0.00     0.000 C 
BRANCH   2   3
ATOM      3  C   UNL     1      -7.224   5.767   8.357  1.00  0.00     0.006 C 
BRANCH   3   4
ATOM      4  C   UNL     1      -6.655   7.041   8.994  1.00  0.00     0.053 C 
BRANCH   4   5
ATOM      5  C   UNL     1      -5.213   7.243   8.642  1.00  0.00     0.041 C 
ATOM      6  O   UNL     1      -4.396   6.290   8.737  1.00  0.00    -0.550 OA
ATOM      7  O   UNL     1      -4.766   8.495   8.235  1.00  0.00    -0.550 OA
ENDBRANCH   4   5
ENDBRANCH   3   4
ENDBRANCH   2   3
ENDBRANCH   1   2
BRANCH   1   8
ATOM      8  C   UNL     1      -9.735   7.443   5.837  1.00  0.00     0.000 C 
BRANCH   8   9
ATOM      9  C   UNL     1      -8.939   6.988   4.604  1.00  0.00    -0.000 C 
BRANCH   9  10
ATOM     10  C   UNL     1      -9.038   7.983   3.435  1.00  0.00    -0.000 C 
BRANCH  10  11
ATOM     11  C   UNL     1      -7.660   8.549   3.032  1.00  0.00    -0.000 C 
BRANCH  11  12
ATOM     12  C   UNL     1      -7.746   9.774   2.107  1.00  0.00    -0.003 C 
ATOM     13  C   UNL     1      -8.587   9.523   0.856  1.00  0.00     0.004 C 
ENDBRANCH  11  12
ENDBRANCH  10  11
ENDBRANCH   9  10
ENDBRANCH   8   9
ENDBRANCH   1   8
TORSDOF 9
ENDMDL
MODEL 5
REMARK VINA RESULT:    -3.021      2.753      5.145
REMARK INTER + INTRA:          -5.306
REMARK INTER:                  -4.323
REMARK INTRA:                  -0.983
REMARK UNBOUND:                -0.696
REMARK SMILES CCCCCCCCCCC(=O)[O-]
REMARK SMILES IDX 7 1 8 2 9 3 10 4 11 5 12 6 13 7 6 8 5 9 4 10 3 11 2 12 1 13
REMARK H PARENT
REMARK Flexibility Score: inf
ROOT
ATOM      1  C   UNL     1      -7.934   5.969   7.068  1.00  0.00     0.000 C 
ENDROOT
BRANCH   1   2
ATOM      2  C   UNL     1      -9.383   6.378   6.760  1.00  0.00     0.000 C 
BRANCH   2   3
ATOM      3  C   UNL     1      -9.485   7.324   5.551  1.00  0.00     0.006 C 
BRANCH   3   4
ATOM      4  C   UNL     1      -8.333   7.123   4.559  1.00  0.00     0.053 C 
BRANCH   4   5
ATOM      5  C   UNL     1      -8.280   8.218   3.538  1.00  0.00     0.041 C 
ATOM      6  O   UNL     1      -7.388   9.104   3.602  1.00  0.00    -0.550 OA
ATOM      7  O   UNL     1      -9.236   8.276   2.531  1.00  0.00    -0.550 OA
ENDBRANCH   4   5
ENDBRANCH   3   4
ENDBRANCH   2   3
ENDBRANCH   1   2
BRANCH   1   8
ATOM      8  C   UNL     1      -7.770   5.391   8.485  1.00  0.00     0.000 C 
BRANCH   8   9
ATOM      9  C   UNL     1      -6.814   6.220   9.355  1.00  0.00    -0.000 C 
BRANCH   9  10
ATOM     10  C   UNL     1      -5.476   6.512   8.653  1.00  0.00    -0.000 C 
BRANCH  10  11
ATOM     11  C   UNL     1      -5.119   8.013   8.681  1.00  0.00    -0.000 C 
BRANCH  11  12
ATOM     12  C   UNL     1      -6.344   8.938   8.588  1.00  0.00    -0.003 C 
ATOM     13  C   UNL     1      -6.618   9.429   7.168  1.00  0.00     0.004 C 
ENDBRANCH  11  12
ENDBRANCH  10  11
ENDBRANCH   9  10
ENDBRANCH   8   9
ENDBRANCH   1   8
TORSDOF 9
ENDMDL
MODEL 6
REMARK VINA RESULT:    -2.974      2.431      5.186
REMARK INTER + INTRA:          -5.234
REMARK INTER:                  -4.422
REMARK INTRA:                  -0.812
REMARK UNBOUND:                -0.696
REMARK SMILES CCCCCCCCCCC(=O)[O-]
REMARK SMILES IDX 7 1 8 2 9 3 10 4 11 5 12 6 13 7 6 8 5 9 4 10 3 11 2 12 1 13
REMARK H PARENT
REMARK Flexibility Score: inf
ROOT
ATOM      1  C   UNL     1      -8.622   6.221   6.525  1.00  0.00     0.000 C 
ENDROOT
BRANCH   1   2
ATOM      2  C   UNL     1      -9.501   7.441   6.210  1.00  0.00     0.000 C 
BRANCH   2   3
ATOM      3  C   UNL     1      -9.607   7.720   4.701  1.00  0.00     0.006 C 
BRANCH   3   4
ATOM      4  C   UNL     1      -8.272   7.500   3.977  1.00  0.00     0.053 C 
BRANCH   4   5
ATOM      5  C   UNL     1      -7.686   8.789   3.487  1.00  0.00     0.041 C 
ATOM      6  O   UNL     1      -7.710   9.073   2.261  1.00  0.00    -0.550 OA
ATOM      7  O   UNL     1      -7.088   9.665   4.385  1.00  0.00    -0.550 OA
ENDBRANCH   4   5
ENDBRANCH   3   4
ENDBRANCH   2   3
ENDBRANCH   1   2
BRANCH   1   8
ATOM      8  C   UNL     1      -8.816   5.706   7.962  1.00  0.00     0.000 C 
BRANCH   8   9
ATOM      9  C   UNL     1      -7.500   5.250   8.610  1.00  0.00    -0.000 C 
BRANCH   9  10
ATOM     10  C   UNL     1      -6.815   6.370   9.412  1.00  0.00    -0.000 C 
BRANCH  10  11
ATOM     11  C   UNL     1      -5.429   6.734   8.840  1.00  0.00    -0.000 C 
BRANCH  11  12
ATOM     12  C   UNL     1      -5.230   8.244   8.625  1.00  0.00    -0.003 C 
ATOM     13  C   UNL     1      -6.381   8.898   7.862  1.00  0.00     0.004 C 
ENDBRANCH  11  12
ENDBRANCH  10  11
ENDBRANCH   9  10
ENDBRANCH   8   9
ENDBRANCH   1   8
TORSDOF 9
ENDMDL
MODEL 7
REMARK VINA RESULT:    -2.948      2.659      3.344
REMARK INTER + INTRA:          -5.195
REMARK INTER:                  -4.380
REMARK INTRA:                  -0.815
REMARK UNBOUND:                -0.696
REMARK SMILES CCCCCCCCCCC(=O)[O-]
REMARK SMILES IDX 7 1 8 2 9 3 10 4 11 5 12 6 13 7 6 8 5 9 4 10 3 11 2 12 1 13
REMARK H PARENT
REMARK Flexibility Score: inf
ROOT
ATOM      1  C   UNL     1      -8.315   8.254   7.775  1.00  0.00     0.000 C 
ENDROOT
BRANCH   1   2
ATOM      2  C   UNL     1      -7.068   7.369   7.929  1.00  0.00     0.000 C 
BRANCH   2   3
ATOM      3  C   UNL     1      -7.390   5.869   7.818  1.00  0.00     0.006 C 
BRANCH   3   4
ATOM      4  C   UNL     1      -7.221   5.139   9.156  1.00  0.00     0.053 C 
BRANCH   4   5
ATOM      5  C   UNL     1      -8.244   4.059   9.334  1.00  0.00     0.041 C 
ATOM      6  O   UNL     1      -9.466   4.306   9.160  1.00  0.00    -0.550 OA
ATOM      7  O   UNL     1      -7.848   2.784   9.719  1.00  0.00    -0.550 OA
ENDBRANCH   4   5
ENDBRANCH   3   4
ENDBRANCH   2   3
ENDBRANCH   1   2
BRANCH   1   8
ATOM      8  C   UNL     1      -9.544   7.465   7.288  1.00  0.00     0.000 C 
BRANCH   8   9
ATOM      9  C   UNL     1      -9.970   7.854   5.864  1.00  0.00    -0.000 C 
BRANCH   9  10
ATOM     10  C   UNL     1      -9.458   6.865   4.802  1.00  0.00    -0.000 C 
BRANCH  10  11
ATOM     11  C   UNL     1      -8.246   7.420   4.025  1.00  0.00    -0.000 C 
BRANCH  11  12
ATOM     12  C   UNL     1      -8.542   8.733   3.280  1.00  0.00    -0.003 C 
ATOM     13  C   UNL     1      -9.370   8.528   2.012  1.00  0.00     0.004 C 
ENDBRANCH  11  12
ENDBRANCH  10  11
ENDBRANCH   9  10
ENDBRANCH   8   9
ENDBRANCH   1   8
TORSDOF 9
ENDMDL
MODEL 8
REMARK VINA RESULT:    -2.776      2.136      2.837
REMARK INTER + INTRA:          -4.932
REMARK INTER:                  -4.040
REMARK INTRA:                  -0.891
REMARK UNBOUND:                -0.696
REMARK SMILES CCCCCCCCCCC(=O)[O-]
REMARK SMILES IDX 7 1 8 2 9 3 10 4 11 5 12 6 13 7 6 8 5 9 4 10 3 11 2 12 1 13
REMARK H PARENT
REMARK Flexibility Score: inf
ROOT
ATOM      1  C   UNL     1      -6.850   9.105   7.314  1.00  0.00     0.000 C 
ENDROOT
BRANCH   1   2
ATOM      2  C   UNL     1      -6.110   8.664   8.586  1.00  0.00     0.000 C 
BRANCH   2   3
ATOM      3  C   UNL     1      -5.846   7.149   8.622  1.00  0.00     0.006 C 
BRANCH   3   4
ATOM      4  C   UNL     1      -6.521   6.471   9.821  1.00  0.00     0.053 C 
BRANCH   4   5
ATOM      5  C   UNL     1      -6.968   5.079   9.495  1.00  0.00     0.041 C 
ATOM      6  O   UNL     1      -6.408   4.089  10.033  1.00  0.00    -0.550 OA
ATOM      7  O   UNL     1      -7.988   4.876   8.572  1.00  0.00    -0.550 OA
ENDBRANCH   4   5
ENDBRANCH   3   4
ENDBRANCH   2   3
ENDBRANCH   1   2
BRANCH   1   8
ATOM      8  C   UNL     1      -8.326   9.451   7.577  1.00  0.00     0.000 C 
BRANCH   8   9
ATOM      9  C   UNL     1      -9.179   8.210   7.879  1.00  0.00    -0.000 C 
BRANCH   9  10
ATOM     10  C   UNL     1     -10.019   7.759   6.672  1.00  0.00    -0.000 C 
BRANCH  10  11
ATOM     11  C   UNL     1      -9.289   6.703   5.815  1.00  0.00    -0.000 C 
BRANCH  11  12
ATOM     12  C   UNL     1      -9.286   7.026   4.312  1.00  0.00    -0.003 C 
ATOM     13  C   UNL     1      -8.216   8.045   3.921  1.00  0.00     0.004 C 
ENDBRANCH  11  12
ENDBRANCH  10  11
ENDBRANCH   9  10
ENDBRANCH   8   9
ENDBRANCH   1   8
TORSDOF 9
ENDMDL
MODEL 9
REMARK VINA RESULT:    -2.725      4.185      7.047
REMARK INTER + INTRA:          -4.854
REMARK INTER:                  -4.417
REMARK INTRA:                  -0.437
REMARK UNBOUND:                -0.696
REMARK SMILES CCCCCCCCCCC(=O)[O-]
REMARK SMILES IDX 7 1 8 2 9 3 10 4 11 5 12 6 13 7 6 8 5 9 4 10 3 11 2 12 1 13
REMARK H PARENT
REMARK Flexibility Score: inf
ROOT
ATOM      1  C   UNL     1      -9.489   7.151   4.272  1.00  0.00     0.000 C 
ENDROOT
BRANCH   1   2
ATOM      2  C   UNL     1      -8.491   7.938   3.408  1.00  0.00     0.000 C 
BRANCH   2   3
ATOM      3  C   UNL     1      -9.182   8.964   2.492  1.00  0.00     0.006 C 
BRANCH   3   4
ATOM      4  C   UNL     1     -10.010   8.291   1.390  1.00  0.00     0.053 C 
BRANCH   4   5
ATOM      5  C   UNL     1      -9.469   8.592   0.025  1.00  0.00     0.041 C 
ATOM      6  O   UNL     1      -9.991   8.071  -0.995  1.00  0.00    -0.550 OA
ATOM      7  O   UNL     1      -8.367   9.427  -0.116  1.00  0.00    -0.550 OA
ENDBRANCH   4   5
ENDBRANCH   3   4
ENDBRANCH   2   3
ENDBRANCH   1   2
BRANCH   1   8
ATOM      8  C   UNL     1      -9.850   7.884   5.576  1.00  0.00     0.000 C 
BRANCH   8   9
ATOM      9  C   UNL     1      -9.704   6.989   6.816  1.00  0.00    -0.000 C 
BRANCH   9  10
ATOM     10  C   UNL     1      -8.661   5.874   6.623  1.00  0.00    -0.000 C 
BRANCH  10  11
ATOM     11  C   UNL     1      -7.527   5.949   7.666  1.00  0.00    -0.000 C 
BRANCH  11  12
ATOM     12  C   UNL     1      -7.985   5.621   9.097  1.00  0.00    -0.003 C 
ATOM     13  C   UNL     1      -7.829   4.144   9.452  1.00  0.00     0.004 C 
ENDBRANCH  11  12
ENDBRANCH  10  11
ENDBRANCH   9  10
ENDBRANCH   8   9
ENDBRANCH   1   8
TORSDOF 9
ENDMDL
