MODEL 1
REMARK VINA RESULT:    -2.721      0.000      0.000
REMARK INTER + INTRA:          -3.087
REMARK INTER:                  -2.960
REMARK INTRA:                  -0.127
REMARK UNBOUND:                -0.127
REMARK SMILES Cc1ccc(C(C)C)cc1O
REMARK SMILES IDX 1 1 2 2 10 3 9 4 5 5 4 6 3 7 11 8 6 10 7 11 8 12
REMARK H PARENT 11 9
REMARK Flexibility Score: inf
ROOT
ATOM      1  C   UNL     1     127.049 107.133 132.956  1.00  0.00     0.048 C 
ATOM      2  C   UNL     1     126.782 108.326 133.830  1.00  0.00    -0.009 A 
ATOM      3  C   UNL     1     126.186 108.159 135.092  1.00  0.00     0.118 A 
ATOM      4  C   UNL     1     125.939 109.276 135.902  1.00  0.00     0.050 A 
ATOM      5  C   UNL     1     126.283 110.569 135.466  1.00  0.00    -0.042 A 
ATOM      6  C   UNL     1     126.878 110.725 134.203  1.00  0.00     0.004 A 
ATOM      7  C   UNL     1     127.125 109.613 133.393  1.00  0.00     0.007 A 
ENDROOT
BRANCH   3   8
ATOM      8  O   UNL     1     125.840 106.883 135.537  1.00  0.00    -0.508 OA
ATOM      9  H   UNL     1     124.907 106.673 135.873  1.00  0.00     0.293 HD
ENDBRANCH   3   8
BRANCH   5  10
ATOM     10  C   UNL     1     126.021 111.785 136.335  1.00  0.00     0.013 C 
ATOM     11  C   UNL     1     126.933 111.790 137.569  1.00  0.00     0.012 C 
ATOM     12  C   UNL     1     126.173 113.082 135.533  1.00  0.00     0.012 C 
ENDBRANCH   5  10
TORSDOF 2
ENDMDL
MODEL 2
REMARK VINA RESULT:    -2.532      1.666      4.324
REMARK INTER + INTRA:          -2.881
REMARK INTER:                  -2.754
REMARK INTRA:                  -0.128
REMARK UNBOUND:                -0.127
REMARK SMILES Cc1ccc(C(C)C)cc1O
REMARK SMILES IDX 1 1 2 2 10 3 9 4 5 5 4 6 3 7 11 8 6 10 7 11 8 12
REMARK H PARENT 11 9
REMARK Flexibility Score: inf
ROOT
ATOM      1  C   UNL     1     126.701 113.009 138.013  1.00  0.00     0.048 C 
ATOM      2  C   UNL     1     126.597 111.987 136.917  1.00  0.00    -0.009 A 
ATOM      3  C   UNL     1     125.991 110.743 137.165  1.00  0.00     0.118 A 
ATOM      4  C   UNL     1     125.899 109.792 136.138  1.00  0.00     0.050 A 
ATOM      5  C   UNL     1     126.406 110.070 134.856  1.00  0.00    -0.042 A 
ATOM      6  C   UNL     1     127.011 111.315 134.619  1.00  0.00     0.004 A 
ATOM      7  C   UNL     1     127.105 112.264 135.640  1.00  0.00     0.007 A 
ENDROOT
BRANCH   3   8
ATOM      8  O   UNL     1     125.482 110.454 138.431  1.00  0.00    -0.508 OA
ATOM      9  H   UNL     1     125.596 111.096 139.208  1.00  0.00     0.293 HD
ENDBRANCH   3   8
BRANCH   5  10
ATOM     10  C   UNL     1     126.311 109.049 133.737  1.00  0.00     0.013 C 
ATOM     11  C   UNL     1     127.125 109.491 132.514  1.00  0.00     0.012 C 
ATOM     12  C   UNL     1     126.748 107.660 134.216  1.00  0.00     0.012 C 
ENDBRANCH   5  10
TORSDOF 2
ENDMDL
MODEL 3
REMARK VINA RESULT:    -2.483      1.924      2.668
REMARK INTER + INTRA:          -2.828
REMARK INTER:                  -2.700
REMARK INTRA:                  -0.128
REMARK UNBOUND:                -0.127
REMARK SMILES Cc1ccc(C(C)C)cc1O
REMARK SMILES IDX 1 1 2 2 10 3 9 4 5 5 4 6 3 7 11 8 6 10 7 11 8 12
REMARK H PARENT 11 9
REMARK Flexibility Score: inf
ROOT
ATOM      1  C   UNL     1     127.125 108.064 132.672  1.00  0.00     0.048 C 
ATOM      2  C   UNL     1     126.733 108.669 133.990  1.00  0.00    -0.009 A 
ATOM      3  C   UNL     1     126.742 110.065 134.159  1.00  0.00     0.118 A 
ATOM      4  C   UNL     1     126.376 110.623 135.392  1.00  0.00     0.050 A 
ATOM      5  C   UNL     1     125.996 109.800 136.468  1.00  0.00    -0.042 A 
ATOM      6  C   UNL     1     125.991 108.406 136.289  1.00  0.00     0.004 A 
ATOM      7  C   UNL     1     126.356 107.847 135.062  1.00  0.00     0.007 A 
ENDROOT
BRANCH   3   8
ATOM      8  O   UNL     1     127.116 110.893 133.100  1.00  0.00    -0.508 OA
ATOM      9  H   UNL     1     126.445 111.199 132.404  1.00  0.00     0.293 HD
ENDBRANCH   3   8
BRANCH   5  10
ATOM     10  C   UNL     1     125.597 110.394 137.806  1.00  0.00     0.013 C 
ATOM     11  C   UNL     1     125.068 109.311 138.756  1.00  0.00     0.012 C 
ATOM     12  C   UNL     1     126.763 111.161 138.440  1.00  0.00     0.012 C 
ENDBRANCH   5  10
TORSDOF 2
ENDMDL
MODEL 4
REMARK VINA RESULT:    -2.433      2.158      4.603
REMARK INTER + INTRA:          -2.773
REMARK INTER:                  -2.646
REMARK INTRA:                  -0.128
REMARK UNBOUND:                -0.127
REMARK SMILES Cc1ccc(C(C)C)cc1O
REMARK SMILES IDX 1 1 2 2 10 3 9 4 5 5 4 6 3 7 11 8 6 10 7 11 8 12
REMARK H PARENT 11 9
REMARK Flexibility Score: inf
ROOT
ATOM      1  C   UNL     1     125.530 112.177 137.754  1.00  0.00     0.048 C 
ATOM      2  C   UNL     1     125.942 111.310 136.599  1.00  0.00    -0.009 A 
ATOM      3  C   UNL     1     126.596 111.874 135.489  1.00  0.00     0.118 A 
ATOM      4  C   UNL     1     126.978 111.059 134.413  1.00  0.00     0.050 A 
ATOM      5  C   UNL     1     126.715 109.677 134.432  1.00  0.00    -0.042 A 
ATOM      6  C   UNL     1     126.061 109.124 135.545  1.00  0.00     0.004 A 
ATOM      7  C   UNL     1     125.679 109.933 136.618  1.00  0.00     0.007 A 
ENDROOT
BRANCH   3   8
ATOM      8  O   UNL     1     126.863 113.243 135.458  1.00  0.00    -0.508 OA
ATOM      9  H   UNL     1     126.195 113.922 135.803  1.00  0.00     0.293 HD
ENDBRANCH   3   8
BRANCH   5  10
ATOM     10  C   UNL     1     127.125 108.786 133.274  1.00  0.00     0.013 C 
ATOM     11  C   UNL     1     126.790 107.316 133.561  1.00  0.00     0.012 C 
ATOM     12  C   UNL     1     126.481 109.251 131.963  1.00  0.00     0.012 C 
ENDBRANCH   5  10
TORSDOF 2
ENDMDL
MODEL 5
REMARK VINA RESULT:    -2.424      1.952      4.054
REMARK INTER + INTRA:          -2.764
REMARK INTER:                  -2.652
REMARK INTRA:                  -0.112
REMARK UNBOUND:                -0.127
REMARK SMILES Cc1ccc(C(C)C)cc1O
REMARK SMILES IDX 1 1 2 2 10 3 9 4 5 5 4 6 3 7 11 8 6 10 7 11 8 12
REMARK H PARENT 11 9
REMARK Flexibility Score: inf
ROOT
ATOM      1  C   UNL     1     127.125 112.976 134.477  1.00  0.00     0.048 C 
ATOM      2  C   UNL     1     126.819 111.515 134.644  1.00  0.00    -0.009 A 
ATOM      3  C   UNL     1     126.293 111.036 135.857  1.00  0.00     0.118 A 
ATOM      4  C   UNL     1     126.010 109.670 136.006  1.00  0.00     0.050 A 
ATOM      5  C   UNL     1     126.248 108.769 134.952  1.00  0.00    -0.042 A 
ATOM      6  C   UNL     1     126.775 109.258 133.745  1.00  0.00     0.004 A 
ATOM      7  C   UNL     1     127.058 110.618 133.593  1.00  0.00     0.007 A 
ENDROOT
BRANCH   3   8
ATOM      8  O   UNL     1     126.051 111.918 136.909  1.00  0.00    -0.508 OA
ATOM      9  H   UNL     1     125.132 112.315 137.069  1.00  0.00     0.293 HD
ENDBRANCH   3   8
BRANCH   5  10
ATOM     10  C   UNL     1     125.945 107.289 135.103  1.00  0.00     0.013 C 
ATOM     11  C   UNL     1     125.697 106.923 136.572  1.00  0.00     0.012 C 
ATOM     12  C   UNL     1     124.760 106.875 134.224  1.00  0.00     0.012 C 
ENDBRANCH   5  10
TORSDOF 2
ENDMDL
MODEL 6
REMARK VINA RESULT:    -2.277      1.503      2.482
REMARK INTER + INTRA:          -2.604
REMARK INTER:                  -2.475
REMARK INTRA:                  -0.128
REMARK UNBOUND:                -0.127
REMARK SMILES Cc1ccc(C(C)C)cc1O
REMARK SMILES IDX 1 1 2 2 10 3 9 4 5 5 4 6 3 7 11 8 6 10 7 11 8 12
REMARK H PARENT 11 9
REMARK Flexibility Score: inf
ROOT
ATOM      1  C   UNL     1     127.125 109.684 132.009  1.00  0.00     0.048 C 
ATOM      2  C   UNL     1     126.736 109.471 133.445  1.00  0.00    -0.009 A 
ATOM      3  C   UNL     1     126.657 108.169 133.971  1.00  0.00     0.118 A 
ATOM      4  C   UNL     1     126.292 107.978 135.311  1.00  0.00     0.050 A 
ATOM      5  C   UNL     1     126.005 109.077 136.141  1.00  0.00    -0.042 A 
ATOM      6  C   UNL     1     126.086 110.373 135.605  1.00  0.00     0.004 A 
ATOM      7  C   UNL     1     126.449 110.567 134.270  1.00  0.00     0.007 A 
ENDROOT
BRANCH   3   8
ATOM      8  O   UNL     1     126.940 107.070 133.160  1.00  0.00    -0.508 OA
ATOM      9  H   UNL     1     126.691 106.128 133.437  1.00  0.00     0.293 HD
ENDBRANCH   3   8
BRANCH   5  10
ATOM     10  C   UNL     1     125.610 108.881 137.593  1.00  0.00     0.013 C 
ATOM     11  C   UNL     1     126.404 109.818 138.513  1.00  0.00     0.012 C 
ATOM     12  C   UNL     1     124.101 109.068 137.786  1.00  0.00     0.012 C 
ENDBRANCH   5  10
TORSDOF 2
ENDMDL
MODEL 7
REMARK VINA RESULT:    -2.262      2.404      4.754
REMARK INTER + INTRA:          -2.588
REMARK INTER:                  -2.461
REMARK INTRA:                  -0.127
REMARK UNBOUND:                -0.127
REMARK SMILES Cc1ccc(C(C)C)cc1O
REMARK SMILES IDX 1 1 2 2 10 3 9 4 5 5 4 6 3 7 11 8 6 10 7 11 8 12
REMARK H PARENT 11 9
REMARK Flexibility Score: inf
ROOT
ATOM      1  C   UNL     1     126.460 113.445 134.161  1.00  0.00     0.048 C 
ATOM      2  C   UNL     1     126.610 111.960 133.987  1.00  0.00    -0.009 A 
ATOM      3  C   UNL     1     126.937 111.425 132.729  1.00  0.00     0.118 A 
ATOM      4  C   UNL     1     127.074 110.038 132.573  1.00  0.00     0.050 A 
ATOM      5  C   UNL     1     126.889 109.171 133.666  1.00  0.00    -0.042 A 
ATOM      6  C   UNL     1     126.561 109.716 134.918  1.00  0.00     0.004 A 
ATOM      7  C   UNL     1     126.423 111.097 135.076  1.00  0.00     0.007 A 
ENDROOT
BRANCH   3   8
ATOM      8  O   UNL     1     127.125 112.272 131.637  1.00  0.00    -0.508 OA
ATOM      9  H   UNL     1     126.356 112.534 131.030  1.00  0.00     0.293 HD
ENDBRANCH   3   8
BRANCH   5  10
ATOM     10  C   UNL     1     127.036 107.669 133.508  1.00  0.00     0.013 C 
ATOM     11  C   UNL     1     126.255 106.920 134.596  1.00  0.00     0.012 C 
ATOM     12  C   UNL     1     126.606 107.214 132.109  1.00  0.00     0.012 C 
ENDBRANCH   5  10
TORSDOF 2
ENDMDL
MODEL 8
REMARK VINA RESULT:    -1.150      2.260      3.741
REMARK INTER + INTRA:          -1.378
REMARK INTER:                  -1.269
REMARK INTRA:                  -0.109
REMARK UNBOUND:                -0.127
REMARK SMILES Cc1ccc(C(C)C)cc1O
REMARK SMILES IDX 1 1 2 2 10 3 9 4 5 5 4 6 3 7 11 8 6 10 7 11 8 12
REMARK H PARENT 11 9
REMARK Flexibility Score: inf
ROOT
ATOM      1  C   UNL     1     127.125 111.459 133.267  1.00  0.00     0.048 C 
ATOM      2  C   UNL     1     126.714 110.439 134.291  1.00  0.00    -0.009 A 
ATOM      3  C   UNL     1     126.369 110.844 135.593  1.00  0.00     0.118 A 
ATOM      4  C   UNL     1     125.986 109.887 136.544  1.00  0.00     0.050 A 
ATOM      5  C   UNL     1     125.943 108.521 136.211  1.00  0.00    -0.042 A 
ATOM      6  C   UNL     1     126.290 108.128 134.908  1.00  0.00     0.004 A 
ATOM      7  C   UNL     1     126.672 109.078 133.957  1.00  0.00     0.007 A 
ENDROOT
BRANCH   3   8
ATOM      8  O   UNL     1     126.406 112.195 135.937  1.00  0.00    -0.508 OA
ATOM      9  H   UNL     1     127.237 112.618 136.336  1.00  0.00     0.293 HD
ENDBRANCH   3   8
BRANCH   5  10
ATOM     10  C   UNL     1     125.530 107.478 137.232  1.00  0.00     0.013 C 
ATOM     11  C   UNL     1     125.664 108.019 138.662  1.00  0.00     0.012 C 
ATOM     12  C   UNL     1     124.107 106.975 136.965  1.00  0.00     0.012 C 
ENDBRANCH   5  10
TORSDOF 2
ENDMDL
