MODEL 1
REMARK VINA RESULT:    -3.248      0.000      0.000
REMARK INTER + INTRA:          -3.837
REMARK INTER:                  -3.818
REMARK INTRA:                  -0.019
REMARK UNBOUND:                -0.019
REMARK SMILES CCCCC(=O)[O-]
REMARK SMILES IDX 4 1 5 2 6 3 7 4 3 5 2 6 1 7
REMARK H PARENT
REMARK Flexibility Score: inf
ROOT
ATOM      1  C   UNL     1      26.089  -3.752  -3.291  1.00  0.00     0.053 C 
ENDROOT
BRANCH   1   2
ATOM      2  C   UNL     1      26.610  -4.748  -2.304  1.00  0.00     0.041 C 
ATOM      3  O   UNL     1      26.644  -5.972  -2.596  1.00  0.00    -0.550 OA
ATOM      4  O   UNL     1      27.104  -4.319  -1.079  1.00  0.00    -0.550 OA
ENDBRANCH   1   2
BRANCH   1   5
ATOM      5  C   UNL     1      25.682  -2.456  -2.579  1.00  0.00     0.006 C 
BRANCH   5   6
ATOM      6  C   UNL     1      24.563  -1.705  -3.315  1.00  0.00    -0.003 C 
ATOM      7  C   UNL     1      23.448  -1.238  -2.379  1.00  0.00     0.004 C 
ENDBRANCH   5   6
ENDBRANCH   1   5
TORSDOF 3
ENDMDL
MODEL 2
REMARK VINA RESULT:    -2.549      3.053      4.382
REMARK INTER + INTRA:          -3.015
REMARK INTER:                  -2.994
REMARK INTRA:                  -0.021
REMARK UNBOUND:                -0.019
REMARK SMILES CCCCC(=O)[O-]
REMARK SMILES IDX 4 1 5 2 6 3 7 4 3 5 2 6 1 7
REMARK H PARENT
REMARK Flexibility Score: inf
ROOT
ATOM      1  C   UNL     1      24.582  -1.763  -3.370  1.00  0.00     0.053 C 
ENDROOT
BRANCH   1   2
ATOM      2  C   UNL     1      23.614  -0.931  -2.590  1.00  0.00     0.041 C 
ATOM      3  O   UNL     1      22.931  -1.450  -1.669  1.00  0.00    -0.550 OA
ATOM      4  O   UNL     1      23.502   0.430  -2.847  1.00  0.00    -0.550 OA
ENDBRANCH   1   2
BRANCH   1   5
ATOM      5  C   UNL     1      25.551  -2.483  -2.426  1.00  0.00     0.006 C 
BRANCH   5   6
ATOM      6  C   UNL     1      26.256  -3.671  -3.098  1.00  0.00    -0.003 C 
ATOM      7  C   UNL     1      27.097  -4.491  -2.119  1.00  0.00     0.004 C 
ENDBRANCH   5   6
ENDBRANCH   1   5
TORSDOF 3
ENDMDL
MODEL 3
REMARK VINA RESULT:    -2.532      9.763     10.893
REMARK INTER + INTRA:          -2.995
REMARK INTER:                  -2.978
REMARK INTRA:                  -0.018
REMARK UNBOUND:                -0.019
REMARK SMILES CCCCC(=O)[O-]
REMARK SMILES IDX 4 1 5 2 6 3 7 4 3 5 2 6 1 7
REMARK H PARENT
REMARK Flexibility Score: inf
ROOT
ATOM      1  C   UNL     1      27.182   6.747  -0.906  1.00  0.00     0.053 C 
ENDROOT
BRANCH   1   2
ATOM      2  C   UNL     1      27.336   8.194  -1.255  1.00  0.00     0.041 C 
ATOM      3  O   UNL     1      27.466   8.545  -2.457  1.00  0.00    -0.550 OA
ATOM      4  O   UNL     1      27.289   9.158  -0.257  1.00  0.00    -0.550 OA
ENDBRANCH   1   2
BRANCH   1   5
ATOM      5  C   UNL     1      25.934   6.165  -1.581  1.00  0.00     0.006 C 
BRANCH   5   6
ATOM      6  C   UNL     1      25.773   4.659  -1.323  1.00  0.00    -0.003 C 
ATOM      7  C   UNL     1      24.689   4.022  -2.193  1.00  0.00     0.004 C 
ENDBRANCH   5   6
ENDBRANCH   1   5
TORSDOF 3
ENDMDL
MODEL 4
REMARK VINA RESULT:    -2.487     11.599     12.523
REMARK INTER + INTRA:          -2.942
REMARK INTER:                  -2.834
REMARK INTRA:                  -0.109
REMARK UNBOUND:                -0.019
REMARK SMILES CCCCC(=O)[O-]
REMARK SMILES IDX 4 1 5 2 6 3 7 4 3 5 2 6 1 7
REMARK H PARENT
REMARK Flexibility Score: inf
ROOT
ATOM      1  C   UNL     1      28.249   8.020  -0.784  1.00  0.00     0.053 C 
ENDROOT
BRANCH   1   2
ATOM      2  C   UNL     1      27.026   7.394  -1.374  1.00  0.00     0.041 C 
ATOM      3  O   UNL     1      26.362   8.004  -2.253  1.00  0.00    -0.550 OA
ATOM      4  O   UNL     1      26.645   6.114  -0.989  1.00  0.00    -0.550 OA
ENDBRANCH   1   2
BRANCH   1   5
ATOM      5  C   UNL     1      28.014   9.513  -0.525  1.00  0.00     0.006 C 
BRANCH   5   6
ATOM      6  C   UNL     1      29.018  10.406  -1.269  1.00  0.00    -0.003 C 
ATOM      7  C   UNL     1      28.520  10.835  -2.649  1.00  0.00     0.004 C 
ENDBRANCH   5   6
ENDBRANCH   1   5
TORSDOF 3
ENDMDL
MODEL 5
REMARK VINA RESULT:    -2.308     17.625     18.755
REMARK INTER + INTRA:          -2.732
REMARK INTER:                  -2.627
REMARK INTRA:                  -0.106
REMARK UNBOUND:                -0.019
REMARK SMILES CCCCC(=O)[O-]
REMARK SMILES IDX 4 1 5 2 6 3 7 4 3 5 2 6 1 7
REMARK H PARENT
REMARK Flexibility Score: inf
ROOT
ATOM      1  C   UNL     1       9.447  -4.532   7.144  1.00  0.00     0.053 C 
ENDROOT
BRANCH   1   2
ATOM      2  C   UNL     1       9.837  -5.408   8.293  1.00  0.00     0.041 C 
ATOM      3  O   UNL     1      11.042  -5.727   8.466  1.00  0.00    -0.550 OA
ATOM      4  O   UNL     1       8.875  -5.831   9.201  1.00  0.00    -0.550 OA
ENDBRANCH   1   2
BRANCH   1   5
ATOM      5  C   UNL     1       8.919  -5.381   5.981  1.00  0.00     0.006 C 
BRANCH   5   6
ATOM      6  C   UNL     1      10.006  -5.700   4.943  1.00  0.00    -0.003 C 
ATOM      7  C   UNL     1      11.092  -4.626   4.875  1.00  0.00     0.004 C 
ENDBRANCH   5   6
ENDBRANCH   1   5
TORSDOF 3
ENDMDL
MODEL 6
REMARK VINA RESULT:    -2.280     22.368     23.260
REMARK INTER + INTRA:          -2.699
REMARK INTER:                  -2.683
REMARK INTRA:                  -0.016
REMARK UNBOUND:                -0.019
REMARK SMILES CCCCC(=O)[O-]
REMARK SMILES IDX 4 1 5 2 6 3 7 4 3 5 2 6 1 7
REMARK H PARENT
REMARK Flexibility Score: inf
ROOT
ATOM      1  C   UNL     1       9.825  -2.799  13.126  1.00  0.00     0.053 C 
ENDROOT
BRANCH   1   2
ATOM      2  C   UNL     1      10.257  -1.466  13.650  1.00  0.00     0.041 C 
ATOM      3  O   UNL     1      11.369  -1.341  14.227  1.00  0.00    -0.550 OA
ATOM      4  O   UNL     1       9.451  -0.351  13.458  1.00  0.00    -0.550 OA
ENDBRANCH   1   2
BRANCH   1   5
ATOM      5  C   UNL     1       9.203  -3.639  14.248  1.00  0.00     0.006 C 
BRANCH   5   6
ATOM      6  C   UNL     1       8.896  -5.078  13.807  1.00  0.00    -0.003 C 
ATOM      7  C   UNL     1       8.875  -6.063  14.976  1.00  0.00     0.004 C 
ENDBRANCH   5   6
ENDBRANCH   1   5
TORSDOF 3
ENDMDL
MODEL 7
REMARK VINA RESULT:    -2.269     12.391     13.322
REMARK INTER + INTRA:          -2.686
REMARK INTER:                  -2.623
REMARK INTRA:                  -0.063
REMARK UNBOUND:                -0.019
REMARK SMILES CCCCC(=O)[O-]
REMARK SMILES IDX 4 1 5 2 6 3 7 4 3 5 2 6 1 7
REMARK H PARENT
REMARK Flexibility Score: inf
ROOT
ATOM      1  C   UNL     1      27.894   9.582  -0.581  1.00  0.00     0.053 C 
ENDROOT
BRANCH   1   2
ATOM      2  C   UNL     1      27.789   8.161  -1.035  1.00  0.00     0.041 C 
ATOM      3  O   UNL     1      28.652   7.316  -0.678  1.00  0.00    -0.550 OA
ATOM      4  O   UNL     1      26.712   7.757  -1.813  1.00  0.00    -0.550 OA
ENDBRANCH   1   2
BRANCH   1   5
ATOM      5  C   UNL     1      28.936  10.335  -1.416  1.00  0.00     0.006 C 
BRANCH   5   6
ATOM      6  C   UNL     1      28.409  10.725  -2.805  1.00  0.00    -0.003 C 
ATOM      7  C   UNL     1      28.933  12.081  -3.278  1.00  0.00     0.004 C 
ENDBRANCH   5   6
ENDBRANCH   1   5
TORSDOF 3
ENDMDL
MODEL 8
REMARK VINA RESULT:    -2.101     12.548     13.532
REMARK INTER + INTRA:          -2.489
REMARK INTER:                  -2.364
REMARK INTRA:                  -0.125
REMARK UNBOUND:                -0.019
REMARK SMILES CCCCC(=O)[O-]
REMARK SMILES IDX 4 1 5 2 6 3 7 4 3 5 2 6 1 7
REMARK H PARENT
REMARK Flexibility Score: inf
ROOT
ATOM      1  C   UNL     1      28.724  10.607  -1.969  1.00  0.00     0.053 C 
ENDROOT
BRANCH   1   2
ATOM      2  C   UNL     1      28.321  10.113  -3.323  1.00  0.00     0.041 C 
ATOM      3  O   UNL     1      27.505  10.771  -4.021  1.00  0.00    -0.550 OA
ATOM      4  O   UNL     1      28.883   8.951  -3.834  1.00  0.00    -0.550 OA
ENDBRANCH   1   2
BRANCH   1   5
ATOM      5  C   UNL     1      28.815   9.439  -0.980  1.00  0.00     0.006 C 
BRANCH   5   6
ATOM      6  C   UNL     1      27.438   8.865  -0.616  1.00  0.00    -0.003 C 
ATOM      7  C   UNL     1      27.287   7.395  -1.009  1.00  0.00     0.004 C 
ENDBRANCH   5   6
ENDBRANCH   1   5
TORSDOF 3
ENDMDL
