MODEL 1
REMARK VINA RESULT:    -5.700      0.000      0.000
REMARK INTER + INTRA:          -6.626
REMARK INTER:                  -7.033
REMARK INTRA:                   0.407
REMARK UNBOUND:                 0.407
REMARK SMILES C=C1CC[C@H]2[C@@H]([C@@H]3[C@@H](C)CC[C@@H]13)C2(C)C
REMARK SMILES IDX 3 1 2 2 1 3 12 4 9 5 8 6 10 7 7 8 11 9 4 11 5 12 6 13 13 14
REMARK SMILES IDX 14 16 15 17
REMARK H PARENT
REMARK Flexibility Score: 80.00
ROOT
ATOM      1  C   UNL     1      -2.382 -13.577   8.741  1.00  0.00     0.031 C 
ENDROOT
BRANCH   1   2
ATOM      2  C   UNL     1      -2.005 -13.445  10.204  1.00  0.00    -0.074 C 
ATOM      3  C   UNL     1      -1.143 -12.466  10.535  1.00  0.00     0.008 C 
BRANCH   2   4
ATOM      4  C   UNL     1      -2.616 -14.400  11.227  1.00  0.00     0.018 C 
ATOM      5  C   UNL     1      -1.399 -17.519  12.885  1.00  0.00     0.008 C 
ATOM      6  C   UNL     1      -2.469 -16.532  12.400  1.00  0.00    -0.010 C 
ATOM      7  C   UNL     1      -2.725 -15.406  13.421  1.00  0.00     0.004 C 
ATOM      8  C   UNL     1      -2.060 -15.821  11.097  1.00  0.00     0.003 CG0
ATOM      9  C   UNL     1      -2.390 -14.096  12.709  1.00  0.00     0.008 C 
ATOM     10  G   UNL     1      -2.269 -16.687   9.818  1.00  0.00     0.000 G0
ENDBRANCH   2   4
ENDBRANCH   1   2
BRANCH   1  11
ATOM     11  C   UNL     1      -3.434 -14.657   8.453  1.00  0.00     0.009 C 
BRANCH  11  12
ATOM     12  C   UNL     1      -2.836 -16.076   8.507  1.00  0.00    -0.001 C 
ATOM     13  C   UNL     1      -2.268 -16.677   9.807  1.00  0.00     0.002 CG0
ATOM     14  C   UNL     1      -3.615 -17.183   9.254  1.00  0.00    -0.029 C 
ATOM     15  G   UNL     1      -2.075 -15.823  11.096  1.00  0.00     0.000 G0
ATOM     16  C   UNL     1      -4.949 -16.860   9.947  1.00  0.00     0.011 C 
ATOM     17  C   UNL     1      -3.560 -18.552   8.562  1.00  0.00     0.011 C 
ENDBRANCH  11  12
ENDBRANCH   1  11
TORSDOF 0
ENDMDL
MODEL 2
REMARK VINA RESULT:    -5.309      1.264      3.602
REMARK INTER + INTRA:          -6.144
REMARK INTER:                  -6.574
REMARK INTRA:                   0.430
REMARK UNBOUND:                 0.407
REMARK SMILES C=C1CC[C@H]2[C@@H]([C@@H]3[C@@H](C)CC[C@@H]13)C2(C)C
REMARK SMILES IDX 3 1 2 2 1 3 12 4 9 5 8 6 10 7 7 8 11 9 4 11 5 12 6 13 13 14
REMARK SMILES IDX 14 16 15 17
REMARK H PARENT
REMARK Flexibility Score: 80.00
ROOT
ATOM      1  C   UNL     1      -5.349 -16.866   8.864  1.00  0.00     0.031 C 
ENDROOT
BRANCH   1   2
ATOM      2  C   UNL     1      -4.690 -15.673   8.199  1.00  0.00    -0.074 C 
ATOM      3  C   UNL     1      -5.007 -15.428   6.914  1.00  0.00     0.008 C 
BRANCH   2   4
ATOM      4  C   UNL     1      -3.724 -14.805   9.000  1.00  0.00     0.018 C 
ATOM      5  C   UNL     1      -0.001 -14.705   9.306  1.00  0.00     0.008 C 
ATOM      6  C   UNL     1      -1.439 -14.432   9.766  1.00  0.00    -0.010 C 
ATOM      7  C   UNL     1      -1.998 -13.122   9.177  1.00  0.00     0.004 C 
ATOM      8  C   UNL     1      -2.415 -15.535   9.317  1.00  0.00     0.003 CG0
ATOM      9  C   UNL     1      -3.226 -13.510   8.354  1.00  0.00     0.008 C 
ATOM     10  G   UNL     1      -2.366 -16.815  10.205  1.00  0.00     0.000 G0
ENDBRANCH   2   4
ENDBRANCH   1   2
BRANCH   1  11
ATOM     11  C   UNL     1      -5.060 -16.994  10.367  1.00  0.00     0.009 C 
BRANCH  11  12
ATOM     12  C   UNL     1      -3.653 -17.560  10.638  1.00  0.00    -0.001 C 
ATOM     13  C   UNL     1      -2.373 -16.812  10.219  1.00  0.00     0.002 CG0
ATOM     14  C   UNL     1      -2.769 -16.877  11.707  1.00  0.00    -0.029 C 
ATOM     15  G   UNL     1      -2.416 -15.542   9.318  1.00  0.00     0.000 G0
ATOM     16  C   UNL     1      -3.284 -15.640  12.463  1.00  0.00     0.011 C 
ATOM     17  C   UNL     1      -1.952 -17.860  12.556  1.00  0.00     0.011 C 
ENDBRANCH  11  12
ENDBRANCH   1  11
TORSDOF 0
ENDMDL
MODEL 3
REMARK VINA RESULT:    -4.760      1.296      3.675
REMARK INTER + INTRA:          -5.466
REMARK INTER:                  -5.905
REMARK INTRA:                   0.439
REMARK UNBOUND:                 0.407
REMARK SMILES C=C1CC[C@H]2[C@@H]([C@@H]3[C@@H](C)CC[C@@H]13)C2(C)C
REMARK SMILES IDX 3 1 2 2 1 3 12 4 9 5 8 6 10 7 7 8 11 9 4 11 5 12 6 13 13 14
REMARK SMILES IDX 14 16 15 17
REMARK H PARENT
REMARK Flexibility Score: 80.00
ROOT
ATOM      1  C   UNL     1      -4.146 -15.136   7.490  1.00  0.00     0.031 C 
ENDROOT
BRANCH   1   2
ATOM      2  C   UNL     1      -4.464 -16.259   8.459  1.00  0.00    -0.074 C 
ATOM      3  C   UNL     1      -5.654 -16.875   8.324  1.00  0.00     0.008 C 
BRANCH   2   4
ATOM      4  C   UNL     1      -3.438 -16.649   9.520  1.00  0.00     0.018 C 
ATOM      5  C   UNL     1      -3.000 -15.770  13.125  1.00  0.00     0.008 C 
ATOM      6  C   UNL     1      -2.531 -16.263  11.750  1.00  0.00    -0.010 C 
ATOM      7  C   UNL     1      -2.784 -17.772  11.557  1.00  0.00     0.004 C 
ATOM      8  C   UNL     1      -3.277 -15.571  10.595  1.00  0.00     0.003 CG0
ATOM      9  C   UNL     1      -3.717 -17.901  10.354  1.00  0.00     0.008 C 
ATOM     10  G   UNL     1      -2.744 -14.142  10.272  1.00  0.00     0.000 G0
ENDBRANCH   2   4
ENDBRANCH   1   2
BRANCH   1  11
ATOM     11  C   UNL     1      -2.724 -14.574   7.617  1.00  0.00     0.009 C 
BRANCH  11  12
ATOM     12  C   UNL     1      -2.578 -13.641   8.835  1.00  0.00    -0.001 C 
ATOM     13  C   UNL     1      -2.743 -14.147  10.280  1.00  0.00     0.002 CG0
ATOM     14  C   UNL     1      -1.340 -13.797   9.747  1.00  0.00    -0.029 C 
ATOM     15  G   UNL     1      -3.265 -15.581  10.598  1.00  0.00     0.000 G0
ATOM     16  C   UNL     1      -0.290 -14.881   9.452  1.00  0.00     0.011 C 
ATOM     17  C   UNL     1      -0.768 -12.463  10.249  1.00  0.00     0.011 C 
ENDBRANCH  11  12
ENDBRANCH   1  11
TORSDOF 0
ENDMDL
MODEL 4
REMARK VINA RESULT:    -4.324      1.616      4.069
REMARK INTER + INTRA:          -4.928
REMARK INTER:                  -5.362
REMARK INTRA:                   0.435
REMARK UNBOUND:                 0.407
REMARK SMILES C=C1CC[C@H]2[C@@H]([C@@H]3[C@@H](C)CC[C@@H]13)C2(C)C
REMARK SMILES IDX 3 1 2 2 1 3 12 4 9 5 8 6 10 7 7 8 11 9 4 11 5 12 6 13 13 14
REMARK SMILES IDX 14 16 15 17
REMARK H PARENT
REMARK Flexibility Score: 80.00
ROOT
ATOM      1  C   UNL     1      -4.068 -13.814   7.430  1.00  0.00     0.031 C 
ENDROOT
BRANCH   1   2
ATOM      2  C   UNL     1      -4.371 -15.261   7.089  1.00  0.00    -0.074 C 
ATOM      3  C   UNL     1      -5.363 -15.495   6.210  1.00  0.00     0.008 C 
BRANCH   2   4
ATOM      4  C   UNL     1      -3.547 -16.374   7.732  1.00  0.00     0.018 C 
ATOM      5  C   UNL     1      -4.076 -18.587  10.695  1.00  0.00     0.008 C 
ATOM      6  C   UNL     1      -3.235 -17.875   9.627  1.00  0.00    -0.010 C 
ATOM      7  C   UNL     1      -3.155 -18.685   8.317  1.00  0.00     0.004 C 
ATOM      8  C   UNL     1      -3.827 -16.511   9.231  1.00  0.00     0.003 CG0
ATOM      9  C   UNL     1      -3.762 -17.802   7.228  1.00  0.00     0.008 C 
ATOM     10  G   UNL     1      -3.512 -15.372  10.248  1.00  0.00     0.000 G0
ENDBRANCH   2   4
ENDBRANCH   1   2
BRANCH   1  11
ATOM     11  C   UNL     1      -2.839 -13.620   8.329  1.00  0.00     0.009 C 
BRANCH  11  12
ATOM     12  C   UNL     1      -3.140 -13.961   9.801  1.00  0.00    -0.001 C 
ATOM     13  C   UNL     1      -3.512 -15.385  10.253  1.00  0.00     0.002 CG0
ATOM     14  C   UNL     1      -2.121 -14.814  10.590  1.00  0.00    -0.029 C 
ATOM     15  G   UNL     1      -3.807 -16.525   9.233  1.00  0.00     0.000 G0
ATOM     16  C   UNL     1      -0.845 -15.330   9.904  1.00  0.00     0.011 C 
ATOM     17  C   UNL     1      -1.936 -14.368  12.048  1.00  0.00     0.011 C 
ENDBRANCH  11  12
ENDBRANCH   1  11
TORSDOF 0
ENDMDL
MODEL 5
REMARK VINA RESULT:    -4.206      2.158      3.175
REMARK INTER + INTRA:          -4.782
REMARK INTER:                  -5.224
REMARK INTRA:                   0.441
REMARK UNBOUND:                 0.407
REMARK SMILES C=C1CC[C@H]2[C@@H]([C@@H]3[C@@H](C)CC[C@@H]13)C2(C)C
REMARK SMILES IDX 3 1 2 2 1 3 12 4 9 5 8 6 10 7 7 8 11 9 4 11 5 12 6 13 13 14
REMARK SMILES IDX 14 16 15 17
REMARK H PARENT
REMARK Flexibility Score: 80.00
ROOT
ATOM      1  C   UNL     1      -5.368 -14.965   6.923  1.00  0.00     0.031 C 
ENDROOT
BRANCH   1   2
ATOM      2  C   UNL     1      -4.480 -13.890   7.521  1.00  0.00    -0.074 C 
ATOM      3  C   UNL     1      -4.604 -12.642   7.032  1.00  0.00     0.008 C 
BRANCH   2   4
ATOM      4  C   UNL     1      -3.508 -14.254   8.640  1.00  0.00     0.018 C 
ATOM      5  C   UNL     1       0.137 -15.071   8.721  1.00  0.00     0.008 C 
ATOM      6  C   UNL     1      -1.297 -15.072   9.265  1.00  0.00    -0.010 C 
ATOM      7  C   UNL     1      -1.614 -13.793  10.067  1.00  0.00     0.004 C 
ATOM      8  C   UNL     1      -2.348 -15.122   8.142  1.00  0.00     0.003 CG0
ATOM      9  C   UNL     1      -2.778 -13.112   9.350  1.00  0.00     0.008 C 
ATOM     10  G   UNL     1      -2.565 -16.548   7.550  1.00  0.00     0.000 G0
ENDBRANCH   2   4
ENDBRANCH   1   2
BRANCH   1  11
ATOM     11  C   UNL     1      -5.259 -16.332   7.613  1.00  0.00     0.009 C 
BRANCH  11  12
ATOM     12  C   UNL     1      -3.969 -17.077   7.218  1.00  0.00    -0.001 C 
ATOM     13  C   UNL     1      -2.570 -16.538   7.570  1.00  0.00     0.002 CG0
ATOM     14  C   UNL     1      -3.134 -17.757   8.327  1.00  0.00    -0.029 C 
ATOM     15  G   UNL     1      -2.360 -15.113   8.165  1.00  0.00     0.000 G0
ATOM     16  C   UNL     1      -3.576 -17.665   9.797  1.00  0.00     0.011 C 
ATOM     17  C   UNL     1      -2.540 -19.110   7.913  1.00  0.00     0.011 C 
ENDBRANCH  11  12
ENDBRANCH   1  11
TORSDOF 0
ENDMDL
MODEL 6
REMARK VINA RESULT:    -4.081      1.248      3.265
REMARK INTER + INTRA:          -4.629
REMARK INTER:                  -5.060
REMARK INTRA:                   0.431
REMARK UNBOUND:                 0.407
REMARK SMILES C=C1CC[C@H]2[C@@H]([C@@H]3[C@@H](C)CC[C@@H]13)C2(C)C
REMARK SMILES IDX 3 1 2 2 1 3 12 4 9 5 8 6 10 7 7 8 11 9 4 11 5 12 6 13 13 14
REMARK SMILES IDX 14 16 15 17
REMARK H PARENT
REMARK Flexibility Score: 80.00
ROOT
ATOM      1  C   UNL     1      -2.003 -14.157  12.176  1.00  0.00     0.031 C 
ENDROOT
BRANCH   1   2
ATOM      2  C   UNL     1      -3.127 -15.145  12.423  1.00  0.00    -0.074 C 
ATOM      3  C   UNL     1      -3.352 -15.521  13.696  1.00  0.00     0.008 C 
BRANCH   2   4
ATOM      4  C   UNL     1      -3.953 -15.655  11.245  1.00  0.00     0.018 C 
ATOM      5  C   UNL     1      -3.788 -18.725   9.121  1.00  0.00     0.008 C 
ATOM      6  C   UNL     1      -4.185 -17.278   9.439  1.00  0.00    -0.010 C 
ATOM      7  C   UNL     1      -5.508 -17.199  10.227  1.00  0.00     0.004 C 
ATOM      8  C   UNL     1      -3.141 -16.565  10.318  1.00  0.00     0.003 CG0
ATOM      9  C   UNL     1      -5.180 -16.516  11.553  1.00  0.00     0.008 C 
ATOM     10  G   UNL     1      -1.898 -16.058   9.527  1.00  0.00     0.000 G0
ENDBRANCH   2   4
ENDBRANCH   1   2
BRANCH   1  11
ATOM     11  C   UNL     1      -1.916 -13.646  10.731  1.00  0.00     0.009 C 
BRANCH  11  12
ATOM     12  C   UNL     1      -1.265 -14.677   9.790  1.00  0.00    -0.001 C 
ATOM     13  C   UNL     1      -1.903 -16.051   9.512  1.00  0.00     0.002 CG0
ATOM     14  C   UNL     1      -1.927 -14.961   8.423  1.00  0.00    -0.029 C 
ATOM     15  G   UNL     1      -3.135 -16.567  10.314  1.00  0.00     0.000 G0
ATOM     16  C   UNL     1      -3.227 -14.240   8.027  1.00  0.00     0.011 C 
ATOM     17  C   UNL     1      -0.925 -15.162   7.278  1.00  0.00     0.011 C 
ENDBRANCH  11  12
ENDBRANCH   1  11
TORSDOF 0
ENDMDL
MODEL 7
REMARK VINA RESULT:    -4.026      1.168      3.411
REMARK INTER + INTRA:          -4.560
REMARK INTER:                  -5.031
REMARK INTRA:                   0.470
REMARK UNBOUND:                 0.407
REMARK SMILES C=C1CC[C@H]2[C@@H]([C@@H]3[C@@H](C)CC[C@@H]13)C2(C)C
REMARK SMILES IDX 3 1 2 2 1 3 12 4 9 5 8 6 10 7 7 8 11 9 4 11 5 12 6 13 13 14
REMARK SMILES IDX 14 16 15 17
REMARK H PARENT
REMARK Flexibility Score: 80.00
ROOT
ATOM      1  C   UNL     1      -2.720 -16.660  12.524  1.00  0.00     0.031 C 
ENDROOT
BRANCH   1   2
ATOM      2  C   UNL     1      -2.580 -15.178  12.234  1.00  0.00    -0.074 C 
ATOM      3  C   UNL     1      -2.759 -14.327  13.262  1.00  0.00     0.008 C 
BRANCH   2   4
ATOM      4  C   UNL     1      -2.236 -14.717  10.820  1.00  0.00     0.018 C 
ATOM      5  C   UNL     1      -4.279 -13.500   7.939  1.00  0.00     0.008 C 
ATOM      6  C   UNL     1      -3.035 -14.110   8.598  1.00  0.00    -0.010 C 
ATOM      7  C   UNL     1      -2.057 -13.029   9.101  1.00  0.00     0.004 C 
ATOM      8  C   UNL     1      -3.386 -14.954   9.837  1.00  0.00     0.003 CG0
ATOM      9  C   UNL     1      -1.928 -13.233  10.609  1.00  0.00     0.008 C 
ATOM     10  G   UNL     1      -3.911 -16.381   9.494  1.00  0.00     0.000 G0
ENDBRANCH   2   4
ENDBRANCH   1   2
BRANCH   1  11
ATOM     11  C   UNL     1      -2.354 -17.573  11.345  1.00  0.00     0.009 C 
BRANCH  11  12
ATOM     12  C   UNL     1      -3.469 -17.623  10.284  1.00  0.00    -0.001 C 
ATOM     13  C   UNL     1      -3.903 -16.375   9.491  1.00  0.00     0.002 CG0
ATOM     14  C   UNL     1      -3.085 -17.480   8.794  1.00  0.00    -0.029 C 
ATOM     15  G   UNL     1      -3.389 -14.949   9.850  1.00  0.00     0.000 G0
ATOM     16  C   UNL     1      -1.617 -17.267   8.388  1.00  0.00     0.011 C 
ATOM     17  C   UNL     1      -3.890 -18.391   7.856  1.00  0.00     0.011 C 
ENDBRANCH  11  12
ENDBRANCH   1  11
TORSDOF 0
ENDMDL
MODEL 8
REMARK VINA RESULT:    -3.143      1.650      3.355
REMARK INTER + INTRA:          -3.471
REMARK INTER:                  -3.891
REMARK INTRA:                   0.420
REMARK UNBOUND:                 0.407
REMARK SMILES C=C1CC[C@H]2[C@@H]([C@@H]3[C@@H](C)CC[C@@H]13)C2(C)C
REMARK SMILES IDX 3 1 2 2 1 3 12 4 9 5 8 6 10 7 7 8 11 9 4 11 5 12 6 13 13 14
REMARK SMILES IDX 14 16 15 17
REMARK H PARENT
REMARK Flexibility Score: 80.00
ROOT
ATOM      1  C   UNL     1      -5.963 -16.491  10.771  1.00  0.00     0.031 C 
ENDROOT
BRANCH   1   2
ATOM      2  C   UNL     1      -4.764 -16.135  11.628  1.00  0.00    -0.074 C 
ATOM      3  C   UNL     1      -5.000 -15.780  12.905  1.00  0.00     0.008 C 
BRANCH   2   4
ATOM      4  C   UNL     1      -3.362 -16.205  11.028  1.00  0.00     0.018 C 
ATOM      5  C   UNL     1      -1.087 -13.668   9.496  1.00  0.00     0.008 C 
ATOM      6  C   UNL     1      -1.606 -15.088   9.758  1.00  0.00    -0.010 C 
ATOM      7  C   UNL     1      -0.999 -15.699  11.037  1.00  0.00     0.004 C 
ATOM      8  C   UNL     1      -3.130 -15.124   9.969  1.00  0.00     0.003 CG0
ATOM      9  C   UNL     1      -2.173 -16.000  11.968  1.00  0.00     0.008 C 
ATOM     10  G   UNL     1      -3.948 -15.063   8.643  1.00  0.00     0.000 G0
ENDBRANCH   2   4
ENDBRANCH   1   2
BRANCH   1  11
ATOM     11  C   UNL     1      -5.607 -17.042   9.383  1.00  0.00     0.009 C 
BRANCH  11  12
ATOM     12  C   UNL     1      -5.192 -15.925   8.406  1.00  0.00    -0.001 C 
ATOM     13  C   UNL     1      -3.934 -15.065   8.631  1.00  0.00     0.002 CG0
ATOM     14  C   UNL     1      -3.942 -16.136   7.523  1.00  0.00    -0.029 C 
ATOM     15  G   UNL     1      -3.116 -15.129   9.955  1.00  0.00     0.000 G0
ATOM     16  C   UNL     1      -3.118 -17.430   7.640  1.00  0.00     0.011 C 
ATOM     17  C   UNL     1      -4.093 -15.593   6.095  1.00  0.00     0.011 C 
ENDBRANCH  11  12
ENDBRANCH   1  11
TORSDOF 0
ENDMDL
MODEL 9
REMARK VINA RESULT:    -2.858      1.544      4.483
REMARK INTER + INTRA:          -3.119
REMARK INTER:                  -3.508
REMARK INTRA:                   0.389
REMARK UNBOUND:                 0.407
REMARK SMILES C=C1CC[C@H]2[C@@H]([C@@H]3[C@@H](C)CC[C@@H]13)C2(C)C
REMARK SMILES IDX 3 1 2 2 1 3 12 4 9 5 8 6 10 7 7 8 11 9 4 11 5 12 6 13 13 14
REMARK SMILES IDX 14 16 15 17
REMARK H PARENT
REMARK Flexibility Score: 80.00
ROOT
ATOM      1  C   UNL     1      -3.809 -16.131  11.996  1.00  0.00     0.031 C 
ENDROOT
BRANCH   1   2
ATOM      2  C   UNL     1      -4.799 -16.534  10.920  1.00  0.00    -0.074 C 
ATOM      3  C   UNL     1      -5.731 -17.449  11.247  1.00  0.00     0.008 C 
BRANCH   2   4
ATOM      4  C   UNL     1      -4.712 -15.889   9.539  1.00  0.00     0.018 C 
ATOM      5  C   UNL     1      -3.216 -16.960   6.286  1.00  0.00     0.008 C 
ATOM      6  C   UNL     1      -3.751 -15.938   7.298  1.00  0.00    -0.010 C 
ATOM      7  C   UNL     1      -5.279 -15.763   7.194  1.00  0.00     0.004 C 
ATOM      8  C   UNL     1      -3.485 -16.363   8.754  1.00  0.00     0.003 CG0
ATOM      9  C   UNL     1      -5.852 -16.157   8.554  1.00  0.00     0.008 C 
ATOM     10  G   UNL     1      -2.028 -16.084   9.232  1.00  0.00     0.000 G0
ENDBRANCH   2   4
ENDBRANCH   1   2
BRANCH   1  11
ATOM     11  C   UNL     1      -2.843 -15.012  11.582  1.00  0.00     0.009 C 
BRANCH  11  12
ATOM     12  C   UNL     1      -1.729 -15.525  10.649  1.00  0.00    -0.001 C 
ATOM     13  C   UNL     1      -2.027 -16.075   9.241  1.00  0.00     0.002 CG0
ATOM     14  C   UNL     1      -1.363 -14.693   9.400  1.00  0.00    -0.029 C 
ATOM     15  G   UNL     1      -3.482 -16.336   8.747  1.00  0.00     0.000 G0
ATOM     16  C   UNL     1      -2.118 -13.390   9.087  1.00  0.00     0.011 C 
ATOM     17  C   UNL     1       0.142 -14.656   9.099  1.00  0.00     0.011 C 
ENDBRANCH  11  12
ENDBRANCH   1  11
TORSDOF 0
ENDMDL
