MODEL 1
REMARK VINA RESULT:    -4.183      0.000      0.000
REMARK INTER + INTRA:          -5.331
REMARK INTER:                  -5.039
REMARK INTRA:                  -0.292
REMARK UNBOUND:                -0.292
REMARK SMILES [NH3+][C@@H](Cc1cnc[nH]1)C(=O)[O-]
REMARK SMILES IDX 3 1 2 2 1 3 9 7 10 8 11 9 4 10 5 11 8 12 6 13 7 14
REMARK H PARENT 1 4 1 5 1 6 8 15
REMARK Flexibility Score: inf
ROOT
ATOM      1  C   UNL     1      27.745 -29.383  32.375  1.00  0.00     0.127 C 
ENDROOT
BRANCH   1   2
ATOM      2  C   UNL     1      26.695 -28.606  31.557  1.00  0.00     0.233 C 
BRANCH   2   3
ATOM      3  N   UNL     1      25.421 -29.334  31.485  1.00  0.00    -0.350 N 
ATOM      4  H   UNL     1      24.941 -29.129  30.579  1.00  0.00     0.345 HD
ATOM      5  H   UNL     1      25.599 -30.365  31.527  1.00  0.00     0.345 HD
ATOM      6  H   UNL     1      24.793 -29.063  32.277  1.00  0.00     0.345 HD
ENDBRANCH   2   3
BRANCH   2   7
ATOM      7  C   UNL     1      27.222 -28.339  30.172  1.00  0.00     0.099 C 
ATOM      8  O   UNL     1      27.907 -27.308  29.936  1.00  0.00    -0.544 OA
ATOM      9  O   UNL     1      26.939 -29.225  29.140  1.00  0.00    -0.544 OA
ENDBRANCH   2   7
ENDBRANCH   1   2
BRANCH   1  10
ATOM     10  C   UNL     1      28.542 -28.473  33.261  1.00  0.00     0.041 A 
ATOM     11  C   UNL     1      28.725 -28.603  34.619  1.00  0.00     0.134 A 
ATOM     12  N   UNL     1      29.150 -27.349  32.851  1.00  0.00    -0.348 N 
ATOM     13  N   UNL     1      29.457 -27.563  35.066  1.00  0.00    -0.245 NA
ATOM     14  C   UNL     1      29.697 -26.822  33.963  1.00  0.00     0.196 A 
ATOM     15  H   UNL     1      29.184 -26.959  31.883  1.00  0.00     0.167 HD
ENDBRANCH   1  10
TORSDOF 4
ENDMDL
MODEL 2
REMARK VINA RESULT:    -4.158      8.954      9.714
REMARK INTER + INTRA:          -5.301
REMARK INTER:                  -5.061
REMARK INTRA:                  -0.240
REMARK UNBOUND:                -0.292
REMARK SMILES [NH3+][C@@H](Cc1cnc[nH]1)C(=O)[O-]
REMARK SMILES IDX 3 1 2 2 1 3 9 7 10 8 11 9 4 10 5 11 8 12 6 13 7 14
REMARK H PARENT 1 4 1 5 1 6 8 15
REMARK Flexibility Score: inf
ROOT
ATOM      1  C   UNL     1      24.640 -24.703  22.834  1.00  0.00     0.127 C 
ENDROOT
BRANCH   1   2
ATOM      2  C   UNL     1      24.648 -26.138  23.395  1.00  0.00     0.233 C 
BRANCH   2   3
ATOM      3  N   UNL     1      23.945 -27.069  22.502  1.00  0.00    -0.350 N 
ATOM      4  H   UNL     1      24.568 -27.342  21.707  1.00  0.00     0.345 HD
ATOM      5  H   UNL     1      23.693 -27.940  23.024  1.00  0.00     0.345 HD
ATOM      6  H   UNL     1      23.074 -26.632  22.122  1.00  0.00     0.345 HD
ENDBRANCH   2   3
BRANCH   2   7
ATOM      7  C   UNL     1      24.020 -26.154  24.763  1.00  0.00     0.099 C 
ATOM      8  O   UNL     1      22.766 -26.144  24.891  1.00  0.00    -0.544 OA
ATOM      9  O   UNL     1      24.824 -26.161  25.896  1.00  0.00    -0.544 OA
ENDBRANCH   2   7
ENDBRANCH   1   2
BRANCH   1  10
ATOM     10  C   UNL     1      25.328 -23.742  23.758  1.00  0.00     0.041 A 
ATOM     11  C   UNL     1      24.830 -22.543  24.214  1.00  0.00     0.134 A 
ATOM     12  N   UNL     1      26.576 -23.895  24.227  1.00  0.00    -0.348 N 
ATOM     13  N   UNL     1      25.761 -21.942  24.981  1.00  0.00    -0.245 NA
ATOM     14  C   UNL     1      26.809 -22.794  24.966  1.00  0.00     0.196 A 
ATOM     15  H   UNL     1      27.230 -24.690  24.051  1.00  0.00     0.167 HD
ENDBRANCH   1  10
TORSDOF 4
ENDMDL
MODEL 3
REMARK VINA RESULT:    -4.140      1.569      1.748
REMARK INTER + INTRA:          -5.279
REMARK INTER:                  -5.168
REMARK INTRA:                  -0.111
REMARK UNBOUND:                -0.292
REMARK SMILES [NH3+][C@@H](Cc1cnc[nH]1)C(=O)[O-]
REMARK SMILES IDX 3 1 2 2 1 3 9 7 10 8 11 9 4 10 5 11 8 12 6 13 7 14
REMARK H PARENT 1 4 1 5 1 6 8 15
REMARK Flexibility Score: inf
ROOT
ATOM      1  C   UNL     1      27.930 -27.326  31.704  1.00  0.00     0.127 C 
ENDROOT
BRANCH   1   2
ATOM      2  C   UNL     1      27.329 -28.736  31.540  1.00  0.00     0.233 C 
BRANCH   2   3
ATOM      3  N   UNL     1      28.377 -29.746  31.336  1.00  0.00    -0.350 N 
ATOM      4  H   UNL     1      28.477 -30.336  32.194  1.00  0.00     0.345 HD
ATOM      5  H   UNL     1      28.113 -30.376  30.543  1.00  0.00     0.345 HD
ATOM      6  H   UNL     1      29.294 -29.291  31.122  1.00  0.00     0.345 HD
ENDBRANCH   2   3
BRANCH   2   7
ATOM      7  C   UNL     1      26.363 -28.747  30.386  1.00  0.00     0.099 C 
ATOM      8  O   UNL     1      25.149 -28.459  30.566  1.00  0.00    -0.544 OA
ATOM      9  O   UNL     1      26.803 -29.096  29.116  1.00  0.00    -0.544 OA
ENDBRANCH   2   7
ENDBRANCH   1   2
BRANCH   1  10
ATOM     10  C   UNL     1      28.523 -27.131  33.067  1.00  0.00     0.041 A 
ATOM     11  C   UNL     1      27.870 -26.677  34.190  1.00  0.00     0.134 A 
ATOM     12  N   UNL     1      29.817 -27.319  33.370  1.00  0.00    -0.348 N 
ATOM     13  N   UNL     1      28.750 -26.587  35.207  1.00  0.00    -0.245 NA
ATOM     14  C   UNL     1      29.924 -26.986  34.671  1.00  0.00     0.196 A 
ATOM     15  H   UNL     1      30.580 -27.644  32.736  1.00  0.00     0.167 HD
ENDBRANCH   1  10
TORSDOF 4
ENDMDL
MODEL 4
REMARK VINA RESULT:    -4.125      7.588      9.115
REMARK INTER + INTRA:          -5.261
REMARK INTER:                  -5.116
REMARK INTRA:                  -0.145
REMARK UNBOUND:                -0.292
REMARK SMILES [NH3+][C@@H](Cc1cnc[nH]1)C(=O)[O-]
REMARK SMILES IDX 3 1 2 2 1 3 9 7 10 8 11 9 4 10 5 11 8 12 6 13 7 14
REMARK H PARENT 1 4 1 5 1 6 8 15
REMARK Flexibility Score: inf
ROOT
ATOM      1  C   UNL     1      24.214 -26.390  24.417  1.00  0.00     0.127 C 
ENDROOT
BRANCH   1   2
ATOM      2  C   UNL     1      24.441 -25.224  23.435  1.00  0.00     0.233 C 
BRANCH   2   3
ATOM      3  N   UNL     1      24.598 -25.705  22.056  1.00  0.00    -0.350 N 
ATOM      4  H   UNL     1      23.798 -25.377  21.468  1.00  0.00     0.345 HD
ATOM      5  H   UNL     1      25.479 -25.317  21.643  1.00  0.00     0.345 HD
ATOM      6  H   UNL     1      24.639 -26.750  22.030  1.00  0.00     0.345 HD
ENDBRANCH   2   3
BRANCH   2   7
ATOM      7  C   UNL     1      25.652 -24.433  23.853  1.00  0.00     0.099 C 
ATOM      8  O   UNL     1      26.733 -25.018  24.130  1.00  0.00    -0.544 OA
ATOM      9  O   UNL     1      25.576 -23.050  23.955  1.00  0.00    -0.544 OA
ENDBRANCH   2   7
ENDBRANCH   1   2
BRANCH   1  10
ATOM     10  C   UNL     1      23.609 -25.921  25.706  1.00  0.00     0.041 A 
ATOM     11  C   UNL     1      22.787 -24.831  25.878  1.00  0.00     0.134 A 
ATOM     12  N   UNL     1      23.843 -26.475  26.906  1.00  0.00    -0.348 N 
ATOM     13  N   UNL     1      22.492 -24.702  27.187  1.00  0.00    -0.245 NA
ATOM     14  C   UNL     1      23.151 -25.720  27.780  1.00  0.00     0.196 A 
ATOM     15  H   UNL     1      24.438 -27.307  27.119  1.00  0.00     0.167 HD
ENDBRANCH   1  10
TORSDOF 4
ENDMDL
MODEL 5
REMARK VINA RESULT:    -4.110      6.659      8.288
REMARK INTER + INTRA:          -5.242
REMARK INTER:                  -5.083
REMARK INTRA:                  -0.159
REMARK UNBOUND:                -0.292
REMARK SMILES [NH3+][C@@H](Cc1cnc[nH]1)C(=O)[O-]
REMARK SMILES IDX 3 1 2 2 1 3 9 7 10 8 11 9 4 10 5 11 8 12 6 13 7 14
REMARK H PARENT 1 4 1 5 1 6 8 15
REMARK Flexibility Score: inf
ROOT
ATOM      1  C   UNL     1      23.781 -26.096  25.105  1.00  0.00     0.127 C 
ENDROOT
BRANCH   1   2
ATOM      2  C   UNL     1      22.577 -25.222  25.507  1.00  0.00     0.233 C 
BRANCH   2   3
ATOM      3  N   UNL     1      21.306 -25.834  25.094  1.00  0.00    -0.350 N 
ATOM      4  H   UNL     1      21.456 -26.838  24.845  1.00  0.00     0.345 HD
ATOM      5  H   UNL     1      20.622 -25.799  25.885  1.00  0.00     0.345 HD
ATOM      6  H   UNL     1      20.903 -25.331  24.270  1.00  0.00     0.345 HD
ENDBRANCH   2   3
BRANCH   2   7
ATOM      7  C   UNL     1      22.716 -23.851  24.900  1.00  0.00     0.099 C 
ATOM      8  O   UNL     1      23.409 -23.679  23.862  1.00  0.00    -0.544 OA
ATOM      9  O   UNL     1      22.095 -22.762  25.497  1.00  0.00    -0.544 OA
ENDBRANCH   2   7
ENDBRANCH   1   2
BRANCH   1  10
ATOM     10  C   UNL     1      24.748 -26.263  26.239  1.00  0.00     0.041 A 
ATOM     11  C   UNL     1      25.890 -25.529  26.459  1.00  0.00     0.134 A 
ATOM     12  N   UNL     1      24.661 -27.215  27.181  1.00  0.00    -0.348 N 
ATOM     13  N   UNL     1      26.522 -26.011  27.548  1.00  0.00    -0.245 NA
ATOM     14  C   UNL     1      25.745 -27.035  27.960  1.00  0.00     0.196 A 
ATOM     15  H   UNL     1      23.920 -27.944  27.286  1.00  0.00     0.167 HD
ENDBRANCH   1  10
TORSDOF 4
ENDMDL
MODEL 6
REMARK VINA RESULT:    -4.102      7.404      9.044
REMARK INTER + INTRA:          -5.232
REMARK INTER:                  -5.016
REMARK INTRA:                  -0.216
REMARK UNBOUND:                -0.292
REMARK SMILES [NH3+][C@@H](Cc1cnc[nH]1)C(=O)[O-]
REMARK SMILES IDX 3 1 2 2 1 3 9 7 10 8 11 9 4 10 5 11 8 12 6 13 7 14
REMARK H PARENT 1 4 1 5 1 6 8 15
REMARK Flexibility Score: inf
ROOT
ATOM      1  C   UNL     1      22.801 -24.562  24.814  1.00  0.00     0.127 C 
ENDROOT
BRANCH   1   2
ATOM      2  C   UNL     1      24.158 -24.424  24.097  1.00  0.00     0.233 C 
BRANCH   2   3
ATOM      3  N   UNL     1      24.139 -23.332  23.114  1.00  0.00    -0.350 N 
ATOM      4  H   UNL     1      24.375 -22.426  23.580  1.00  0.00     0.345 HD
ATOM      5  H   UNL     1      24.857 -23.508  22.373  1.00  0.00     0.345 HD
ATOM      6  H   UNL     1      23.197 -23.253  22.666  1.00  0.00     0.345 HD
ENDBRANCH   2   3
BRANCH   2   7
ATOM      7  C   UNL     1      24.515 -25.723  23.426  1.00  0.00     0.099 C 
ATOM      8  O   UNL     1      25.231 -25.732  22.389  1.00  0.00    -0.544 OA
ATOM      9  O   UNL     1      24.039 -26.923  23.939  1.00  0.00    -0.544 OA
ENDBRANCH   2   7
ENDBRANCH   1   2
BRANCH   1  10
ATOM     10  C   UNL     1      22.968 -24.997  26.239  1.00  0.00     0.041 A 
ATOM     11  C   UNL     1      23.467 -24.240  27.275  1.00  0.00     0.134 A 
ATOM     12  N   UNL     1      22.705 -26.231  26.697  1.00  0.00    -0.348 N 
ATOM     13  N   UNL     1      23.511 -24.994  28.391  1.00  0.00    -0.245 NA
ATOM     14  C   UNL     1      23.040 -26.198  28.001  1.00  0.00     0.196 A 
ATOM     15  H   UNL     1      22.331 -27.044  26.159  1.00  0.00     0.167 HD
ENDBRANCH   1  10
TORSDOF 4
ENDMDL
MODEL 7
REMARK VINA RESULT:    -4.086      8.121      9.425
REMARK INTER + INTRA:          -5.214
REMARK INTER:                  -5.074
REMARK INTRA:                  -0.140
REMARK UNBOUND:                -0.292
REMARK SMILES [NH3+][C@@H](Cc1cnc[nH]1)C(=O)[O-]
REMARK SMILES IDX 3 1 2 2 1 3 9 7 10 8 11 9 4 10 5 11 8 12 6 13 7 14
REMARK H PARENT 1 4 1 5 1 6 8 15
REMARK Flexibility Score: inf
ROOT
ATOM      1  C   UNL     1      24.333 -26.456  25.873  1.00  0.00     0.127 C 
ENDROOT
BRANCH   1   2
ATOM      2  C   UNL     1      23.295 -25.678  26.704  1.00  0.00     0.233 C 
BRANCH   2   3
ATOM      3  N   UNL     1      22.712 -26.517  27.760  1.00  0.00    -0.350 N 
ATOM      4  H   UNL     1      21.675 -26.387  27.790  1.00  0.00     0.345 HD
ATOM      5  H   UNL     1      22.902 -27.526  27.557  1.00  0.00     0.345 HD
ATOM      6  H   UNL     1      23.117 -26.274  28.693  1.00  0.00     0.345 HD
ENDBRANCH   2   3
BRANCH   2   7
ATOM      7  C   UNL     1      22.212 -25.148  25.802  1.00  0.00     0.099 C 
ATOM      8  O   UNL     1      21.548 -25.932  25.072  1.00  0.00    -0.544 OA
ATOM      9  O   UNL     1      21.953 -23.785  25.756  1.00  0.00    -0.544 OA
ENDBRANCH   2   7
ENDBRANCH   1   2
BRANCH   1  10
ATOM     10  C   UNL     1      24.748 -25.695  24.649  1.00  0.00     0.041 A 
ATOM     11  C   UNL     1      25.546 -24.575  24.610  1.00  0.00     0.134 A 
ATOM     12  N   UNL     1      24.336 -25.973  23.402  1.00  0.00    -0.348 N 
ATOM     13  N   UNL     1      25.647 -24.149  23.335  1.00  0.00    -0.245 NA
ATOM     14  C   UNL     1      24.899 -25.024  22.630  1.00  0.00     0.196 A 
ATOM     15  H   UNL     1      23.709 -26.749  23.095  1.00  0.00     0.167 HD
ENDBRANCH   1  10
TORSDOF 4
ENDMDL
MODEL 8
REMARK VINA RESULT:    -4.035      6.986      8.721
REMARK INTER + INTRA:          -5.152
REMARK INTER:                  -4.869
REMARK INTRA:                  -0.283
REMARK UNBOUND:                -0.292
REMARK SMILES [NH3+][C@@H](Cc1cnc[nH]1)C(=O)[O-]
REMARK SMILES IDX 3 1 2 2 1 3 9 7 10 8 11 9 4 10 5 11 8 12 6 13 7 14
REMARK H PARENT 1 4 1 5 1 6 8 15
REMARK Flexibility Score: inf
ROOT
ATOM      1  C   UNL     1      25.220 -25.750  24.852  1.00  0.00     0.127 C 
ENDROOT
BRANCH   1   2
ATOM      2  C   UNL     1      24.140 -25.459  23.792  1.00  0.00     0.233 C 
BRANCH   2   3
ATOM      3  N   UNL     1      24.568 -25.892  22.455  1.00  0.00    -0.350 N 
ATOM      4  H   UNL     1      23.969 -26.683  22.126  1.00  0.00     0.345 HD
ATOM      5  H   UNL     1      24.460 -25.104  21.774  1.00  0.00     0.345 HD
ATOM      6  H   UNL     1      25.568 -26.199  22.467  1.00  0.00     0.345 HD
ENDBRANCH   2   3
BRANCH   2   7
ATOM      7  C   UNL     1      23.816 -23.989  23.785  1.00  0.00     0.099 C 
ATOM      8  O   UNL     1      24.465 -23.194  23.053  1.00  0.00    -0.544 OA
ATOM      9  O   UNL     1      22.806 -23.497  24.603  1.00  0.00    -0.544 OA
ENDBRANCH   2   7
ENDBRANCH   1   2
BRANCH   1  10
ATOM     10  C   UNL     1      24.614 -26.109  26.176  1.00  0.00     0.041 A 
ATOM     11  C   UNL     1      25.282 -26.578  27.285  1.00  0.00     0.134 A 
ATOM     12  N   UNL     1      23.300 -26.080  26.448  1.00  0.00    -0.348 N 
ATOM     13  N   UNL     1      24.390 -26.836  28.261  1.00  0.00    -0.245 NA
ATOM     14  C   UNL     1      23.195 -26.521  27.716  1.00  0.00     0.196 A 
ATOM     15  H   UNL     1      22.524 -25.787  25.813  1.00  0.00     0.167 HD
ENDBRANCH   1  10
TORSDOF 4
ENDMDL
MODEL 9
REMARK VINA RESULT:    -3.941      8.252      9.752
REMARK INTER + INTRA:          -5.039
REMARK INTER:                  -4.865
REMARK INTRA:                  -0.174
REMARK UNBOUND:                -0.292
REMARK SMILES [NH3+][C@@H](Cc1cnc[nH]1)C(=O)[O-]
REMARK SMILES IDX 3 1 2 2 1 3 9 7 10 8 11 9 4 10 5 11 8 12 6 13 7 14
REMARK H PARENT 1 4 1 5 1 6 8 15
REMARK Flexibility Score: inf
ROOT
ATOM      1  C   UNL     1      22.469 -24.870  25.330  1.00  0.00     0.127 C 
ENDROOT
BRANCH   1   2
ATOM      2  C   UNL     1      23.030 -25.226  26.721  1.00  0.00     0.233 C 
BRANCH   2   3
ATOM      3  N   UNL     1      22.466 -26.486  27.223  1.00  0.00    -0.350 N 
ATOM      4  H   UNL     1      22.354 -26.441  28.261  1.00  0.00     0.345 HD
ATOM      5  H   UNL     1      21.519 -26.643  26.805  1.00  0.00     0.345 HD
ATOM      6  H   UNL     1      23.086 -27.293  26.978  1.00  0.00     0.345 HD
ENDBRANCH   2   3
BRANCH   2   7
ATOM      7  C   UNL     1      22.747 -24.107  27.687  1.00  0.00     0.099 C 
ATOM      8  O   UNL     1      22.839 -22.905  27.318  1.00  0.00    -0.544 OA
ATOM      9  O   UNL     1      22.399 -24.395  29.000  1.00  0.00    -0.544 OA
ENDBRANCH   2   7
ENDBRANCH   1   2
BRANCH   1  10
ATOM     10  C   UNL     1      23.551 -24.808  24.295  1.00  0.00     0.041 A 
ATOM     11  C   UNL     1      24.134 -23.670  23.783  1.00  0.00     0.134 A 
ATOM     12  N   UNL     1      24.068 -25.875  23.666  1.00  0.00    -0.348 N 
ATOM     13  N   UNL     1      25.027 -24.020  22.836  1.00  0.00    -0.245 NA
ATOM     14  C   UNL     1      24.960 -25.368  22.793  1.00  0.00     0.196 A 
ATOM     15  H   UNL     1      23.826 -26.880  23.812  1.00  0.00     0.167 HD
ENDBRANCH   1  10
TORSDOF 4
ENDMDL
