MODEL 1
REMARK VINA RESULT:    -5.067      0.000      0.000
REMARK INTER + INTRA:          -7.724
REMARK INTER:                  -7.734
REMARK INTRA:                   0.010
REMARK UNBOUND:                 0.010
REMARK SMILES CC1=CCC[C@@H](C)C(=O)C[C@@H](C(C)C)C(=O)C1
REMARK SMILES IDX 8 1 9 2 6 3 7 4 5 5 4 6 3 7 2 8 1 9 10 11 11 12 15 13 16 14
REMARK SMILES IDX 17 15 12 17 13 18 14 19
REMARK H PARENT
REMARK Flexibility Score: 70.00
ROOT
ATOM      1  C   UNL     1     -13.607 -15.514  30.425  1.00  0.00     0.136 C 
ATOM      2  O   UNL     1     -14.383 -14.625  30.106  1.00  0.00    -0.299 OA
ENDROOT
BRANCH   1   3
ATOM      3  C   UNL     1     -13.616 -16.030  31.858  1.00  0.00     0.053 C 
ATOM      4  C   UNL     1     -14.733 -15.373  32.681  1.00  0.00     0.016 C 
BRANCH   3   5
ATOM      5  C   UNL     1     -12.244 -15.871  32.561  1.00  0.00     0.015 C 
BRANCH   5   6
ATOM      6  C   UNL     1     -11.214 -16.982  32.242  1.00  0.00     0.028 C 
BRANCH   6   7
ATOM      7  C   UNL     1     -11.817 -18.364  32.317  1.00  0.00    -0.028 C 
ATOM      8  C   UNL     1     -11.919 -19.227  31.276  1.00  0.00    -0.070 CG0
ATOM      9  C   UNL     1     -12.511 -20.587  31.543  1.00  0.00     0.039 C 
ATOM     10  G   UNL     1     -11.510 -18.877  29.851  1.00  0.00     0.000 G0
ENDBRANCH   6   7
ENDBRANCH   5   6
ENDBRANCH   3   5
ENDBRANCH   1   3
BRANCH   1  11
ATOM     11  C   UNL     1     -12.740 -16.110  29.337  1.00  0.00     0.087 C 
BRANCH  11  12
ATOM     12  C   UNL     1     -13.322 -17.342  28.590  1.00  0.00     0.066 C 
BRANCH  12  13
ATOM     13  C   UNL     1     -12.715 -18.699  28.961  1.00  0.00     0.140 C 
ATOM     14  O   UNL     1     -13.244 -19.702  28.505  1.00  0.00    -0.299 OA
BRANCH  13  15
ATOM     15  C   UNL     1     -11.502 -18.891  29.848  1.00  0.00     0.106 CG0
ATOM     16  G   UNL     1     -11.914 -19.222  31.277  1.00  0.00     0.000 G0
ENDBRANCH  13  15
ENDBRANCH  12  13
BRANCH  12  17
ATOM     17  C   UNL     1     -13.277 -17.092  27.044  1.00  0.00    -0.006 C 
ATOM     18  C   UNL     1     -11.849 -17.166  26.476  1.00  0.00     0.008 C 
ATOM     19  C   UNL     1     -13.945 -15.771  26.622  1.00  0.00     0.008 C 
ENDBRANCH  12  17
ENDBRANCH  11  12
ENDBRANCH   1  11
TORSDOF 1
ENDMDL
MODEL 2
REMARK VINA RESULT:    -4.760      2.160      4.714
REMARK INTER + INTRA:          -7.254
REMARK INTER:                  -7.371
REMARK INTRA:                   0.117
REMARK UNBOUND:                 0.010
REMARK SMILES CC1=CCC[C@@H](C)C(=O)C[C@@H](C(C)C)C(=O)C1
REMARK SMILES IDX 8 1 9 2 6 3 7 4 5 5 4 6 3 7 2 8 1 9 10 11 11 12 15 13 16 14
REMARK SMILES IDX 17 15 12 17 13 18 14 19
REMARK H PARENT
REMARK Flexibility Score: 70.00
ROOT
ATOM      1  C   UNL     1     -11.163 -17.573  28.464  1.00  0.00     0.136 C 
ATOM      2  O   UNL     1     -10.040 -17.107  28.329  1.00  0.00    -0.299 OA
ENDROOT
BRANCH   1   3
ATOM      3  C   UNL     1     -12.172 -17.419  27.334  1.00  0.00     0.053 C 
ATOM      4  C   UNL     1     -11.473 -17.137  25.996  1.00  0.00     0.016 C 
BRANCH   3   5
ATOM      5  C   UNL     1     -13.248 -16.344  27.634  1.00  0.00     0.015 C 
BRANCH   5   6
ATOM      6  C   UNL     1     -12.806 -15.235  28.618  1.00  0.00     0.028 C 
BRANCH   6   7
ATOM      7  C   UNL     1     -13.904 -14.845  29.577  1.00  0.00    -0.028 C 
ATOM      8  C   UNL     1     -13.947 -15.179  30.890  1.00  0.00    -0.070 CG0
ATOM      9  C   UNL     1     -15.102 -14.665  31.711  1.00  0.00     0.039 C 
ATOM     10  G   UNL     1     -12.919 -16.080  31.562  1.00  0.00     0.000 G0
ENDBRANCH   6   7
ENDBRANCH   5   6
ENDBRANCH   3   5
ENDBRANCH   1   3
BRANCH   1  11
ATOM     11  C   UNL     1     -11.448 -18.358  29.726  1.00  0.00     0.087 C 
BRANCH  11  12
ATOM     12  C   UNL     1     -12.928 -18.397  30.194  1.00  0.00     0.066 C 
BRANCH  12  13
ATOM     13  C   UNL     1     -13.265 -17.545  31.423  1.00  0.00     0.140 C 
ATOM     14  O   UNL     1     -13.860 -18.086  32.344  1.00  0.00    -0.299 OA
BRANCH  13  15
ATOM     15  C   UNL     1     -12.910 -16.081  31.585  1.00  0.00     0.106 CG0
ATOM     16  G   UNL     1     -13.933 -15.189  30.895  1.00  0.00     0.000 G0
ENDBRANCH  13  15
ENDBRANCH  12  13
BRANCH  12  17
ATOM     17  C   UNL     1     -13.386 -19.884  30.378  1.00  0.00    -0.006 C 
ATOM     18  C   UNL     1     -12.412 -20.697  31.247  1.00  0.00     0.008 C 
ATOM     19  C   UNL     1     -13.638 -20.611  29.045  1.00  0.00     0.008 C 
ENDBRANCH  12  17
ENDBRANCH  11  12
ENDBRANCH   1  11
TORSDOF 1
ENDMDL
MODEL 3
REMARK VINA RESULT:    -4.541      1.730      2.282
REMARK INTER + INTRA:          -6.920
REMARK INTER:                  -7.036
REMARK INTRA:                   0.115
REMARK UNBOUND:                 0.010
REMARK SMILES CC1=CCC[C@@H](C)C(=O)C[C@@H](C(C)C)C(=O)C1
REMARK SMILES IDX 8 1 9 2 6 3 7 4 5 5 4 6 3 7 2 8 1 9 10 11 11 12 15 13 16 14
REMARK SMILES IDX 17 15 12 17 13 18 14 19
REMARK H PARENT
REMARK Flexibility Score: 70.00
ROOT
ATOM      1  C   UNL     1     -12.105 -16.021  31.204  1.00  0.00     0.136 C 
ATOM      2  O   UNL     1     -11.318 -15.631  32.055  1.00  0.00    -0.299 OA
ENDROOT
BRANCH   1   3
ATOM      3  C   UNL     1     -13.473 -16.532  31.636  1.00  0.00     0.053 C 
ATOM      4  C   UNL     1     -14.229 -15.478  32.459  1.00  0.00     0.016 C 
BRANCH   3   5
ATOM      5  C   UNL     1     -13.396 -17.879  32.399  1.00  0.00     0.015 C 
BRANCH   5   6
ATOM      6  C   UNL     1     -12.705 -19.028  31.627  1.00  0.00     0.028 C 
BRANCH   6   7
ATOM      7  C   UNL     1     -13.565 -19.570  30.511  1.00  0.00    -0.028 C 
ATOM      8  C   UNL     1     -13.176 -19.694  29.218  1.00  0.00    -0.070 CG0
ATOM      9  C   UNL     1     -14.154 -20.298  28.242  1.00  0.00     0.039 C 
ATOM     10  G   UNL     1     -11.828 -19.215  28.696  1.00  0.00     0.000 G0
ENDBRANCH   6   7
ENDBRANCH   5   6
ENDBRANCH   3   5
ENDBRANCH   1   3
BRANCH   1  11
ATOM     11  C   UNL     1     -11.694 -15.883  29.755  1.00  0.00     0.087 C 
BRANCH  11  12
ATOM     12  C   UNL     1     -12.576 -16.626  28.714  1.00  0.00     0.066 C 
BRANCH  12  13
ATOM     13  C   UNL     1     -11.936 -17.846  28.042  1.00  0.00     0.140 C 
ATOM     14  O   UNL     1     -11.477 -17.699  26.918  1.00  0.00    -0.299 OA
BRANCH  13  15
ATOM     15  C   UNL     1     -11.823 -19.220  28.669  1.00  0.00     0.106 CG0
ATOM     16  G   UNL     1     -13.170 -19.693  29.200  1.00  0.00     0.000 G0
ENDBRANCH  13  15
ENDBRANCH  12  13
BRANCH  12  17
ATOM     17  C   UNL     1     -13.124 -15.605  27.660  1.00  0.00    -0.006 C 
ATOM     18  C   UNL     1     -13.903 -14.449  28.308  1.00  0.00     0.008 C 
ATOM     19  C   UNL     1     -13.976 -16.266  26.561  1.00  0.00     0.008 C 
ENDBRANCH  12  17
ENDBRANCH  11  12
ENDBRANCH   1  11
TORSDOF 1
ENDMDL
MODEL 4
REMARK VINA RESULT:    -4.458      1.996      3.450
REMARK INTER + INTRA:          -6.793
REMARK INTER:                  -7.534
REMARK INTRA:                   0.741
REMARK UNBOUND:                 0.010
REMARK SMILES CC1=CCC[C@@H](C)C(=O)C[C@@H](C(C)C)C(=O)C1
REMARK SMILES IDX 8 1 9 2 6 3 7 4 5 5 4 6 3 7 2 8 1 9 10 11 11 12 15 13 16 14
REMARK SMILES IDX 17 15 12 17 13 18 14 19
REMARK H PARENT
REMARK Flexibility Score: 70.00
ROOT
ATOM      1  C   UNL     1     -13.172 -19.304  29.485  1.00  0.00     0.136 C 
ATOM      2  O   UNL     1     -13.162 -20.204  28.657  1.00  0.00    -0.299 OA
ENDROOT
BRANCH   1   3
ATOM      3  C   UNL     1     -13.025 -19.649  30.961  1.00  0.00     0.053 C 
ATOM      4  C   UNL     1     -13.654 -18.568  31.853  1.00  0.00     0.016 C 
BRANCH   3   5
ATOM      5  C   UNL     1     -11.554 -19.917  31.370  1.00  0.00     0.015 C 
BRANCH   5   6
ATOM      6  C   UNL     1     -10.520 -18.936  30.767  1.00  0.00     0.028 C 
BRANCH   6   7
ATOM      7  C   UNL     1     -10.078 -17.885  31.756  1.00  0.00    -0.028 C 
ATOM      8  C   UNL     1     -10.576 -16.626  31.830  1.00  0.00    -0.070 CG0
ATOM      9  C   UNL     1     -10.046 -15.721  32.913  1.00  0.00     0.039 C 
ATOM     10  G   UNL     1     -11.603 -16.070  30.852  1.00  0.00     0.000 G0
ENDBRANCH   6   7
ENDBRANCH   5   6
ENDBRANCH   3   5
ENDBRANCH   1   3
BRANCH   1  11
ATOM     11  C   UNL     1     -13.242 -17.882  28.971  1.00  0.00     0.087 C 
BRANCH  11  12
ATOM     12  C   UNL     1     -11.911 -17.267  28.461  1.00  0.00     0.066 C 
BRANCH  12  13
ATOM     13  C   UNL     1     -11.210 -16.295  29.418  1.00  0.00     0.140 C 
ATOM     14  O   UNL     1     -10.264 -15.655  28.985  1.00  0.00    -0.299 OA
BRANCH  13  15
ATOM     15  C   UNL     1     -11.610 -16.064  30.861  1.00  0.00     0.106 CG0
ATOM     16  G   UNL     1     -10.557 -16.611  31.816  1.00  0.00     0.000 G0
ENDBRANCH  13  15
ENDBRANCH  12  13
BRANCH  12  17
ATOM     17  C   UNL     1     -12.130 -16.629  27.048  1.00  0.00    -0.006 C 
ATOM     18  C   UNL     1     -13.620 -16.475  26.695  1.00  0.00     0.008 C 
ATOM     19  C   UNL     1     -11.396 -17.379  25.922  1.00  0.00     0.008 C 
ENDBRANCH  12  17
ENDBRANCH  11  12
ENDBRANCH   1  11
TORSDOF 1
ENDMDL
MODEL 5
REMARK VINA RESULT:    -4.307      2.189      4.321
REMARK INTER + INTRA:          -6.562
REMARK INTER:                  -6.411
REMARK INTRA:                  -0.152
REMARK UNBOUND:                 0.010
REMARK SMILES CC1=CCC[C@@H](C)C(=O)C[C@@H](C(C)C)C(=O)C1
REMARK SMILES IDX 8 1 9 2 6 3 7 4 5 5 4 6 3 7 2 8 1 9 10 11 11 12 15 13 16 14
REMARK SMILES IDX 17 15 12 17 13 18 14 19
REMARK H PARENT
REMARK Flexibility Score: 70.00
ROOT
ATOM      1  C   UNL     1     -13.509 -16.909  32.000  1.00  0.00     0.136 C 
ATOM      2  O   UNL     1     -14.342 -17.353  32.778  1.00  0.00    -0.299 OA
ENDROOT
BRANCH   1   3
ATOM      3  C   UNL     1     -13.705 -15.516  31.417  1.00  0.00     0.053 C 
ATOM      4  C   UNL     1     -14.792 -14.740  32.177  1.00  0.00     0.016 C 
BRANCH   3   5
ATOM      5  C   UNL     1     -14.002 -15.538  29.896  1.00  0.00     0.015 C 
BRANCH   5   6
ATOM      6  C   UNL     1     -12.834 -15.069  28.996  1.00  0.00     0.028 C 
BRANCH   6   7
ATOM      7  C   UNL     1     -12.525 -16.054  27.895  1.00  0.00    -0.028 C 
ATOM      8  C   UNL     1     -11.382 -16.776  27.793  1.00  0.00    -0.070 CG0
ATOM      9  C   UNL     1     -11.261 -17.748  26.647  1.00  0.00     0.039 C 
ATOM     10  G   UNL     1     -10.203 -16.622  28.745  1.00  0.00     0.000 G0
ENDBRANCH   6   7
ENDBRANCH   5   6
ENDBRANCH   3   5
ENDBRANCH   1   3
BRANCH   1  11
ATOM     11  C   UNL     1     -12.280 -17.751  31.736  1.00  0.00     0.087 C 
BRANCH  11  12
ATOM     12  C   UNL     1     -11.003 -16.985  31.294  1.00  0.00     0.066 C 
BRANCH  12  13
ATOM     13  C   UNL     1     -10.347 -17.469  29.995  1.00  0.00     0.140 C 
ATOM     14  O   UNL     1      -9.937 -18.620  29.960  1.00  0.00    -0.299 OA
BRANCH  13  15
ATOM     15  C   UNL     1     -10.175 -16.627  28.747  1.00  0.00     0.106 CG0
ATOM     16  G   UNL     1     -11.368 -16.781  27.813  1.00  0.00     0.000 G0
ENDBRANCH  13  15
ENDBRANCH  12  13
BRANCH  12  17
ATOM     17  C   UNL     1      -9.977 -16.940  32.477  1.00  0.00    -0.006 C 
ATOM     18  C   UNL     1      -9.930 -18.260  33.266  1.00  0.00     0.008 C 
ATOM     19  C   UNL     1     -10.209 -15.759  33.437  1.00  0.00     0.008 C 
ENDBRANCH  12  17
ENDBRANCH  11  12
ENDBRANCH   1  11
TORSDOF 1
ENDMDL
MODEL 6
REMARK VINA RESULT:    -4.300      1.706      4.597
REMARK INTER + INTRA:          -6.553
REMARK INTER:                  -6.404
REMARK INTRA:                  -0.149
REMARK UNBOUND:                 0.010
REMARK SMILES CC1=CCC[C@@H](C)C(=O)C[C@@H](C(C)C)C(=O)C1
REMARK SMILES IDX 8 1 9 2 6 3 7 4 5 5 4 6 3 7 2 8 1 9 10 11 11 12 15 13 16 14
REMARK SMILES IDX 17 15 12 17 13 18 14 19
REMARK H PARENT
REMARK Flexibility Score: 70.00
ROOT
ATOM      1  C   UNL     1     -12.241 -18.134  31.989  1.00  0.00     0.136 C 
ATOM      2  O   UNL     1     -13.055 -18.980  31.645  1.00  0.00    -0.299 OA
ENDROOT
BRANCH   1   3
ATOM      3  C   UNL     1     -10.756 -18.463  31.930  1.00  0.00     0.053 C 
ATOM      4  C   UNL     1      -9.901 -17.270  32.384  1.00  0.00     0.016 C 
BRANCH   3   5
ATOM      5  C   UNL     1     -10.308 -18.965  30.533  1.00  0.00     0.015 C 
BRANCH   5   6
ATOM      6  C   UNL     1     -10.186 -17.863  29.453  1.00  0.00     0.028 C 
BRANCH   6   7
ATOM      7  C   UNL     1     -11.394 -17.807  28.550  1.00  0.00    -0.028 C 
ATOM      8  C   UNL     1     -12.305 -16.802  28.528  1.00  0.00    -0.070 CG0
ATOM      9  C   UNL     1     -13.429 -16.891  27.527  1.00  0.00     0.039 C 
ATOM     10  G   UNL     1     -12.275 -15.620  29.488  1.00  0.00     0.000 G0
ENDBRANCH   6   7
ENDBRANCH   5   6
ENDBRANCH   3   5
ENDBRANCH   1   3
BRANCH   1  11
ATOM     11  C   UNL     1     -12.771 -16.769  32.371  1.00  0.00     0.087 C 
BRANCH  11  12
ATOM     12  C   UNL     1     -13.955 -16.227  31.523  1.00  0.00     0.066 C 
BRANCH  12  13
ATOM     13  C   UNL     1     -13.574 -15.464  30.249  1.00  0.00     0.140 C 
ATOM     14  O   UNL     1     -14.382 -14.662  29.805  1.00  0.00    -0.299 OA
BRANCH  13  15
ATOM     15  C   UNL     1     -12.265 -15.625  29.503  1.00  0.00     0.106 CG0
ATOM     16  G   UNL     1     -12.327 -16.800  28.535  1.00  0.00     0.000 G0
ENDBRANCH  13  15
ENDBRANCH  12  13
BRANCH  12  17
ATOM     17  C   UNL     1     -14.917 -15.389  32.433  1.00  0.00    -0.006 C 
ATOM     18  C   UNL     1     -14.158 -14.442  33.377  1.00  0.00     0.008 C 
ATOM     19  C   UNL     1     -15.903 -16.257  33.236  1.00  0.00     0.008 C 
ENDBRANCH  12  17
ENDBRANCH  11  12
ENDBRANCH   1  11
TORSDOF 1
ENDMDL
MODEL 7
REMARK VINA RESULT:    -4.158      1.912      4.438
REMARK INTER + INTRA:          -6.336
REMARK INTER:                  -6.430
REMARK INTRA:                   0.094
REMARK UNBOUND:                 0.010
REMARK SMILES CC1=CCC[C@@H](C)C(=O)C[C@@H](C(C)C)C(=O)C1
REMARK SMILES IDX 8 1 9 2 6 3 7 4 5 5 4 6 3 7 2 8 1 9 10 11 11 12 15 13 16 14
REMARK SMILES IDX 17 15 12 17 13 18 14 19
REMARK H PARENT
REMARK Flexibility Score: 70.00
ROOT
ATOM      1  C   UNL     1     -12.988 -18.215  31.978  1.00  0.00     0.136 C 
ATOM      2  O   UNL     1     -14.025 -18.475  32.573  1.00  0.00    -0.299 OA
ENDROOT
BRANCH   1   3
ATOM      3  C   UNL     1     -12.126 -19.355  31.453  1.00  0.00     0.053 C 
ATOM      4  C   UNL     1     -10.697 -18.881  31.150  1.00  0.00     0.016 C 
BRANCH   3   5
ATOM      5  C   UNL     1     -12.749 -20.059  30.221  1.00  0.00     0.015 C 
BRANCH   5   6
ATOM      6  C   UNL     1     -13.461 -19.117  29.222  1.00  0.00     0.028 C 
BRANCH   6   7
ATOM      7  C   UNL     1     -12.583 -18.752  28.050  1.00  0.00    -0.028 C 
ATOM      8  C   UNL     1     -12.482 -17.513  27.508  1.00  0.00    -0.070 CG0
ATOM      9  C   UNL     1     -11.519 -17.320  26.363  1.00  0.00     0.039 C 
ATOM     10  G   UNL     1     -13.319 -16.325  27.964  1.00  0.00     0.000 G0
ENDBRANCH   6   7
ENDBRANCH   5   6
ENDBRANCH   3   5
ENDBRANCH   1   3
BRANCH   1  11
ATOM     11  C   UNL     1     -12.674 -16.756  31.725  1.00  0.00     0.087 C 
BRANCH  11  12
ATOM     12  C   UNL     1     -13.533 -16.045  30.644  1.00  0.00     0.066 C 
BRANCH  12  13
ATOM     13  C   UNL     1     -12.839 -15.780  29.303  1.00  0.00     0.140 C 
ATOM     14  O   UNL     1     -11.823 -15.100  29.313  1.00  0.00    -0.299 OA
BRANCH  13  15
ATOM     15  C   UNL     1     -13.315 -16.305  27.963  1.00  0.00     0.106 CG0
ATOM     16  G   UNL     1     -12.491 -17.507  27.522  1.00  0.00     0.000 G0
ENDBRANCH  13  15
ENDBRANCH  12  13
BRANCH  12  17
ATOM     17  C   UNL     1     -14.156 -14.737  31.240  1.00  0.00    -0.006 C 
ATOM     18  C   UNL     1     -14.830 -14.973  32.602  1.00  0.00     0.008 C 
ATOM     19  C   UNL     1     -15.136 -14.039  30.280  1.00  0.00     0.008 C 
ENDBRANCH  12  17
ENDBRANCH  11  12
ENDBRANCH   1  11
TORSDOF 1
ENDMDL
MODEL 8
REMARK VINA RESULT:    -4.064      1.592      3.622
REMARK INTER + INTRA:          -6.192
REMARK INTER:                  -6.684
REMARK INTRA:                   0.493
REMARK UNBOUND:                 0.010
REMARK SMILES CC1=CCC[C@@H](C)C(=O)C[C@@H](C(C)C)C(=O)C1
REMARK SMILES IDX 8 1 9 2 6 3 7 4 5 5 4 6 3 7 2 8 1 9 10 11 11 12 15 13 16 14
REMARK SMILES IDX 17 15 12 17 13 18 14 19
REMARK H PARENT
REMARK Flexibility Score: 70.00
ROOT
ATOM      1  C   UNL     1     -11.050 -18.723  29.944  1.00  0.00     0.136 C 
ATOM      2  O   UNL     1      -9.875 -18.475  29.710  1.00  0.00    -0.299 OA
ENDROOT
BRANCH   1   3
ATOM      3  C   UNL     1     -11.425 -19.352  31.279  1.00  0.00     0.053 C 
ATOM      4  C   UNL     1     -12.833 -19.963  31.233  1.00  0.00     0.016 C 
BRANCH   3   5
ATOM      5  C   UNL     1     -11.290 -18.364  32.466  1.00  0.00     0.015 C 
BRANCH   5   6
ATOM      6  C   UNL     1     -11.104 -16.881  32.063  1.00  0.00     0.028 C 
BRANCH   6   7
ATOM      7  C   UNL     1     -12.209 -15.999  32.590  1.00  0.00    -0.028 C 
ATOM      8  C   UNL     1     -13.443 -15.883  32.040  1.00  0.00    -0.070 CG0
ATOM      9  C   UNL     1     -14.439 -14.984  32.727  1.00  0.00     0.039 C 
ATOM     10  G   UNL     1     -13.855 -16.574  30.747  1.00  0.00     0.000 G0
ENDBRANCH   6   7
ENDBRANCH   5   6
ENDBRANCH   3   5
ENDBRANCH   1   3
BRANCH   1  11
ATOM     11  C   UNL     1     -12.073 -18.301  28.912  1.00  0.00     0.087 C 
BRANCH  11  12
ATOM     12  C   UNL     1     -12.190 -16.776  28.642  1.00  0.00     0.066 C 
BRANCH  12  13
ATOM     13  C   UNL     1     -13.176 -16.011  29.532  1.00  0.00     0.140 C 
ATOM     14  O   UNL     1     -13.422 -14.850  29.240  1.00  0.00    -0.299 OA
BRANCH  13  15
ATOM     15  C   UNL     1     -13.876 -16.590  30.745  1.00  0.00     0.106 CG0
ATOM     16  G   UNL     1     -13.431 -15.888  32.021  1.00  0.00     0.000 G0
ENDBRANCH  13  15
ENDBRANCH  12  13
BRANCH  12  17
ATOM     17  C   UNL     1     -12.473 -16.529  27.121  1.00  0.00    -0.006 C 
ATOM     18  C   UNL     1     -13.969 -16.625  26.776  1.00  0.00     0.008 C 
ATOM     19  C   UNL     1     -11.658 -17.448  26.194  1.00  0.00     0.008 C 
ENDBRANCH  12  17
ENDBRANCH  11  12
ENDBRANCH   1  11
TORSDOF 1
ENDMDL
MODEL 9
REMARK VINA RESULT:    -4.011      1.833      4.093
REMARK INTER + INTRA:          -6.111
REMARK INTER:                  -6.864
REMARK INTRA:                   0.753
REMARK UNBOUND:                 0.010
REMARK SMILES CC1=CCC[C@@H](C)C(=O)C[C@@H](C(C)C)C(=O)C1
REMARK SMILES IDX 8 1 9 2 6 3 7 4 5 5 4 6 3 7 2 8 1 9 10 11 11 12 15 13 16 14
REMARK SMILES IDX 17 15 12 17 13 18 14 19
REMARK H PARENT
REMARK Flexibility Score: 70.00
ROOT
ATOM      1  C   UNL     1     -12.449 -15.760  28.682  1.00  0.00     0.136 C 
ATOM      2  O   UNL     1     -13.364 -14.982  28.917  1.00  0.00    -0.299 OA
ENDROOT
BRANCH   1   3
ATOM      3  C   UNL     1     -12.420 -16.491  27.347  1.00  0.00     0.053 C 
ATOM      4  C   UNL     1     -13.627 -16.110  26.475  1.00  0.00     0.016 C 
BRANCH   3   5
ATOM      5  C   UNL     1     -12.317 -18.029  27.507  1.00  0.00     0.015 C 
BRANCH   5   6
ATOM      6  C   UNL     1     -13.445 -18.674  28.347  1.00  0.00     0.028 C 
BRANCH   6   7
ATOM      7  C   UNL     1     -12.917 -19.674  29.347  1.00  0.00    -0.028 C 
ATOM      8  C   UNL     1     -13.056 -19.580  30.692  1.00  0.00    -0.070 CG0
ATOM      9  C   UNL     1     -12.502 -20.697  31.539  1.00  0.00     0.039 C 
ATOM     10  G   UNL     1     -13.699 -18.387  31.389  1.00  0.00     0.000 G0
ENDBRANCH   6   7
ENDBRANCH   5   6
ENDBRANCH   3   5
ENDBRANCH   1   3
BRANCH   1  11
ATOM     11  C   UNL     1     -11.347 -15.876  29.712  1.00  0.00     0.087 C 
BRANCH  11  12
ATOM     12  C   UNL     1     -11.448 -17.073  30.697  1.00  0.00     0.066 C 
BRANCH  12  13
ATOM     13  C   UNL     1     -12.765 -17.195  31.472  1.00  0.00     0.140 C 
ATOM     14  O   UNL     1     -13.084 -16.267  32.200  1.00  0.00    -0.299 OA
BRANCH  13  15
ATOM     15  C   UNL     1     -13.707 -18.380  31.396  1.00  0.00     0.106 CG0
ATOM     16  G   UNL     1     -13.044 -19.563  30.703  1.00  0.00     0.000 G0
ENDBRANCH  13  15
ENDBRANCH  12  13
BRANCH  12  17
ATOM     17  C   UNL     1     -10.210 -17.074  31.657  1.00  0.00    -0.006 C 
ATOM     18  C   UNL     1     -10.252 -18.229  32.672  1.00  0.00     0.008 C 
ATOM     19  C   UNL     1     -10.009 -15.735  32.390  1.00  0.00     0.008 C 
ENDBRANCH  12  17
ENDBRANCH  11  12
ENDBRANCH   1  11
TORSDOF 1
ENDMDL
