MODEL 1
REMARK VINA RESULT:    -4.213      0.000      0.000
REMARK INTER + INTRA:         -13.031
REMARK INTER:                  -9.139
REMARK INTRA:                  -3.892
REMARK UNBOUND:                -3.892
REMARK SMILES CCCCCCCCCCCCCCCCCCCCCC(=O)[O-]
REMARK SMILES IDX 12 1 11 2 10 3 9 4 8 5 7 6 6 7 5 8 4 9 3 10 2 11 1 12 13 13
REMARK SMILES IDX 14 14 15 15 16 16 17 17 18 18 19 19 20 20 21 21 22 22 23 23
REMARK SMILES IDX 24 24
REMARK H PARENT
REMARK Flexibility Score: inf
ROOT
ATOM      1  C   UNL     1      52.403  40.388  47.809  1.00  0.00     0.000 C 
ENDROOT
BRANCH   1   2
ATOM      2  C   UNL     1      51.880  41.833  47.801  1.00  0.00     0.000 C 
BRANCH   2   3
ATOM      3  C   UNL     1      52.352  42.626  46.569  1.00  0.00     0.000 C 
BRANCH   3   4
ATOM      4  C   UNL     1      52.438  44.137  46.834  1.00  0.00    -0.000 C 
BRANCH   4   5
ATOM      5  C   UNL     1      53.528  44.498  47.857  1.00  0.00    -0.000 C 
BRANCH   5   6
ATOM      6  C   UNL     1      54.904  43.905  47.481  1.00  0.00    -0.000 C 
BRANCH   6   7
ATOM      7  C   UNL     1      55.412  42.839  48.472  1.00  0.00    -0.000 C 
BRANCH   7   8
ATOM      8  C   UNL     1      55.169  43.164  49.958  1.00  0.00    -0.000 C 
BRANCH   8   9
ATOM      9  C   UNL     1      54.176  42.225  50.668  1.00  0.00    -0.000 C 
BRANCH   9  10
ATOM     10  C   UNL     1      52.926  42.959  51.181  1.00  0.00    -0.000 C 
BRANCH  10  11
ATOM     11  C   UNL     1      51.971  42.029  51.947  1.00  0.00    -0.003 C 
ATOM     12  C   UNL     1      52.031  40.585  51.451  1.00  0.00     0.004 C 
ENDBRANCH  10  11
ENDBRANCH   9  10
ENDBRANCH   8   9
ENDBRANCH   7   8
ENDBRANCH   6   7
ENDBRANCH   5   6
ENDBRANCH   4   5
ENDBRANCH   3   4
ENDBRANCH   2   3
ENDBRANCH   1   2
BRANCH   1  13
ATOM     13  C   UNL     1      53.342  40.094  46.626  1.00  0.00     0.000 C 
BRANCH  13  14
ATOM     14  C   UNL     1      54.610  39.336  47.052  1.00  0.00     0.000 C 
BRANCH  14  15
ATOM     15  C   UNL     1      54.615  38.981  48.549  1.00  0.00     0.000 C 
BRANCH  15  16
ATOM     16  C   UNL     1      55.962  39.276  49.229  1.00  0.00     0.000 C 
BRANCH  16  17
ATOM     17  C   UNL     1      56.186  38.426  50.491  1.00  0.00     0.000 C 
BRANCH  17  18
ATOM     18  C   UNL     1      55.490  39.006  51.737  1.00  0.00     0.000 C 
BRANCH  18  19
ATOM     19  C   UNL     1      56.425  39.337  52.915  1.00  0.00     0.000 C 
BRANCH  19  20
ATOM     20  C   UNL     1      56.071  40.666  53.608  1.00  0.00     0.006 C 
BRANCH  20  21
ATOM     21  C   UNL     1      54.630  40.677  54.136  1.00  0.00     0.053 C 
BRANCH  21  22
ATOM     22  C   UNL     1      54.583  40.522  55.625  1.00  0.00     0.041 C 
ATOM     23  O   UNL     1      53.492  40.652  56.241  1.00  0.00    -0.550 OA
ATOM     24  O   UNL     1      55.745  40.247  56.335  1.00  0.00    -0.550 OA
ENDBRANCH  21  22
ENDBRANCH  20  21
ENDBRANCH  19  20
ENDBRANCH  18  19
ENDBRANCH  17  18
ENDBRANCH  16  17
ENDBRANCH  15  16
ENDBRANCH  14  15
ENDBRANCH  13  14
ENDBRANCH   1  13
TORSDOF 20
ENDMDL
MODEL 2
REMARK VINA RESULT:    -4.188      2.236      4.673
REMARK INTER + INTRA:         -12.976
REMARK INTER:                  -8.951
REMARK INTRA:                  -4.025
REMARK UNBOUND:                -3.892
REMARK SMILES CCCCCCCCCCCCCCCCCCCCCC(=O)[O-]
REMARK SMILES IDX 12 1 11 2 10 3 9 4 8 5 7 6 6 7 5 8 4 9 3 10 2 11 1 12 13 13
REMARK SMILES IDX 14 14 15 15 16 16 17 17 18 18 19 19 20 20 21 21 22 22 23 23
REMARK SMILES IDX 24 24
REMARK H PARENT
REMARK Flexibility Score: inf
ROOT
ATOM      1  C   UNL     1      53.382  38.823  51.001  1.00  0.00     0.000 C 
ENDROOT
BRANCH   1   2
ATOM      2  C   UNL     1      54.545  38.315  50.134  1.00  0.00     0.000 C 
BRANCH   2   3
ATOM      3  C   UNL     1      55.031  39.369  49.122  1.00  0.00     0.000 C 
BRANCH   3   4
ATOM      4  C   UNL     1      54.636  39.027  47.676  1.00  0.00    -0.000 C 
BRANCH   4   5
ATOM      5  C   UNL     1      53.787  40.127  47.018  1.00  0.00    -0.000 C 
BRANCH   5   6
ATOM      6  C   UNL     1      52.401  40.276  47.686  1.00  0.00    -0.000 C 
BRANCH   6   7
ATOM      7  C   UNL     1      51.889  41.728  47.734  1.00  0.00    -0.000 C 
BRANCH   7   8
ATOM      8  C   UNL     1      52.988  42.803  47.833  1.00  0.00    -0.000 C 
BRANCH   8   9
ATOM      9  C   UNL     1      53.015  43.576  49.165  1.00  0.00    -0.000 C 
BRANCH   9  10
ATOM     10  C   UNL     1      54.415  44.109  49.515  1.00  0.00    -0.000 C 
BRANCH  10  11
ATOM     11  C   UNL     1      55.423  42.980  49.782  1.00  0.00    -0.003 C 
ATOM     12  C   UNL     1      56.515  42.900  48.715  1.00  0.00     0.004 C 
ENDBRANCH  10  11
ENDBRANCH   9  10
ENDBRANCH   8   9
ENDBRANCH   7   8
ENDBRANCH   6   7
ENDBRANCH   5   6
ENDBRANCH   4   5
ENDBRANCH   3   4
ENDBRANCH   2   3
ENDBRANCH   1   2
BRANCH   1  13
ATOM     13  C   UNL     1      53.339  40.358  51.090  1.00  0.00     0.000 C 
BRANCH  13  14
ATOM     14  C   UNL     1      51.988  40.882  51.604  1.00  0.00     0.000 C 
BRANCH  14  15
ATOM     15  C   UNL     1      52.126  42.175  52.426  1.00  0.00     0.000 C 
BRANCH  15  16
ATOM     16  C   UNL     1      53.557  42.407  52.939  1.00  0.00     0.000 C 
BRANCH  16  17
ATOM     17  C   UNL     1      53.775  41.848  54.356  1.00  0.00     0.000 C 
BRANCH  17  18
ATOM     18  C   UNL     1      55.206  41.324  54.581  1.00  0.00     0.000 C 
BRANCH  18  19
ATOM     19  C   UNL     1      55.494  39.930  53.994  1.00  0.00     0.000 C 
BRANCH  19  20
ATOM     20  C   UNL     1      56.903  39.814  53.386  1.00  0.00     0.006 C 
BRANCH  20  21
ATOM     21  C   UNL     1      57.116  38.476  52.667  1.00  0.00     0.053 C 
BRANCH  21  22
ATOM     22  C   UNL     1      57.971  38.629  51.447  1.00  0.00     0.041 C 
ATOM     23  O   UNL     1      58.604  39.699  51.247  1.00  0.00    -0.550 OA
ATOM     24  O   UNL     1      58.061  37.595  50.523  1.00  0.00    -0.550 OA
ENDBRANCH  21  22
ENDBRANCH  20  21
ENDBRANCH  19  20
ENDBRANCH  18  19
ENDBRANCH  17  18
ENDBRANCH  16  17
ENDBRANCH  15  16
ENDBRANCH  14  15
ENDBRANCH  13  14
ENDBRANCH   1  13
TORSDOF 20
ENDMDL
MODEL 3
REMARK VINA RESULT:    -4.169      2.981      6.082
REMARK INTER + INTRA:         -12.935
REMARK INTER:                  -8.858
REMARK INTRA:                  -4.077
REMARK UNBOUND:                -3.892
REMARK SMILES CCCCCCCCCCCCCCCCCCCCCC(=O)[O-]
REMARK SMILES IDX 12 1 11 2 10 3 9 4 8 5 7 6 6 7 5 8 4 9 3 10 2 11 1 12 13 13
REMARK SMILES IDX 14 14 15 15 16 16 17 17 18 18 19 19 20 20 21 21 22 22 23 23
REMARK SMILES IDX 24 24
REMARK H PARENT
REMARK Flexibility Score: inf
ROOT
ATOM      1  C   UNL     1      53.379  40.255  46.681  1.00  0.00     0.000 C 
ENDROOT
BRANCH   1   2
ATOM      2  C   UNL     1      54.427  39.283  47.246  1.00  0.00     0.000 C 
BRANCH   2   3
ATOM      3  C   UNL     1      54.981  39.738  48.609  1.00  0.00     0.000 C 
BRANCH   3   4
ATOM      4  C   UNL     1      54.887  38.642  49.682  1.00  0.00    -0.000 C 
BRANCH   4   5
ATOM      5  C   UNL     1      54.332  39.167  51.017  1.00  0.00    -0.000 C 
BRANCH   5   6
ATOM      6  C   UNL     1      52.788  39.119  51.069  1.00  0.00    -0.000 C 
BRANCH   6   7
ATOM      7  C   UNL     1      52.133  40.493  51.309  1.00  0.00    -0.000 C 
BRANCH   7   8
ATOM      8  C   UNL     1      52.447  41.134  52.674  1.00  0.00    -0.000 C 
BRANCH   8   9
ATOM      9  C   UNL     1      53.129  42.513  52.596  1.00  0.00    -0.000 C 
BRANCH   9  10
ATOM     10  C   UNL     1      53.204  43.060  51.161  1.00  0.00    -0.000 C 
BRANCH  10  11
ATOM     11  C   UNL     1      54.605  42.912  50.548  1.00  0.00    -0.003 C 
ATOM     12  C   UNL     1      55.688  42.679  51.601  1.00  0.00     0.004 C 
ENDBRANCH  10  11
ENDBRANCH   9  10
ENDBRANCH   8   9
ENDBRANCH   7   8
ENDBRANCH   6   7
ENDBRANCH   5   6
ENDBRANCH   4   5
ENDBRANCH   3   4
ENDBRANCH   2   3
ENDBRANCH   1   2
BRANCH   1  13
ATOM     13  C   UNL     1      52.319  40.651  47.724  1.00  0.00     0.000 C 
BRANCH  13  14
ATOM     14  C   UNL     1      52.183  42.175  47.878  1.00  0.00     0.000 C 
BRANCH  14  15
ATOM     15  C   UNL     1      51.851  42.879  46.551  1.00  0.00     0.000 C 
BRANCH  15  16
ATOM     16  C   UNL     1      52.089  44.397  46.604  1.00  0.00     0.000 C 
BRANCH  16  17
ATOM     17  C   UNL     1      52.842  44.833  47.873  1.00  0.00     0.000 C 
BRANCH  17  18
ATOM     18  C   UNL     1      54.320  45.174  47.606  1.00  0.00     0.000 C 
BRANCH  18  19
ATOM     19  C   UNL     1      54.777  45.010  46.144  1.00  0.00     0.000 C 
BRANCH  19  20
ATOM     20  C   UNL     1      55.948  44.024  45.988  1.00  0.00     0.006 C 
BRANCH  20  21
ATOM     21  C   UNL     1      55.933  42.932  47.065  1.00  0.00     0.053 C 
BRANCH  21  22
ATOM     22  C   UNL     1      57.202  42.919  47.862  1.00  0.00     0.041 C 
ATOM     23  O   UNL     1      57.682  43.995  48.307  1.00  0.00    -0.550 OA
ATOM     24  O   UNL     1      57.861  41.721  48.104  1.00  0.00    -0.550 OA
ENDBRANCH  21  22
ENDBRANCH  20  21
ENDBRANCH  19  20
ENDBRANCH  18  19
ENDBRANCH  17  18
ENDBRANCH  16  17
ENDBRANCH  15  16
ENDBRANCH  14  15
ENDBRANCH  13  14
ENDBRANCH   1  13
TORSDOF 20
ENDMDL
MODEL 4
REMARK VINA RESULT:    -4.162      2.789      4.798
REMARK INTER + INTRA:         -12.920
REMARK INTER:                  -9.629
REMARK INTRA:                  -3.291
REMARK UNBOUND:                -3.892
REMARK SMILES CCCCCCCCCCCCCCCCCCCCCC(=O)[O-]
REMARK SMILES IDX 12 1 11 2 10 3 9 4 8 5 7 6 6 7 5 8 4 9 3 10 2 11 1 12 13 13
REMARK SMILES IDX 14 14 15 15 16 16 17 17 18 18 19 19 20 20 21 21 22 22 23 23
REMARK SMILES IDX 24 24
REMARK H PARENT
REMARK Flexibility Score: inf
ROOT
ATOM      1  C   UNL     1      53.438  38.844  50.467  1.00  0.00     0.000 C 
ENDROOT
BRANCH   1   2
ATOM      2  C   UNL     1      53.272  39.732  51.710  1.00  0.00     0.000 C 
BRANCH   2   3
ATOM      3  C   UNL     1      52.031  40.638  51.628  1.00  0.00     0.000 C 
BRANCH   3   4
ATOM      4  C   UNL     1      52.269  42.027  52.241  1.00  0.00    -0.000 C 
BRANCH   4   5
ATOM      5  C   UNL     1      52.410  43.128  51.176  1.00  0.00    -0.000 C 
BRANCH   5   6
ATOM      6  C   UNL     1      53.838  43.198  50.590  1.00  0.00    -0.000 C 
BRANCH   6   7
ATOM      7  C   UNL     1      53.914  42.829  49.096  1.00  0.00    -0.000 C 
BRANCH   7   8
ATOM      8  C   UNL     1      52.687  43.239  48.261  1.00  0.00    -0.000 C 
BRANCH   8   9
ATOM      9  C   UNL     1      52.065  42.103  47.428  1.00  0.00    -0.000 C 
BRANCH   9  10
ATOM     10  C   UNL     1      52.503  40.707  47.905  1.00  0.00    -0.000 C 
BRANCH  10  11
ATOM     11  C   UNL     1      53.197  39.899  46.798  1.00  0.00    -0.003 C 
ATOM     12  C   UNL     1      54.520  40.521  46.354  1.00  0.00     0.004 C 
ENDBRANCH  10  11
ENDBRANCH   9  10
ENDBRANCH   8   9
ENDBRANCH   7   8
ENDBRANCH   6   7
ENDBRANCH   5   6
ENDBRANCH   4   5
ENDBRANCH   3   4
ENDBRANCH   2   3
ENDBRANCH   1   2
BRANCH   1  13
ATOM     13  C   UNL     1      54.822  38.174  50.401  1.00  0.00     0.000 C 
BRANCH  13  14
ATOM     14  C   UNL     1      55.765  38.864  49.402  1.00  0.00     0.000 C 
BRANCH  14  15
ATOM     15  C   UNL     1      56.376  40.161  49.961  1.00  0.00     0.000 C 
BRANCH  15  16
ATOM     16  C   UNL     1      57.242  40.906  48.932  1.00  0.00     0.000 C 
BRANCH  16  17
ATOM     17  C   UNL     1      58.737  40.888  49.295  1.00  0.00     0.000 C 
BRANCH  17  18
ATOM     18  C   UNL     1      59.392  39.511  49.076  1.00  0.00     0.000 C 
BRANCH  18  19
ATOM     19  C   UNL     1      59.679  38.711  50.360  1.00  0.00     0.000 C 
BRANCH  19  20
ATOM     20  C   UNL     1      59.010  37.324  50.366  1.00  0.00     0.006 C 
BRANCH  20  21
ATOM     21  C   UNL     1      58.277  37.040  51.683  1.00  0.00     0.053 C 
BRANCH  21  22
ATOM     22  C   UNL     1      59.017  36.051  52.530  1.00  0.00     0.041 C 
ATOM     23  O   UNL     1      59.650  35.105  51.992  1.00  0.00    -0.550 OA
ATOM     24  O   UNL     1      58.999  36.166  53.914  1.00  0.00    -0.550 OA
ENDBRANCH  21  22
ENDBRANCH  20  21
ENDBRANCH  19  20
ENDBRANCH  18  19
ENDBRANCH  17  18
ENDBRANCH  16  17
ENDBRANCH  15  16
ENDBRANCH  14  15
ENDBRANCH  13  14
ENDBRANCH   1  13
TORSDOF 20
ENDMDL
MODEL 5
REMARK VINA RESULT:    -4.139      1.167      4.237
REMARK INTER + INTRA:         -12.871
REMARK INTER:                  -9.004
REMARK INTRA:                  -3.866
REMARK UNBOUND:                -3.892
REMARK SMILES CCCCCCCCCCCCCCCCCCCCCC(=O)[O-]
REMARK SMILES IDX 12 1 11 2 10 3 9 4 8 5 7 6 6 7 5 8 4 9 3 10 2 11 1 12 13 13
REMARK SMILES IDX 14 14 15 15 16 16 17 17 18 18 19 19 20 20 21 21 22 22 23 23
REMARK SMILES IDX 24 24
REMARK H PARENT
REMARK Flexibility Score: inf
ROOT
ATOM      1  C   UNL     1      54.564  38.132  50.314  1.00  0.00     0.000 C 
ENDROOT
BRANCH   1   2
ATOM      2  C   UNL     1      55.878  38.171  51.109  1.00  0.00     0.000 C 
BRANCH   2   3
ATOM      3  C   UNL     1      56.861  39.227  50.573  1.00  0.00     0.000 C 
BRANCH   3   4
ATOM      4  C   UNL     1      56.450  39.777  49.198  1.00  0.00    -0.000 C 
BRANCH   4   5
ATOM      5  C   UNL     1      56.076  41.268  49.244  1.00  0.00    -0.000 C 
BRANCH   5   6
ATOM      6  C   UNL     1      55.157  41.678  48.072  1.00  0.00    -0.000 C 
BRANCH   6   7
ATOM      7  C   UNL     1      54.445  40.490  47.397  1.00  0.00    -0.000 C 
BRANCH   7   8
ATOM      8  C   UNL     1      52.939  40.692  47.145  1.00  0.00    -0.000 C 
BRANCH   8   9
ATOM      9  C   UNL     1      52.357  41.993  47.728  1.00  0.00    -0.000 C 
BRANCH   9  10
ATOM     10  C   UNL     1      51.949  43.002  46.642  1.00  0.00    -0.000 C 
BRANCH  10  11
ATOM     11  C   UNL     1      52.330  44.445  47.008  1.00  0.00    -0.003 C 
ATOM     12  C   UNL     1      53.029  44.545  48.364  1.00  0.00     0.004 C 
ENDBRANCH  10  11
ENDBRANCH   9  10
ENDBRANCH   8   9
ENDBRANCH   7   8
ENDBRANCH   6   7
ENDBRANCH   5   6
ENDBRANCH   4   5
ENDBRANCH   3   4
ENDBRANCH   2   3
ENDBRANCH   1   2
BRANCH   1  13
ATOM     13  C   UNL     1      53.371  38.677  51.119  1.00  0.00     0.000 C 
BRANCH  13  14
ATOM     14  C   UNL     1      52.944  40.082  50.665  1.00  0.00     0.000 C 
BRANCH  14  15
ATOM     15  C   UNL     1      51.908  40.721  51.605  1.00  0.00     0.000 C 
BRANCH  15  16
ATOM     16  C   UNL     1      52.046  42.250  51.696  1.00  0.00     0.000 C 
BRANCH  16  17
ATOM     17  C   UNL     1      53.510  42.716  51.624  1.00  0.00     0.000 C 
BRANCH  17  18
ATOM     18  C   UNL     1      54.236  42.627  52.980  1.00  0.00     0.000 C 
BRANCH  18  19
ATOM     19  C   UNL     1      55.374  41.592  53.046  1.00  0.00     0.000 C 
BRANCH  19  20
ATOM     20  C   UNL     1      55.016  40.359  53.896  1.00  0.00     0.006 C 
BRANCH  20  21
ATOM     21  C   UNL     1      55.611  40.436  55.308  1.00  0.00     0.053 C 
BRANCH  21  22
ATOM     22  C   UNL     1      54.550  40.603  56.351  1.00  0.00     0.041 C 
ATOM     23  O   UNL     1      53.353  40.801  56.012  1.00  0.00    -0.550 OA
ATOM     24  O   UNL     1      54.882  40.551  57.699  1.00  0.00    -0.550 OA
ENDBRANCH  21  22
ENDBRANCH  20  21
ENDBRANCH  19  20
ENDBRANCH  18  19
ENDBRANCH  17  18
ENDBRANCH  16  17
ENDBRANCH  15  16
ENDBRANCH  14  15
ENDBRANCH  13  14
ENDBRANCH   1  13
TORSDOF 20
ENDMDL
MODEL 6
REMARK VINA RESULT:    -4.130      2.037      3.108
REMARK INTER + INTRA:         -12.850
REMARK INTER:                  -9.171
REMARK INTRA:                  -3.679
REMARK UNBOUND:                -3.892
REMARK SMILES CCCCCCCCCCCCCCCCCCCCCC(=O)[O-]
REMARK SMILES IDX 12 1 11 2 10 3 9 4 8 5 7 6 6 7 5 8 4 9 3 10 2 11 1 12 13 13
REMARK SMILES IDX 14 14 15 15 16 16 17 17 18 18 19 19 20 20 21 21 22 22 23 23
REMARK SMILES IDX 24 24
REMARK H PARENT
REMARK Flexibility Score: inf
ROOT
ATOM      1  C   UNL     1      52.211  41.907  48.044  1.00  0.00     0.000 C 
ENDROOT
BRANCH   1   2
ATOM      2  C   UNL     1      52.622  42.631  46.753  1.00  0.00     0.000 C 
BRANCH   2   3
ATOM      3  C   UNL     1      51.527  43.581  46.234  1.00  0.00     0.000 C 
BRANCH   3   4
ATOM      4  C   UNL     1      51.976  45.050  46.217  1.00  0.00    -0.000 C 
BRANCH   4   5
ATOM      5  C   UNL     1      52.709  45.460  47.505  1.00  0.00    -0.000 C 
BRANCH   5   6
ATOM      6  C   UNL     1      54.077  46.119  47.217  1.00  0.00    -0.000 C 
BRANCH   6   7
ATOM      7  C   UNL     1      55.228  45.559  48.075  1.00  0.00    -0.000 C 
BRANCH   7   8
ATOM      8  C   UNL     1      56.059  44.448  47.404  1.00  0.00    -0.000 C 
BRANCH   8   9
ATOM      9  C   UNL     1      55.971  43.073  48.092  1.00  0.00    -0.000 C 
BRANCH   9  10
ATOM     10  C   UNL     1      55.360  43.151  49.501  1.00  0.00    -0.000 C 
BRANCH  10  11
ATOM     11  C   UNL     1      56.422  43.059  50.608  1.00  0.00    -0.003 C 
ATOM     12  C   UNL     1      57.241  41.770  50.535  1.00  0.00     0.004 C 
ENDBRANCH  10  11
ENDBRANCH   9  10
ENDBRANCH   8   9
ENDBRANCH   7   8
ENDBRANCH   6   7
ENDBRANCH   5   6
ENDBRANCH   4   5
ENDBRANCH   3   4
ENDBRANCH   2   3
ENDBRANCH   1   2
BRANCH   1  13
ATOM     13  C   UNL     1      52.273  40.375  47.907  1.00  0.00     0.000 C 
BRANCH  13  14
ATOM     14  C   UNL     1      53.114  39.924  46.702  1.00  0.00     0.000 C 
BRANCH  14  15
ATOM     15  C   UNL     1      54.466  39.317  47.115  1.00  0.00     0.000 C 
BRANCH  15  16
ATOM     16  C   UNL     1      54.865  39.672  48.557  1.00  0.00     0.000 C 
BRANCH  16  17
ATOM     17  C   UNL     1      55.067  38.428  49.438  1.00  0.00     0.000 C 
BRANCH  17  18
ATOM     18  C   UNL     1      54.391  38.552  50.817  1.00  0.00     0.000 C 
BRANCH  18  19
ATOM     19  C   UNL     1      54.043  39.989  51.248  1.00  0.00     0.000 C 
BRANCH  19  20
ATOM     20  C   UNL     1      52.542  40.183  51.531  1.00  0.00     0.006 C 
BRANCH  20  21
ATOM     21  C   UNL     1      52.290  41.198  52.653  1.00  0.00     0.053 C 
BRANCH  21  22
ATOM     22  C   UNL     1      52.862  42.544  52.324  1.00  0.00     0.041 C 
ATOM     23  O   UNL     1      53.832  42.999  52.984  1.00  0.00    -0.550 OA
ATOM     24  O   UNL     1      52.315  43.301  51.295  1.00  0.00    -0.550 OA
ENDBRANCH  21  22
ENDBRANCH  20  21
ENDBRANCH  19  20
ENDBRANCH  18  19
ENDBRANCH  17  18
ENDBRANCH  16  17
ENDBRANCH  15  16
ENDBRANCH  14  15
ENDBRANCH  13  14
ENDBRANCH   1  13
TORSDOF 20
ENDMDL
MODEL 7
REMARK VINA RESULT:    -4.116      1.228      3.851
REMARK INTER + INTRA:         -12.820
REMARK INTER:                  -8.996
REMARK INTRA:                  -3.823
REMARK UNBOUND:                -3.892
REMARK SMILES CCCCCCCCCCCCCCCCCCCCCC(=O)[O-]
REMARK SMILES IDX 12 1 11 2 10 3 9 4 8 5 7 6 6 7 5 8 4 9 3 10 2 11 1 12 13 13
REMARK SMILES IDX 14 14 15 15 16 16 17 17 18 18 19 19 20 20 21 21 22 22 23 23
REMARK SMILES IDX 24 24
REMARK H PARENT
REMARK Flexibility Score: inf
ROOT
ATOM      1  C   UNL     1      56.409  40.180  49.734  1.00  0.00     0.000 C 
ENDROOT
BRANCH   1   2
ATOM      2  C   UNL     1      55.512  41.277  49.141  1.00  0.00     0.000 C 
BRANCH   2   3
ATOM      3  C   UNL     1      55.989  41.745  47.754  1.00  0.00     0.000 C 
BRANCH   3   4
ATOM      4  C   UNL     1      55.072  41.263  46.618  1.00  0.00    -0.000 C 
BRANCH   4   5
ATOM      5  C   UNL     1      54.116  40.145  47.065  1.00  0.00    -0.000 C 
BRANCH   5   6
ATOM      6  C   UNL     1      52.632  40.523  46.854  1.00  0.00    -0.000 C 
BRANCH   6   7
ATOM      7  C   UNL     1      52.211  41.811  47.589  1.00  0.00    -0.000 C 
BRANCH   7   8
ATOM      8  C   UNL     1      51.887  43.007  46.673  1.00  0.00    -0.000 C 
BRANCH   8   9
ATOM      9  C   UNL     1      52.719  44.273  46.950  1.00  0.00    -0.000 C 
BRANCH   9  10
ATOM     10  C   UNL     1      53.200  44.362  48.409  1.00  0.00    -0.000 C 
BRANCH  10  11
ATOM     11  C   UNL     1      54.535  45.110  48.542  1.00  0.00    -0.003 C 
ATOM     12  C   UNL     1      55.249  44.813  49.861  1.00  0.00     0.004 C 
ENDBRANCH  10  11
ENDBRANCH   9  10
ENDBRANCH   8   9
ENDBRANCH   7   8
ENDBRANCH   6   7
ENDBRANCH   5   6
ENDBRANCH   4   5
ENDBRANCH   3   4
ENDBRANCH   2   3
ENDBRANCH   1   2
BRANCH   1  13
ATOM     13  C   UNL     1      55.733  39.427  50.893  1.00  0.00     0.000 C 
BRANCH  13  14
ATOM     14  C   UNL     1      54.664  38.434  50.409  1.00  0.00     0.000 C 
BRANCH  14  15
ATOM     15  C   UNL     1      53.302  38.646  51.093  1.00  0.00     0.000 C 
BRANCH  15  16
ATOM     16  C   UNL     1      52.419  39.671  50.361  1.00  0.00     0.000 C 
BRANCH  16  17
ATOM     17  C   UNL     1      51.836  40.733  51.310  1.00  0.00     0.000 C 
BRANCH  17  18
ATOM     18  C   UNL     1      52.569  42.085  51.220  1.00  0.00     0.000 C 
BRANCH  18  19
ATOM     19  C   UNL     1      53.427  42.448  52.446  1.00  0.00     0.000 C 
BRANCH  19  20
ATOM     20  C   UNL     1      53.288  41.435  53.597  1.00  0.00     0.006 C 
BRANCH  20  21
ATOM     21  C   UNL     1      54.420  41.567  54.624  1.00  0.00     0.053 C 
BRANCH  21  22
ATOM     22  C   UNL     1      54.278  40.576  55.738  1.00  0.00     0.041 C 
ATOM     23  O   UNL     1      53.294  40.638  56.521  1.00  0.00    -0.550 OA
ATOM     24  O   UNL     1      55.239  39.589  55.921  1.00  0.00    -0.550 OA
ENDBRANCH  21  22
ENDBRANCH  20  21
ENDBRANCH  19  20
ENDBRANCH  18  19
ENDBRANCH  17  18
ENDBRANCH  16  17
ENDBRANCH  15  16
ENDBRANCH  14  15
ENDBRANCH  13  14
ENDBRANCH   1  13
TORSDOF 20
ENDMDL
MODEL 8
REMARK VINA RESULT:    -4.102      1.864      2.375
REMARK INTER + INTRA:         -12.789
REMARK INTER:                  -9.497
REMARK INTRA:                  -3.293
REMARK UNBOUND:                -3.892
REMARK SMILES CCCCCCCCCCCCCCCCCCCCCC(=O)[O-]
REMARK SMILES IDX 12 1 11 2 10 3 9 4 8 5 7 6 6 7 5 8 4 9 3 10 2 11 1 12 13 13
REMARK SMILES IDX 14 14 15 15 16 16 17 17 18 18 19 19 20 20 21 21 22 22 23 23
REMARK SMILES IDX 24 24
REMARK H PARENT
REMARK Flexibility Score: inf
ROOT
ATOM      1  C   UNL     1      51.877  41.652  47.753  1.00  0.00     0.000 C 
ENDROOT
BRANCH   1   2
ATOM      2  C   UNL     1      52.560  42.468  46.645  1.00  0.00     0.000 C 
BRANCH   2   3
ATOM      3  C   UNL     1      51.759  43.725  46.258  1.00  0.00     0.000 C 
BRANCH   3   4
ATOM      4  C   UNL     1      52.569  45.020  46.433  1.00  0.00    -0.000 C 
BRANCH   4   5
ATOM      5  C   UNL     1      52.979  45.269  47.894  1.00  0.00    -0.000 C 
BRANCH   5   6
ATOM      6  C   UNL     1      54.513  45.276  48.080  1.00  0.00    -0.000 C 
BRANCH   6   7
ATOM      7  C   UNL     1      54.982  44.618  49.391  1.00  0.00    -0.000 C 
BRANCH   7   8
ATOM      8  C   UNL     1      54.951  43.078  49.394  1.00  0.00    -0.000 C 
BRANCH   8   9
ATOM      9  C   UNL     1      54.267  42.449  50.622  1.00  0.00    -0.000 C 
BRANCH   9  10
ATOM     10  C   UNL     1      52.894  43.073  50.923  1.00  0.00    -0.000 C 
BRANCH  10  11
ATOM     11  C   UNL     1      52.073  42.235  51.916  1.00  0.00    -0.003 C 
ATOM     12  C   UNL     1      51.952  40.771  51.495  1.00  0.00     0.004 C 
ENDBRANCH  10  11
ENDBRANCH   9  10
ENDBRANCH   8   9
ENDBRANCH   7   8
ENDBRANCH   6   7
ENDBRANCH   5   6
ENDBRANCH   4   5
ENDBRANCH   3   4
ENDBRANCH   2   3
ENDBRANCH   1   2
BRANCH   1  13
ATOM     13  C   UNL     1      52.372  40.196  47.803  1.00  0.00     0.000 C 
BRANCH  13  14
ATOM     14  C   UNL     1      53.624  39.967  46.941  1.00  0.00     0.000 C 
BRANCH  14  15
ATOM     15  C   UNL     1      54.887  39.711  47.782  1.00  0.00     0.000 C 
BRANCH  15  16
ATOM     16  C   UNL     1      54.636  38.755  48.960  1.00  0.00     0.000 C 
BRANCH  16  17
ATOM     17  C   UNL     1      55.516  39.079  50.180  1.00  0.00     0.000 C 
BRANCH  17  18
ATOM     18  C   UNL     1      56.958  39.460  49.796  1.00  0.00     0.000 C 
BRANCH  18  19
ATOM     19  C   UNL     1      58.043  38.469  50.260  1.00  0.00     0.000 C 
BRANCH  19  20
ATOM     20  C   UNL     1      57.539  37.486  51.332  1.00  0.00     0.006 C 
BRANCH  20  21
ATOM     21  C   UNL     1      58.312  37.620  52.650  1.00  0.00     0.053 C 
BRANCH  21  22
ATOM     22  C   UNL     1      57.468  38.221  53.732  1.00  0.00     0.041 C 
ATOM     23  O   UNL     1      57.504  37.750  54.899  1.00  0.00    -0.550 OA
ATOM     24  O   UNL     1      56.631  39.293  53.449  1.00  0.00    -0.550 OA
ENDBRANCH  21  22
ENDBRANCH  20  21
ENDBRANCH  19  20
ENDBRANCH  18  19
ENDBRANCH  17  18
ENDBRANCH  16  17
ENDBRANCH  15  16
ENDBRANCH  14  15
ENDBRANCH  13  14
ENDBRANCH   1  13
TORSDOF 20
ENDMDL
MODEL 9
REMARK VINA RESULT:    -4.060      2.796      4.593
REMARK INTER + INTRA:         -12.699
REMARK INTER:                  -8.683
REMARK INTRA:                  -4.016
REMARK UNBOUND:                -3.892
REMARK SMILES CCCCCCCCCCCCCCCCCCCCCC(=O)[O-]
REMARK SMILES IDX 12 1 11 2 10 3 9 4 8 5 7 6 6 7 5 8 4 9 3 10 2 11 1 12 13 13
REMARK SMILES IDX 14 14 15 15 16 16 17 17 18 18 19 19 20 20 21 21 22 22 23 23
REMARK SMILES IDX 24 24
REMARK H PARENT
REMARK Flexibility Score: inf
ROOT
ATOM      1  C   UNL     1      53.397  43.466  49.108  1.00  0.00     0.000 C 
ENDROOT
BRANCH   1   2
ATOM      2  C   UNL     1      53.121  42.728  47.788  1.00  0.00     0.000 C 
BRANCH   2   3
ATOM      3  C   UNL     1      51.912  41.781  47.883  1.00  0.00     0.000 C 
BRANCH   3   4
ATOM      4  C   UNL     1      52.304  40.302  47.734  1.00  0.00    -0.000 C 
BRANCH   4   5
ATOM      5  C   UNL     1      53.560  40.108  46.868  1.00  0.00    -0.000 C 
BRANCH   5   6
ATOM      6  C   UNL     1      54.551  39.099  47.491  1.00  0.00    -0.000 C 
BRANCH   6   7
ATOM      7  C   UNL     1      55.086  39.527  48.872  1.00  0.00    -0.000 C 
BRANCH   7   8
ATOM      8  C   UNL     1      54.816  38.528  50.013  1.00  0.00    -0.000 C 
BRANCH   8   9
ATOM      9  C   UNL     1      53.532  38.801  50.818  1.00  0.00    -0.000 C 
BRANCH   9  10
ATOM     10  C   UNL     1      53.531  40.187  51.485  1.00  0.00    -0.000 C 
BRANCH  10  11
ATOM     11  C   UNL     1      52.146  40.852  51.456  1.00  0.00    -0.003 C 
ATOM     12  C   UNL     1      52.069  42.095  52.342  1.00  0.00     0.004 C 
ENDBRANCH  10  11
ENDBRANCH   9  10
ENDBRANCH   8   9
ENDBRANCH   7   8
ENDBRANCH   6   7
ENDBRANCH   5   6
ENDBRANCH   4   5
ENDBRANCH   3   4
ENDBRANCH   2   3
ENDBRANCH   1   2
BRANCH   1  13
ATOM     13  C   UNL     1      54.774  43.121  49.701  1.00  0.00     0.000 C 
BRANCH  13  14
ATOM     14  C   UNL     1      55.009  43.778  51.071  1.00  0.00     0.000 C 
BRANCH  14  15
ATOM     15  C   UNL     1      56.197  43.161  51.830  1.00  0.00     0.000 C 
BRANCH  15  16
ATOM     16  C   UNL     1      56.763  41.910  51.138  1.00  0.00     0.000 C 
BRANCH  16  17
ATOM     17  C   UNL     1      57.634  41.058  52.077  1.00  0.00     0.000 C 
BRANCH  17  18
ATOM     18  C   UNL     1      56.811  40.303  53.139  1.00  0.00     0.000 C 
BRANCH  18  19
ATOM     19  C   UNL     1      56.832  38.768  53.014  1.00  0.00     0.000 C 
BRANCH  19  20
ATOM     20  C   UNL     1      58.191  38.223  52.538  1.00  0.00     0.006 C 
BRANCH  20  21
ATOM     21  C   UNL     1      58.049  37.280  51.337  1.00  0.00     0.053 C 
BRANCH  21  22
ATOM     22  C   UNL     1      59.381  36.823  50.827  1.00  0.00     0.041 C 
ATOM     23  O   UNL     1      59.453  35.875  50.002  1.00  0.00    -0.550 OA
ATOM     24  O   UNL     1      60.546  37.437  51.271  1.00  0.00    -0.550 OA
ENDBRANCH  21  22
ENDBRANCH  20  21
ENDBRANCH  19  20
ENDBRANCH  18  19
ENDBRANCH  17  18
ENDBRANCH  16  17
ENDBRANCH  15  16
ENDBRANCH  14  15
ENDBRANCH  13  14
ENDBRANCH   1  13
TORSDOF 20
ENDMDL
