MODEL 1
REMARK VINA RESULT:    -3.334      0.000      0.000
REMARK INTER + INTRA:          -4.787
REMARK INTER:                  -4.503
REMARK INTRA:                  -0.284
REMARK UNBOUND:                -0.284
REMARK SMILES CCCCCCCC(=O)[O-]
REMARK SMILES IDX 5 1 6 2 7 3 8 4 9 5 10 6 4 7 3 8 2 9 1 10
REMARK H PARENT
REMARK Flexibility Score: inf
ROOT
ATOM      1  C   UNL     1      18.906  11.241 -15.603  1.00  0.00     0.000 C 
ENDROOT
BRANCH   1   2
ATOM      2  C   UNL     1      18.976  10.139 -14.536  1.00  0.00     0.006 C 
BRANCH   2   3
ATOM      3  C   UNL     1      17.591   9.773 -13.989  1.00  0.00     0.053 C 
BRANCH   3   4
ATOM      4  C   UNL     1      17.038   8.549 -14.652  1.00  0.00     0.041 C 
ATOM      5  O   UNL     1      17.651   8.017 -15.616  1.00  0.00    -0.550 OA
ATOM      6  O   UNL     1      15.830   8.013 -14.225  1.00  0.00    -0.550 OA
ENDBRANCH   3   4
ENDBRANCH   2   3
ENDBRANCH   1   2
BRANCH   1   7
ATOM      7  C   UNL     1      19.163  12.621 -14.986  1.00  0.00     0.000 C 
BRANCH   7   8
ATOM      8  C   UNL     1      20.258  12.550 -13.914  1.00  0.00    -0.000 C 
BRANCH   8   9
ATOM      9  C   UNL     1      21.318  13.633 -14.139  1.00  0.00    -0.003 C 
ATOM     10  C   UNL     1      20.968  14.507 -15.339  1.00  0.00     0.004 C 
ENDBRANCH   8   9
ENDBRANCH   7   8
ENDBRANCH   1   7
TORSDOF 6
ENDMDL
MODEL 2
REMARK VINA RESULT:    -3.327      1.572      2.100
REMARK INTER + INTRA:          -4.778
REMARK INTER:                  -4.494
REMARK INTRA:                  -0.284
REMARK UNBOUND:                -0.284
REMARK SMILES CCCCCCCC(=O)[O-]
REMARK SMILES IDX 5 1 6 2 7 3 8 4 9 5 10 6 4 7 3 8 2 9 1 10
REMARK H PARENT
REMARK Flexibility Score: inf
ROOT
ATOM      1  C   UNL     1      18.814  12.332 -15.183  1.00  0.00     0.000 C 
ENDROOT
BRANCH   1   2
ATOM      2  C   UNL     1      18.707  11.677 -13.799  1.00  0.00     0.006 C 
BRANCH   2   3
ATOM      3  C   UNL     1      18.518  10.158 -13.887  1.00  0.00     0.053 C 
BRANCH   3   4
ATOM      4  C   UNL     1      19.241   9.576 -15.064  1.00  0.00     0.041 C 
ATOM      5  O   UNL     1      18.601   8.980 -15.971  1.00  0.00    -0.550 OA
ATOM      6  O   UNL     1      20.624   9.667 -15.143  1.00  0.00    -0.550 OA
ENDBRANCH   3   4
ENDBRANCH   2   3
ENDBRANCH   1   2
BRANCH   1   7
ATOM      7  C   UNL     1      19.954  13.357 -15.220  1.00  0.00     0.000 C 
BRANCH   7   8
ATOM      8  C   UNL     1      20.922  13.147 -14.048  1.00  0.00    -0.000 C 
BRANCH   8   9
ATOM      9  C   UNL     1      22.011  14.225 -14.035  1.00  0.00    -0.003 C 
ATOM     10  C   UNL     1      21.833  15.202 -15.194  1.00  0.00     0.004 C 
ENDBRANCH   8   9
ENDBRANCH   7   8
ENDBRANCH   1   7
TORSDOF 6
ENDMDL
MODEL 3
REMARK VINA RESULT:    -3.321     12.953     14.142
REMARK INTER + INTRA:          -4.769
REMARK INTER:                  -4.370
REMARK INTRA:                  -0.400
REMARK UNBOUND:                -0.284
REMARK SMILES CCCCCCCC(=O)[O-]
REMARK SMILES IDX 5 1 6 2 7 3 8 4 9 5 10 6 4 7 3 8 2 9 1 10
REMARK H PARENT
REMARK Flexibility Score: inf
ROOT
ATOM      1  C   UNL     1       6.504  10.205 -13.399  1.00  0.00     0.000 C 
ENDROOT
BRANCH   1   2
ATOM      2  C   UNL     1       6.894   9.046 -12.470  1.00  0.00     0.006 C 
BRANCH   2   3
ATOM      3  C   UNL     1       5.691   8.172 -12.095  1.00  0.00     0.053 C 
BRANCH   3   4
ATOM      4  C   UNL     1       4.878   8.788 -10.998  1.00  0.00     0.041 C 
ATOM      5  O   UNL     1       5.307   8.787  -9.813  1.00  0.00    -0.550 OA
ATOM      6  O   UNL     1       3.634   9.336 -11.280  1.00  0.00    -0.550 OA
ENDBRANCH   3   4
ENDBRANCH   2   3
ENDBRANCH   1   2
BRANCH   1   7
ATOM      7  C   UNL     1       5.715   9.695 -14.611  1.00  0.00     0.000 C 
BRANCH   7   8
ATOM      8  C   UNL     1       4.930  10.834 -15.275  1.00  0.00    -0.000 C 
BRANCH   8   9
ATOM      9  C   UNL     1       4.124  11.624 -14.237  1.00  0.00    -0.003 C 
ATOM     10  C   UNL     1       3.584  12.922 -14.829  1.00  0.00     0.004 C 
ENDBRANCH   8   9
ENDBRANCH   7   8
ENDBRANCH   1   7
TORSDOF 6
ENDMDL
MODEL 4
REMARK VINA RESULT:    -3.263      3.725      6.057
REMARK INTER + INTRA:          -4.692
REMARK INTER:                  -4.588
REMARK INTRA:                  -0.104
REMARK UNBOUND:                -0.284
REMARK SMILES CCCCCCCC(=O)[O-]
REMARK SMILES IDX 5 1 6 2 7 3 8 4 9 5 10 6 4 7 3 8 2 9 1 10
REMARK H PARENT
REMARK Flexibility Score: inf
ROOT
ATOM      1  C   UNL     1      18.493  11.649 -13.629  1.00  0.00     0.000 C 
ENDROOT
BRANCH   1   2
ATOM      2  C   UNL     1      19.922  12.116 -13.940  1.00  0.00     0.006 C 
BRANCH   2   3
ATOM      3  C   UNL     1      19.963  13.150 -15.072  1.00  0.00     0.053 C 
BRANCH   3   4
ATOM      4  C   UNL     1      21.003  14.200 -14.828  1.00  0.00     0.041 C 
ATOM      5  O   UNL     1      21.099  15.191 -15.600  1.00  0.00    -0.550 OA
ATOM      6  O   UNL     1      21.888  14.067 -13.765  1.00  0.00    -0.550 OA
ENDBRANCH   3   4
ENDBRANCH   2   3
ENDBRANCH   1   2
BRANCH   1   7
ATOM      7  C   UNL     1      18.211  10.283 -14.268  1.00  0.00     0.000 C 
BRANCH   7   8
ATOM      8  C   UNL     1      16.860   9.726 -13.801  1.00  0.00    -0.000 C 
BRANCH   8   9
ATOM      9  C   UNL     1      16.599   8.342 -14.406  1.00  0.00    -0.003 C 
ATOM     10  C   UNL     1      15.121   7.973 -14.319  1.00  0.00     0.004 C 
ENDBRANCH   8   9
ENDBRANCH   7   8
ENDBRANCH   1   7
TORSDOF 6
ENDMDL
MODEL 5
REMARK VINA RESULT:    -3.221      3.687      5.294
REMARK INTER + INTRA:          -4.635
REMARK INTER:                  -4.212
REMARK INTRA:                  -0.422
REMARK UNBOUND:                -0.284
REMARK SMILES CCCCCCCC(=O)[O-]
REMARK SMILES IDX 5 1 6 2 7 3 8 4 9 5 10 6 4 7 3 8 2 9 1 10
REMARK H PARENT
REMARK Flexibility Score: inf
ROOT
ATOM      1  C   UNL     1      18.510  11.592 -13.534  1.00  0.00     0.000 C 
ENDROOT
BRANCH   1   2
ATOM      2  C   UNL     1      19.246  12.466 -14.560  1.00  0.00     0.006 C 
BRANCH   2   3
ATOM      3  C   UNL     1      20.629  12.906 -14.063  1.00  0.00     0.053 C 
BRANCH   3   4
ATOM      4  C   UNL     1      21.083  14.167 -14.731  1.00  0.00     0.041 C 
ATOM      5  O   UNL     1      22.093  14.785 -14.302  1.00  0.00    -0.550 OA
ATOM      6  O   UNL     1      20.371  14.677 -15.810  1.00  0.00    -0.550 OA
ENDBRANCH   3   4
ENDBRANCH   2   3
ENDBRANCH   1   2
BRANCH   1   7
ATOM      7  C   UNL     1      18.435  10.135 -14.007  1.00  0.00     0.000 C 
BRANCH   7   8
ATOM      8  C   UNL     1      18.820  10.016 -15.487  1.00  0.00    -0.000 C 
BRANCH   8   9
ATOM      9  C   UNL     1      19.935   8.982 -15.683  1.00  0.00    -0.003 C 
ATOM     10  C   UNL     1      21.281   9.661 -15.915  1.00  0.00     0.004 C 
ENDBRANCH   8   9
ENDBRANCH   7   8
ENDBRANCH   1   7
TORSDOF 6
ENDMDL
MODEL 6
REMARK VINA RESULT:    -3.202      1.684      2.352
REMARK INTER + INTRA:          -4.609
REMARK INTER:                  -4.339
REMARK INTRA:                  -0.270
REMARK UNBOUND:                -0.284
REMARK SMILES CCCCCCCC(=O)[O-]
REMARK SMILES IDX 5 1 6 2 7 3 8 4 9 5 10 6 4 7 3 8 2 9 1 10
REMARK H PARENT
REMARK Flexibility Score: inf
ROOT
ATOM      1  C   UNL     1      21.254  11.757 -14.311  1.00  0.00     0.000 C 
ENDROOT
BRANCH   1   2
ATOM      2  C   UNL     1      20.210  11.064 -15.198  1.00  0.00     0.006 C 
BRANCH   2   3
ATOM      3  C   UNL     1      19.557   9.865 -14.498  1.00  0.00     0.053 C 
BRANCH   3   4
ATOM      4  C   UNL     1      18.193  10.202 -13.979  1.00  0.00     0.041 C 
ATOM      5  O   UNL     1      17.254   9.367 -14.070  1.00  0.00    -0.550 OA
ATOM      6  O   UNL     1      17.950  11.451 -13.421  1.00  0.00    -0.550 OA
ENDBRANCH   3   4
ENDBRANCH   2   3
ENDBRANCH   1   2
BRANCH   1   7
ATOM      7  C   UNL     1      20.851  13.208 -14.019  1.00  0.00     0.000 C 
BRANCH   7   8
ATOM      8  C   UNL     1      22.013  14.169 -14.302  1.00  0.00    -0.000 C 
BRANCH   8   9
ATOM      9  C   UNL     1      21.658  15.141 -15.433  1.00  0.00    -0.003 C 
ATOM     10  C   UNL     1      20.341  14.754 -16.099  1.00  0.00     0.004 C 
ENDBRANCH   8   9
ENDBRANCH   7   8
ENDBRANCH   1   7
TORSDOF 6
ENDMDL
MODEL 7
REMARK VINA RESULT:    -3.060      3.445      5.225
REMARK INTER + INTRA:          -4.417
REMARK INTER:                  -3.872
REMARK INTRA:                  -0.545
REMARK UNBOUND:                -0.284
REMARK SMILES CCCCCCCC(=O)[O-]
REMARK SMILES IDX 5 1 6 2 7 3 8 4 9 5 10 6 4 7 3 8 2 9 1 10
REMARK H PARENT
REMARK Flexibility Score: inf
ROOT
ATOM      1  C   UNL     1      21.594  11.429 -15.503  1.00  0.00     0.000 C 
ENDROOT
BRANCH   1   2
ATOM      2  C   UNL     1      22.112  12.447 -14.477  1.00  0.00     0.006 C 
BRANCH   2   3
ATOM      3  C   UNL     1      21.077  13.535 -14.163  1.00  0.00     0.053 C 
BRANCH   3   4
ATOM      4  C   UNL     1      20.574  14.197 -15.409  1.00  0.00     0.041 C 
ATOM      5  O   UNL     1      19.409  13.962 -15.827  1.00  0.00    -0.550 OA
ATOM      6  O   UNL     1      21.403  15.051 -16.125  1.00  0.00    -0.550 OA
ENDBRANCH   3   4
ENDBRANCH   2   3
ENDBRANCH   1   2
BRANCH   1   7
ATOM      7  C   UNL     1      20.716  10.368 -14.829  1.00  0.00     0.000 C 
BRANCH   7   8
ATOM      8  C   UNL     1      19.277  10.429 -15.356  1.00  0.00    -0.000 C 
BRANCH   8   9
ATOM      9  C   UNL     1      18.267  10.247 -14.217  1.00  0.00    -0.003 C 
ATOM     10  C   UNL     1      18.163  11.510 -13.367  1.00  0.00     0.004 C 
ENDBRANCH   8   9
ENDBRANCH   7   8
ENDBRANCH   1   7
TORSDOF 6
ENDMDL
MODEL 8
REMARK VINA RESULT:    -3.039     13.209     14.590
REMARK INTER + INTRA:          -4.389
REMARK INTER:                  -3.992
REMARK INTRA:                  -0.396
REMARK UNBOUND:                -0.284
REMARK SMILES CCCCCCCC(=O)[O-]
REMARK SMILES IDX 5 1 6 2 7 3 8 4 9 5 10 6 4 7 3 8 2 9 1 10
REMARK H PARENT
REMARK Flexibility Score: inf
ROOT
ATOM      1  C   UNL     1       6.439  10.253 -13.376  1.00  0.00     0.000 C 
ENDROOT
BRANCH   1   2
ATOM      2  C   UNL     1       5.570   9.774 -14.548  1.00  0.00     0.006 C 
BRANCH   2   3
ATOM      3  C   UNL     1       4.916  10.939 -15.301  1.00  0.00     0.053 C 
BRANCH   3   4
ATOM      4  C   UNL     1       3.868  11.616 -14.472  1.00  0.00     0.041 C 
ATOM      5  O   UNL     1       3.785  12.873 -14.457  1.00  0.00    -0.550 OA
ATOM      6  O   UNL     1       3.002  10.860 -13.693  1.00  0.00    -0.550 OA
ENDBRANCH   3   4
ENDBRANCH   2   3
ENDBRANCH   1   2
BRANCH   1   7
ATOM      7  C   UNL     1       6.906   9.071 -12.518  1.00  0.00     0.000 C 
BRANCH   7   8
ATOM      8  C   UNL     1       5.719   8.202 -12.085  1.00  0.00    -0.000 C 
BRANCH   8   9
ATOM      9  C   UNL     1       5.172   8.657 -10.727  1.00  0.00    -0.003 C 
ATOM     10  C   UNL     1       3.670   8.913 -10.795  1.00  0.00     0.004 C 
ENDBRANCH   8   9
ENDBRANCH   7   8
ENDBRANCH   1   7
TORSDOF 6
ENDMDL
MODEL 9
REMARK VINA RESULT:    -2.984     13.408     14.616
REMARK INTER + INTRA:          -4.315
REMARK INTER:                  -3.921
REMARK INTRA:                  -0.394
REMARK UNBOUND:                -0.284
REMARK SMILES CCCCCCCC(=O)[O-]
REMARK SMILES IDX 5 1 6 2 7 3 8 4 9 5 10 6 4 7 3 8 2 9 1 10
REMARK H PARENT
REMARK Flexibility Score: inf
ROOT
ATOM      1  C   UNL     1       6.793   9.013 -12.415  1.00  0.00     0.000 C 
ENDROOT
BRANCH   1   2
ATOM      2  C   UNL     1       5.544   8.320 -11.850  1.00  0.00     0.006 C 
BRANCH   2   3
ATOM      3  C   UNL     1       5.325   8.640 -10.366  1.00  0.00     0.053 C 
BRANCH   3   4
ATOM      4  C   UNL     1       3.871   8.619 -10.003  1.00  0.00     0.041 C 
ATOM      5  O   UNL     1       3.519   8.586  -8.794  1.00  0.00    -0.550 OA
ATOM      6  O   UNL     1       2.906   8.606 -11.002  1.00  0.00    -0.550 OA
ENDBRANCH   3   4
ENDBRANCH   2   3
ENDBRANCH   1   2
BRANCH   1   7
ATOM      7  C   UNL     1       6.422  10.319 -13.127  1.00  0.00     0.000 C 
BRANCH   7   8
ATOM      8  C   UNL     1       5.740  10.039 -14.472  1.00  0.00    -0.000 C 
BRANCH   8   9
ATOM      9  C   UNL     1       4.595  11.026 -14.724  1.00  0.00    -0.003 C 
ATOM     10  C   UNL     1       3.428  10.771 -13.775  1.00  0.00     0.004 C 
ENDBRANCH   8   9
ENDBRANCH   7   8
ENDBRANCH   1   7
TORSDOF 6
ENDMDL
