MODEL 1
REMARK VINA RESULT:    76.033      0.000      0.000
REMARK INTER + INTRA:          87.608
REMARK INTER:                  87.145
REMARK INTRA:                   0.463
REMARK UNBOUND:                 0.463
REMARK SMILES C=C(C)[C@H]1CC[C@@]2(C(=O)[O-])CC[C@@]3(C)[C@H](CC[C@H]4[C@]5(C)CC[C@H](O)C(C)(C)[C@@H]5CC[C@]43C)[C@@H]12
REMARK SMILES IDX 7 1 6 2 33 3 11 4 5 5 15 6 4 7 12 8 16 9 13 10 17 11 31 12
REMARK SMILES IDX 14 13 18 14 30 15 32 16 19 17 29 18 21 19 20 20 28 21 22 22
REMARK SMILES IDX 25 23 23 24 26 25 27 26 8 27 9 28 10 29 2 30 3 31 1 32 24 33
REMARK H PARENT 24 34
REMARK Flexibility Score: inf
ROOT
ATOM      1  C   UNL     1      -8.984  16.459 -13.312  1.00  0.00     0.014 C 
ATOM      2  C   UNL     1      -9.273  17.813 -13.999  1.00  0.00     0.014 C 
ATOM      3  C   UNL     1      -7.832  16.725 -12.288  1.00  0.00     0.012 C 
ATOM      4  C   UNL     1      -8.546  15.415 -14.370  1.00  0.00     0.014 C 
ATOM      5  C   UNL     1      -8.653  18.891 -13.128  1.00  0.00     0.009 C 
ATOM      6  C   UNL     1      -6.631  15.714 -12.373  1.00  0.00     0.000 C 
ATOM      7  C   UNL     1      -7.470  18.241 -12.414  1.00  0.00     0.018 C 
ATOM      8  C   UNL     1      -8.125  14.085 -13.733  1.00  0.00     0.008 C 
ATOM      9  C   UNL     1      -5.642  15.870 -11.213  1.00  0.00     0.005 C 
ATOM     10  C   UNL     1      -6.990  14.193 -12.632  1.00  0.00    -0.024 C 
ATOM     11  C   UNL     1      -6.091  15.156  -9.952  1.00  0.00     0.005 C 
ATOM     12  C   UNL     1      -7.360  13.347 -11.282  1.00  0.00    -0.024 C 
ATOM     13  C   UNL     1      -5.703  13.573 -13.297  1.00  0.00     0.012 C 
ATOM     14  C   UNL     1      -6.291  13.606 -10.125  1.00  0.00     0.002 C 
ATOM     15  C   UNL     1      -8.750  13.718 -10.680  1.00  0.00     0.008 C 
ATOM     16  C   UNL     1      -7.412  11.838 -11.708  1.00  0.00     0.012 C 
ATOM     17  C   UNL     1      -6.575  12.917  -8.692  1.00  0.00    -0.026 C 
ATOM     18  C   UNL     1      -9.081  13.038  -9.343  1.00  0.00     0.005 C 
ATOM     19  C   UNL     1      -6.365  11.367  -8.717  1.00  0.00     0.010 C 
ATOM     20  C   UNL     1      -5.497  13.475  -7.699  1.00  0.00     0.012 C 
ATOM     21  C   UNL     1      -8.043  13.244  -8.199  1.00  0.00     0.003 C 
ATOM     22  C   UNL     1      -6.718  10.654  -7.397  1.00  0.00     0.033 C 
ATOM     23  C   UNL     1      -8.484  12.478  -6.865  1.00  0.00    -0.006 C 
ATOM     24  C   UNL     1      -8.157  10.947  -6.934  1.00  0.00     0.120 C 
ATOM     25  C   UNL     1     -10.011  12.645  -6.598  1.00  0.00     0.014 C 
ATOM     26  C   UNL     1      -7.802  13.098  -5.608  1.00  0.00     0.014 C 
ENDROOT
BRANCH   1  27
ATOM     27  C   UNL     1     -10.268  16.025 -12.605  1.00  0.00     0.048 C 
ATOM     28  O   UNL     1     -11.358  15.947 -13.232  1.00  0.00    -0.550 OA
ATOM     29  O   UNL     1     -10.279  15.839 -11.227  1.00  0.00    -0.550 OA
ENDBRANCH   1  27
BRANCH   7  30
ATOM     30  C   UNL     1      -6.137  18.608 -13.086  1.00  0.00    -0.077 C 
ATOM     31  C   UNL     1      -5.467  19.919 -12.753  1.00  0.00     0.039 C 
ATOM     32  C   UNL     1      -5.563  17.833 -14.022  1.00  0.00     0.008 C 
ENDBRANCH   7  30
BRANCH  24  33
ATOM     33  O   UNL     1      -9.057  10.279  -7.784  1.00  0.00    -0.393 OA
ATOM     34  H   UNL     1      -8.968   9.306  -7.602  1.00  0.00     0.210 HD
ENDBRANCH  24  33
TORSDOF 3
ENDMDL
