MODEL 1
REMARK VINA RESULT:    -5.230      0.000      0.000
REMARK INTER + INTRA:          -9.955
REMARK INTER:                  -8.288
REMARK INTRA:                  -1.667
REMARK UNBOUND:                -1.667
REMARK SMILES C[C@@H]1O[C@@H](O[C@@H]2[C@H](Oc3cc(O)c4c(c3)O[C@@H](c3ccc(O)cc3)CC4=O)O[C@@H](CO)[C@H](O)[C@H]2O)[C@H](O)[C@H](O)[C@@H]1O
REMARK SMILES IDX 6 1 34 2 32 3 29 4 28 5 7 6 5 7 4 8 1 9 2 10 40 11 3 12
REMARK SMILES IDX 38 13 36 14 41 15 39 17 37 19 35 21 8 23 9 24 10 25 15 26
REMARK SMILES IDX 11 27 14 28 13 29 16 30 26 31 17 32 27 33 25 34 12 35 18 37
REMARK SMILES IDX 19 38 24 39 20 40 23 41 21 42 22 43 33 45 30 47 31 48
REMARK H PARENT 41 16 39 18 37 20 35 22 12 36 22 44 33 46 31 49
REMARK Flexibility Score: inf
ROOT
ATOM      1  C   UNL     1      35.625  23.402  28.185  1.00  0.00     0.221 C 
ATOM      2  C   UNL     1      35.177  23.893  26.804  1.00  0.00     0.181 C 
ATOM      3  C   UNL     1      36.279  23.737  25.731  1.00  0.00     0.177 C 
ATOM      4  C   UNL     1      37.301  22.657  26.168  1.00  0.00     0.179 C 
ATOM      5  O   UNL     1      36.606  21.569  26.750  1.00  0.00    -0.332 OA
ATOM      6  C   UNL     1      36.100  21.921  28.059  1.00  0.00     0.339 C 
ENDROOT
BRANCH   1   7
ATOM      7  O   UNL     1      36.678  24.260  28.590  1.00  0.00    -0.337 OA
BRANCH   7   8
ATOM      8  C   UNL     1      36.221  25.559  28.944  1.00  0.00     0.282 C 
ATOM      9  C   UNL     1      37.742  27.584  31.293  1.00  0.00     0.041 C 
ATOM     10  C   UNL     1      37.911  26.293  30.466  1.00  0.00     0.150 C 
ATOM     11  C   UNL     1      37.545  25.020  31.273  1.00  0.00     0.174 C 
ATOM     12  O   UNL     1      37.315  26.420  29.160  1.00  0.00    -0.344 OA
ATOM     13  C   UNL     1      35.986  24.862  31.381  1.00  0.00     0.179 C 
ATOM     14  C   UNL     1      35.276  25.445  30.151  1.00  0.00     0.202 C 
BRANCH  11  15
ATOM     15  O   UNL     1      38.123  25.035  32.542  1.00  0.00    -0.388 OA
ATOM     16  H   UNL     1      38.995  24.606  32.473  1.00  0.00     0.211 HD
ENDBRANCH  11  15
BRANCH  13  17
ATOM     17  O   UNL     1      35.478  25.393  32.563  1.00  0.00    -0.387 OA
ATOM     18  H   UNL     1      34.623  24.911  32.762  1.00  0.00     0.211 HD
ENDBRANCH  13  17
BRANCH  14  19
ATOM     19  O   UNL     1      34.719  26.700  30.460  1.00  0.00    -0.385 OA
ATOM     20  H   UNL     1      35.218  27.076  31.223  1.00  0.00     0.211 HD
ENDBRANCH  14  19
ENDBRANCH   7   8
ENDBRANCH   1   7
BRANCH   2  21
ATOM     21  O   UNL     1      34.030  23.185  26.398  1.00  0.00    -0.387 OA
ATOM     22  H   UNL     1      33.251  23.601  26.876  1.00  0.00     0.211 HD
ENDBRANCH   2  21
BRANCH   6  23
ATOM     23  O   UNL     1      37.085  21.590  29.027  1.00  0.00    -0.462 OA
BRANCH  23  24
ATOM     24  C   UNL     1      36.730  21.106  30.295  1.00  0.00     0.130 A 
ATOM     25  C   UNL     1      37.036  19.784  30.660  1.00  0.00     0.093 A 
ATOM     26  C   UNL     1      36.174  21.978  31.245  1.00  0.00     0.094 A 
ATOM     27  C   UNL     1      36.970  19.371  32.005  1.00  0.00     0.133 A 
ATOM     28  C   UNL     1      36.213  21.615  32.603  1.00  0.00     0.138 A 
ATOM     29  C   UNL     1      36.640  20.331  32.983  1.00  0.00     0.102 A 
ATOM     30  O   UNL     1      35.880  22.527  33.621  1.00  0.00    -0.484 OA
ATOM     31  C   UNL     1      36.933  20.157  34.408  1.00  0.00     0.174 C 
ATOM     32  C   UNL     1      36.641  22.601  34.854  1.00  0.00     0.211 C 
ATOM     33  O   UNL     1      36.729  19.065  34.965  1.00  0.00    -0.294 OA
ATOM     34  C   UNL     1      37.516  21.342  35.139  1.00  0.00     0.131 C 
BRANCH  27  35
ATOM     35  O   UNL     1      37.372  18.096  32.386  1.00  0.00    -0.507 OA
ATOM     36  H   UNL     1      37.592  17.394  31.698  1.00  0.00     0.293 HD
ENDBRANCH  27  35
BRANCH  32  37
ATOM     37  C   UNL     1      35.775  23.054  36.014  1.00  0.00    -0.007 A 
ATOM     38  C   UNL     1      34.396  22.789  35.923  1.00  0.00     0.011 A 
ATOM     39  C   UNL     1      36.230  23.981  36.988  1.00  0.00     0.011 A 
ATOM     40  C   UNL     1      33.480  23.498  36.682  1.00  0.00     0.046 A 
ATOM     41  C   UNL     1      35.298  24.761  37.692  1.00  0.00     0.046 A 
ATOM     42  C   UNL     1      33.917  24.527  37.509  1.00  0.00     0.115 A 
BRANCH  42  43
ATOM     43  O   UNL     1      32.978  25.415  38.056  1.00  0.00    -0.508 OA
ATOM     44  H   UNL     1      32.915  26.394  37.774  1.00  0.00     0.293 HD
ENDBRANCH  42  43
ENDBRANCH  32  37
ENDBRANCH  23  24
ENDBRANCH   6  23
BRANCH   3  45
ATOM     45  O   UNL     1      36.963  24.967  25.549  1.00  0.00    -0.387 OA
ATOM     46  H   UNL     1      36.648  25.617  26.242  1.00  0.00     0.211 HD
ENDBRANCH   3  45
BRANCH   4  47
ATOM     47  C   UNL     1      38.125  22.138  24.982  1.00  0.00     0.191 C 
BRANCH  47  48
ATOM     48  O   UNL     1      37.698  22.695  23.759  1.00  0.00    -0.394 OA
ATOM     49  H   UNL     1      36.728  22.810  23.805  1.00  0.00     0.210 HD
ENDBRANCH  47  48
ENDBRANCH   4  47
TORSDOF 14
ENDMDL
