MODEL 1
REMARK VINA RESULT:    -3.099      0.000      0.000
REMARK INTER + INTRA:         -11.224
REMARK INTER:                  -7.084
REMARK INTRA:                  -4.139
REMARK UNBOUND:                -4.139
REMARK SMILES CCCCCCCCCCCCCCCCCCCCCCCC(=O)[O-]
REMARK SMILES IDX 13 1 14 2 15 3 16 4 17 5 18 6 19 7 20 8 21 9 22 10 23 11
REMARK SMILES IDX 24 12 25 13 26 14 12 15 11 16 10 17 9 18 8 19 7 20 6 21 5 22
REMARK SMILES IDX 4 23 3 24 2 25 1 26
REMARK H PARENT
REMARK Flexibility Score: inf
ROOT
ATOM      1  C   UNL     1       5.299   9.591   8.320  1.00  0.00     0.000 C 
ENDROOT
BRANCH   1   2
ATOM      2  C   UNL     1       4.243  10.450   7.599  1.00  0.00     0.000 C 
BRANCH   2   3
ATOM      3  C   UNL     1       3.710  11.609   8.467  1.00  0.00     0.000 C 
BRANCH   3   4
ATOM      4  C   UNL     1       3.129  12.787   7.660  1.00  0.00     0.000 C 
BRANCH   4   5
ATOM      5  C   UNL     1       4.060  14.001   7.508  1.00  0.00     0.000 C 
BRANCH   5   6
ATOM      6  C   UNL     1       4.723  14.413   8.832  1.00  0.00     0.000 C 
BRANCH   6   7
ATOM      7  C   UNL     1       6.256  14.393   8.718  1.00  0.00     0.000 C 
BRANCH   7   8
ATOM      8  C   UNL     1       6.747  13.598   7.497  1.00  0.00     0.000 C 
BRANCH   8   9
ATOM      9  C   UNL     1       7.668  12.429   7.888  1.00  0.00     0.000 C 
BRANCH   9  10
ATOM     10  C   UNL     1       7.804  12.251   9.412  1.00  0.00     0.006 C 
BRANCH  10  11
ATOM     11  C   UNL     1       8.896  11.251   9.832  1.00  0.00     0.053 C 
BRANCH  11  12
ATOM     12  C   UNL     1       9.398  11.484  11.223  1.00  0.00     0.041 C 
ATOM     13  O   UNL     1       9.718  12.644  11.599  1.00  0.00    -0.550 OA
ATOM     14  O   UNL     1       9.535  10.416  12.100  1.00  0.00    -0.550 OA
ENDBRANCH  11  12
ENDBRANCH  10  11
ENDBRANCH   9  10
ENDBRANCH   8   9
ENDBRANCH   7   8
ENDBRANCH   6   7
ENDBRANCH   5   6
ENDBRANCH   4   5
ENDBRANCH   3   4
ENDBRANCH   2   3
ENDBRANCH   1   2
BRANCH   1  15
ATOM     15  C   UNL     1       6.337   8.995   7.353  1.00  0.00     0.000 C 
BRANCH  15  16
ATOM     16  C   UNL     1       6.049   7.525   7.001  1.00  0.00     0.000 C 
BRANCH  16  17
ATOM     17  C   UNL     1       7.206   6.861   6.237  1.00  0.00     0.000 C 
BRANCH  17  18
ATOM     18  C   UNL     1       7.533   7.577   4.916  1.00  0.00    -0.000 C 
BRANCH  18  19
ATOM     19  C   UNL     1       9.023   7.931   4.780  1.00  0.00    -0.000 C 
BRANCH  19  20
ATOM     20  C   UNL     1       9.385   9.319   5.349  1.00  0.00    -0.000 C 
BRANCH  20  21
ATOM     21  C   UNL     1       9.919   9.235   6.790  1.00  0.00    -0.000 C 
BRANCH  21  22
ATOM     22  C   UNL     1      10.754   7.960   7.032  1.00  0.00    -0.000 C 
BRANCH  22  23
ATOM     23  C   UNL     1      10.403   7.233   8.341  1.00  0.00    -0.000 C 
BRANCH  23  24
ATOM     24  C   UNL     1       9.317   7.954   9.152  1.00  0.00    -0.000 C 
BRANCH  24  25
ATOM     25  C   UNL     1       8.374   6.950   9.823  1.00  0.00    -0.003 C 
ATOM     26  C   UNL     1       7.864   7.481  11.159  1.00  0.00     0.004 C 
ENDBRANCH  24  25
ENDBRANCH  23  24
ENDBRANCH  22  23
ENDBRANCH  21  22
ENDBRANCH  20  21
ENDBRANCH  19  20
ENDBRANCH  18  19
ENDBRANCH  17  18
ENDBRANCH  16  17
ENDBRANCH  15  16
ENDBRANCH   1  15
TORSDOF 22
ENDMDL
MODEL 2
REMARK VINA RESULT:    -3.041      2.226      3.987
REMARK INTER + INTRA:         -11.092
REMARK INTER:                  -6.618
REMARK INTRA:                  -4.474
REMARK UNBOUND:                -4.139
REMARK SMILES CCCCCCCCCCCCCCCCCCCCCCCC(=O)[O-]
REMARK SMILES IDX 13 1 14 2 15 3 16 4 17 5 18 6 19 7 20 8 21 9 22 10 23 11
REMARK SMILES IDX 24 12 25 13 26 14 12 15 11 16 10 17 9 18 8 19 7 20 6 21 5 22
REMARK SMILES IDX 4 23 3 24 2 25 1 26
REMARK H PARENT
REMARK Flexibility Score: inf
ROOT
ATOM      1  C   UNL     1       7.752   9.930   8.998  1.00  0.00     0.000 C 
ENDROOT
BRANCH   1   2
ATOM      2  C   UNL     1       8.930  10.583   9.747  1.00  0.00     0.000 C 
BRANCH   2   3
ATOM      3  C   UNL     1       8.527  11.858  10.515  1.00  0.00     0.000 C 
BRANCH   3   4
ATOM      4  C   UNL     1       7.005  12.048  10.670  1.00  0.00     0.000 C 
BRANCH   4   5
ATOM      5  C   UNL     1       6.434  13.324  10.030  1.00  0.00     0.000 C 
BRANCH   5   6
ATOM      6  C   UNL     1       7.021  13.606   8.638  1.00  0.00     0.000 C 
BRANCH   6   7
ATOM      7  C   UNL     1       5.974  13.379   7.535  1.00  0.00     0.000 C 
BRANCH   7   8
ATOM      8  C   UNL     1       4.532  13.471   8.062  1.00  0.00     0.000 C 
BRANCH   8   9
ATOM      9  C   UNL     1       3.684  12.247   7.674  1.00  0.00     0.000 C 
BRANCH   9  10
ATOM     10  C   UNL     1       4.509  10.951   7.568  1.00  0.00     0.006 C 
BRANCH  10  11
ATOM     11  C   UNL     1       3.670   9.664   7.662  1.00  0.00     0.053 C 
BRANCH  11  12
ATOM     12  C   UNL     1       3.735   9.022   9.013  1.00  0.00     0.041 C 
ATOM     13  O   UNL     1       3.178   7.909   9.216  1.00  0.00    -0.550 OA
ATOM     14  O   UNL     1       4.391   9.662  10.056  1.00  0.00    -0.550 OA
ENDBRANCH  11  12
ENDBRANCH  10  11
ENDBRANCH   9  10
ENDBRANCH   8   9
ENDBRANCH   7   8
ENDBRANCH   6   7
ENDBRANCH   5   6
ENDBRANCH   4   5
ENDBRANCH   3   4
ENDBRANCH   2   3
ENDBRANCH   1   2
BRANCH   1  15
ATOM     15  C   UNL     1       7.853  10.100   7.473  1.00  0.00     0.000 C 
BRANCH  15  16
ATOM     16  C   UNL     1       9.091  10.906   7.043  1.00  0.00     0.000 C 
BRANCH  16  17
ATOM     17  C   UNL     1       9.906  10.201   5.946  1.00  0.00     0.000 C 
BRANCH  17  18
ATOM     18  C   UNL     1       9.084   9.152   5.179  1.00  0.00    -0.000 C 
BRANCH  18  19
ATOM     19  C   UNL     1       9.931   7.963   4.696  1.00  0.00    -0.000 C 
BRANCH  19  20
ATOM     20  C   UNL     1      11.296   7.846   5.406  1.00  0.00    -0.000 C 
BRANCH  20  21
ATOM     21  C   UNL     1      11.334   6.673   6.401  1.00  0.00    -0.000 C 
BRANCH  21  22
ATOM     22  C   UNL     1      11.167   7.139   7.864  1.00  0.00    -0.000 C 
BRANCH  22  23
ATOM     23  C   UNL     1       9.718   7.068   8.372  1.00  0.00    -0.000 C 
BRANCH  23  24
ATOM     24  C   UNL     1       8.922   5.913   7.749  1.00  0.00    -0.000 C 
BRANCH  24  25
ATOM     25  C   UNL     1       7.587   6.408   7.182  1.00  0.00    -0.003 C 
ATOM     26  C   UNL     1       6.528   6.508   8.275  1.00  0.00     0.004 C 
ENDBRANCH  24  25
ENDBRANCH  23  24
ENDBRANCH  22  23
ENDBRANCH  21  22
ENDBRANCH  20  21
ENDBRANCH  19  20
ENDBRANCH  18  19
ENDBRANCH  17  18
ENDBRANCH  16  17
ENDBRANCH  15  16
ENDBRANCH   1  15
TORSDOF 22
ENDMDL
MODEL 3
REMARK VINA RESULT:    -3.027      3.652      7.234
REMARK INTER + INTRA:         -11.060
REMARK INTER:                  -8.098
REMARK INTRA:                  -2.963
REMARK UNBOUND:                -4.139
REMARK SMILES CCCCCCCCCCCCCCCCCCCCCCCC(=O)[O-]
REMARK SMILES IDX 13 1 14 2 15 3 16 4 17 5 18 6 19 7 20 8 21 9 22 10 23 11
REMARK SMILES IDX 24 12 25 13 26 14 12 15 11 16 10 17 9 18 8 19 7 20 6 21 5 22
REMARK SMILES IDX 4 23 3 24 2 25 1 26
REMARK H PARENT
REMARK Flexibility Score: inf
ROOT
ATOM      1  C   UNL     1      12.028   5.443  11.183  1.00  0.00     0.000 C 
ENDROOT
BRANCH   1   2
ATOM      2  C   UNL     1      12.004   5.108   9.680  1.00  0.00     0.000 C 
BRANCH   2   3
ATOM      3  C   UNL     1      11.903   6.357   8.781  1.00  0.00     0.000 C 
BRANCH   3   4
ATOM      4  C   UNL     1      10.593   6.450   7.974  1.00  0.00     0.000 C 
BRANCH   4   5
ATOM      5  C   UNL     1      10.149   7.875   7.604  1.00  0.00     0.000 C 
BRANCH   5   6
ATOM      6  C   UNL     1      10.892   8.430   6.378  1.00  0.00     0.000 C 
BRANCH   6   7
ATOM      7  C   UNL     1      10.072   9.528   5.680  1.00  0.00     0.000 C 
BRANCH   7   8
ATOM      8  C   UNL     1       8.876   9.999   6.524  1.00  0.00     0.000 C 
BRANCH   8   9
ATOM      9  C   UNL     1       9.153  11.330   7.244  1.00  0.00     0.000 C 
BRANCH   9  10
ATOM     10  C   UNL     1       8.267  11.539   8.488  1.00  0.00     0.006 C 
BRANCH  10  11
ATOM     11  C   UNL     1       8.674  10.681   9.698  1.00  0.00     0.053 C 
BRANCH  11  12
ATOM     12  C   UNL     1       9.183  11.495  10.846  1.00  0.00     0.041 C 
ATOM     13  O   UNL     1       8.877  12.713  10.949  1.00  0.00    -0.550 OA
ATOM     14  O   UNL     1      10.017  10.915  11.794  1.00  0.00    -0.550 OA
ENDBRANCH  11  12
ENDBRANCH  10  11
ENDBRANCH   9  10
ENDBRANCH   8   9
ENDBRANCH   7   8
ENDBRANCH   6   7
ENDBRANCH   5   6
ENDBRANCH   4   5
ENDBRANCH   3   4
ENDBRANCH   2   3
ENDBRANCH   1   2
BRANCH   1  15
ATOM     15  C   UNL     1      12.215   6.946  11.452  1.00  0.00     0.000 C 
BRANCH  15  16
ATOM     16  C   UNL     1      13.525   7.260  12.197  1.00  0.00     0.000 C 
BRANCH  16  17
ATOM     17  C   UNL     1      14.732   7.372  11.252  1.00  0.00     0.000 C 
BRANCH  17  18
ATOM     18  C   UNL     1      15.746   6.233  11.448  1.00  0.00    -0.000 C 
BRANCH  18  19
ATOM     19  C   UNL     1      15.927   5.368  10.189  1.00  0.00    -0.000 C 
BRANCH  19  20
ATOM     20  C   UNL     1      15.552   6.094   8.880  1.00  0.00    -0.000 C 
BRANCH  20  21
ATOM     21  C   UNL     1      16.297   5.520   7.663  1.00  0.00    -0.000 C 
BRANCH  21  22
ATOM     22  C   UNL     1      15.764   6.083   6.328  1.00  0.00    -0.000 C 
BRANCH  22  23
ATOM     23  C   UNL     1      14.248   5.907   6.147  1.00  0.00    -0.000 C 
BRANCH  23  24
ATOM     24  C   UNL     1      13.724   6.537   4.849  1.00  0.00    -0.000 C 
BRANCH  24  25
ATOM     25  C   UNL     1      14.541   7.777   4.470  1.00  0.00    -0.003 C 
ATOM     26  C   UNL     1      13.648   8.868   3.886  1.00  0.00     0.004 C 
ENDBRANCH  24  25
ENDBRANCH  23  24
ENDBRANCH  22  23
ENDBRANCH  21  22
ENDBRANCH  20  21
ENDBRANCH  19  20
ENDBRANCH  18  19
ENDBRANCH  17  18
ENDBRANCH  16  17
ENDBRANCH  15  16
ENDBRANCH   1  15
TORSDOF 22
ENDMDL
MODEL 4
REMARK VINA RESULT:    -2.995      3.196      5.422
REMARK INTER + INTRA:         -10.987
REMARK INTER:                  -7.276
REMARK INTRA:                  -3.712
REMARK UNBOUND:                -4.139
REMARK SMILES CCCCCCCCCCCCCCCCCCCCCCCC(=O)[O-]
REMARK SMILES IDX 13 1 14 2 15 3 16 4 17 5 18 6 19 7 20 8 21 9 22 10 23 11
REMARK SMILES IDX 24 12 25 13 26 14 12 15 11 16 10 17 9 18 8 19 7 20 6 21 5 22
REMARK SMILES IDX 4 23 3 24 2 25 1 26
REMARK H PARENT
REMARK Flexibility Score: inf
ROOT
ATOM      1  C   UNL     1       9.492  10.459  11.914  1.00  0.00     0.000 C 
ENDROOT
BRANCH   1   2
ATOM      2  C   UNL     1       9.957  11.913  11.701  1.00  0.00     0.000 C 
BRANCH   2   3
ATOM      3  C   UNL     1       9.169  12.931  12.550  1.00  0.00     0.000 C 
BRANCH   3   4
ATOM      4  C   UNL     1       8.021  13.629  11.794  1.00  0.00     0.000 C 
BRANCH   4   5
ATOM      5  C   UNL     1       6.712  12.828  11.704  1.00  0.00     0.000 C 
BRANCH   5   6
ATOM      6  C   UNL     1       6.146  12.770  10.276  1.00  0.00     0.000 C 
BRANCH   6   7
ATOM      7  C   UNL     1       7.027  13.561   9.295  1.00  0.00     0.000 C 
BRANCH   7   8
ATOM      8  C   UNL     1       6.718  13.229   7.825  1.00  0.00     0.000 C 
BRANCH   8   9
ATOM      9  C   UNL     1       5.209  13.115   7.552  1.00  0.00     0.000 C 
BRANCH   9  10
ATOM     10  C   UNL     1       4.545  14.472   7.250  1.00  0.00     0.006 C 
BRANCH  10  11
ATOM     11  C   UNL     1       3.032  14.385   6.986  1.00  0.00     0.053 C 
BRANCH  11  12
ATOM     12  C   UNL     1       2.593  15.217   5.822  1.00  0.00     0.041 C 
ATOM     13  O   UNL     1       3.443  15.829   5.120  1.00  0.00    -0.550 OA
ATOM     14  O   UNL     1       1.242  15.339   5.524  1.00  0.00    -0.550 OA
ENDBRANCH  11  12
ENDBRANCH  10  11
ENDBRANCH   9  10
ENDBRANCH   8   9
ENDBRANCH   7   8
ENDBRANCH   6   7
ENDBRANCH   5   6
ENDBRANCH   4   5
ENDBRANCH   3   4
ENDBRANCH   2   3
ENDBRANCH   1   2
BRANCH   1  15
ATOM     15  C   UNL     1       8.825   9.861  10.664  1.00  0.00     0.000 C 
BRANCH  15  16
ATOM     16  C   UNL     1       9.093  10.686   9.393  1.00  0.00     0.000 C 
BRANCH  16  17
ATOM     17  C   UNL     1       9.453   9.809   8.183  1.00  0.00     0.000 C 
BRANCH  17  18
ATOM     18  C   UNL     1       8.982  10.416   6.851  1.00  0.00    -0.000 C 
BRANCH  18  19
ATOM     19  C   UNL     1       9.675   9.790   5.629  1.00  0.00    -0.000 C 
BRANCH  19  20
ATOM     20  C   UNL     1       9.409   8.278   5.472  1.00  0.00    -0.000 C 
BRANCH  20  21
ATOM     21  C   UNL     1       7.923   7.927   5.661  1.00  0.00    -0.000 C 
BRANCH  21  22
ATOM     22  C   UNL     1       7.701   6.903   6.795  1.00  0.00    -0.000 C 
BRANCH  22  23
ATOM     23  C   UNL     1       6.506   7.239   7.703  1.00  0.00    -0.000 C 
BRANCH  23  24
ATOM     24  C   UNL     1       5.658   8.401   7.169  1.00  0.00    -0.000 C 
BRANCH  24  25
ATOM     25  C   UNL     1       5.736   9.613   8.103  1.00  0.00    -0.003 C 
ATOM     26  C   UNL     1       5.233   9.266   9.500  1.00  0.00     0.004 C 
ENDBRANCH  24  25
ENDBRANCH  23  24
ENDBRANCH  22  23
ENDBRANCH  21  22
ENDBRANCH  20  21
ENDBRANCH  19  20
ENDBRANCH  18  19
ENDBRANCH  17  18
ENDBRANCH  16  17
ENDBRANCH  15  16
ENDBRANCH   1  15
TORSDOF 22
ENDMDL
MODEL 5
REMARK VINA RESULT:    -2.992      3.857      8.516
REMARK INTER + INTRA:         -10.978
REMARK INTER:                  -7.430
REMARK INTRA:                  -3.549
REMARK UNBOUND:                -4.139
REMARK SMILES CCCCCCCCCCCCCCCCCCCCCCCC(=O)[O-]
REMARK SMILES IDX 13 1 14 2 15 3 16 4 17 5 18 6 19 7 20 8 21 9 22 10 23 11
REMARK SMILES IDX 24 12 25 13 26 14 12 15 11 16 10 17 9 18 8 19 7 20 6 21 5 22
REMARK SMILES IDX 4 23 3 24 2 25 1 26
REMARK H PARENT
REMARK Flexibility Score: inf
ROOT
ATOM      1  C   UNL     1      14.776   7.615  11.518  1.00  0.00     0.000 C 
ENDROOT
BRANCH   1   2
ATOM      2  C   UNL     1      15.533   6.368  11.019  1.00  0.00     0.000 C 
BRANCH   2   3
ATOM      3  C   UNL     1      15.446   6.177   9.491  1.00  0.00     0.000 C 
BRANCH   3   4
ATOM      4  C   UNL     1      14.915   4.797   9.057  1.00  0.00     0.000 C 
BRANCH   4   5
ATOM      5  C   UNL     1      13.546   4.810   8.357  1.00  0.00     0.000 C 
BRANCH   5   6
ATOM      6  C   UNL     1      12.858   6.183   8.420  1.00  0.00     0.000 C 
BRANCH   6   7
ATOM      7  C   UNL     1      11.336   6.036   8.583  1.00  0.00     0.000 C 
BRANCH   7   8
ATOM      8  C   UNL     1      10.604   7.388   8.531  1.00  0.00     0.000 C 
BRANCH   8   9
ATOM      9  C   UNL     1       9.342   7.340   7.652  1.00  0.00     0.000 C 
BRANCH   9  10
ATOM     10  C   UNL     1       9.630   7.621   6.165  1.00  0.00     0.006 C 
BRANCH  10  11
ATOM     11  C   UNL     1      10.612   8.781   5.926  1.00  0.00     0.053 C 
BRANCH  11  12
ATOM     12  C   UNL     1      11.817   8.372   5.138  1.00  0.00     0.041 C 
ATOM     13  O   UNL     1      12.505   9.237   4.530  1.00  0.00    -0.550 OA
ATOM     14  O   UNL     1      12.172   7.031   5.054  1.00  0.00    -0.550 OA
ENDBRANCH  11  12
ENDBRANCH  10  11
ENDBRANCH   9  10
ENDBRANCH   8   9
ENDBRANCH   7   8
ENDBRANCH   6   7
ENDBRANCH   5   6
ENDBRANCH   4   5
ENDBRANCH   3   4
ENDBRANCH   2   3
ENDBRANCH   1   2
BRANCH   1  15
ATOM     15  C   UNL     1      13.741   7.283  12.606  1.00  0.00     0.000 C 
BRANCH  15  16
ATOM     16  C   UNL     1      12.687   6.265  12.136  1.00  0.00     0.000 C 
BRANCH  16  17
ATOM     17  C   UNL     1      11.257   6.826  12.187  1.00  0.00     0.000 C 
BRANCH  17  18
ATOM     18  C   UNL     1      11.198   8.247  12.771  1.00  0.00    -0.000 C 
BRANCH  18  19
ATOM     19  C   UNL     1       9.761   8.769  12.933  1.00  0.00    -0.000 C 
BRANCH  19  20
ATOM     20  C   UNL     1       9.499  10.102  12.199  1.00  0.00    -0.000 C 
BRANCH  20  21
ATOM     21  C   UNL     1       8.987   9.883  10.765  1.00  0.00    -0.000 C 
BRANCH  21  22
ATOM     22  C   UNL     1       8.908  11.200   9.962  1.00  0.00    -0.000 C 
BRANCH  22  23
ATOM     23  C   UNL     1       9.214  11.028   8.465  1.00  0.00    -0.000 C 
BRANCH  23  24
ATOM     24  C   UNL     1       8.097  11.566   7.562  1.00  0.00    -0.000 C 
BRANCH  24  25
ATOM     25  C   UNL     1       6.725  11.064   8.024  1.00  0.00    -0.003 C 
ATOM     26  C   UNL     1       6.466   9.642   7.535  1.00  0.00     0.004 C 
ENDBRANCH  24  25
ENDBRANCH  23  24
ENDBRANCH  22  23
ENDBRANCH  21  22
ENDBRANCH  20  21
ENDBRANCH  19  20
ENDBRANCH  18  19
ENDBRANCH  17  18
ENDBRANCH  16  17
ENDBRANCH  15  16
ENDBRANCH   1  15
TORSDOF 22
ENDMDL
MODEL 6
REMARK VINA RESULT:    -2.988      3.535      7.456
REMARK INTER + INTRA:         -10.971
REMARK INTER:                  -7.576
REMARK INTRA:                  -3.396
REMARK UNBOUND:                -4.139
REMARK SMILES CCCCCCCCCCCCCCCCCCCCCCCC(=O)[O-]
REMARK SMILES IDX 13 1 14 2 15 3 16 4 17 5 18 6 19 7 20 8 21 9 22 10 23 11
REMARK SMILES IDX 24 12 25 13 26 14 12 15 11 16 10 17 9 18 8 19 7 20 6 21 5 22
REMARK SMILES IDX 4 23 3 24 2 25 1 26
REMARK H PARENT
REMARK Flexibility Score: inf
ROOT
ATOM      1  C   UNL     1      15.742   5.925  11.132  1.00  0.00     0.000 C 
ENDROOT
BRANCH   1   2
ATOM      2  C   UNL     1      15.098   7.304  10.891  1.00  0.00     0.000 C 
BRANCH   2   3
ATOM      3  C   UNL     1      14.002   7.649  11.921  1.00  0.00     0.000 C 
BRANCH   3   4
ATOM      4  C   UNL     1      12.929   6.556  12.090  1.00  0.00     0.000 C 
BRANCH   4   5
ATOM      5  C   UNL     1      11.478   7.025  11.894  1.00  0.00     0.000 C 
BRANCH   5   6
ATOM      6  C   UNL     1      10.989   7.940  13.028  1.00  0.00     0.000 C 
BRANCH   6   7
ATOM      7  C   UNL     1      10.449   9.270  12.478  1.00  0.00     0.000 C 
BRANCH   7   8
ATOM      8  C   UNL     1       9.513   9.074  11.273  1.00  0.00     0.000 C 
BRANCH   8   9
ATOM      9  C   UNL     1       8.402  10.137  11.212  1.00  0.00     0.000 C 
BRANCH   9  10
ATOM     10  C   UNL     1       8.826  11.411  10.455  1.00  0.00     0.006 C 
BRANCH  10  11
ATOM     11  C   UNL     1       7.660  12.159   9.786  1.00  0.00     0.053 C 
BRANCH  11  12
ATOM     12  C   UNL     1       7.742  12.151   8.292  1.00  0.00     0.041 C 
ATOM     13  O   UNL     1       6.897  11.508   7.611  1.00  0.00    -0.550 OA
ATOM     14  O   UNL     1       8.765  12.834   7.647  1.00  0.00    -0.550 OA
ENDBRANCH  11  12
ENDBRANCH  10  11
ENDBRANCH   9  10
ENDBRANCH   8   9
ENDBRANCH   7   8
ENDBRANCH   6   7
ENDBRANCH   5   6
ENDBRANCH   4   5
ENDBRANCH   3   4
ENDBRANCH   2   3
ENDBRANCH   1   2
BRANCH   1  15
ATOM     15  C   UNL     1      16.020   5.165   9.824  1.00  0.00     0.000 C 
BRANCH  15  16
ATOM     16  C   UNL     1      15.753   6.017   8.571  1.00  0.00     0.000 C 
BRANCH  16  17
ATOM     17  C   UNL     1      14.602   5.467   7.713  1.00  0.00     0.000 C 
BRANCH  17  18
ATOM     18  C   UNL     1      13.713   4.475   8.482  1.00  0.00    -0.000 C 
BRANCH  18  19
ATOM     19  C   UNL     1      12.339   5.059   8.847  1.00  0.00    -0.000 C 
BRANCH  19  20
ATOM     20  C   UNL     1      12.065   6.440   8.214  1.00  0.00    -0.000 C 
BRANCH  20  21
ATOM     21  C   UNL     1      10.761   6.457   7.399  1.00  0.00    -0.000 C 
BRANCH  21  22
ATOM     22  C   UNL     1       9.563   6.984   8.218  1.00  0.00    -0.000 C 
BRANCH  22  23
ATOM     23  C   UNL     1       8.848   8.179   7.565  1.00  0.00    -0.000 C 
BRANCH  23  24
ATOM     24  C   UNL     1       9.770   9.389   7.362  1.00  0.00    -0.000 C 
BRANCH  24  25
ATOM     25  C   UNL     1       9.714   9.886   5.913  1.00  0.00    -0.003 C 
ATOM     26  C   UNL     1       9.018   8.873   5.009  1.00  0.00     0.004 C 
ENDBRANCH  24  25
ENDBRANCH  23  24
ENDBRANCH  22  23
ENDBRANCH  21  22
ENDBRANCH  20  21
ENDBRANCH  19  20
ENDBRANCH  18  19
ENDBRANCH  17  18
ENDBRANCH  16  17
ENDBRANCH  15  16
ENDBRANCH   1  15
TORSDOF 22
ENDMDL
MODEL 7
REMARK VINA RESULT:    -2.979      1.892      2.893
REMARK INTER + INTRA:         -10.949
REMARK INTER:                  -6.757
REMARK INTRA:                  -4.193
REMARK UNBOUND:                -4.139
REMARK SMILES CCCCCCCCCCCCCCCCCCCCCCCC(=O)[O-]
REMARK SMILES IDX 13 1 14 2 15 3 16 4 17 5 18 6 19 7 20 8 21 9 22 10 23 11
REMARK SMILES IDX 24 12 25 13 26 14 12 15 11 16 10 17 9 18 8 19 7 20 6 21 5 22
REMARK SMILES IDX 4 23 3 24 2 25 1 26
REMARK H PARENT
REMARK Flexibility Score: inf
ROOT
ATOM      1  C   UNL     1       4.531  10.671   7.685  1.00  0.00     0.000 C 
ENDROOT
BRANCH   1   2
ATOM      2  C   UNL     1       3.994  11.962   8.333  1.00  0.00     0.000 C 
BRANCH   2   3
ATOM      3  C   UNL     1       4.212  13.214   7.459  1.00  0.00     0.000 C 
BRANCH   3   4
ATOM      4  C   UNL     1       5.566  13.915   7.686  1.00  0.00     0.000 C 
BRANCH   4   5
ATOM      5  C   UNL     1       5.681  14.713   8.995  1.00  0.00     0.000 C 
BRANCH   5   6
ATOM      6  C   UNL     1       6.579  14.025  10.035  1.00  0.00     0.000 C 
BRANCH   6   7
ATOM      7  C   UNL     1       5.766  13.560  11.254  1.00  0.00     0.000 C 
BRANCH   7   8
ATOM      8  C   UNL     1       5.878  12.045  11.496  1.00  0.00     0.000 C 
BRANCH   8   9
ATOM      9  C   UNL     1       7.332  11.545  11.439  1.00  0.00     0.000 C 
BRANCH   9  10
ATOM     10  C   UNL     1       8.133  11.872  12.713  1.00  0.00     0.006 C 
BRANCH  10  11
ATOM     11  C   UNL     1       9.193  12.971  12.521  1.00  0.00     0.053 C 
BRANCH  11  12
ATOM     12  C   UNL     1       8.921  14.194  13.342  1.00  0.00     0.041 C 
ATOM     13  O   UNL     1       8.556  15.265  12.787  1.00  0.00    -0.550 OA
ATOM     14  O   UNL     1       9.093  14.159  14.720  1.00  0.00    -0.550 OA
ENDBRANCH  11  12
ENDBRANCH  10  11
ENDBRANCH   9  10
ENDBRANCH   8   9
ENDBRANCH   7   8
ENDBRANCH   6   7
ENDBRANCH   5   6
ENDBRANCH   4   5
ENDBRANCH   3   4
ENDBRANCH   2   3
ENDBRANCH   1   2
BRANCH   1  15
ATOM     15  C   UNL     1       5.841  10.187   8.328  1.00  0.00     0.000 C 
BRANCH  15  16
ATOM     16  C   UNL     1       7.035  10.238   7.359  1.00  0.00     0.000 C 
BRANCH  16  17
ATOM     17  C   UNL     1       8.070  11.306   7.749  1.00  0.00     0.000 C 
BRANCH  17  18
ATOM     18  C   UNL     1       9.430  11.092   7.063  1.00  0.00    -0.000 C 
BRANCH  18  19
ATOM     19  C   UNL     1       9.389  10.001   5.980  1.00  0.00    -0.000 C 
BRANCH  19  20
ATOM     20  C   UNL     1      10.546   8.985   6.081  1.00  0.00    -0.000 C 
BRANCH  20  21
ATOM     21  C   UNL     1      10.100   7.658   6.717  1.00  0.00    -0.000 C 
BRANCH  21  22
ATOM     22  C   UNL     1      10.393   7.606   8.232  1.00  0.00    -0.000 C 
BRANCH  22  23
ATOM     23  C   UNL     1       9.132   7.704   9.107  1.00  0.00    -0.000 C 
BRANCH  23  24
ATOM     24  C   UNL     1       9.244   8.778  10.198  1.00  0.00    -0.000 C 
BRANCH  24  25
ATOM     25  C   UNL     1       9.472   8.143  11.574  1.00  0.00    -0.003 C 
ATOM     26  C   UNL     1      10.472   8.951  12.394  1.00  0.00     0.004 C 
ENDBRANCH  24  25
ENDBRANCH  23  24
ENDBRANCH  22  23
ENDBRANCH  21  22
ENDBRANCH  20  21
ENDBRANCH  19  20
ENDBRANCH  18  19
ENDBRANCH  17  18
ENDBRANCH  16  17
ENDBRANCH  15  16
ENDBRANCH   1  15
TORSDOF 22
ENDMDL
MODEL 8
REMARK VINA RESULT:    -2.966      2.976      4.958
REMARK INTER + INTRA:         -10.919
REMARK INTER:                  -6.730
REMARK INTRA:                  -4.189
REMARK UNBOUND:                -4.139
REMARK SMILES CCCCCCCCCCCCCCCCCCCCCCCC(=O)[O-]
REMARK SMILES IDX 13 1 14 2 15 3 16 4 17 5 18 6 19 7 20 8 21 9 22 10 23 11
REMARK SMILES IDX 24 12 25 13 26 14 12 15 11 16 10 17 9 18 8 19 7 20 6 21 5 22
REMARK SMILES IDX 4 23 3 24 2 25 1 26
REMARK H PARENT
REMARK Flexibility Score: inf
ROOT
ATOM      1  C   UNL     1       8.013  10.120   9.572  1.00  0.00     0.000 C 
ENDROOT
BRANCH   1   2
ATOM      2  C   UNL     1       7.788  11.019  10.802  1.00  0.00     0.000 C 
BRANCH   2   3
ATOM      3  C   UNL     1       8.007  12.517  10.506  1.00  0.00     0.000 C 
BRANCH   3   4
ATOM      4  C   UNL     1       6.778  13.228   9.908  1.00  0.00     0.000 C 
BRANCH   4   5
ATOM      5  C   UNL     1       7.004  13.892   8.540  1.00  0.00     0.000 C 
BRANCH   5   6
ATOM      6  C   UNL     1       6.100  13.312   7.440  1.00  0.00     0.000 C 
BRANCH   6   7
ATOM      7  C   UNL     1       4.616  13.420   7.823  1.00  0.00     0.000 C 
BRANCH   7   8
ATOM      8  C   UNL     1       3.905  12.056   7.822  1.00  0.00     0.000 C 
BRANCH   8   9
ATOM      9  C   UNL     1       4.883  10.883   7.631  1.00  0.00     0.000 C 
BRANCH   9  10
ATOM     10  C   UNL     1       4.382   9.570   8.264  1.00  0.00     0.006 C 
BRANCH  10  11
ATOM     11  C   UNL     1       3.678   8.627   7.274  1.00  0.00     0.053 C 
BRANCH  11  12
ATOM     12  C   UNL     1       2.191   8.804   7.255  1.00  0.00     0.041 C 
ATOM     13  O   UNL     1       1.601   9.337   8.232  1.00  0.00    -0.550 OA
ATOM     14  O   UNL     1       1.452   8.359   6.166  1.00  0.00    -0.550 OA
ENDBRANCH  11  12
ENDBRANCH  10  11
ENDBRANCH   9  10
ENDBRANCH   8   9
ENDBRANCH   7   8
ENDBRANCH   6   7
ENDBRANCH   5   6
ENDBRANCH   4   5
ENDBRANCH   3   4
ENDBRANCH   2   3
ENDBRANCH   1   2
BRANCH   1  15
ATOM     15  C   UNL     1       9.057  10.696   8.599  1.00  0.00     0.000 C 
BRANCH  15  16
ATOM     16  C   UNL     1       8.568  10.710   7.140  1.00  0.00     0.000 C 
BRANCH  16  17
ATOM     17  C   UNL     1       9.722  10.623   6.128  1.00  0.00     0.000 C 
BRANCH  17  18
ATOM     18  C   UNL     1       9.896   9.208   5.550  1.00  0.00    -0.000 C 
BRANCH  18  19
ATOM     19  C   UNL     1      10.967   8.388   6.287  1.00  0.00    -0.000 C 
BRANCH  19  20
ATOM     20  C   UNL     1      10.521   6.950   6.628  1.00  0.00    -0.000 C 
BRANCH  20  21
ATOM     21  C   UNL     1       9.718   6.886   7.938  1.00  0.00    -0.000 C 
BRANCH  21  22
ATOM     22  C   UNL     1       8.335   6.227   7.748  1.00  0.00    -0.000 C 
BRANCH  22  23
ATOM     23  C   UNL     1       7.197   7.237   7.526  1.00  0.00    -0.000 C 
BRANCH  23  24
ATOM     24  C   UNL     1       6.908   7.495   6.041  1.00  0.00    -0.000 C 
BRANCH  24  25
ATOM     25  C   UNL     1       6.703   6.179   5.283  1.00  0.00    -0.003 C 
ATOM     26  C   UNL     1       6.173   6.431   3.875  1.00  0.00     0.004 C 
ENDBRANCH  24  25
ENDBRANCH  23  24
ENDBRANCH  22  23
ENDBRANCH  21  22
ENDBRANCH  20  21
ENDBRANCH  19  20
ENDBRANCH  18  19
ENDBRANCH  17  18
ENDBRANCH  16  17
ENDBRANCH  15  16
ENDBRANCH   1  15
TORSDOF 22
ENDMDL
MODEL 9
REMARK VINA RESULT:    -2.924      1.744      4.607
REMARK INTER + INTRA:         -10.823
REMARK INTER:                  -6.089
REMARK INTRA:                  -4.734
REMARK UNBOUND:                -4.139
REMARK SMILES CCCCCCCCCCCCCCCCCCCCCCCC(=O)[O-]
REMARK SMILES IDX 13 1 14 2 15 3 16 4 17 5 18 6 19 7 20 8 21 9 22 10 23 11
REMARK SMILES IDX 24 12 25 13 26 14 12 15 11 16 10 17 9 18 8 19 7 20 6 21 5 22
REMARK SMILES IDX 4 23 3 24 2 25 1 26
REMARK H PARENT
REMARK Flexibility Score: inf
ROOT
ATOM      1  C   UNL     1       9.138  10.836   7.998  1.00  0.00     0.000 C 
ENDROOT
BRANCH   1   2
ATOM      2  C   UNL     1       8.650  10.249   9.336  1.00  0.00     0.000 C 
BRANCH   2   3
ATOM      3  C   UNL     1       8.718   8.709   9.384  1.00  0.00     0.000 C 
BRANCH   3   4
ATOM      4  C   UNL     1       7.359   8.024   9.622  1.00  0.00     0.000 C 
BRANCH   4   5
ATOM      5  C   UNL     1       6.131   8.943   9.512  1.00  0.00     0.000 C 
BRANCH   5   6
ATOM      6  C   UNL     1       5.328   8.712   8.222  1.00  0.00     0.000 C 
BRANCH   6   7
ATOM      7  C   UNL     1       4.852  10.042   7.616  1.00  0.00     0.000 C 
BRANCH   7   8
ATOM      8  C   UNL     1       4.396  11.049   8.685  1.00  0.00     0.000 C 
BRANCH   8   9
ATOM      9  C   UNL     1       4.605  12.509   8.246  1.00  0.00     0.000 C 
BRANCH   9  10
ATOM     10  C   UNL     1       5.982  12.755   7.601  1.00  0.00     0.006 C 
BRANCH  10  11
ATOM     11  C   UNL     1       6.837  13.806   8.330  1.00  0.00     0.053 C 
BRANCH  11  12
ATOM     12  C   UNL     1       6.529  13.898   9.791  1.00  0.00     0.041 C 
ATOM     13  O   UNL     1       6.989  13.042  10.595  1.00  0.00    -0.550 OA
ATOM     14  O   UNL     1       5.713  14.917  10.268  1.00  0.00    -0.550 OA
ENDBRANCH  11  12
ENDBRANCH  10  11
ENDBRANCH   9  10
ENDBRANCH   8   9
ENDBRANCH   7   8
ENDBRANCH   6   7
ENDBRANCH   5   6
ENDBRANCH   4   5
ENDBRANCH   3   4
ENDBRANCH   2   3
ENDBRANCH   1   2
BRANCH   1  15
ATOM     15  C   UNL     1       8.417  10.225   6.785  1.00  0.00     0.000 C 
BRANCH  15  16
ATOM     16  C   UNL     1       9.384   9.816   5.660  1.00  0.00     0.000 C 
BRANCH  16  17
ATOM     17  C   UNL     1      10.712   9.254   6.194  1.00  0.00     0.000 C 
BRANCH  17  18
ATOM     18  C   UNL     1      11.450   8.392   5.157  1.00  0.00    -0.000 C 
BRANCH  18  19
ATOM     19  C   UNL     1      11.394   6.890   5.479  1.00  0.00    -0.000 C 
BRANCH  19  20
ATOM     20  C   UNL     1      11.307   6.581   6.988  1.00  0.00    -0.000 C 
BRANCH  20  21
ATOM     21  C   UNL     1       9.973   5.917   7.370  1.00  0.00    -0.000 C 
BRANCH  21  22
ATOM     22  C   UNL     1       9.027   5.764   6.160  1.00  0.00    -0.000 C 
BRANCH  22  23
ATOM     23  C   UNL     1       7.706   6.537   6.309  1.00  0.00    -0.000 C 
BRANCH  23  24
ATOM     24  C   UNL     1       7.158   7.048   4.970  1.00  0.00    -0.000 C 
BRANCH  24  25
ATOM     25  C   UNL     1       8.089   6.668   3.813  1.00  0.00    -0.003 C 
ATOM     26  C   UNL     1       8.338   7.859   2.893  1.00  0.00     0.004 C 
ENDBRANCH  24  25
ENDBRANCH  23  24
ENDBRANCH  22  23
ENDBRANCH  21  22
ENDBRANCH  20  21
ENDBRANCH  19  20
ENDBRANCH  18  19
ENDBRANCH  17  18
ENDBRANCH  16  17
ENDBRANCH  15  16
ENDBRANCH   1  15
TORSDOF 22
ENDMDL
