MODEL 1
REMARK VINA RESULT:    -2.767      0.000      0.000
REMARK INTER + INTRA:          -3.324
REMARK INTER:                  -3.253
REMARK INTRA:                  -0.071
REMARK UNBOUND:                -0.071
REMARK SMILES O=C([O-])CCC(=O)[O-]
REMARK SMILES IDX 4 1 2 2 1 3 3 4 5 5 6 6 7 7 8 8
REMARK H PARENT
REMARK Flexibility Score: inf
ROOT
ATOM      1  C   UNL     1      57.680  -1.425  -5.594  1.00  0.00     0.059 C 
ENDROOT
BRANCH   1   2
ATOM      2  C   UNL     1      58.652  -2.565  -5.598  1.00  0.00     0.042 C 
ATOM      3  O   UNL     1      59.015  -3.091  -4.513  1.00  0.00    -0.550 OA
ATOM      4  O   UNL     1      59.125  -3.071  -6.801  1.00  0.00    -0.550 OA
ENDBRANCH   1   2
BRANCH   1   5
ATOM      5  C   UNL     1      57.654  -0.701  -6.944  1.00  0.00     0.059 C 
BRANCH   5   6
ATOM      6  C   UNL     1      57.975   0.755  -6.795  1.00  0.00     0.042 C 
ATOM      7  O   UNL     1      59.118   1.116  -6.406  1.00  0.00    -0.550 OA
ATOM      8  O   UNL     1      57.026   1.714  -7.125  1.00  0.00    -0.550 OA
ENDBRANCH   5   6
ENDBRANCH   1   5
TORSDOF 3
ENDMDL
MODEL 2
REMARK VINA RESULT:    -2.725      0.245      1.631
REMARK INTER + INTRA:          -3.274
REMARK INTER:                  -3.195
REMARK INTRA:                  -0.079
REMARK UNBOUND:                -0.071
REMARK SMILES O=C([O-])CCC(=O)[O-]
REMARK SMILES IDX 4 1 2 2 1 3 3 4 5 5 6 6 7 7 8 8
REMARK H PARENT
REMARK Flexibility Score: inf
ROOT
ATOM      1  C   UNL     1      57.608  -1.447  -5.432  1.00  0.00     0.059 C 
ENDROOT
BRANCH   1   2
ATOM      2  C   UNL     1      58.567  -2.597  -5.426  1.00  0.00     0.042 C 
ATOM      3  O   UNL     1      59.092  -2.990  -6.501  1.00  0.00    -0.550 OA
ATOM      4  O   UNL     1      58.910  -3.210  -4.228  1.00  0.00    -0.550 OA
ENDBRANCH   1   2
BRANCH   1   5
ATOM      5  C   UNL     1      57.570  -0.752  -6.797  1.00  0.00     0.059 C 
BRANCH   5   6
ATOM      6  C   UNL     1      57.895   0.706  -6.683  1.00  0.00     0.042 C 
ATOM      7  O   UNL     1      57.093   1.572  -7.125  1.00  0.00    -0.550 OA
ATOM      8  O   UNL     1      59.064   1.110  -6.052  1.00  0.00    -0.550 OA
ENDBRANCH   5   6
ENDBRANCH   1   5
TORSDOF 3
ENDMDL
MODEL 3
REMARK VINA RESULT:    -2.598      0.302      3.953
REMARK INTER + INTRA:          -3.125
REMARK INTER:                  -3.028
REMARK INTRA:                  -0.097
REMARK UNBOUND:                -0.071
REMARK SMILES O=C([O-])CCC(=O)[O-]
REMARK SMILES IDX 4 1 2 2 1 3 3 4 5 5 6 6 7 7 8 8
REMARK H PARENT
REMARK Flexibility Score: inf
ROOT
ATOM      1  C   UNL     1      57.256  -0.625  -6.955  1.00  0.00     0.059 C 
ENDROOT
BRANCH   1   2
ATOM      2  C   UNL     1      57.887   0.732  -6.889  1.00  0.00     0.042 C 
ATOM      3  O   UNL     1      59.120   0.847  -6.655  1.00  0.00    -0.550 OA
ATOM      4  O   UNL     1      57.123   1.867  -7.125  1.00  0.00    -0.550 OA
ENDBRANCH   1   2
BRANCH   1   5
ATOM      5  C   UNL     1      57.378  -1.368  -5.621  1.00  0.00     0.059 C 
BRANCH   5   6
ATOM      6  C   UNL     1      58.483  -2.381  -5.653  1.00  0.00     0.042 C 
ATOM      7  O   UNL     1      59.077  -2.637  -6.734  1.00  0.00    -0.550 OA
ATOM      8  O   UNL     1      58.883  -3.011  -4.482  1.00  0.00    -0.550 OA
ENDBRANCH   5   6
ENDBRANCH   1   5
TORSDOF 3
ENDMDL
MODEL 4
REMARK VINA RESULT:    -1.794     27.020     27.734
REMARK INTER + INTRA:          -2.180
REMARK INTER:                  -2.153
REMARK INTRA:                  -0.027
REMARK UNBOUND:                -0.071
REMARK SMILES O=C([O-])CCC(=O)[O-]
REMARK SMILES IDX 4 1 2 2 1 3 3 4 5 5 6 6 7 7 8 8
REMARK H PARENT
REMARK Flexibility Score: inf
ROOT
ATOM      1  C   UNL     1      39.999   7.353  11.987  1.00  0.00     0.059 C 
ENDROOT
BRANCH   1   2
ATOM      2  C   UNL     1      40.550   6.206  12.778  1.00  0.00     0.042 C 
ATOM      3  O   UNL     1      39.804   5.243  13.099  1.00  0.00    -0.550 OA
ATOM      4  O   UNL     1      41.894   6.182  13.125  1.00  0.00    -0.550 OA
ENDBRANCH   1   2
BRANCH   1   5
ATOM      5  C   UNL     1      39.218   8.326  12.875  1.00  0.00     0.059 C 
BRANCH   5   6
ATOM      6  C   UNL     1      39.296   9.730  12.356  1.00  0.00     0.042 C 
ATOM      7  O   UNL     1      39.624  10.673  13.124  1.00  0.00    -0.550 OA
ATOM      8  O   UNL     1      39.048   9.990  11.014  1.00  0.00    -0.550 OA
ENDBRANCH   5   6
ENDBRANCH   1   5
TORSDOF 3
ENDMDL
MODEL 5
REMARK VINA RESULT:    -1.719      6.225      8.050
REMARK INTER + INTRA:          -2.092
REMARK INTER:                  -2.057
REMARK INTRA:                  -0.035
REMARK UNBOUND:                -0.071
REMARK SMILES O=C([O-])CCC(=O)[O-]
REMARK SMILES IDX 4 1 2 2 1 3 3 4 5 5 6 6 7 7 8 8
REMARK H PARENT
REMARK Flexibility Score: inf
ROOT
ATOM      1  C   UNL     1      58.721  -5.432   0.006  1.00  0.00     0.059 C 
ENDROOT
BRANCH   1   2
ATOM      2  C   UNL     1      57.883  -5.989   1.115  1.00  0.00     0.042 C 
ATOM      3  O   UNL     1      56.653  -5.724   1.174  1.00  0.00    -0.550 OA
ATOM      4  O   UNL     1      58.451  -6.832   2.060  1.00  0.00    -0.550 OA
ENDBRANCH   1   2
BRANCH   1   5
ATOM      5  C   UNL     1      59.125  -6.518  -0.996  1.00  0.00     0.059 C 
BRANCH   5   6
ATOM      6  C   UNL     1      59.086  -6.010  -2.406  1.00  0.00     0.042 C 
ATOM      7  O   UNL     1      58.996  -6.817  -3.369  1.00  0.00    -0.550 OA
ATOM      8  O   UNL     1      59.106  -4.644  -2.653  1.00  0.00    -0.550 OA
ENDBRANCH   5   6
ENDBRANCH   1   5
TORSDOF 3
ENDMDL
