MODEL 1
REMARK VINA RESULT:    -4.008      0.000      0.000
REMARK INTER + INTRA:          -5.167
REMARK INTER:                  -4.945
REMARK INTRA:                  -0.223
REMARK UNBOUND:                -0.223
REMARK SMILES CCOC(=O)c1ccc(O)c(O)c1
REMARK SMILES IDX 4 1 5 2 3 3 2 4 1 5 6 6 13 7 7 8 11 9 8 10 9 11 12 12 10 14
REMARK H PARENT 12 13 10 15
REMARK Flexibility Score: inf
ROOT
ATOM      1  C   UNL     1     146.337 158.751 161.670  1.00  0.00     0.338 C 
ATOM      2  O   UNL     1     145.785 158.030 160.793  1.00  0.00    -0.246 OA
ENDROOT
BRANCH   1   3
ATOM      3  O   UNL     1     146.100 158.506 163.026  1.00  0.00    -0.462 OA
BRANCH   3   4
ATOM      4  C   UNL     1     145.216 159.301 163.810  1.00  0.00     0.230 C 
ATOM      5  C   UNL     1     146.005 160.029 164.885  1.00  0.00     0.049 C 
ENDBRANCH   3   4
ENDBRANCH   1   3
BRANCH   1   6
ATOM      6  C   UNL     1     147.237 159.854 161.266  1.00  0.00     0.064 A 
ATOM      7  C   UNL     1     146.775 161.182 161.230  1.00  0.00     0.065 A 
ATOM      8  C   UNL     1     148.571 159.588 160.913  1.00  0.00     0.020 A 
ATOM      9  C   UNL     1     147.631 162.226 160.848  1.00  0.00     0.158 A 
ATOM     10  C   UNL     1     149.424 160.626 160.531  1.00  0.00     0.051 A 
ATOM     11  C   UNL     1     148.961 161.945 160.497  1.00  0.00     0.157 A 
BRANCH   9  12
ATOM     12  O   UNL     1     147.163 163.539 160.815  1.00  0.00    -0.504 OA
ATOM     13  H   UNL     1     147.765 164.311 160.551  1.00  0.00     0.293 HD
ENDBRANCH   9  12
BRANCH  11  14
ATOM     14  O   UNL     1     149.836 162.960 160.113  1.00  0.00    -0.504 OA
ATOM     15  H   UNL     1     149.561 163.935 160.109  1.00  0.00     0.293 HD
ENDBRANCH  11  14
ENDBRANCH   1   6
TORSDOF 5
ENDMDL
MODEL 2
REMARK VINA RESULT:    -3.449     13.720     15.217
REMARK INTER + INTRA:          -4.478
REMARK INTER:                  -4.246
REMARK INTRA:                  -0.232
REMARK UNBOUND:                -0.223
REMARK SMILES CCOC(=O)c1ccc(O)c(O)c1
REMARK SMILES IDX 4 1 5 2 3 3 2 4 1 5 6 6 13 7 7 8 11 9 8 10 9 11 12 12 10 14
REMARK H PARENT 12 13 10 15
REMARK Flexibility Score: inf
ROOT
ATOM      1  C   UNL     1     162.393 163.369 162.000  1.00  0.00     0.338 C 
ATOM      2  O   UNL     1     163.443 162.689 161.835  1.00  0.00    -0.246 OA
ENDROOT
BRANCH   1   3
ATOM      3  O   UNL     1     161.876 164.124 160.942  1.00  0.00    -0.462 OA
BRANCH   3   4
ATOM      4  C   UNL     1     161.427 163.537 159.724  1.00  0.00     0.230 C 
ATOM      5  C   UNL     1     160.075 164.120 159.348  1.00  0.00     0.049 C 
ENDBRANCH   3   4
ENDBRANCH   1   3
BRANCH   1   6
ATOM      6  C   UNL     1     161.706 163.371 163.310  1.00  0.00     0.064 A 
ATOM      7  C   UNL     1     162.214 162.624 164.389  1.00  0.00     0.065 A 
ATOM      8  C   UNL     1     160.532 164.121 163.494  1.00  0.00     0.020 A 
ATOM      9  C   UNL     1     161.560 162.628 165.630  1.00  0.00     0.158 A 
ATOM     10  C   UNL     1     159.880 164.125 164.730  1.00  0.00     0.051 A 
ATOM     11  C   UNL     1     160.388 163.382 165.800  1.00  0.00     0.157 A 
BRANCH   9  12
ATOM     12  O   UNL     1     162.072 161.885 166.693  1.00  0.00    -0.504 OA
ATOM     13  H   UNL     1     162.401 162.330 167.543  1.00  0.00     0.293 HD
ENDBRANCH   9  12
BRANCH  11  14
ATOM     14  O   UNL     1     159.716 163.406 167.021  1.00  0.00    -0.504 OA
ATOM     15  H   UNL     1     159.951 162.775 167.778  1.00  0.00     0.293 HD
ENDBRANCH  11  14
ENDBRANCH   1   6
TORSDOF 5
ENDMDL
MODEL 3
REMARK VINA RESULT:    -3.351     20.185     21.426
REMARK INTER + INTRA:          -4.357
REMARK INTER:                  -4.198
REMARK INTRA:                  -0.159
REMARK UNBOUND:                -0.223
REMARK SMILES CCOC(=O)c1ccc(O)c(O)c1
REMARK SMILES IDX 4 1 5 2 3 3 2 4 1 5 6 6 13 7 7 8 11 9 8 10 9 11 12 12 10 14
REMARK H PARENT 12 13 10 15
REMARK Flexibility Score: inf
ROOT
ATOM      1  C   UNL     1     158.243 145.373 169.179  1.00  0.00     0.338 C 
ATOM      2  O   UNL     1     157.089 144.956 169.476  1.00  0.00    -0.246 OA
ENDROOT
BRANCH   1   3
ATOM      3  O   UNL     1     158.586 145.587 167.840  1.00  0.00    -0.462 OA
BRANCH   3   4
ATOM      4  C   UNL     1     159.909 145.408 167.346  1.00  0.00     0.230 C 
ATOM      5  C   UNL     1     159.858 144.699 166.003  1.00  0.00     0.049 C 
ENDBRANCH   3   4
ENDBRANCH   1   3
BRANCH   1   6
ATOM      6  C   UNL     1     159.234 145.638 170.245  1.00  0.00     0.064 A 
ATOM      7  C   UNL     1     159.457 146.947 170.711  1.00  0.00     0.065 A 
ATOM      8  C   UNL     1     159.969 144.581 170.808  1.00  0.00     0.020 A 
ATOM      9  C   UNL     1     160.397 147.194 171.722  1.00  0.00     0.158 A 
ATOM     10  C   UNL     1     160.907 144.827 171.814  1.00  0.00     0.051 A 
ATOM     11  C   UNL     1     161.125 146.128 172.275  1.00  0.00     0.157 A 
BRANCH   9  12
ATOM     12  O   UNL     1     160.611 148.495 172.177  1.00  0.00    -0.504 OA
ATOM     13  H   UNL     1     159.854 149.060 172.545  1.00  0.00     0.293 HD
ENDBRANCH   9  12
BRANCH  11  14
ATOM     14  O   UNL     1     162.066 146.342 173.281  1.00  0.00    -0.504 OA
ATOM     15  H   UNL     1     162.752 145.641 173.534  1.00  0.00     0.293 HD
ENDBRANCH  11  14
ENDBRANCH   1   6
TORSDOF 5
ENDMDL
MODEL 4
REMARK VINA RESULT:    -3.096      1.512      2.465
REMARK INTER + INTRA:          -4.043
REMARK INTER:                  -3.758
REMARK INTRA:                  -0.285
REMARK UNBOUND:                -0.223
REMARK SMILES CCOC(=O)c1ccc(O)c(O)c1
REMARK SMILES IDX 4 1 5 2 3 3 2 4 1 5 6 6 13 7 7 8 11 9 8 10 9 11 12 12 10 14
REMARK H PARENT 12 13 10 15
REMARK Flexibility Score: inf
ROOT
ATOM      1  C   UNL     1     146.199 158.424 161.548  1.00  0.00     0.338 C 
ATOM      2  O   UNL     1     145.570 157.870 160.604  1.00  0.00    -0.246 OA
ENDROOT
BRANCH   1   3
ATOM      3  O   UNL     1     146.009 157.989 162.864  1.00  0.00    -0.462 OA
BRANCH   3   4
ATOM      4  C   UNL     1     146.209 156.637 163.265  1.00  0.00     0.230 C 
ATOM      5  C   UNL     1     147.647 156.231 162.985  1.00  0.00     0.049 C 
ENDBRANCH   3   4
ENDBRANCH   1   3
BRANCH   1   6
ATOM      6  C   UNL     1     147.139 159.531 161.267  1.00  0.00     0.064 A 
ATOM      7  C   UNL     1     148.491 159.271 160.977  1.00  0.00     0.065 A 
ATOM      8  C   UNL     1     146.691 160.863 161.286  1.00  0.00     0.020 A 
ATOM      9  C   UNL     1     149.379 160.323 160.710  1.00  0.00     0.158 A 
ATOM     10  C   UNL     1     147.575 161.912 161.020  1.00  0.00     0.051 A 
ATOM     11  C   UNL     1     148.918 161.649 160.732  1.00  0.00     0.157 A 
BRANCH   9  12
ATOM     12  O   UNL     1     150.717 160.055 160.423  1.00  0.00    -0.504 OA
ATOM     13  H   UNL     1     150.985 159.325 159.772  1.00  0.00     0.293 HD
ENDBRANCH   9  12
BRANCH  11  14
ATOM     14  O   UNL     1     149.776 162.717 160.471  1.00  0.00    -0.504 OA
ATOM     15  H   UNL     1     150.782 162.600 160.425  1.00  0.00     0.293 HD
ENDBRANCH  11  14
ENDBRANCH   1   6
TORSDOF 5
ENDMDL
MODEL 5
REMARK VINA RESULT:    -3.090     20.961     22.311
REMARK INTER + INTRA:          -4.035
REMARK INTER:                  -3.889
REMARK INTRA:                  -0.146
REMARK UNBOUND:                -0.223
REMARK SMILES CCOC(=O)c1ccc(O)c(O)c1
REMARK SMILES IDX 4 1 5 2 3 3 2 4 1 5 6 6 13 7 7 8 11 9 8 10 9 11 12 12 10 14
REMARK H PARENT 12 13 10 15
REMARK Flexibility Score: inf
ROOT
ATOM      1  C   UNL     1     159.106 145.367 169.567  1.00  0.00     0.338 C 
ATOM      2  O   UNL     1     157.920 144.934 169.581  1.00  0.00    -0.246 OA
ENDROOT
BRANCH   1   3
ATOM      3  O   UNL     1     159.703 145.726 168.354  1.00  0.00    -0.462 OA
BRANCH   3   4
ATOM      4  C   UNL     1     159.122 145.425 167.089  1.00  0.00     0.230 C 
ATOM      5  C   UNL     1     160.202 144.939 166.137  1.00  0.00     0.049 C 
ENDBRANCH   3   4
ENDBRANCH   1   3
BRANCH   1   6
ATOM      6  C   UNL     1     159.865 145.497 170.830  1.00  0.00     0.064 A 
ATOM      7  C   UNL     1     159.486 144.773 171.974  1.00  0.00     0.065 A 
ATOM      8  C   UNL     1     160.980 146.349 170.902  1.00  0.00     0.020 A 
ATOM      9  C   UNL     1     160.209 144.898 173.170  1.00  0.00     0.158 A 
ATOM     10  C   UNL     1     161.700 146.475 172.092  1.00  0.00     0.051 A 
ATOM     11  C   UNL     1     161.321 145.753 173.227  1.00  0.00     0.157 A 
BRANCH   9  12
ATOM     12  O   UNL     1     159.826 144.175 174.299  1.00  0.00    -0.504 OA
ATOM     13  H   UNL     1     159.029 143.548 174.283  1.00  0.00     0.293 HD
ENDBRANCH   9  12
BRANCH  11  14
ATOM     14  O   UNL     1     162.060 145.899 174.401  1.00  0.00    -0.504 OA
ATOM     15  H   UNL     1     161.617 146.031 175.303  1.00  0.00     0.293 HD
ENDBRANCH  11  14
ENDBRANCH   1   6
TORSDOF 5
ENDMDL
MODEL 6
REMARK VINA RESULT:    -2.461     13.487     14.992
REMARK INTER + INTRA:          -3.259
REMARK INTER:                  -3.063
REMARK INTRA:                  -0.196
REMARK UNBOUND:                -0.223
REMARK SMILES CCOC(=O)c1ccc(O)c(O)c1
REMARK SMILES IDX 4 1 5 2 3 3 2 4 1 5 6 6 13 7 7 8 11 9 8 10 9 11 12 12 10 14
REMARK H PARENT 12 13 10 15
REMARK Flexibility Score: inf
ROOT
ATOM      1  C   UNL     1     161.708 163.118 165.472  1.00  0.00     0.338 C 
ATOM      2  O   UNL     1     162.227 163.985 166.229  1.00  0.00    -0.246 OA
ENDROOT
BRANCH   1   3
ATOM      3  O   UNL     1     161.032 162.024 166.022  1.00  0.00    -0.462 OA
BRANCH   3   4
ATOM      4  C   UNL     1     159.840 162.162 166.789  1.00  0.00     0.230 C 
ATOM      5  C   UNL     1     158.866 163.070 166.056  1.00  0.00     0.049 C 
ENDBRANCH   3   4
ENDBRANCH   1   3
BRANCH   1   6
ATOM      6  C   UNL     1     161.812 163.257 164.002  1.00  0.00     0.064 A 
ATOM      7  C   UNL     1     162.872 162.659 163.297  1.00  0.00     0.065 A 
ATOM      8  C   UNL     1     160.849 163.991 163.290  1.00  0.00     0.020 A 
ATOM      9  C   UNL     1     162.968 162.792 161.904  1.00  0.00     0.158 A 
ATOM     10  C   UNL     1     160.943 164.124 161.902  1.00  0.00     0.051 A 
ATOM     11  C   UNL     1     161.998 163.528 161.205  1.00  0.00     0.157 A 
BRANCH   9  12
ATOM     12  O   UNL     1     164.022 162.195 161.213  1.00  0.00    -0.504 OA
ATOM     13  H   UNL     1     163.966 161.239 160.881  1.00  0.00     0.293 HD
ENDBRANCH   9  12
BRANCH  11  14
ATOM     14  O   UNL     1     162.065 163.679 159.820  1.00  0.00    -0.504 OA
ATOM     15  H   UNL     1     162.836 164.155 159.367  1.00  0.00     0.293 HD
ENDBRANCH  11  14
ENDBRANCH   1   6
TORSDOF 5
ENDMDL
MODEL 7
REMARK VINA RESULT:    -2.379     22.650     23.972
REMARK INTER + INTRA:          -3.158
REMARK INTER:                  -2.941
REMARK INTRA:                  -0.218
REMARK UNBOUND:                -0.223
REMARK SMILES CCOC(=O)c1ccc(O)c(O)c1
REMARK SMILES IDX 4 1 5 2 3 3 2 4 1 5 6 6 13 7 7 8 11 9 8 10 9 11 12 12 10 14
REMARK H PARENT 12 13 10 15
REMARK Flexibility Score: inf
ROOT
ATOM      1  C   UNL     1     160.562 146.020 171.920  1.00  0.00     0.338 C 
ATOM      2  O   UNL     1     160.550 147.254 171.655  1.00  0.00    -0.246 OA
ENDROOT
BRANCH   1   3
ATOM      3  O   UNL     1     160.226 145.089 170.932  1.00  0.00    -0.462 OA
BRANCH   3   4
ATOM      4  C   UNL     1     159.427 145.421 169.801  1.00  0.00     0.230 C 
ATOM      5  C   UNL     1     157.958 145.241 170.145  1.00  0.00     0.049 C 
ENDBRANCH   3   4
ENDBRANCH   1   3
BRANCH   1   6
ATOM      6  C   UNL     1     160.933 145.554 173.275  1.00  0.00     0.064 A 
ATOM      7  C   UNL     1     162.129 145.982 173.880  1.00  0.00     0.065 A 
ATOM      8  C   UNL     1     160.091 144.676 173.977  1.00  0.00     0.020 A 
ATOM      9  C   UNL     1     162.477 145.539 175.164  1.00  0.00     0.158 A 
ATOM     10  C   UNL     1     160.437 144.234 175.257  1.00  0.00     0.051 A 
ATOM     11  C   UNL     1     161.626 144.661 175.855  1.00  0.00     0.157 A 
BRANCH   9  12
ATOM     12  O   UNL     1     163.665 145.968 175.755  1.00  0.00    -0.504 OA
ATOM     13  H   UNL     1     164.531 146.020 175.230  1.00  0.00     0.293 HD
ENDBRANCH   9  12
BRANCH  11  14
ATOM     14  O   UNL     1     161.945 144.203 177.133  1.00  0.00    -0.504 OA
ATOM     15  H   UNL     1     162.464 143.346 177.284  1.00  0.00     0.293 HD
ENDBRANCH  11  14
ENDBRANCH   1   6
TORSDOF 5
ENDMDL
MODEL 8
REMARK VINA RESULT:    -2.198     22.021     23.179
REMARK INTER + INTRA:          -2.935
REMARK INTER:                  -2.793
REMARK INTRA:                  -0.142
REMARK UNBOUND:                -0.223
REMARK SMILES CCOC(=O)c1ccc(O)c(O)c1
REMARK SMILES IDX 4 1 5 2 3 3 2 4 1 5 6 6 13 7 7 8 11 9 8 10 9 11 12 12 10 14
REMARK H PARENT 12 13 10 15
REMARK Flexibility Score: inf
ROOT
ATOM      1  C   UNL     1     160.999 145.284 173.937  1.00  0.00     0.338 C 
ATOM      2  O   UNL     1     160.173 144.714 174.703  1.00  0.00    -0.246 OA
ENDROOT
BRANCH   1   3
ATOM      3  O   UNL     1     162.170 145.841 174.461  1.00  0.00    -0.462 OA
BRANCH   3   4
ATOM      4  C   UNL     1     162.650 145.537 175.767  1.00  0.00     0.230 C 
ATOM      5  C   UNL     1     163.966 146.259 176.006  1.00  0.00     0.049 C 
ENDBRANCH   3   4
ENDBRANCH   1   3
BRANCH   1   6
ATOM      6  C   UNL     1     160.733 145.363 172.484  1.00  0.00     0.064 A 
ATOM      7  C   UNL     1     159.529 144.873 171.946  1.00  0.00     0.065 A 
ATOM      8  C   UNL     1     161.683 145.930 171.619  1.00  0.00     0.020 A 
ATOM      9  C   UNL     1     159.279 144.950 170.568  1.00  0.00     0.158 A 
ATOM     10  C   UNL     1     161.436 146.007 170.246  1.00  0.00     0.051 A 
ATOM     11  C   UNL     1     160.238 145.520 169.715  1.00  0.00     0.157 A 
BRANCH   9  12
ATOM     12  O   UNL     1     158.082 144.462 170.044  1.00  0.00    -0.504 OA
ATOM     13  H   UNL     1     157.185 144.720 170.440  1.00  0.00     0.293 HD
ENDBRANCH   9  12
BRANCH  11  14
ATOM     14  O   UNL     1     160.019 145.610 168.341  1.00  0.00    -0.504 OA
ATOM     15  H   UNL     1     159.097 145.771 167.952  1.00  0.00     0.293 HD
ENDBRANCH  11  14
ENDBRANCH   1   6
TORSDOF 5
ENDMDL
MODEL 9
REMARK VINA RESULT:    -2.095     19.161     20.530
REMARK INTER + INTRA:          -2.808
REMARK INTER:                  -2.686
REMARK INTRA:                  -0.122
REMARK UNBOUND:                -0.223
REMARK SMILES CCOC(=O)c1ccc(O)c(O)c1
REMARK SMILES IDX 4 1 5 2 3 3 2 4 1 5 6 6 13 7 7 8 11 9 8 10 9 11 12 12 10 14
REMARK H PARENT 12 13 10 15
REMARK Flexibility Score: inf
ROOT
ATOM      1  C   UNL     1     159.120 149.254 171.020  1.00  0.00     0.338 C 
ATOM      2  O   UNL     1     158.099 149.580 171.687  1.00  0.00    -0.246 OA
ENDROOT
BRANCH   1   3
ATOM      3  O   UNL     1     159.808 150.221 170.278  1.00  0.00    -0.462 OA
BRANCH   3   4
ATOM      4  C   UNL     1     159.144 151.194 169.479  1.00  0.00     0.230 C 
ATOM      5  C   UNL     1     160.118 152.302 169.113  1.00  0.00     0.049 C 
ENDBRANCH   3   4
ENDBRANCH   1   3
BRANCH   1   6
ATOM      6  C   UNL     1     159.593 147.852 171.020  1.00  0.00     0.064 A 
ATOM      7  C   UNL     1     158.919 146.866 170.276  1.00  0.00     0.065 A 
ATOM      8  C   UNL     1     160.725 147.486 171.766  1.00  0.00     0.020 A 
ATOM      9  C   UNL     1     159.370 145.538 170.278  1.00  0.00     0.158 A 
ATOM     10  C   UNL     1     161.175 146.164 171.769  1.00  0.00     0.051 A 
ATOM     11  C   UNL     1     160.504 145.187 171.028  1.00  0.00     0.157 A 
BRANCH   9  12
ATOM     12  O   UNL     1     158.696 144.568 169.537  1.00  0.00    -0.504 OA
ATOM     13  H   UNL     1     158.137 143.851 169.986  1.00  0.00     0.293 HD
ENDBRANCH   9  12
BRANCH  11  14
ATOM     14  O   UNL     1     160.977 143.875 171.051  1.00  0.00    -0.504 OA
ATOM     15  H   UNL     1     161.953 143.658 171.212  1.00  0.00     0.293 HD
ENDBRANCH  11  14
ENDBRANCH   1   6
TORSDOF 5
ENDMDL
