MODEL 1
REMARK VINA RESULT:    -4.939      0.000      0.000
REMARK INTER + INTRA:          -5.956
REMARK INTER:                  -5.661
REMARK INTRA:                  -0.295
REMARK UNBOUND:                -0.295
REMARK SMILES COc1ccc(C(C)=O)c(O)c1
REMARK SMILES IDX 6 1 10 2 12 3 3 4 4 5 5 6 7 7 8 8 9 9 11 10 2 12 1 13
REMARK H PARENT 11 11
REMARK Flexibility Score: inf
ROOT
ATOM      1  C   UNL     1      22.760   5.465 101.177  1.00  0.00     0.059 A 
ATOM      2  C   UNL     1      21.583   4.699 101.007  1.00  0.00     0.130 A 
ATOM      3  C   UNL     1      21.368   3.558 101.793  1.00  0.00     0.093 A 
ATOM      4  C   UNL     1      22.306   3.170 102.766  1.00  0.00     0.122 A 
ATOM      5  C   UNL     1      23.458   3.938 102.943  1.00  0.00     0.047 A 
ATOM      6  C   UNL     1      23.683   5.072 102.164  1.00  0.00     0.019 A 
ENDROOT
BRANCH   1   7
ATOM      7  C   UNL     1      23.054   6.674 100.362  1.00  0.00     0.163 C 
ATOM      8  C   UNL     1      24.451   7.149 100.101  1.00  0.00     0.093 C 
ATOM      9  O   UNL     1      22.098   7.332  99.867  1.00  0.00    -0.294 OA
ENDBRANCH   1   7
BRANCH   2  10
ATOM     10  O   UNL     1      20.614   5.078 100.078  1.00  0.00    -0.507 OA
ATOM     11  H   UNL     1      19.623   4.988 100.273  1.00  0.00     0.293 HD
ENDBRANCH   2  10
BRANCH   4  12
ATOM     12  O   UNL     1      22.130   2.036 103.574  1.00  0.00    -0.497 OA
ATOM     13  C   UNL     1      22.565   0.725 103.225  1.00  0.00     0.278 C 
ENDBRANCH   4  12
TORSDOF 3
ENDMDL
MODEL 2
REMARK VINA RESULT:    -4.856      3.158      5.322
REMARK INTER + INTRA:          -5.861
REMARK INTER:                  -5.587
REMARK INTRA:                  -0.274
REMARK UNBOUND:                -0.295
REMARK SMILES COc1ccc(C(C)=O)c(O)c1
REMARK SMILES IDX 6 1 10 2 12 3 3 4 4 5 5 6 7 7 8 8 9 9 11 10 2 12 1 13
REMARK H PARENT 11 11
REMARK Flexibility Score: inf
ROOT
ATOM      1  C   UNL     1      21.177   3.586 105.007  1.00  0.00     0.059 A 
ATOM      2  C   UNL     1      21.935   4.756 105.244  1.00  0.00     0.130 A 
ATOM      3  C   UNL     1      23.055   5.040 104.448  1.00  0.00     0.093 A 
ATOM      4  C   UNL     1      23.427   4.179 103.399  1.00  0.00     0.122 A 
ATOM      5  C   UNL     1      22.665   3.034 103.158  1.00  0.00     0.047 A 
ATOM      6  C   UNL     1      21.552   2.741 103.947  1.00  0.00     0.019 A 
ENDROOT
BRANCH   1   7
ATOM      7  C   UNL     1      19.991   3.222 105.828  1.00  0.00     0.163 C 
ATOM      8  C   UNL     1      19.494   1.813 105.943  1.00  0.00     0.093 C 
ATOM      9  O   UNL     1      19.372   4.125 106.456  1.00  0.00    -0.294 OA
ENDBRANCH   1   7
BRANCH   2  10
ATOM     10  O   UNL     1      21.571   5.652 106.249  1.00  0.00    -0.507 OA
ATOM     11  H   UNL     1      22.096   5.729 107.112  1.00  0.00     0.293 HD
ENDBRANCH   2  10
BRANCH   4  12
ATOM     12  O   UNL     1      24.538   4.424 102.580  1.00  0.00    -0.497 OA
ATOM     13  C   UNL     1      25.814   3.815 102.751  1.00  0.00     0.278 C 
ENDBRANCH   4  12
TORSDOF 3
ENDMDL
MODEL 3
REMARK VINA RESULT:    -4.539      2.544      3.502
REMARK INTER + INTRA:          -5.497
REMARK INTER:                  -5.216
REMARK INTRA:                  -0.281
REMARK UNBOUND:                -0.295
REMARK SMILES COc1ccc(C(C)=O)c(O)c1
REMARK SMILES IDX 6 1 10 2 12 3 3 4 4 5 5 6 7 7 8 8 9 9 11 10 2 12 1 13
REMARK H PARENT 11 11
REMARK Flexibility Score: inf
ROOT
ATOM      1  C   UNL     1      22.924   3.997 103.433  1.00  0.00     0.059 A 
ATOM      2  C   UNL     1      22.393   2.690 103.329  1.00  0.00     0.130 A 
ATOM      3  C   UNL     1      21.352   2.286 104.177  1.00  0.00     0.093 A 
ATOM      4  C   UNL     1      20.813   3.173 105.126  1.00  0.00     0.122 A 
ATOM      5  C   UNL     1      21.328   4.468 105.213  1.00  0.00     0.047 A 
ATOM      6  C   UNL     1      22.367   4.879 104.377  1.00  0.00     0.019 A 
ENDROOT
BRANCH   1   7
ATOM      7  C   UNL     1      24.040   4.479 102.576  1.00  0.00     0.163 C 
ATOM      8  C   UNL     1      23.849   5.519 101.515  1.00  0.00     0.093 C 
ATOM      9  O   UNL     1      25.196   4.000 102.739  1.00  0.00    -0.294 OA
ENDBRANCH   1   7
BRANCH   2  10
ATOM     10  O   UNL     1      22.877   1.798 102.372  1.00  0.00    -0.507 OA
ATOM     11  H   UNL     1      22.592   1.849 101.401  1.00  0.00     0.293 HD
ENDBRANCH   2  10
BRANCH   4  12
ATOM     12  O   UNL     1      19.771   2.810 105.992  1.00  0.00    -0.497 OA
ATOM     13  C   UNL     1      19.063   1.576 105.926  1.00  0.00     0.278 C 
ENDBRANCH   4  12
TORSDOF 3
ENDMDL
MODEL 4
REMARK VINA RESULT:    -4.537     10.239     11.283
REMARK INTER + INTRA:          -5.495
REMARK INTER:                  -5.189
REMARK INTRA:                  -0.306
REMARK UNBOUND:                -0.295
REMARK SMILES COc1ccc(C(C)=O)c(O)c1
REMARK SMILES IDX 6 1 10 2 12 3 3 4 4 5 5 6 7 7 8 8 9 9 11 10 2 12 1 13
REMARK H PARENT 11 11
REMARK Flexibility Score: inf
ROOT
ATOM      1  C   UNL     1      33.027   3.348 101.241  1.00  0.00     0.059 A 
ATOM      2  C   UNL     1      32.939   4.756 101.146  1.00  0.00     0.130 A 
ATOM      3  C   UNL     1      32.516   5.355  99.950  1.00  0.00     0.093 A 
ATOM      4  C   UNL     1      32.161   4.567  98.840  1.00  0.00     0.122 A 
ATOM      5  C   UNL     1      32.232   3.177  98.944  1.00  0.00     0.047 A 
ATOM      6  C   UNL     1      32.655   2.572 100.127  1.00  0.00     0.019 A 
ENDROOT
BRANCH   1   7
ATOM      7  C   UNL     1      33.486   2.656 102.474  1.00  0.00     0.163 C 
ATOM      8  C   UNL     1      34.125   1.300 102.447  1.00  0.00     0.093 C 
ATOM      9  O   UNL     1      33.336   3.222 103.593  1.00  0.00    -0.294 OA
ENDBRANCH   1   7
BRANCH   2  10
ATOM     10  O   UNL     1      33.246   5.566 102.240  1.00  0.00    -0.507 OA
ATOM     11  H   UNL     1      33.256   5.203 103.187  1.00  0.00     0.293 HD
ENDBRANCH   2  10
BRANCH   4  12
ATOM     12  O   UNL     1      31.732   5.124  97.626  1.00  0.00    -0.497 OA
ATOM     13  C   UNL     1      31.430   4.369  96.457  1.00  0.00     0.278 C 
ENDBRANCH   4  12
TORSDOF 3
ENDMDL
MODEL 5
REMARK VINA RESULT:    -4.459      9.999     10.804
REMARK INTER + INTRA:          -5.406
REMARK INTER:                  -5.088
REMARK INTRA:                  -0.317
REMARK UNBOUND:                -0.295
REMARK SMILES COc1ccc(C(C)=O)c(O)c1
REMARK SMILES IDX 6 1 10 2 12 3 3 4 4 5 5 6 7 7 8 8 9 9 11 10 2 12 1 13
REMARK H PARENT 11 11
REMARK Flexibility Score: inf
ROOT
ATOM      1  C   UNL     1      32.459   3.847 100.909  1.00  0.00     0.059 A 
ATOM      2  C   UNL     1      32.120   2.892  99.923  1.00  0.00     0.130 A 
ATOM      3  C   UNL     1      31.908   3.296  98.597  1.00  0.00     0.093 A 
ATOM      4  C   UNL     1      32.046   4.647  98.228  1.00  0.00     0.122 A 
ATOM      5  C   UNL     1      32.398   5.584  99.201  1.00  0.00     0.047 A 
ATOM      6  C   UNL     1      32.606   5.192 100.524  1.00  0.00     0.019 A 
ENDROOT
BRANCH   1   7
ATOM      7  C   UNL     1      32.677   3.483 102.335  1.00  0.00     0.163 C 
ATOM      8  C   UNL     1      33.990   3.691 103.027  1.00  0.00     0.093 C 
ATOM      9  O   UNL     1      31.728   2.980 102.997  1.00  0.00    -0.294 OA
ENDBRANCH   1   7
BRANCH   2  10
ATOM     10  O   UNL     1      32.014   1.539 100.247  1.00  0.00    -0.507 OA
ATOM     11  H   UNL     1      31.117   1.070 100.297  1.00  0.00     0.293 HD
ENDBRANCH   2  10
BRANCH   4  12
ATOM     12  O   UNL     1      31.844   5.094  96.914  1.00  0.00    -0.497 OA
ATOM     13  C   UNL     1      31.145   4.361  95.913  1.00  0.00     0.278 C 
ENDBRANCH   4  12
TORSDOF 3
ENDMDL
MODEL 6
REMARK VINA RESULT:    -4.433      1.230      5.021
REMARK INTER + INTRA:          -5.377
REMARK INTER:                  -5.215
REMARK INTRA:                  -0.161
REMARK UNBOUND:                -0.295
REMARK SMILES COc1ccc(C(C)=O)c(O)c1
REMARK SMILES IDX 6 1 10 2 12 3 3 4 4 5 5 6 7 7 8 8 9 9 11 10 2 12 1 13
REMARK H PARENT 11 11
REMARK Flexibility Score: inf
ROOT
ATOM      1  C   UNL     1      22.445   3.583 102.650  1.00  0.00     0.059 A 
ATOM      2  C   UNL     1      23.730   4.170 102.713  1.00  0.00     0.130 A 
ATOM      3  C   UNL     1      24.056   5.240 101.867  1.00  0.00     0.093 A 
ATOM      4  C   UNL     1      23.110   5.752 100.961  1.00  0.00     0.122 A 
ATOM      5  C   UNL     1      21.836   5.182 100.914  1.00  0.00     0.047 A 
ATOM      6  C   UNL     1      21.504   4.114 101.749  1.00  0.00     0.019 A 
ENDROOT
BRANCH   1   7
ATOM      7  C   UNL     1      22.046   2.436 103.508  1.00  0.00     0.163 C 
ATOM      8  C   UNL     1      22.430   1.022 103.192  1.00  0.00     0.093 C 
ATOM      9  O   UNL     1      21.357   2.648 104.544  1.00  0.00    -0.294 OA
ENDBRANCH   1   7
BRANCH   2  10
ATOM     10  O   UNL     1      24.679   3.712 103.627  1.00  0.00    -0.507 OA
ATOM     11  H   UNL     1      24.414   3.214 104.469  1.00  0.00     0.293 HD
ENDBRANCH   2  10
BRANCH   4  12
ATOM     12  O   UNL     1      23.393   6.820 100.097  1.00  0.00    -0.497 OA
ATOM     13  C   UNL     1      24.305   7.874 100.393  1.00  0.00     0.278 C 
ENDBRANCH   4  12
TORSDOF 3
ENDMDL
MODEL 7
REMARK VINA RESULT:    -4.411     10.521     11.436
REMARK INTER + INTRA:          -5.350
REMARK INTER:                  -5.003
REMARK INTRA:                  -0.347
REMARK UNBOUND:                -0.295
REMARK SMILES COc1ccc(C(C)=O)c(O)c1
REMARK SMILES IDX 6 1 10 2 12 3 3 4 4 5 5 6 7 7 8 8 9 9 11 10 2 12 1 13
REMARK H PARENT 11 11
REMARK Flexibility Score: inf
ROOT
ATOM      1  C   UNL     1      23.174  -6.101 104.063  1.00  0.00     0.059 A 
ATOM      2  C   UNL     1      21.829  -6.440 104.339  1.00  0.00     0.130 A 
ATOM      3  C   UNL     1      21.357  -6.420 105.660  1.00  0.00     0.093 A 
ATOM      4  C   UNL     1      22.205  -6.050 106.720  1.00  0.00     0.122 A 
ATOM      5  C   UNL     1      23.527  -5.700 106.441  1.00  0.00     0.047 A 
ATOM      6  C   UNL     1      24.007  -5.720 105.131  1.00  0.00     0.019 A 
ENDROOT
BRANCH   1   7
ATOM      7  C   UNL     1      23.738  -6.120 102.687  1.00  0.00     0.163 C 
ATOM      8  C   UNL     1      24.546  -4.987 102.132  1.00  0.00     0.093 C 
ATOM      9  O   UNL     1      23.535  -7.124 101.950  1.00  0.00    -0.294 OA
ENDBRANCH   1   7
BRANCH   2  10
ATOM     10  O   UNL     1      20.951  -6.773 103.308  1.00  0.00    -0.507 OA
ATOM     11  H   UNL     1      20.376  -6.075 102.850  1.00  0.00     0.293 HD
ENDBRANCH   2  10
BRANCH   4  12
ATOM     12  O   UNL     1      21.774  -6.017 108.054  1.00  0.00    -0.497 OA
ATOM     13  C   UNL     1      22.545  -5.502 109.136  1.00  0.00     0.278 C 
ENDBRANCH   4  12
TORSDOF 3
ENDMDL
MODEL 8
REMARK VINA RESULT:    -4.251     10.660     11.641
REMARK INTER + INTRA:          -5.167
REMARK INTER:                  -4.829
REMARK INTRA:                  -0.339
REMARK UNBOUND:                -0.295
REMARK SMILES COc1ccc(C(C)=O)c(O)c1
REMARK SMILES IDX 6 1 10 2 12 3 3 4 4 5 5 6 7 7 8 8 9 9 11 10 2 12 1 13
REMARK H PARENT 11 11
REMARK Flexibility Score: inf
ROOT
ATOM      1  C   UNL     1      22.624  -6.097 104.335  1.00  0.00     0.059 A 
ATOM      2  C   UNL     1      23.692  -5.857 105.231  1.00  0.00     0.130 A 
ATOM      3  C   UNL     1      23.452  -5.807 106.612  1.00  0.00     0.093 A 
ATOM      4  C   UNL     1      22.158  -6.010 107.124  1.00  0.00     0.122 A 
ATOM      5  C   UNL     1      21.109  -6.265 106.237  1.00  0.00     0.047 A 
ATOM      6  C   UNL     1      21.337  -6.312 104.862  1.00  0.00     0.019 A 
ENDROOT
BRANCH   1   7
ATOM      7  C   UNL     1      22.811  -6.143 102.861  1.00  0.00     0.163 C 
ATOM      8  C   UNL     1      21.926  -5.392 101.913  1.00  0.00     0.093 C 
ATOM      9  O   UNL     1      23.748  -6.838 102.378  1.00  0.00    -0.294 OA
ENDBRANCH   1   7
BRANCH   2  10
ATOM     10  O   UNL     1      24.994  -5.691 104.760  1.00  0.00    -0.507 OA
ATOM     11  H   UNL     1      25.185  -5.390 103.812  1.00  0.00     0.293 HD
ENDBRANCH   2  10
BRANCH   4  12
ATOM     12  O   UNL     1      21.874  -5.970 108.497  1.00  0.00    -0.497 OA
ATOM     13  C   UNL     1      22.645  -5.253 109.457  1.00  0.00     0.278 C 
ENDBRANCH   4  12
TORSDOF 3
ENDMDL
MODEL 9
REMARK VINA RESULT:    -4.229      3.147      4.097
REMARK INTER + INTRA:          -5.142
REMARK INTER:                  -4.800
REMARK INTRA:                  -0.342
REMARK UNBOUND:                -0.295
REMARK SMILES COc1ccc(C(C)=O)c(O)c1
REMARK SMILES IDX 6 1 10 2 12 3 3 4 4 5 5 6 7 7 8 8 9 9 11 10 2 12 1 13
REMARK H PARENT 11 11
REMARK Flexibility Score: inf
ROOT
ATOM      1  C   UNL     1      22.945   4.365 104.083  1.00  0.00     0.059 A 
ATOM      2  C   UNL     1      22.529   4.908 105.321  1.00  0.00     0.130 A 
ATOM      3  C   UNL     1      21.370   4.425 105.946  1.00  0.00     0.093 A 
ATOM      4  C   UNL     1      20.619   3.389 105.363  1.00  0.00     0.122 A 
ATOM      5  C   UNL     1      21.042   2.844 104.149  1.00  0.00     0.047 A 
ATOM      6  C   UNL     1      22.191   3.321 103.517  1.00  0.00     0.019 A 
ENDROOT
BRANCH   1   7
ATOM      7  C   UNL     1      24.153   4.847 103.362  1.00  0.00     0.163 C 
ATOM      8  C   UNL     1      24.151   5.140 101.893  1.00  0.00     0.093 C 
ATOM      9  O   UNL     1      25.227   5.020 104.003  1.00  0.00    -0.294 OA
ENDBRANCH   1   7
BRANCH   2  10
ATOM     10  O   UNL     1      23.273   5.909 105.947  1.00  0.00    -0.507 OA
ATOM     11  H   UNL     1      23.025   6.888 105.867  1.00  0.00     0.293 HD
ENDBRANCH   2  10
BRANCH   4  12
ATOM     12  O   UNL     1      19.454   2.877 105.954  1.00  0.00    -0.497 OA
ATOM     13  C   UNL     1      19.054   1.511 105.890  1.00  0.00     0.278 C 
ENDBRANCH   4  12
TORSDOF 3
ENDMDL
