MODEL 1
REMARK VINA RESULT:    -3.927      0.000      0.000
REMARK INTER + INTRA:          -9.293
REMARK INTER:                  -7.140
REMARK INTRA:                  -2.153
REMARK UNBOUND:                -2.153
REMARK SMILES CCCCCCCCCCCCCC[C@H](C)C(=O)[O-]
REMARK SMILES IDX 9 1 10 2 11 3 12 4 13 5 14 6 15 7 16 8 17 9 18 10 19 11 8 12
REMARK SMILES IDX 7 13 6 14 5 15 4 16 3 17 2 18 1 19
REMARK H PARENT
REMARK Flexibility Score: inf
ROOT
ATOM      1  C   UNL     1     -13.101   7.693 -21.602  1.00  0.00     0.000 C 
ENDROOT
BRANCH   1   2
ATOM      2  C   UNL     1     -11.878   7.153 -22.365  1.00  0.00     0.000 C 
BRANCH   2   3
ATOM      3  C   UNL     1     -10.857   8.221 -22.806  1.00  0.00     0.000 C 
BRANCH   3   4
ATOM      4  C   UNL     1      -9.377   7.802 -22.695  1.00  0.00     0.000 C 
BRANCH   4   5
ATOM      5  C   UNL     1      -9.136   6.457 -21.985  1.00  0.00     0.001 C 
BRANCH   5   6
ATOM      6  C   UNL     1      -7.644   6.099 -21.877  1.00  0.00     0.009 C 
BRANCH   6   7
ATOM      7  C   UNL     1      -7.213   5.851 -20.418  1.00  0.00     0.032 C 
ATOM      8  C   UNL     1      -8.302   5.090 -19.655  1.00  0.00     0.014 C 
BRANCH   7   9
ATOM      9  C   UNL     1      -6.908   7.145 -19.710  1.00  0.00     0.044 C 
ATOM     10  O   UNL     1      -7.021   7.222 -18.458  1.00  0.00    -0.550 OA
ATOM     11  O   UNL     1      -6.505   8.262 -20.432  1.00  0.00    -0.550 OA
ENDBRANCH   7   9
ENDBRANCH   6   7
ENDBRANCH   5   6
ENDBRANCH   4   5
ENDBRANCH   3   4
ENDBRANCH   2   3
ENDBRANCH   1   2
BRANCH   1  12
ATOM     12  C   UNL     1     -12.766   8.119 -20.163  1.00  0.00     0.000 C 
BRANCH  12  13
ATOM     13  C   UNL     1     -11.968   7.050 -19.394  1.00  0.00    -0.000 C 
BRANCH  13  14
ATOM     14  C   UNL     1     -10.662   7.550 -18.743  1.00  0.00    -0.000 C 
BRANCH  14  15
ATOM     15  C   UNL     1     -10.147   8.907 -19.262  1.00  0.00    -0.000 C 
BRANCH  15  16
ATOM     16  C   UNL     1      -9.933   9.975 -18.176  1.00  0.00    -0.000 C 
BRANCH  16  17
ATOM     17  C   UNL     1      -9.171   9.435 -16.953  1.00  0.00    -0.000 C 
BRANCH  17  18
ATOM     18  C   UNL     1      -7.997  10.340 -16.545  1.00  0.00    -0.003 C 
ATOM     19  C   UNL     1      -8.024  10.706 -15.061  1.00  0.00     0.004 C 
ENDBRANCH  17  18
ENDBRANCH  16  17
ENDBRANCH  15  16
ENDBRANCH  14  15
ENDBRANCH  13  14
ENDBRANCH  12  13
ENDBRANCH   1  12
TORSDOF 14
ENDMDL
MODEL 2
REMARK VINA RESULT:    -3.900      2.714      5.711
REMARK INTER + INTRA:          -9.245
REMARK INTER:                  -7.014
REMARK INTRA:                  -2.231
REMARK UNBOUND:                -2.153
REMARK SMILES CCCCCCCCCCCCCC[C@H](C)C(=O)[O-]
REMARK SMILES IDX 9 1 10 2 11 3 12 4 13 5 14 6 15 7 16 8 17 9 18 10 19 11 8 12
REMARK SMILES IDX 7 13 6 14 5 15 4 16 3 17 2 18 1 19
REMARK H PARENT
REMARK Flexibility Score: inf
ROOT
ATOM      1  C   UNL     1      -9.048   8.497 -17.504  1.00  0.00     0.000 C 
ENDROOT
BRANCH   1   2
ATOM      2  C   UNL     1      -8.305   7.734 -18.616  1.00  0.00     0.000 C 
BRANCH   2   3
ATOM      3  C   UNL     1      -6.767   7.758 -18.512  1.00  0.00     0.000 C 
BRANCH   3   4
ATOM      4  C   UNL     1      -6.071   8.872 -19.321  1.00  0.00     0.000 C 
BRANCH   4   5
ATOM      5  C   UNL     1      -5.290   9.894 -18.475  1.00  0.00     0.001 C 
BRANCH   5   6
ATOM      6  C   UNL     1      -5.638   9.821 -16.978  1.00  0.00     0.009 C 
BRANCH   6   7
ATOM      7  C   UNL     1      -6.589  10.957 -16.550  1.00  0.00     0.032 C 
ATOM      8  C   UNL     1      -5.915  12.321 -16.728  1.00  0.00     0.014 C 
BRANCH   7   9
ATOM      9  C   UNL     1      -7.028  10.792 -15.119  1.00  0.00     0.044 C 
ATOM     10  O   UNL     1      -8.249  10.660 -14.844  1.00  0.00    -0.550 OA
ATOM     11  O   UNL     1      -6.090  10.789 -14.093  1.00  0.00    -0.550 OA
ENDBRANCH   7   9
ENDBRANCH   6   7
ENDBRANCH   5   6
ENDBRANCH   4   5
ENDBRANCH   3   4
ENDBRANCH   2   3
ENDBRANCH   1   2
BRANCH   1  12
ATOM     12  C   UNL     1      -9.803   9.729 -18.028  1.00  0.00     0.000 C 
BRANCH  12  13
ATOM     13  C   UNL     1      -9.634   9.934 -19.544  1.00  0.00    -0.000 C 
BRANCH  13  14
ATOM     14  C   UNL     1     -10.942   9.890 -20.361  1.00  0.00    -0.000 C 
BRANCH  14  15
ATOM     15  C   UNL     1     -12.175   9.364 -19.599  1.00  0.00    -0.000 C 
BRANCH  15  16
ATOM     16  C   UNL     1     -12.666   7.975 -20.045  1.00  0.00    -0.000 C 
BRANCH  16  17
ATOM     17  C   UNL     1     -11.930   6.827 -19.332  1.00  0.00    -0.000 C 
BRANCH  17  18
ATOM     18  C   UNL     1     -11.076   5.988 -20.295  1.00  0.00    -0.003 C 
ATOM     19  C   UNL     1     -11.875   5.465 -21.488  1.00  0.00     0.004 C 
ENDBRANCH  17  18
ENDBRANCH  16  17
ENDBRANCH  15  16
ENDBRANCH  14  15
ENDBRANCH  13  14
ENDBRANCH  12  13
ENDBRANCH   1  12
TORSDOF 14
ENDMDL
MODEL 3
REMARK VINA RESULT:    -3.884      2.266      5.416
REMARK INTER + INTRA:          -9.217
REMARK INTER:                  -6.770
REMARK INTRA:                  -2.446
REMARK UNBOUND:                -2.153
REMARK SMILES CCCCCCCCCCCCCC[C@H](C)C(=O)[O-]
REMARK SMILES IDX 9 1 10 2 11 3 12 4 13 5 14 6 15 7 16 8 17 9 18 10 19 11 8 12
REMARK SMILES IDX 7 13 6 14 5 15 4 16 3 17 2 18 1 19
REMARK H PARENT
REMARK Flexibility Score: inf
ROOT
ATOM      1  C   UNL     1      -8.107   7.747 -21.320  1.00  0.00     0.000 C 
ENDROOT
BRANCH   1   2
ATOM      2  C   UNL     1      -8.340   6.737 -20.182  1.00  0.00     0.000 C 
BRANCH   2   3
ATOM      3  C   UNL     1      -7.439   6.926 -18.945  1.00  0.00     0.000 C 
BRANCH   3   4
ATOM      4  C   UNL     1      -7.717   8.197 -18.117  1.00  0.00     0.000 C 
BRANCH   4   5
ATOM      5  C   UNL     1      -6.742   9.362 -18.372  1.00  0.00     0.001 C 
BRANCH   5   6
ATOM      6  C   UNL     1      -7.341  10.732 -18.009  1.00  0.00     0.009 C 
BRANCH   6   7
ATOM      7  C   UNL     1      -6.661  11.351 -16.771  1.00  0.00     0.032 C 
ATOM      8  C   UNL     1      -5.165  11.022 -16.756  1.00  0.00     0.014 C 
BRANCH   7   9
ATOM      9  C   UNL     1      -7.299  10.865 -15.496  1.00  0.00     0.044 C 
ATOM     10  O   UNL     1      -8.543  10.678 -15.443  1.00  0.00    -0.550 OA
ATOM     11  O   UNL     1      -6.521  10.623 -14.370  1.00  0.00    -0.550 OA
ENDBRANCH   7   9
ENDBRANCH   6   7
ENDBRANCH   5   6
ENDBRANCH   4   5
ENDBRANCH   3   4
ENDBRANCH   2   3
ENDBRANCH   1   2
BRANCH   1  12
ATOM     12  C   UNL     1      -9.369   8.552 -21.671  1.00  0.00     0.000 C 
BRANCH  12  13
ATOM     13  C   UNL     1      -9.352   9.976 -21.086  1.00  0.00    -0.000 C 
BRANCH  13  14
ATOM     14  C   UNL     1     -10.585  10.352 -20.240  1.00  0.00    -0.000 C 
BRANCH  14  15
ATOM     15  C   UNL     1     -10.950   9.347 -19.129  1.00  0.00    -0.000 C 
BRANCH  15  16
ATOM     16  C   UNL     1     -12.276   8.597 -19.348  1.00  0.00    -0.000 C 
BRANCH  16  17
ATOM     17  C   UNL     1     -12.089   7.071 -19.419  1.00  0.00    -0.000 C 
BRANCH  17  18
ATOM     18  C   UNL     1     -12.295   6.519 -20.838  1.00  0.00    -0.003 C 
ATOM     19  C   UNL     1     -13.088   7.472 -21.732  1.00  0.00     0.004 C 
ENDBRANCH  17  18
ENDBRANCH  16  17
ENDBRANCH  15  16
ENDBRANCH  14  15
ENDBRANCH  13  14
ENDBRANCH  12  13
ENDBRANCH   1  12
TORSDOF 14
ENDMDL
MODEL 4
REMARK VINA RESULT:    -3.882      2.321      4.531
REMARK INTER + INTRA:          -9.213
REMARK INTER:                  -6.442
REMARK INTRA:                  -2.771
REMARK UNBOUND:                -2.153
REMARK SMILES CCCCCCCCCCCCCC[C@H](C)C(=O)[O-]
REMARK SMILES IDX 9 1 10 2 11 3 12 4 13 5 14 6 15 7 16 8 17 9 18 10 19 11 8 12
REMARK SMILES IDX 7 13 6 14 5 15 4 16 3 17 2 18 1 19
REMARK H PARENT
REMARK Flexibility Score: inf
ROOT
ATOM      1  C   UNL     1     -12.808   7.788 -20.312  1.00  0.00     0.000 C 
ENDROOT
BRANCH   1   2
ATOM      2  C   UNL     1     -12.156   9.160 -20.060  1.00  0.00     0.000 C 
BRANCH   2   3
ATOM      3  C   UNL     1     -11.273   9.244 -18.799  1.00  0.00     0.000 C 
BRANCH   3   4
ATOM      4  C   UNL     1     -10.245   8.106 -18.640  1.00  0.00     0.000 C 
BRANCH   4   5
ATOM      5  C   UNL     1      -9.050   8.435 -17.725  1.00  0.00     0.001 C 
BRANCH   5   6
ATOM      6  C   UNL     1      -9.000   9.919 -17.322  1.00  0.00     0.009 C 
BRANCH   6   7
ATOM      7  C   UNL     1      -7.555  10.408 -17.095  1.00  0.00     0.032 C 
ATOM      8  C   UNL     1      -6.550   9.417 -17.691  1.00  0.00     0.014 C 
BRANCH   7   9
ATOM      9  C   UNL     1      -7.267  10.603 -15.630  1.00  0.00     0.044 C 
ATOM     10  O   UNL     1      -8.196  10.512 -14.786  1.00  0.00    -0.550 OA
ATOM     11  O   UNL     1      -5.976  10.888 -15.200  1.00  0.00    -0.550 OA
ENDBRANCH   7   9
ENDBRANCH   6   7
ENDBRANCH   5   6
ENDBRANCH   4   5
ENDBRANCH   3   4
ENDBRANCH   2   3
ENDBRANCH   1   2
BRANCH   1  12
ATOM     12  C   UNL     1     -12.893   7.433 -21.806  1.00  0.00     0.000 C 
BRANCH  12  13
ATOM     13  C   UNL     1     -11.595   7.750 -22.570  1.00  0.00    -0.000 C 
BRANCH  13  14
ATOM     14  C   UNL     1     -10.442   6.750 -22.346  1.00  0.00    -0.000 C 
BRANCH  14  15
ATOM     15  C   UNL     1      -9.095   7.382 -21.940  1.00  0.00    -0.000 C 
BRANCH  15  16
ATOM     16  C   UNL     1      -9.009   8.905 -22.140  1.00  0.00    -0.000 C 
BRANCH  16  17
ATOM     17  C   UNL     1      -7.994   9.572 -21.195  1.00  0.00    -0.000 C 
BRANCH  17  18
ATOM     18  C   UNL     1      -8.408  10.998 -20.798  1.00  0.00    -0.003 C 
ATOM     19  C   UNL     1      -9.698  11.448 -21.482  1.00  0.00     0.004 C 
ENDBRANCH  17  18
ENDBRANCH  16  17
ENDBRANCH  15  16
ENDBRANCH  14  15
ENDBRANCH  13  14
ENDBRANCH  12  13
ENDBRANCH   1  12
TORSDOF 14
ENDMDL
MODEL 5
REMARK VINA RESULT:    -3.852      2.130      4.806
REMARK INTER + INTRA:          -9.157
REMARK INTER:                  -7.104
REMARK INTRA:                  -2.053
REMARK UNBOUND:                -2.153
REMARK SMILES CCCCCCCCCCCCCC[C@H](C)C(=O)[O-]
REMARK SMILES IDX 9 1 10 2 11 3 12 4 13 5 14 6 15 7 16 8 17 9 18 10 19 11 8 12
REMARK SMILES IDX 7 13 6 14 5 15 4 16 3 17 2 18 1 19
REMARK H PARENT
REMARK Flexibility Score: inf
ROOT
ATOM      1  C   UNL     1     -12.720   8.373 -20.906  1.00  0.00     0.000 C 
ENDROOT
BRANCH   1   2
ATOM      2  C   UNL     1     -12.492   8.453 -19.386  1.00  0.00     0.000 C 
BRANCH   2   3
ATOM      3  C   UNL     1     -11.069   8.087 -18.917  1.00  0.00     0.000 C 
BRANCH   3   4
ATOM      4  C   UNL     1     -10.214   9.272 -18.424  1.00  0.00     0.000 C 
BRANCH   4   5
ATOM      5  C   UNL     1      -9.151   8.909 -17.370  1.00  0.00     0.001 C 
BRANCH   5   6
ATOM      6  C   UNL     1      -8.658  10.131 -16.576  1.00  0.00     0.009 C 
BRANCH   6   7
ATOM      7  C   UNL     1      -7.196  10.488 -16.911  1.00  0.00     0.032 C 
ATOM      8  C   UNL     1      -6.530   9.353 -17.696  1.00  0.00     0.014 C 
BRANCH   7   9
ATOM      9  C   UNL     1      -6.402  10.773 -15.664  1.00  0.00     0.044 C 
ATOM     10  O   UNL     1      -6.928  10.615 -14.531  1.00  0.00    -0.550 OA
ATOM     11  O   UNL     1      -5.088  11.216 -15.753  1.00  0.00    -0.550 OA
ENDBRANCH   7   9
ENDBRANCH   6   7
ENDBRANCH   5   6
ENDBRANCH   4   5
ENDBRANCH   3   4
ENDBRANCH   2   3
ENDBRANCH   1   2
BRANCH   1  12
ATOM     12  C   UNL     1     -11.454   7.971 -21.680  1.00  0.00     0.000 C 
BRANCH  12  13
ATOM     13  C   UNL     1     -11.544   6.557 -22.281  1.00  0.00    -0.000 C 
BRANCH  13  14
ATOM     14  C   UNL     1     -12.032   5.462 -21.311  1.00  0.00    -0.000 C 
BRANCH  14  15
ATOM     15  C   UNL     1     -10.922   4.589 -20.693  1.00  0.00    -0.000 C 
BRANCH  15  16
ATOM     16  C   UNL     1      -9.501   5.167 -20.819  1.00  0.00    -0.000 C 
BRANCH  16  17
ATOM     17  C   UNL     1      -8.720   5.118 -19.493  1.00  0.00    -0.000 C 
BRANCH  17  18
ATOM     18  C   UNL     1      -7.680   6.244 -19.381  1.00  0.00    -0.003 C 
ATOM     19  C   UNL     1      -7.766   7.242 -20.535  1.00  0.00     0.004 C 
ENDBRANCH  17  18
ENDBRANCH  16  17
ENDBRANCH  15  16
ENDBRANCH  14  15
ENDBRANCH  13  14
ENDBRANCH  12  13
ENDBRANCH   1  12
TORSDOF 14
ENDMDL
MODEL 6
REMARK VINA RESULT:    -3.844      3.134      5.950
REMARK INTER + INTRA:          -9.143
REMARK INTER:                  -7.238
REMARK INTRA:                  -1.905
REMARK UNBOUND:                -2.153
REMARK SMILES CCCCCCCCCCCCCC[C@H](C)C(=O)[O-]
REMARK SMILES IDX 9 1 10 2 11 3 12 4 13 5 14 6 15 7 16 8 17 9 18 10 19 11 8 12
REMARK SMILES IDX 7 13 6 14 5 15 4 16 3 17 2 18 1 19
REMARK H PARENT
REMARK Flexibility Score: inf
ROOT
ATOM      1  C   UNL     1      -6.317   9.004 -18.426  1.00  0.00     0.000 C 
ENDROOT
BRANCH   1   2
ATOM      2  C   UNL     1      -7.719   8.402 -18.219  1.00  0.00     0.000 C 
BRANCH   2   3
ATOM      3  C   UNL     1      -8.670   9.241 -17.342  1.00  0.00     0.000 C 
BRANCH   3   4
ATOM      4  C   UNL     1      -9.798   9.966 -18.103  1.00  0.00     0.000 C 
BRANCH   4   5
ATOM      5  C   UNL     1     -10.281   9.253 -19.379  1.00  0.00     0.001 C 
BRANCH   5   6
ATOM      6  C   UNL     1     -11.756   8.821 -19.299  1.00  0.00     0.009 C 
BRANCH   6   7
ATOM      7  C   UNL     1     -11.938   7.323 -19.612  1.00  0.00     0.032 C 
ATOM      8  C   UNL     1     -10.614   6.571 -19.439  1.00  0.00     0.014 C 
BRANCH   7   9
ATOM      9  C   UNL     1     -12.460   7.115 -21.009  1.00  0.00     0.044 C 
ATOM     10  O   UNL     1     -13.184   7.991 -21.550  1.00  0.00    -0.550 OA
ATOM     11  O   UNL     1     -12.149   5.955 -21.710  1.00  0.00    -0.550 OA
ENDBRANCH   7   9
ENDBRANCH   6   7
ENDBRANCH   5   6
ENDBRANCH   4   5
ENDBRANCH   3   4
ENDBRANCH   2   3
ENDBRANCH   1   2
BRANCH   1  12
ATOM     12  C   UNL     1      -5.253   8.365 -17.519  1.00  0.00     0.000 C 
BRANCH  12  13
ATOM     13  C   UNL     1      -3.982   9.225 -17.390  1.00  0.00    -0.000 C 
BRANCH  13  14
ATOM     14  C   UNL     1      -3.395   9.316 -15.967  1.00  0.00    -0.000 C 
BRANCH  14  15
ATOM     15  C   UNL     1      -4.435   9.389 -14.830  1.00  0.00    -0.000 C 
BRANCH  15  16
ATOM     16  C   UNL     1      -4.994  10.796 -14.555  1.00  0.00    -0.000 C 
BRANCH  16  17
ATOM     17  C   UNL     1      -6.531  10.847 -14.615  1.00  0.00    -0.000 C 
BRANCH  17  18
ATOM     18  C   UNL     1      -7.046  11.901 -15.608  1.00  0.00    -0.003 C 
ATOM     19  C   UNL     1      -5.996  12.297 -16.645  1.00  0.00     0.004 C 
ENDBRANCH  17  18
ENDBRANCH  16  17
ENDBRANCH  15  16
ENDBRANCH  14  15
ENDBRANCH  13  14
ENDBRANCH  12  13
ENDBRANCH   1  12
TORSDOF 14
ENDMDL
MODEL 7
REMARK VINA RESULT:    -3.821      2.248      4.936
REMARK INTER + INTRA:          -9.101
REMARK INTER:                  -6.189
REMARK INTRA:                  -2.912
REMARK UNBOUND:                -2.153
REMARK SMILES CCCCCCCCCCCCCC[C@H](C)C(=O)[O-]
REMARK SMILES IDX 9 1 10 2 11 3 12 4 13 5 14 6 15 7 16 8 17 9 18 10 19 11 8 12
REMARK SMILES IDX 7 13 6 14 5 15 4 16 3 17 2 18 1 19
REMARK H PARENT
REMARK Flexibility Score: inf
ROOT
ATOM      1  C   UNL     1      -7.933   5.911 -19.246  1.00  0.00     0.000 C 
ENDROOT
BRANCH   1   2
ATOM      2  C   UNL     1      -7.541   5.328 -20.615  1.00  0.00     0.000 C 
BRANCH   2   3
ATOM      3  C   UNL     1      -7.538   6.338 -21.781  1.00  0.00     0.000 C 
BRANCH   3   4
ATOM      4  C   UNL     1      -8.922   6.645 -22.388  1.00  0.00     0.000 C 
BRANCH   4   5
ATOM      5  C   UNL     1      -9.394   8.101 -22.222  1.00  0.00     0.001 C 
BRANCH   5   6
ATOM      6  C   UNL     1      -8.229   9.085 -22.015  1.00  0.00     0.009 C 
BRANCH   6   7
ATOM      7  C   UNL     1      -8.723  10.487 -21.603  1.00  0.00     0.032 C 
ATOM      8  C   UNL     1     -10.186  10.686 -22.012  1.00  0.00     0.014 C 
BRANCH   7   9
ATOM      9  C   UNL     1      -7.873  11.568 -22.217  1.00  0.00     0.044 C 
ATOM     10  O   UNL     1      -7.083  11.293 -23.158  1.00  0.00    -0.550 OA
ATOM     11  O   UNL     1      -7.953  12.874 -21.748  1.00  0.00    -0.550 OA
ENDBRANCH   7   9
ENDBRANCH   6   7
ENDBRANCH   5   6
ENDBRANCH   4   5
ENDBRANCH   3   4
ENDBRANCH   2   3
ENDBRANCH   1   2
BRANCH   1  12
ATOM     12  C   UNL     1      -7.257   7.262 -18.957  1.00  0.00     0.000 C 
BRANCH  12  13
ATOM     13  C   UNL     1      -8.216   8.288 -18.328  1.00  0.00    -0.000 C 
BRANCH  13  14
ATOM     14  C   UNL     1      -9.703   7.877 -18.319  1.00  0.00    -0.000 C 
BRANCH  14  15
ATOM     15  C   UNL     1     -10.691   8.977 -18.755  1.00  0.00    -0.000 C 
BRANCH  15  16
ATOM     16  C   UNL     1     -11.926   8.469 -19.521  1.00  0.00    -0.000 C 
BRANCH  16  17
ATOM     17  C   UNL     1     -12.009   6.933 -19.563  1.00  0.00    -0.000 C 
BRANCH  17  18
ATOM     18  C   UNL     1     -12.361   6.401 -20.961  1.00  0.00    -0.003 C 
ATOM     19  C   UNL     1     -13.151   7.411 -21.794  1.00  0.00     0.004 C 
ENDBRANCH  17  18
ENDBRANCH  16  17
ENDBRANCH  15  16
ENDBRANCH  14  15
ENDBRANCH  13  14
ENDBRANCH  12  13
ENDBRANCH   1  12
TORSDOF 14
ENDMDL
MODEL 8
REMARK VINA RESULT:    -3.818      1.852      4.560
REMARK INTER + INTRA:          -9.095
REMARK INTER:                  -6.813
REMARK INTRA:                  -2.282
REMARK UNBOUND:                -2.153
REMARK SMILES CCCCCCCCCCCCCC[C@H](C)C(=O)[O-]
REMARK SMILES IDX 9 1 10 2 11 3 12 4 13 5 14 6 15 7 16 8 17 9 18 10 19 11 8 12
REMARK SMILES IDX 7 13 6 14 5 15 4 16 3 17 2 18 1 19
REMARK H PARENT
REMARK Flexibility Score: inf
ROOT
ATOM      1  C   UNL     1     -12.252   6.812 -21.065  1.00  0.00     0.000 C 
ENDROOT
BRANCH   1   2
ATOM      2  C   UNL     1     -12.957   8.114 -20.642  1.00  0.00     0.000 C 
BRANCH   2   3
ATOM      3  C   UNL     1     -12.348   8.819 -19.413  1.00  0.00     0.000 C 
BRANCH   3   4
ATOM      4  C   UNL     1     -10.867   8.491 -19.134  1.00  0.00     0.000 C 
BRANCH   4   5
ATOM      5  C   UNL     1     -10.139   9.502 -18.228  1.00  0.00     0.001 C 
BRANCH   5   6
ATOM      6  C   UNL     1      -8.943   8.883 -17.485  1.00  0.00     0.009 C 
BRANCH   6   7
ATOM      7  C   UNL     1      -7.727   9.831 -17.455  1.00  0.00     0.032 C 
ATOM      8  C   UNL     1      -6.452   9.088 -17.863  1.00  0.00     0.014 C 
BRANCH   7   9
ATOM      9  C   UNL     1      -7.543  10.440 -16.090  1.00  0.00     0.044 C 
ATOM     10  O   UNL     1      -8.546  10.722 -15.383  1.00  0.00    -0.550 OA
ATOM     11  O   UNL     1      -6.267  10.699 -15.602  1.00  0.00    -0.550 OA
ENDBRANCH   7   9
ENDBRANCH   6   7
ENDBRANCH   5   6
ENDBRANCH   4   5
ENDBRANCH   3   4
ENDBRANCH   2   3
ENDBRANCH   1   2
BRANCH   1  12
ATOM     12  C   UNL     1     -12.003   6.732 -22.580  1.00  0.00     0.000 C 
BRANCH  12  13
ATOM     13  C   UNL     1     -10.510   6.820 -22.945  1.00  0.00    -0.000 C 
BRANCH  13  14
ATOM     14  C   UNL     1      -9.873   8.213 -22.768  1.00  0.00    -0.000 C 
BRANCH  14  15
ATOM     15  C   UNL     1      -8.564   8.237 -21.953  1.00  0.00    -0.000 C 
BRANCH  15  16
ATOM     16  C   UNL     1      -7.932   6.856 -21.704  1.00  0.00    -0.000 C 
BRANCH  16  17
ATOM     17  C   UNL     1      -7.097   6.809 -20.412  1.00  0.00    -0.000 C 
BRANCH  17  18
ATOM     18  C   UNL     1      -7.684   5.846 -19.368  1.00  0.00    -0.003 C 
ATOM     19  C   UNL     1      -9.059   5.311 -19.767  1.00  0.00     0.004 C 
ENDBRANCH  17  18
ENDBRANCH  16  17
ENDBRANCH  15  16
ENDBRANCH  14  15
ENDBRANCH  13  14
ENDBRANCH  12  13
ENDBRANCH   1  12
TORSDOF 14
ENDMDL
MODEL 9
REMARK VINA RESULT:    -3.763      1.915      4.084
REMARK INTER + INTRA:          -8.996
REMARK INTER:                  -6.335
REMARK INTRA:                  -2.661
REMARK UNBOUND:                -2.153
REMARK SMILES CCCCCCCCCCCCCC[C@H](C)C(=O)[O-]
REMARK SMILES IDX 9 1 10 2 11 3 12 4 13 5 14 6 15 7 16 8 17 9 18 10 19 11 8 12
REMARK SMILES IDX 7 13 6 14 5 15 4 16 3 17 2 18 1 19
REMARK H PARENT
REMARK Flexibility Score: inf
ROOT
ATOM      1  C   UNL     1     -11.685   8.896 -19.255  1.00  0.00     0.000 C 
ENDROOT
BRANCH   1   2
ATOM      2  C   UNL     1     -10.362   9.508 -18.761  1.00  0.00     0.000 C 
BRANCH   2   3
ATOM      3  C   UNL     1      -9.484   8.571 -17.908  1.00  0.00     0.000 C 
BRANCH   3   4
ATOM      4  C   UNL     1      -8.015   8.453 -18.361  1.00  0.00     0.000 C 
BRANCH   4   5
ATOM      5  C   UNL     1      -7.598   7.054 -18.852  1.00  0.00     0.001 C 
BRANCH   5   6
ATOM      6  C   UNL     1      -7.498   6.965 -20.385  1.00  0.00     0.009 C 
BRANCH   6   7
ATOM      7  C   UNL     1      -8.000   5.609 -20.920  1.00  0.00     0.032 C 
ATOM      8  C   UNL     1      -9.008   4.985 -19.949  1.00  0.00     0.014 C 
BRANCH   7   9
ATOM      9  C   UNL     1      -6.857   4.654 -21.146  1.00  0.00     0.044 C 
ATOM     10  O   UNL     1      -6.698   3.667 -20.381  1.00  0.00    -0.550 OA
ATOM     11  O   UNL     1      -5.971   4.857 -22.197  1.00  0.00    -0.550 OA
ENDBRANCH   7   9
ENDBRANCH   6   7
ENDBRANCH   5   6
ENDBRANCH   4   5
ENDBRANCH   3   4
ENDBRANCH   2   3
ENDBRANCH   1   2
BRANCH   1  12
ATOM     12  C   UNL     1     -11.742   7.370 -19.071  1.00  0.00     0.000 C 
BRANCH  12  13
ATOM     13  C   UNL     1     -12.123   6.626 -20.364  1.00  0.00    -0.000 C 
BRANCH  13  14
ATOM     14  C   UNL     1     -12.263   7.517 -21.616  1.00  0.00    -0.000 C 
BRANCH  14  15
ATOM     15  C   UNL     1     -11.316   7.165 -22.781  1.00  0.00    -0.000 C 
BRANCH  15  16
ATOM     16  C   UNL     1     -10.097   8.092 -22.925  1.00  0.00    -0.000 C 
BRANCH  16  17
ATOM     17  C   UNL     1     -10.486   9.532 -23.303  1.00  0.00    -0.000 C 
BRANCH  17  18
ATOM     18  C   UNL     1      -9.858  10.576 -22.365  1.00  0.00    -0.003 C 
ATOM     19  C   UNL     1      -8.505  10.132 -21.811  1.00  0.00     0.004 C 
ENDBRANCH  17  18
ENDBRANCH  16  17
ENDBRANCH  15  16
ENDBRANCH  14  15
ENDBRANCH  13  14
ENDBRANCH  12  13
ENDBRANCH   1  12
TORSDOF 14
ENDMDL
