MODEL 1
REMARK VINA RESULT:    -4.795      0.000      0.000
REMARK INTER + INTRA:          -8.333
REMARK INTER:                  -7.599
REMARK INTRA:                  -0.734
REMARK UNBOUND:                -0.734
REMARK SMILES CCCCCCCCCCCC(=O)[O-]
REMARK SMILES IDX 7 1 8 2 9 3 10 4 11 5 12 6 13 7 14 8 6 9 5 10 4 11 3 12 2 13
REMARK SMILES IDX 1 14
REMARK H PARENT
REMARK Flexibility Score: inf
ROOT
ATOM      1  C   UNL     1      45.950   4.835 130.454  1.00  0.00     0.000 C 
ENDROOT
BRANCH   1   2
ATOM      2  C   UNL     1      46.783   4.366 131.662  1.00  0.00     0.000 C 
BRANCH   2   3
ATOM      3  C   UNL     1      45.993   3.500 132.666  1.00  0.00     0.000 C 
BRANCH   3   4
ATOM      4  C   UNL     1      44.585   3.157 132.158  1.00  0.00     0.006 C 
BRANCH   4   5
ATOM      5  C   UNL     1      43.936   2.074 133.025  1.00  0.00     0.053 C 
BRANCH   5   6
ATOM      6  C   UNL     1      43.927   0.763 132.305  1.00  0.00     0.041 C 
ATOM      7  O   UNL     1      42.919   0.412 131.638  1.00  0.00    -0.550 OA
ATOM      8  O   UNL     1      45.053  -0.051 132.328  1.00  0.00    -0.550 OA
ENDBRANCH   5   6
ENDBRANCH   4   5
ENDBRANCH   3   4
ENDBRANCH   2   3
ENDBRANCH   1   2
BRANCH   1   9
ATOM      9  C   UNL     1      46.738   5.597 129.373  1.00  0.00     0.000 C 
BRANCH   9  10
ATOM     10  C   UNL     1      46.343   5.182 127.945  1.00  0.00    -0.000 C 
BRANCH  10  11
ATOM     11  C   UNL     1      44.926   4.590 127.872  1.00  0.00    -0.000 C 
BRANCH  11  12
ATOM     12  C   UNL     1      44.135   5.094 126.653  1.00  0.00    -0.000 C 
BRANCH  12  13
ATOM     13  C   UNL     1      42.801   5.748 127.047  1.00  0.00    -0.003 C 
ATOM     14  C   UNL     1      42.831   6.361 128.447  1.00  0.00     0.004 C 
ENDBRANCH  12  13
ENDBRANCH  11  12
ENDBRANCH  10  11
ENDBRANCH   9  10
ENDBRANCH   1   9
TORSDOF 10
ENDMDL
MODEL 2
REMARK VINA RESULT:    -4.778      0.976      1.485
REMARK INTER + INTRA:          -8.304
REMARK INTER:                  -7.607
REMARK INTRA:                  -0.697
REMARK UNBOUND:                -0.734
REMARK SMILES CCCCCCCCCCCC(=O)[O-]
REMARK SMILES IDX 7 1 8 2 9 3 10 4 11 5 12 6 13 7 14 8 6 9 5 10 4 11 3 12 2 13
REMARK SMILES IDX 1 14
REMARK H PARENT
REMARK Flexibility Score: inf
ROOT
ATOM      1  C   UNL     1      47.261   4.912 130.277  1.00  0.00     0.000 C 
ENDROOT
BRANCH   1   2
ATOM      2  C   UNL     1      47.005   4.156 131.595  1.00  0.00     0.000 C 
BRANCH   2   3
ATOM      3  C   UNL     1      45.510   3.934 131.908  1.00  0.00     0.000 C 
BRANCH   3   4
ATOM      4  C   UNL     1      45.280   2.719 132.819  1.00  0.00     0.006 C 
BRANCH   4   5
ATOM      5  C   UNL     1      43.853   2.181 132.667  1.00  0.00     0.053 C 
BRANCH   5   6
ATOM      6  C   UNL     1      43.876   0.776 132.154  1.00  0.00     0.041 C 
ATOM      7  O   UNL     1      42.897   0.321 131.506  1.00  0.00    -0.550 OA
ATOM      8  O   UNL     1      45.000  -0.018 132.350  1.00  0.00    -0.550 OA
ENDBRANCH   5   6
ENDBRANCH   4   5
ENDBRANCH   3   4
ENDBRANCH   2   3
ENDBRANCH   1   2
BRANCH   1   9
ATOM      9  C   UNL     1      45.996   5.309 129.496  1.00  0.00     0.000 C 
BRANCH   9  10
ATOM     10  C   UNL     1      46.048   6.756 128.975  1.00  0.00    -0.000 C 
BRANCH  10  11
ATOM     11  C   UNL     1      44.656   7.402 128.882  1.00  0.00    -0.000 C 
BRANCH  11  12
ATOM     12  C   UNL     1      43.523   6.417 129.217  1.00  0.00    -0.000 C 
BRANCH  12  13
ATOM     13  C   UNL     1      42.430   6.389 128.138  1.00  0.00    -0.003 C 
ATOM     14  C   UNL     1      42.858   5.636 126.879  1.00  0.00     0.004 C 
ENDBRANCH  12  13
ENDBRANCH  11  12
ENDBRANCH  10  11
ENDBRANCH   9  10
ENDBRANCH   1   9
TORSDOF 10
ENDMDL
MODEL 3
REMARK VINA RESULT:    -4.762      1.256      1.992
REMARK INTER + INTRA:          -8.280
REMARK INTER:                  -7.415
REMARK INTRA:                  -0.865
REMARK UNBOUND:                -0.734
REMARK SMILES CCCCCCCCCCCC(=O)[O-]
REMARK SMILES IDX 7 1 8 2 9 3 10 4 11 5 12 6 13 7 14 8 6 9 5 10 4 11 3 12 2 13
REMARK SMILES IDX 1 14
REMARK H PARENT
REMARK Flexibility Score: inf
ROOT
ATOM      1  C   UNL     1      47.243   5.003 129.222  1.00  0.00     0.000 C 
ENDROOT
BRANCH   1   2
ATOM      2  C   UNL     1      46.335   4.853 130.458  1.00  0.00     0.000 C 
BRANCH   2   3
ATOM      3  C   UNL     1      47.092   4.453 131.743  1.00  0.00     0.000 C 
BRANCH   3   4
ATOM      4  C   UNL     1      46.139   4.072 132.886  1.00  0.00     0.006 C 
BRANCH   4   5
ATOM      5  C   UNL     1      46.150   2.559 133.128  1.00  0.00     0.053 C 
BRANCH   5   6
ATOM      6  C   UNL     1      44.860   1.948 132.681  1.00  0.00     0.041 C 
ATOM      7  O   UNL     1      43.854   2.674 132.469  1.00  0.00    -0.550 OA
ATOM      8  O   UNL     1      44.782   0.580 132.450  1.00  0.00    -0.550 OA
ENDBRANCH   5   6
ENDBRANCH   4   5
ENDBRANCH   3   4
ENDBRANCH   2   3
ENDBRANCH   1   2
BRANCH   1   9
ATOM      9  C   UNL     1      46.968   6.246 128.357  1.00  0.00     0.000 C 
BRANCH   9  10
ATOM     10  C   UNL     1      45.995   7.233 129.026  1.00  0.00    -0.000 C 
BRANCH  10  11
ATOM     11  C   UNL     1      44.755   7.518 128.162  1.00  0.00    -0.000 C 
BRANCH  11  12
ATOM     12  C   UNL     1      43.475   6.885 128.734  1.00  0.00    -0.000 C 
BRANCH  12  13
ATOM     13  C   UNL     1      42.741   6.010 127.707  1.00  0.00    -0.003 C 
ATOM     14  C   UNL     1      43.691   5.320 126.728  1.00  0.00     0.004 C 
ENDBRANCH  12  13
ENDBRANCH  11  12
ENDBRANCH  10  11
ENDBRANCH   9  10
ENDBRANCH   1   9
TORSDOF 10
ENDMDL
MODEL 4
REMARK VINA RESULT:    -4.723      1.403      2.033
REMARK INTER + INTRA:          -8.218
REMARK INTER:                  -7.444
REMARK INTRA:                  -0.773
REMARK UNBOUND:                -0.734
REMARK SMILES CCCCCCCCCCCC(=O)[O-]
REMARK SMILES IDX 7 1 8 2 9 3 10 4 11 5 12 6 13 7 14 8 6 9 5 10 4 11 3 12 2 13
REMARK SMILES IDX 1 14
REMARK H PARENT
REMARK Flexibility Score: inf
ROOT
ATOM      1  C   UNL     1      45.922   4.838 130.407  1.00  0.00     0.000 C 
ENDROOT
BRANCH   1   2
ATOM      2  C   UNL     1      47.153   4.564 131.293  1.00  0.00     0.000 C 
BRANCH   2   3
ATOM      3  C   UNL     1      46.954   3.409 132.297  1.00  0.00     0.000 C 
BRANCH   3   4
ATOM      4  C   UNL     1      46.009   3.792 133.446  1.00  0.00     0.006 C 
BRANCH   4   5
ATOM      5  C   UNL     1      45.036   2.652 133.761  1.00  0.00     0.053 C 
BRANCH   5   6
ATOM      6  C   UNL     1      43.968   2.572 132.717  1.00  0.00     0.041 C 
ATOM      7  O   UNL     1      43.750   1.489 132.113  1.00  0.00    -0.550 OA
ATOM      8  O   UNL     1      43.176   3.682 132.445  1.00  0.00    -0.550 OA
ENDBRANCH   5   6
ENDBRANCH   4   5
ENDBRANCH   3   4
ENDBRANCH   2   3
ENDBRANCH   1   2
BRANCH   1   9
ATOM      9  C   UNL     1      46.226   5.513 129.058  1.00  0.00     0.000 C 
BRANCH   9  10
ATOM     10  C   UNL     1      45.980   7.032 129.083  1.00  0.00    -0.000 C 
BRANCH  10  11
ATOM     11  C   UNL     1      44.742   7.444 128.270  1.00  0.00    -0.000 C 
BRANCH  11  12
ATOM     12  C   UNL     1      43.426   6.978 128.916  1.00  0.00    -0.000 C 
BRANCH  12  13
ATOM     13  C   UNL     1      42.459   6.355 127.899  1.00  0.00    -0.003 C 
ATOM     14  C   UNL     1      43.167   5.479 126.865  1.00  0.00     0.004 C 
ENDBRANCH  12  13
ENDBRANCH  11  12
ENDBRANCH  10  11
ENDBRANCH   9  10
ENDBRANCH   1   9
TORSDOF 10
ENDMDL
MODEL 5
REMARK VINA RESULT:    -4.699      2.955      5.720
REMARK INTER + INTRA:          -8.180
REMARK INTER:                  -7.411
REMARK INTRA:                  -0.770
REMARK UNBOUND:                -0.734
REMARK SMILES CCCCCCCCCCCC(=O)[O-]
REMARK SMILES IDX 7 1 8 2 9 3 10 4 11 5 12 6 13 7 14 8 6 9 5 10 4 11 3 12 2 13
REMARK SMILES IDX 1 14
REMARK H PARENT
REMARK Flexibility Score: inf
ROOT
ATOM      1  C   UNL     1      46.084   4.882 130.433  1.00  0.00     0.000 C 
ENDROOT
BRANCH   1   2
ATOM      2  C   UNL     1      46.973   5.136 129.200  1.00  0.00     0.000 C 
BRANCH   2   3
ATOM      3  C   UNL     1      46.253   4.913 127.854  1.00  0.00     0.000 C 
BRANCH   3   4
ATOM      4  C   UNL     1      44.758   4.608 128.036  1.00  0.00     0.006 C 
BRANCH   4   5
ATOM      5  C   UNL     1      43.893   5.644 127.313  1.00  0.00     0.053 C 
BRANCH   5   6
ATOM      6  C   UNL     1      43.392   6.672 128.276  1.00  0.00     0.041 C 
ATOM      7  O   UNL     1      42.174   6.704 128.593  1.00  0.00    -0.550 OA
ATOM      8  O   UNL     1      44.279   7.565 128.865  1.00  0.00    -0.550 OA
ENDBRANCH   5   6
ENDBRANCH   4   5
ENDBRANCH   3   4
ENDBRANCH   2   3
ENDBRANCH   1   2
BRANCH   1   9
ATOM      9  C   UNL     1      46.824   4.355 131.675  1.00  0.00     0.000 C 
BRANCH   9  10
ATOM     10  C   UNL     1      45.893   3.625 132.659  1.00  0.00    -0.000 C 
BRANCH  10  11
ATOM     11  C   UNL     1      44.408   3.944 132.414  1.00  0.00    -0.000 C 
BRANCH  11  12
ATOM     12  C   UNL     1      43.485   2.760 132.748  1.00  0.00    -0.000 C 
BRANCH  12  13
ATOM     13  C   UNL     1      43.993   1.434 132.161  1.00  0.00    -0.003 C 
ATOM     14  C   UNL     1      42.881   0.402 131.975  1.00  0.00     0.004 C 
ENDBRANCH  12  13
ENDBRANCH  11  12
ENDBRANCH  10  11
ENDBRANCH   9  10
ENDBRANCH   1   9
TORSDOF 10
ENDMDL
MODEL 6
REMARK VINA RESULT:    -4.653      2.198      2.755
REMARK INTER + INTRA:          -8.107
REMARK INTER:                  -7.100
REMARK INTRA:                  -1.007
REMARK UNBOUND:                -0.734
REMARK SMILES CCCCCCCCCCCC(=O)[O-]
REMARK SMILES IDX 7 1 8 2 9 3 10 4 11 5 12 6 13 7 14 8 6 9 5 10 4 11 3 12 2 13
REMARK SMILES IDX 1 14
REMARK H PARENT
REMARK Flexibility Score: inf
ROOT
ATOM      1  C   UNL     1      47.491   4.890 129.537  1.00  0.00     0.000 C 
ENDROOT
BRANCH   1   2
ATOM      2  C   UNL     1      46.797   4.817 130.912  1.00  0.00     0.000 C 
BRANCH   2   3
ATOM      3  C   UNL     1      45.288   4.505 130.833  1.00  0.00     0.000 C 
BRANCH   3   4
ATOM      4  C   UNL     1      44.771   3.805 132.099  1.00  0.00     0.006 C 
BRANCH   4   5
ATOM      5  C   UNL     1      45.922   3.167 132.883  1.00  0.00     0.053 C 
BRANCH   5   6
ATOM      6  C   UNL     1      45.876   3.589 134.317  1.00  0.00     0.041 C 
ATOM      7  O   UNL     1      46.094   4.787 134.633  1.00  0.00    -0.550 OA
ATOM      8  O   UNL     1      45.542   2.668 135.303  1.00  0.00    -0.550 OA
ENDBRANCH   5   6
ENDBRANCH   4   5
ENDBRANCH   3   4
ENDBRANCH   2   3
ENDBRANCH   1   2
BRANCH   1   9
ATOM      9  C   UNL     1      46.541   4.894 128.326  1.00  0.00     0.000 C 
BRANCH   9  10
ATOM     10  C   UNL     1      46.592   6.212 127.533  1.00  0.00    -0.000 C 
BRANCH  10  11
ATOM     11  C   UNL     1      45.193   6.751 127.192  1.00  0.00    -0.000 C 
BRANCH  11  12
ATOM     12  C   UNL     1      44.473   7.346 128.414  1.00  0.00    -0.000 C 
BRANCH  12  13
ATOM     13  C   UNL     1      43.155   6.624 128.730  1.00  0.00    -0.003 C 
ATOM     14  C   UNL     1      42.452   6.098 127.479  1.00  0.00     0.004 C 
ENDBRANCH  12  13
ENDBRANCH  11  12
ENDBRANCH  10  11
ENDBRANCH   9  10
ENDBRANCH   1   9
TORSDOF 10
ENDMDL
MODEL 7
REMARK VINA RESULT:    -4.650      2.881      6.074
REMARK INTER + INTRA:          -8.102
REMARK INTER:                  -7.336
REMARK INTRA:                  -0.766
REMARK UNBOUND:                -0.734
REMARK SMILES CCCCCCCCCCCC(=O)[O-]
REMARK SMILES IDX 7 1 8 2 9 3 10 4 11 5 12 6 13 7 14 8 6 9 5 10 4 11 3 12 2 13
REMARK SMILES IDX 1 14
REMARK H PARENT
REMARK Flexibility Score: inf
ROOT
ATOM      1  C   UNL     1      47.403   4.689 130.698  1.00  0.00     0.000 C 
ENDROOT
BRANCH   1   2
ATOM      2  C   UNL     1      46.561   5.534 129.722  1.00  0.00     0.000 C 
BRANCH   2   3
ATOM      3  C   UNL     1      46.507   4.962 128.289  1.00  0.00     0.000 C 
BRANCH   3   4
ATOM      4  C   UNL     1      45.068   4.697 127.822  1.00  0.00     0.006 C 
BRANCH   4   5
ATOM      5  C   UNL     1      44.404   5.985 127.326  1.00  0.00     0.053 C 
BRANCH   5   6
ATOM      6  C   UNL     1      43.154   6.261 128.099  1.00  0.00     0.041 C 
ATOM      7  O   UNL     1      42.045   6.336 127.507  1.00  0.00    -0.550 OA
ATOM      8  O   UNL     1      43.204   6.386 129.482  1.00  0.00    -0.550 OA
ENDBRANCH   5   6
ENDBRANCH   4   5
ENDBRANCH   3   4
ENDBRANCH   2   3
ENDBRANCH   1   2
BRANCH   1   9
ATOM      9  C   UNL     1      46.656   4.205 131.954  1.00  0.00     0.000 C 
BRANCH   9  10
ATOM     10  C   UNL     1      45.137   4.085 131.735  1.00  0.00    -0.000 C 
BRANCH  10  11
ATOM     11  C   UNL     1      44.521   2.904 132.502  1.00  0.00    -0.000 C 
BRANCH  11  12
ATOM     12  C   UNL     1      45.533   2.204 133.425  1.00  0.00    -0.000 C 
BRANCH  12  13
ATOM     13  C   UNL     1      45.194   2.384 134.913  1.00  0.00    -0.003 C 
ATOM     14  C   UNL     1      46.399   2.815 135.747  1.00  0.00     0.004 C 
ENDBRANCH  12  13
ENDBRANCH  11  12
ENDBRANCH  10  11
ENDBRANCH   9  10
ENDBRANCH   1   9
TORSDOF 10
ENDMDL
MODEL 8
REMARK VINA RESULT:    -4.632      5.835      7.952
REMARK INTER + INTRA:          -8.073
REMARK INTER:                  -7.007
REMARK INTRA:                  -1.066
REMARK UNBOUND:                -0.734
REMARK SMILES CCCCCCCCCCCC(=O)[O-]
REMARK SMILES IDX 7 1 8 2 9 3 10 4 11 5 12 6 13 7 14 8 6 9 5 10 4 11 3 12 2 13
REMARK SMILES IDX 1 14
REMARK H PARENT
REMARK Flexibility Score: inf
ROOT
ATOM      1  C   UNL     1      46.556   7.334 128.061  1.00  0.00     0.000 C 
ENDROOT
BRANCH   1   2
ATOM      2  C   UNL     1      46.623   7.356 126.521  1.00  0.00     0.000 C 
BRANCH   2   3
ATOM      3  C   UNL     1      48.047   7.561 125.961  1.00  0.00     0.000 C 
BRANCH   3   4
ATOM      4  C   UNL     1      48.036   8.178 124.555  1.00  0.00     0.006 C 
BRANCH   4   5
ATOM      5  C   UNL     1      48.096   9.707 124.625  1.00  0.00     0.053 C 
BRANCH   5   6
ATOM      6  C   UNL     1      46.827  10.306 124.109  1.00  0.00     0.041 C 
ATOM      7  O   UNL     1      45.934   9.569 123.615  1.00  0.00    -0.550 OA
ATOM      8  O   UNL     1      46.607  11.674 124.219  1.00  0.00    -0.550 OA
ENDBRANCH   5   6
ENDBRANCH   4   5
ENDBRANCH   3   4
ENDBRANCH   2   3
ENDBRANCH   1   2
BRANCH   1   9
ATOM      9  C   UNL     1      46.765   5.951 128.704  1.00  0.00     0.000 C 
BRANCH   9  10
ATOM     10  C   UNL     1      46.244   4.801 127.825  1.00  0.00    -0.000 C 
BRANCH  10  11
ATOM     11  C   UNL     1      44.755   4.502 128.063  1.00  0.00    -0.000 C 
BRANCH  11  12
ATOM     12  C   UNL     1      43.878   4.852 126.849  1.00  0.00    -0.000 C 
BRANCH  12  13
ATOM     13  C   UNL     1      42.898   5.998 127.140  1.00  0.00    -0.003 C 
ATOM     14  C   UNL     1      42.914   6.434 128.605  1.00  0.00     0.004 C 
ENDBRANCH  12  13
ENDBRANCH  11  12
ENDBRANCH  10  11
ENDBRANCH   9  10
ENDBRANCH   1   9
TORSDOF 10
ENDMDL
MODEL 9
REMARK VINA RESULT:    -4.512      5.339      6.716
REMARK INTER + INTRA:          -7.883
REMARK INTER:                  -7.255
REMARK INTRA:                  -0.629
REMARK UNBOUND:                -0.734
REMARK SMILES CCCCCCCCCCCC(=O)[O-]
REMARK SMILES IDX 7 1 8 2 9 3 10 4 11 5 12 6 13 7 14 8 6 9 5 10 4 11 3 12 2 13
REMARK SMILES IDX 1 14
REMARK H PARENT
REMARK Flexibility Score: inf
ROOT
ATOM      1  C   UNL     1      46.646   7.895 125.632  1.00  0.00     0.000 C 
ENDROOT
BRANCH   1   2
ATOM      2  C   UNL     1      47.482   7.259 126.760  1.00  0.00     0.000 C 
BRANCH   2   3
ATOM      3  C   UNL     1      46.644   6.780 127.964  1.00  0.00     0.000 C 
BRANCH   3   4
ATOM      4  C   UNL     1      45.247   7.420 127.994  1.00  0.00     0.006 C 
BRANCH   4   5
ATOM      5  C   UNL     1      44.212   6.454 128.578  1.00  0.00     0.053 C 
BRANCH   5   6
ATOM      6  C   UNL     1      43.375   5.863 127.489  1.00  0.00     0.041 C 
ATOM      7  O   UNL     1      42.157   6.165 127.390  1.00  0.00    -0.550 OA
ATOM      8  O   UNL     1      43.951   5.016 126.550  1.00  0.00    -0.550 OA
ENDBRANCH   5   6
ENDBRANCH   4   5
ENDBRANCH   3   4
ENDBRANCH   2   3
ENDBRANCH   1   2
BRANCH   1   9
ATOM      9  C   UNL     1      47.419   8.197 124.337  1.00  0.00     0.000 C 
BRANCH   9  10
ATOM     10  C   UNL     1      47.943   9.644 124.279  1.00  0.00    -0.000 C 
BRANCH  10  11
ATOM     11  C   UNL     1      47.116  10.534 123.336  1.00  0.00    -0.000 C 
BRANCH  11  12
ATOM     12  C   UNL     1      46.540  11.772 124.043  1.00  0.00    -0.000 C 
BRANCH  12  13
ATOM     13  C   UNL     1      45.009  11.727 124.155  1.00  0.00    -0.003 C 
ATOM     14  C   UNL     1      44.322  11.491 122.810  1.00  0.00     0.004 C 
ENDBRANCH  12  13
ENDBRANCH  11  12
ENDBRANCH  10  11
ENDBRANCH   9  10
ENDBRANCH   1   9
TORSDOF 10
ENDMDL
