MODEL 1
REMARK VINA RESULT:    -3.236      0.000      0.000
REMARK INTER + INTRA:          -3.630
REMARK INTER:                  -3.614
REMARK INTRA:                  -0.016
REMARK UNBOUND:                -0.016
REMARK SMILES CCCC(=O)[O-]
REMARK SMILES IDX 3 1 4 2 5 3 6 4 2 5 1 6
REMARK H PARENT
REMARK Flexibility Score: inf
ROOT
ATOM      1  C   UNL     1      31.284  18.886  25.626  1.00  0.00     0.052 C 
ENDROOT
BRANCH   1   2
ATOM      2  C   UNL     1      31.261  18.170  26.939  1.00  0.00     0.041 C 
ATOM      3  O   UNL     1      30.586  18.628  27.898  1.00  0.00    -0.550 OA
ATOM      4  O   UNL     1      32.024  17.024  27.120  1.00  0.00    -0.550 OA
ENDBRANCH   1   2
BRANCH   1   5
ATOM      5  C   UNL     1      32.067  18.076  24.588  1.00  0.00     0.003 C 
ATOM      6  C   UNL     1      32.778  18.992  23.598  1.00  0.00     0.004 C 
ENDBRANCH   1   5
TORSDOF 2
ENDMDL
MODEL 2
REMARK VINA RESULT:    -3.188      1.176      1.649
REMARK INTER + INTRA:          -3.578
REMARK INTER:                  -3.572
REMARK INTRA:                  -0.006
REMARK UNBOUND:                -0.016
REMARK SMILES CCCC(=O)[O-]
REMARK SMILES IDX 3 1 4 2 5 3 6 4 2 5 1 6
REMARK H PARENT
REMARK Flexibility Score: inf
ROOT
ATOM      1  C   UNL     1      31.958  17.887  25.190  1.00  0.00     0.052 C 
ENDROOT
BRANCH   1   2
ATOM      2  C   UNL     1      31.163  18.589  26.246  1.00  0.00     0.041 C 
ATOM      3  O   UNL     1      31.414  18.392  27.464  1.00  0.00    -0.550 OA
ATOM      4  O   UNL     1      30.110  19.422  25.886  1.00  0.00    -0.550 OA
ENDBRANCH   1   2
BRANCH   1   5
ATOM      5  C   UNL     1      32.397  18.876  24.106  1.00  0.00     0.003 C 
ATOM      6  C   UNL     1      33.519  18.294  23.253  1.00  0.00     0.004 C 
ENDBRANCH   1   5
TORSDOF 2
ENDMDL
MODEL 3
REMARK VINA RESULT:    -2.987      2.940      3.774
REMARK INTER + INTRA:          -3.352
REMARK INTER:                  -3.341
REMARK INTRA:                  -0.011
REMARK UNBOUND:                -0.016
REMARK SMILES CCCC(=O)[O-]
REMARK SMILES IDX 3 1 4 2 5 3 6 4 2 5 1 6
REMARK H PARENT
REMARK Flexibility Score: inf
ROOT
ATOM      1  C   UNL     1      31.864  18.942  24.371  1.00  0.00     0.052 C 
ENDROOT
BRANCH   1   2
ATOM      2  C   UNL     1      33.009  18.870  23.411  1.00  0.00     0.041 C 
ATOM      3  O   UNL     1      33.205  19.801  22.587  1.00  0.00    -0.550 OA
ATOM      4  O   UNL     1      33.831  17.750  23.391  1.00  0.00    -0.550 OA
ENDBRANCH   1   2
BRANCH   1   5
ATOM      5  C   UNL     1      31.981  17.840  25.427  1.00  0.00     0.003 C 
ATOM      6  C   UNL     1      31.227  18.216  26.699  1.00  0.00     0.004 C 
ENDBRANCH   1   5
TORSDOF 2
ENDMDL
MODEL 4
REMARK VINA RESULT:    -2.947      2.220      3.114
REMARK INTER + INTRA:          -3.308
REMARK INTER:                  -3.298
REMARK INTRA:                  -0.010
REMARK UNBOUND:                -0.016
REMARK SMILES CCCC(=O)[O-]
REMARK SMILES IDX 3 1 4 2 5 3 6 4 2 5 1 6
REMARK H PARENT
REMARK Flexibility Score: inf
ROOT
ATOM      1  C   UNL     1      30.892  18.252  27.370  1.00  0.00     0.052 C 
ENDROOT
BRANCH   1   2
ATOM      2  C   UNL     1      30.716  18.958  26.062  1.00  0.00     0.041 C 
ATOM      3  O   UNL     1      29.688  19.652  25.851  1.00  0.00    -0.550 OA
ATOM      4  O   UNL     1      31.665  18.809  25.058  1.00  0.00    -0.550 OA
ENDBRANCH   1   2
BRANCH   1   5
ATOM      5  C   UNL     1      31.941  17.143  27.243  1.00  0.00     0.003 C 
ATOM      6  C   UNL     1      32.267  16.536  28.603  1.00  0.00     0.004 C 
ENDBRANCH   1   5
TORSDOF 2
ENDMDL
MODEL 5
REMARK VINA RESULT:    -2.727     10.127     10.726
REMARK INTER + INTRA:          -3.062
REMARK INTER:                  -3.052
REMARK INTRA:                  -0.010
REMARK UNBOUND:                -0.016
REMARK SMILES CCCC(=O)[O-]
REMARK SMILES IDX 3 1 4 2 5 3 6 4 2 5 1 6
REMARK H PARENT
REMARK Flexibility Score: inf
ROOT
ATOM      1  C   UNL     1      29.101   9.102  20.053  1.00  0.00     0.052 C 
ENDROOT
BRANCH   1   2
ATOM      2  C   UNL     1      28.962   9.544  21.476  1.00  0.00     0.041 C 
ATOM      3  O   UNL     1      29.677  10.479  21.921  1.00  0.00    -0.550 OA
ATOM      4  O   UNL     1      28.078   8.889  22.325  1.00  0.00    -0.550 OA
ENDBRANCH   1   2
BRANCH   1   5
ATOM      5  C   UNL     1      30.545   9.278  19.577  1.00  0.00     0.003 C 
ATOM      6  C   UNL     1      30.693   8.884  18.111  1.00  0.00     0.004 C 
ENDBRANCH   1   5
TORSDOF 2
ENDMDL
MODEL 6
REMARK VINA RESULT:    -2.623      3.862      4.610
REMARK INTER + INTRA:          -2.946
REMARK INTER:                  -2.886
REMARK INTRA:                  -0.060
REMARK UNBOUND:                -0.016
REMARK SMILES CCCC(=O)[O-]
REMARK SMILES IDX 3 1 4 2 5 3 6 4 2 5 1 6
REMARK H PARENT
REMARK Flexibility Score: inf
ROOT
ATOM      1  C   UNL     1      33.139  18.264  22.666  1.00  0.00     0.052 C 
ENDROOT
BRANCH   1   2
ATOM      2  C   UNL     1      32.545  19.490  22.046  1.00  0.00     0.041 C 
ATOM      3  O   UNL     1      31.526  19.398  21.312  1.00  0.00    -0.550 OA
ATOM      4  O   UNL     1      33.144  20.728  22.239  1.00  0.00    -0.550 OA
ENDBRANCH   1   2
BRANCH   1   5
ATOM      5  C   UNL     1      33.095  18.362  24.194  1.00  0.00     0.003 C 
ATOM      6  C   UNL     1      31.665  18.543  24.692  1.00  0.00     0.004 C 
ENDBRANCH   1   5
TORSDOF 2
ENDMDL
MODEL 7
REMARK VINA RESULT:    -2.571     10.601     10.807
REMARK INTER + INTRA:          -2.888
REMARK INTER:                  -2.869
REMARK INTRA:                  -0.018
REMARK UNBOUND:                -0.016
REMARK SMILES CCCC(=O)[O-]
REMARK SMILES IDX 3 1 4 2 5 3 6 4 2 5 1 6
REMARK H PARENT
REMARK Flexibility Score: inf
ROOT
ATOM      1  C   UNL     1      30.427  29.124  24.991  1.00  0.00     0.052 C 
ENDROOT
BRANCH   1   2
ATOM      2  C   UNL     1      30.290  28.980  26.473  1.00  0.00     0.041 C 
ATOM      3  O   UNL     1      29.150  28.966  27.006  1.00  0.00    -0.550 OA
ATOM      4  O   UNL     1      31.424  28.912  27.274  1.00  0.00    -0.550 OA
ENDBRANCH   1   2
BRANCH   1   5
ATOM      5  C   UNL     1      29.064  28.972  24.310  1.00  0.00     0.003 C 
ATOM      6  C   UNL     1      29.181  28.171  23.017  1.00  0.00     0.004 C 
ENDBRANCH   1   5
TORSDOF 2
ENDMDL
MODEL 8
REMARK VINA RESULT:    -2.459     11.487     11.914
REMARK INTER + INTRA:          -2.763
REMARK INTER:                  -2.727
REMARK INTRA:                  -0.037
REMARK UNBOUND:                -0.016
REMARK SMILES CCCC(=O)[O-]
REMARK SMILES IDX 3 1 4 2 5 3 6 4 2 5 1 6
REMARK H PARENT
REMARK Flexibility Score: inf
ROOT
ATOM      1  C   UNL     1      23.262  11.550  20.413  1.00  0.00     0.052 C 
ENDROOT
BRANCH   1   2
ATOM      2  C   UNL     1      24.724  11.857  20.482  1.00  0.00     0.041 C 
ATOM      3  O   UNL     1      25.240  12.669  19.669  1.00  0.00    -0.550 OA
ATOM      4  O   UNL     1      25.528  11.210  21.412  1.00  0.00    -0.550 OA
ENDBRANCH   1   2
BRANCH   1   5
ATOM      5  C   UNL     1      22.955  10.240  21.143  1.00  0.00     0.003 C 
ATOM      6  C   UNL     1      22.201  10.498  22.443  1.00  0.00     0.004 C 
ENDBRANCH   1   5
TORSDOF 2
ENDMDL
