MODEL 1
REMARK VINA RESULT:     0.177      0.000      0.000
REMARK INTER + INTRA:          -0.094
REMARK INTER:                   0.192
REMARK INTRA:                  -0.286
REMARK UNBOUND:                -0.286
REMARK SMILES CC(C)(C)[C@H]1C=C[C@@H](O)CC1
REMARK SMILES IDX 5 1 11 2 10 3 8 4 7 5 6 6 2 7 1 8 3 9 4 10 9 11
REMARK H PARENT 9 12
REMARK Flexibility Score: inf
ROOT
ATOM      1  C   UNL     1     -35.066  34.642  -9.872  1.00  0.00     0.017 C 
ATOM      2  C   UNL     1     -36.054  33.453  -9.668  1.00  0.00     0.011 C 
ATOM      3  C   UNL     1     -37.528  33.871  -9.729  1.00  0.00     0.037 C 
ATOM      4  C   UNL     1     -37.822  34.948  -8.681  1.00  0.00     0.137 C 
ATOM      5  C   UNL     1     -36.844  36.086  -8.784  1.00  0.00     0.000 C 
ATOM      6  C   UNL     1     -35.597  35.935  -9.260  1.00  0.00    -0.025 C 
ENDROOT
BRANCH   1   7
ATOM      7  C   UNL     1     -34.543  34.831 -11.354  1.00  0.00    -0.032 C 
ATOM      8  C   UNL     1     -34.604  33.487 -12.125  1.00  0.00     0.011 C 
ATOM      9  C   UNL     1     -35.367  35.883 -12.125  1.00  0.00     0.011 C 
ATOM     10  C   UNL     1     -33.060  35.282 -11.353  1.00  0.00     0.011 C 
ENDBRANCH   1   7
BRANCH   4  11
ATOM     11  O   UNL     1     -39.123  35.444  -8.857  1.00  0.00    -0.389 OA
ATOM     12  H   UNL     1     -39.031  36.387  -9.157  1.00  0.00     0.211 HD
ENDBRANCH   4  11
TORSDOF 2
ENDMDL
MODEL 2
REMARK VINA RESULT:     1.209      2.109      3.420
REMARK INTER + INTRA:           1.029
REMARK INTER:                   1.247
REMARK INTRA:                  -0.218
REMARK UNBOUND:                -0.286
REMARK SMILES CC(C)(C)[C@H]1C=C[C@@H](O)CC1
REMARK SMILES IDX 5 1 11 2 10 3 8 4 7 5 6 6 2 7 1 8 3 9 4 10 9 11
REMARK H PARENT 9 12
REMARK Flexibility Score: inf
ROOT
ATOM      1  C   UNL     1     -37.386  35.313 -10.360  1.00  0.00     0.017 C 
ATOM      2  C   UNL     1     -38.630  34.769  -9.594  1.00  0.00     0.011 C 
ATOM      3  C   UNL     1     -38.886  33.276  -9.833  1.00  0.00     0.037 C 
ATOM      4  C   UNL     1     -39.061  32.996 -11.328  1.00  0.00     0.137 C 
ATOM      5  C   UNL     1     -37.922  33.572 -12.125  1.00  0.00     0.000 C 
ATOM      6  C   UNL     1     -37.216  34.640 -11.720  1.00  0.00    -0.025 C 
ENDROOT
BRANCH   1   7
ATOM      7  C   UNL     1     -36.046  35.351  -9.519  1.00  0.00    -0.032 C 
ATOM      8  C   UNL     1     -36.267  36.102  -8.182  1.00  0.00     0.011 C 
ATOM      9  C   UNL     1     -35.519  33.935  -9.212  1.00  0.00     0.011 C 
ATOM     10  C   UNL     1     -34.944  36.122 -10.291  1.00  0.00     0.011 C 
ENDBRANCH   1   7
BRANCH   4  11
ATOM     11  O   UNL     1     -39.123  31.613 -11.553  1.00  0.00    -0.389 OA
ATOM     12  H   UNL     1     -39.170  31.485 -12.536  1.00  0.00     0.211 HD
ENDBRANCH   4  11
TORSDOF 2
ENDMDL
