MODEL 1
REMARK VINA RESULT:    -4.269      0.000      0.000
REMARK INTER + INTRA:          -4.970
REMARK INTER:                  -4.893
REMARK INTRA:                  -0.077
REMARK UNBOUND:                -0.077
REMARK SMILES COc1cc(C=O)ccc1O
REMARK SMILES IDX 3 1 10 2 9 3 8 4 5 5 4 6 2 7 1 8 11 9 6 11 7 12
REMARK H PARENT 11 10
REMARK Flexibility Score: inf
ROOT
ATOM      1  C   UNL     1      31.263  10.718  62.773  1.00  0.00     0.161 A 
ATOM      2  C   UNL     1      30.618   9.557  62.322  1.00  0.00     0.157 A 
ATOM      3  C   UNL     1      31.174   8.805  61.279  1.00  0.00     0.051 A 
ATOM      4  C   UNL     1      32.371   9.204  60.682  1.00  0.00     0.015 A 
ATOM      5  C   UNL     1      33.029  10.364  61.122  1.00  0.00     0.018 A 
ATOM      6  C   UNL     1      32.471  11.117  62.168  1.00  0.00     0.062 A 
ENDROOT
BRANCH   1   7
ATOM      7  O   UNL     1      30.675  11.445  63.821  1.00  0.00    -0.493 OA
ATOM      8  C   UNL     1      31.111  11.401  65.175  1.00  0.00     0.278 C 
ENDBRANCH   1   7
BRANCH   2   9
ATOM      9  O   UNL     1      29.423   9.158  62.917  1.00  0.00    -0.504 OA
ATOM     10  H   UNL     1      29.128   9.525  63.813  1.00  0.00     0.293 HD
ENDBRANCH   2   9
BRANCH   5  11
ATOM     11  C   UNL     1      34.294  10.801  60.504  1.00  0.00     0.260 C 
ATOM     12  O   UNL     1      35.132   9.963  60.074  1.00  0.00    -0.298 OA
ENDBRANCH   5  11
TORSDOF 3
ENDMDL
MODEL 2
REMARK VINA RESULT:    -4.243      2.392      4.427
REMARK INTER + INTRA:          -4.940
REMARK INTER:                  -4.865
REMARK INTRA:                  -0.075
REMARK UNBOUND:                -0.077
REMARK SMILES COc1cc(C=O)ccc1O
REMARK SMILES IDX 3 1 10 2 9 3 8 4 5 5 4 6 2 7 1 8 11 9 6 11 7 12
REMARK H PARENT 11 10
REMARK Flexibility Score: inf
ROOT
ATOM      1  C   UNL     1      30.443  10.314  63.341  1.00  0.00     0.161 A 
ATOM      2  C   UNL     1      29.313   9.987  64.104  1.00  0.00     0.157 A 
ATOM      3  C   UNL     1      29.211  10.422  65.432  1.00  0.00     0.051 A 
ATOM      4  C   UNL     1      30.232  11.183  66.005  1.00  0.00     0.015 A 
ATOM      5  C   UNL     1      31.371  11.518  65.254  1.00  0.00     0.018 A 
ATOM      6  C   UNL     1      31.471  11.082  63.923  1.00  0.00     0.062 A 
ENDROOT
BRANCH   1   7
ATOM      7  O   UNL     1      30.508   9.859  62.014  1.00  0.00    -0.493 OA
ATOM      8  C   UNL     1      31.245   8.717  61.589  1.00  0.00     0.278 C 
ENDBRANCH   1   7
BRANCH   2   9
ATOM      9  O   UNL     1      28.293   9.227  63.534  1.00  0.00    -0.504 OA
ATOM     10  H   UNL     1      27.325   9.352  63.803  1.00  0.00     0.293 HD
ENDBRANCH   2   9
BRANCH   5  11
ATOM     11  C   UNL     1      32.458  12.321  65.842  1.00  0.00     0.260 C 
ATOM     12  O   UNL     1      32.211  13.331  66.555  1.00  0.00    -0.298 OA
ENDBRANCH   5  11
TORSDOF 3
ENDMDL
MODEL 3
REMARK VINA RESULT:    -4.101      1.191      4.103
REMARK INTER + INTRA:          -4.778
REMARK INTER:                  -4.700
REMARK INTRA:                  -0.078
REMARK UNBOUND:                -0.077
REMARK SMILES COc1cc(C=O)ccc1O
REMARK SMILES IDX 3 1 10 2 9 3 8 4 5 5 4 6 2 7 1 8 11 9 6 11 7 12
REMARK H PARENT 11 10
REMARK Flexibility Score: inf
ROOT
ATOM      1  C   UNL     1      32.927  10.439  61.177  1.00  0.00     0.161 A 
ATOM      2  C   UNL     1      32.583   9.133  60.797  1.00  0.00     0.157 A 
ATOM      3  C   UNL     1      31.472   8.504  61.373  1.00  0.00     0.051 A 
ATOM      4  C   UNL     1      30.700   9.170  62.326  1.00  0.00     0.015 A 
ATOM      5  C   UNL     1      31.032  10.478  62.717  1.00  0.00     0.018 A 
ATOM      6  C   UNL     1      32.146  11.107  62.140  1.00  0.00     0.062 A 
ENDROOT
BRANCH   1   7
ATOM      7  O   UNL     1      34.049  11.035  60.577  1.00  0.00    -0.493 OA
ATOM      8  C   UNL     1      35.316  11.185  61.209  1.00  0.00     0.278 C 
ENDBRANCH   1   7
BRANCH   2   9
ATOM      9  O   UNL     1      33.353   8.467  59.845  1.00  0.00    -0.504 OA
ATOM     10  H   UNL     1      34.265   8.089  60.071  1.00  0.00     0.293 HD
ENDBRANCH   2   9
BRANCH   5  11
ATOM     11  C   UNL     1      30.228  11.196  63.723  1.00  0.00     0.260 C 
ATOM     12  O   UNL     1      29.059  10.823  64.011  1.00  0.00    -0.298 OA
ENDBRANCH   5  11
TORSDOF 3
ENDMDL
MODEL 4
REMARK VINA RESULT:    -3.993      2.525      5.181
REMARK INTER + INTRA:          -4.654
REMARK INTER:                  -4.585
REMARK INTRA:                  -0.070
REMARK UNBOUND:                -0.077
REMARK SMILES COc1cc(C=O)ccc1O
REMARK SMILES IDX 3 1 10 2 9 3 8 4 5 5 4 6 2 7 1 8 11 9 6 11 7 12
REMARK H PARENT 11 10
REMARK Flexibility Score: inf
ROOT
ATOM      1  C   UNL     1      30.516  11.125  63.866  1.00  0.00     0.161 A 
ATOM      2  C   UNL     1      29.608  10.079  63.642  1.00  0.00     0.157 A 
ATOM      3  C   UNL     1      28.486   9.934  64.469  1.00  0.00     0.051 A 
ATOM      4  C   UNL     1      28.263  10.827  65.518  1.00  0.00     0.015 A 
ATOM      5  C   UNL     1      29.163  11.879  65.755  1.00  0.00     0.018 A 
ATOM      6  C   UNL     1      30.287  12.024  64.926  1.00  0.00     0.062 A 
ENDROOT
BRANCH   1   7
ATOM      7  O   UNL     1      31.628  11.237  63.016  1.00  0.00    -0.493 OA
ATOM      8  C   UNL     1      32.982  11.120  63.442  1.00  0.00     0.278 C 
ENDBRANCH   1   7
BRANCH   2   9
ATOM      9  O   UNL     1      29.829   9.187  62.594  1.00  0.00    -0.504 OA
ATOM     10  H   UNL     1      29.420   9.331  61.680  1.00  0.00     0.293 HD
ENDBRANCH   2   9
BRANCH   5  11
ATOM     11  C   UNL     1      28.944  12.832  66.859  1.00  0.00     0.260 C 
ATOM     12  O   UNL     1      29.872  13.128  67.658  1.00  0.00    -0.298 OA
ENDBRANCH   5  11
TORSDOF 3
ENDMDL
MODEL 5
REMARK VINA RESULT:    -3.993      2.357      2.860
REMARK INTER + INTRA:          -4.654
REMARK INTER:                  -4.583
REMARK INTRA:                  -0.071
REMARK UNBOUND:                -0.077
REMARK SMILES COc1cc(C=O)ccc1O
REMARK SMILES IDX 3 1 10 2 9 3 8 4 5 5 4 6 2 7 1 8 11 9 6 11 7 12
REMARK H PARENT 11 10
REMARK Flexibility Score: inf
ROOT
ATOM      1  C   UNL     1      30.059  10.308  64.862  1.00  0.00     0.161 A 
ATOM      2  C   UNL     1      29.600   9.754  63.658  1.00  0.00     0.157 A 
ATOM      3  C   UNL     1      30.451   9.684  62.548  1.00  0.00     0.051 A 
ATOM      4  C   UNL     1      31.760  10.163  62.631  1.00  0.00     0.015 A 
ATOM      5  C   UNL     1      32.234  10.721  63.830  1.00  0.00     0.018 A 
ATOM      6  C   UNL     1      31.380  10.791  64.942  1.00  0.00     0.062 A 
ENDROOT
BRANCH   1   7
ATOM      7  O   UNL     1      29.175  10.360  65.953  1.00  0.00    -0.493 OA
ATOM      8  C   UNL     1      28.420  11.509  66.323  1.00  0.00     0.278 C 
ENDBRANCH   1   7
BRANCH   2   9
ATOM      9  O   UNL     1      28.293   9.275  63.573  1.00  0.00    -0.504 OA
ATOM     10  H   UNL     1      27.594   9.741  63.009  1.00  0.00     0.293 HD
ENDBRANCH   2   9
BRANCH   5  11
ATOM     11  C   UNL     1      33.613  11.232  63.937  1.00  0.00     0.260 C 
ATOM     12  O   UNL     1      33.842  12.424  64.273  1.00  0.00    -0.298 OA
ENDBRANCH   5  11
TORSDOF 3
ENDMDL
MODEL 6
REMARK VINA RESULT:    -3.928     12.928     13.581
REMARK INTER + INTRA:          -4.579
REMARK INTER:                  -4.526
REMARK INTRA:                  -0.054
REMARK UNBOUND:                -0.077
REMARK SMILES COc1cc(C=O)ccc1O
REMARK SMILES IDX 3 1 10 2 9 3 8 4 5 5 4 6 2 7 1 8 11 9 6 11 7 12
REMARK H PARENT 11 10
REMARK Flexibility Score: inf
ROOT
ATOM      1  C   UNL     1      25.939  22.220  60.091  1.00  0.00     0.161 A 
ATOM      2  C   UNL     1      27.010  23.125  60.094  1.00  0.00     0.157 A 
ATOM      3  C   UNL     1      27.821  23.257  58.959  1.00  0.00     0.051 A 
ATOM      4  C   UNL     1      27.569  22.492  57.819  1.00  0.00     0.015 A 
ATOM      5  C   UNL     1      26.499  21.581  57.801  1.00  0.00     0.018 A 
ATOM      6  C   UNL     1      25.688  21.449  58.939  1.00  0.00     0.062 A 
ENDROOT
BRANCH   1   7
ATOM      7  O   UNL     1      25.150  22.116  61.248  1.00  0.00    -0.493 OA
ATOM      8  C   UNL     1      24.381  20.970  61.598  1.00  0.00     0.278 C 
ENDBRANCH   1   7
BRANCH   2   9
ATOM      9  O   UNL     1      27.264  23.890  61.231  1.00  0.00    -0.504 OA
ATOM     10  H   UNL     1      26.711  23.787  62.073  1.00  0.00     0.293 HD
ENDBRANCH   2   9
BRANCH   5  11
ATOM     11  C   UNL     1      26.218  20.765  56.606  1.00  0.00     0.260 C 
ATOM     12  O   UNL     1      26.531  19.545  56.561  1.00  0.00    -0.298 OA
ENDBRANCH   5  11
TORSDOF 3
ENDMDL
MODEL 7
REMARK VINA RESULT:    -3.808      1.947      3.049
REMARK INTER + INTRA:          -4.441
REMARK INTER:                  -4.383
REMARK INTRA:                  -0.058
REMARK UNBOUND:                -0.077
REMARK SMILES COc1cc(C=O)ccc1O
REMARK SMILES IDX 3 1 10 2 9 3 8 4 5 5 4 6 2 7 1 8 11 9 6 11 7 12
REMARK H PARENT 11 10
REMARK Flexibility Score: inf
ROOT
ATOM      1  C   UNL     1      30.547  11.041  63.990  1.00  0.00     0.161 A 
ATOM      2  C   UNL     1      31.832  11.531  64.268  1.00  0.00     0.157 A 
ATOM      3  C   UNL     1      32.942  11.016  63.587  1.00  0.00     0.051 A 
ATOM      4  C   UNL     1      32.780  10.015  62.628  1.00  0.00     0.015 A 
ATOM      5  C   UNL     1      31.500   9.514  62.338  1.00  0.00     0.018 A 
ATOM      6  C   UNL     1      30.388  10.030  63.021  1.00  0.00     0.062 A 
ENDROOT
BRANCH   1   7
ATOM      7  O   UNL     1      29.459  11.581  64.694  1.00  0.00    -0.493 OA
ATOM      8  C   UNL     1      28.292  10.851  65.057  1.00  0.00     0.278 C 
ENDBRANCH   1   7
BRANCH   2   9
ATOM      9  O   UNL     1      31.996  12.530  65.226  1.00  0.00    -0.504 OA
ATOM     10  H   UNL     1      32.826  12.580  65.803  1.00  0.00     0.293 HD
ENDBRANCH   2   9
BRANCH   5  11
ATOM     11  C   UNL     1      31.310   8.457  61.328  1.00  0.00     0.260 C 
ATOM     12  O   UNL     1      31.752   8.588  60.155  1.00  0.00    -0.298 OA
ENDBRANCH   5  11
TORSDOF 3
ENDMDL
MODEL 8
REMARK VINA RESULT:    -3.779     14.151     14.908
REMARK INTER + INTRA:          -4.408
REMARK INTER:                  -4.349
REMARK INTRA:                  -0.059
REMARK UNBOUND:                -0.077
REMARK SMILES COc1cc(C=O)ccc1O
REMARK SMILES IDX 3 1 10 2 9 3 8 4 5 5 4 6 2 7 1 8 11 9 6 11 7 12
REMARK H PARENT 11 10
REMARK Flexibility Score: inf
ROOT
ATOM      1  C   UNL     1      25.424  21.052  54.886  1.00  0.00     0.161 A 
ATOM      2  C   UNL     1      26.121  20.070  55.605  1.00  0.00     0.157 A 
ATOM      3  C   UNL     1      26.493  20.304  56.935  1.00  0.00     0.051 A 
ATOM      4  C   UNL     1      26.172  21.514  57.554  1.00  0.00     0.015 A 
ATOM      5  C   UNL     1      25.473  22.507  56.848  1.00  0.00     0.018 A 
ATOM      6  C   UNL     1      25.102  22.271  55.514  1.00  0.00     0.062 A 
ENDROOT
BRANCH   1   7
ATOM      7  O   UNL     1      25.070  20.779  53.554  1.00  0.00    -0.493 OA
ATOM      8  C   UNL     1      23.985  21.394  52.868  1.00  0.00     0.278 C 
ENDBRANCH   1   7
BRANCH   2   9
ATOM      9  O   UNL     1      26.443  18.862  54.988  1.00  0.00    -0.504 OA
ATOM     10  H   UNL     1      26.264  18.705  54.004  1.00  0.00     0.293 HD
ENDBRANCH   2   9
BRANCH   5  11
ATOM     11  C   UNL     1      25.126  23.789  57.485  1.00  0.00     0.260 C 
ATOM     12  O   UNL     1      25.774  24.222  58.476  1.00  0.00    -0.298 OA
ENDBRANCH   5  11
TORSDOF 3
ENDMDL
MODEL 9
REMARK VINA RESULT:    -3.667      2.383      3.600
REMARK INTER + INTRA:          -4.280
REMARK INTER:                  -4.224
REMARK INTRA:                  -0.056
REMARK UNBOUND:                -0.077
REMARK SMILES COc1cc(C=O)ccc1O
REMARK SMILES IDX 3 1 10 2 9 3 8 4 5 5 4 6 2 7 1 8 11 9 6 11 7 12
REMARK H PARENT 11 10
REMARK Flexibility Score: inf
ROOT
ATOM      1  C   UNL     1      30.340  11.494  65.750  1.00  0.00     0.161 A 
ATOM      2  C   UNL     1      29.178  10.708  65.779  1.00  0.00     0.157 A 
ATOM      3  C   UNL     1      28.821   9.942  64.661  1.00  0.00     0.051 A 
ATOM      4  C   UNL     1      29.617   9.954  63.514  1.00  0.00     0.015 A 
ATOM      5  C   UNL     1      30.784  10.735  63.471  1.00  0.00     0.018 A 
ATOM      6  C   UNL     1      31.140  11.503  64.591  1.00  0.00     0.062 A 
ENDROOT
BRANCH   1   7
ATOM      7  O   UNL     1      30.664  12.248  66.890  1.00  0.00    -0.493 OA
ATOM      8  C   UNL     1      31.831  13.054  67.017  1.00  0.00     0.278 C 
ENDBRANCH   1   7
BRANCH   2   9
ATOM      9  O   UNL     1      28.383  10.695  66.923  1.00  0.00    -0.504 OA
ATOM     10  H   UNL     1      28.788  10.663  67.850  1.00  0.00     0.293 HD
ENDBRANCH   2   9
BRANCH   5  11
ATOM     11  C   UNL     1      31.636  10.760  62.268  1.00  0.00     0.260 C 
ATOM     12  O   UNL     1      31.135  10.713  61.113  1.00  0.00    -0.298 OA
ENDBRANCH   5  11
TORSDOF 3
ENDMDL
