MODEL 1
REMARK VINA RESULT:    -5.463      0.000      0.000
REMARK INTER + INTRA:         -10.829
REMARK INTER:                  -8.338
REMARK INTRA:                  -2.492
REMARK UNBOUND:                -2.492
REMARK SMILES CC(=O)CCC=C(C)CCC=C(C)CCC=C(C)C
REMARK SMILES IDX 10 1 11 2 12 3 13 4 14 5 15 6 16 7 18 8 17 9 19 10 9 11 7 12
REMARK SMILES IDX 6 13 8 14 5 15 4 16 2 17 3 18 1 19
REMARK H PARENT
REMARK Flexibility Score: inf
ROOT
ATOM      1  C   UNL     1      15.272 -34.637  20.641  1.00  0.00     0.032 C 
ENDROOT
BRANCH   1   2
ATOM      2  C   UNL     1      14.955 -33.706  21.786  1.00  0.00    -0.028 C 
ATOM      3  C   UNL     1      15.677 -33.615  22.926  1.00  0.00    -0.077 C 
ATOM      4  C   UNL     1      16.949 -34.404  23.129  1.00  0.00     0.039 C 
BRANCH   3   5
ATOM      5  C   UNL     1      15.211 -32.675  24.016  1.00  0.00     0.034 C 
BRANCH   5   6
ATOM      6  C   UNL     1      13.754 -32.254  23.788  1.00  0.00     0.032 C 
BRANCH   6   7
ATOM      7  C   UNL     1      13.613 -30.755  23.855  1.00  0.00    -0.028 C 
ATOM      8  C   UNL     1      12.866 -28.520  23.156  1.00  0.00     0.039 C 
ATOM      9  C   UNL     1      12.961 -30.008  22.936  1.00  0.00    -0.080 C 
ATOM     10  C   UNL     1      12.344 -30.619  21.700  1.00  0.00     0.039 C 
ENDBRANCH   6   7
ENDBRANCH   5   6
ENDBRANCH   3   5
ENDBRANCH   1   2
BRANCH   1  11
ATOM     11  C   UNL     1      16.022 -33.918  19.508  1.00  0.00     0.034 C 
BRANCH  11  12
ATOM     12  C   UNL     1      17.524 -34.123  19.604  1.00  0.00    -0.077 C 
ATOM     13  C   UNL     1      18.384 -33.130  19.931  1.00  0.00    -0.028 C 
ATOM     14  C   UNL     1      18.091 -35.485  19.294  1.00  0.00     0.039 C 
BRANCH  13  15
ATOM     15  C   UNL     1      17.976 -31.736  20.334  1.00  0.00     0.035 C 
BRANCH  15  16
ATOM     16  C   UNL     1      18.639 -31.339  21.657  1.00  0.00     0.079 C 
BRANCH  16  17
ATOM     17  C   UNL     1      17.697 -30.519  22.498  1.00  0.00     0.130 C 
ATOM     18  O   UNL     1      17.847 -30.484  23.710  1.00  0.00    -0.300 OA
ATOM     19  C   UNL     1      16.570 -29.747  21.879  1.00  0.00     0.087 C 
ENDBRANCH  16  17
ENDBRANCH  15  16
ENDBRANCH  13  15
ENDBRANCH  11  12
ENDBRANCH   1  11
TORSDOF 9
ENDMDL
MODEL 2
REMARK VINA RESULT:    -5.441      1.966      3.081
REMARK INTER + INTRA:         -10.796
REMARK INTER:                  -8.497
REMARK INTRA:                  -2.299
REMARK UNBOUND:                -2.492
REMARK SMILES CC(=O)CCC=C(C)CCC=C(C)CCC=C(C)C
REMARK SMILES IDX 10 1 11 2 12 3 13 4 14 5 15 6 16 7 18 8 17 9 19 10 9 11 7 12
REMARK SMILES IDX 6 13 8 14 5 15 4 16 2 17 3 18 1 19
REMARK H PARENT
REMARK Flexibility Score: inf
ROOT
ATOM      1  C   UNL     1      15.078 -34.070  20.045  1.00  0.00     0.032 C 
ENDROOT
BRANCH   1   2
ATOM      2  C   UNL     1      14.915 -33.713  21.503  1.00  0.00    -0.028 C 
ATOM      3  C   UNL     1      15.539 -32.683  22.117  1.00  0.00    -0.077 C 
ATOM      4  C   UNL     1      16.421 -31.720  21.360  1.00  0.00     0.039 C 
BRANCH   3   5
ATOM      5  C   UNL     1      15.323 -32.475  23.600  1.00  0.00     0.034 C 
BRANCH   5   6
ATOM      6  C   UNL     1      13.840 -32.241  23.909  1.00  0.00     0.032 C 
BRANCH   6   7
ATOM      7  C   UNL     1      13.523 -30.767  23.925  1.00  0.00    -0.028 C 
ATOM      8  C   UNL     1      12.569 -28.649  23.120  1.00  0.00     0.039 C 
ATOM      9  C   UNL     1      12.849 -30.121  22.948  1.00  0.00    -0.080 C 
ATOM     10  C   UNL     1      12.386 -30.825  21.694  1.00  0.00     0.039 C 
ENDBRANCH   6   7
ENDBRANCH   5   6
ENDBRANCH   3   5
ENDBRANCH   1   2
BRANCH   1  11
ATOM     11  C   UNL     1      15.997 -35.286  19.851  1.00  0.00     0.034 C 
BRANCH  11  12
ATOM     12  C   UNL     1      17.463 -34.890  19.817  1.00  0.00    -0.077 C 
ATOM     13  C   UNL     1      18.313 -35.122  20.844  1.00  0.00    -0.028 C 
ATOM     14  C   UNL     1      17.994 -34.181  18.598  1.00  0.00     0.039 C 
BRANCH  13  15
ATOM     15  C   UNL     1      17.960 -35.876  22.101  1.00  0.00     0.035 C 
BRANCH  15  16
ATOM     16  C   UNL     1      18.249 -35.025  23.342  1.00  0.00     0.079 C 
BRANCH  16  17
ATOM     17  C   UNL     1      17.993 -35.815  24.599  1.00  0.00     0.130 C 
ATOM     18  O   UNL     1      18.584 -36.868  24.778  1.00  0.00    -0.300 OA
ATOM     19  C   UNL     1      17.018 -35.338  25.635  1.00  0.00     0.087 C 
ENDBRANCH  16  17
ENDBRANCH  15  16
ENDBRANCH  13  15
ENDBRANCH  11  12
ENDBRANCH   1  11
TORSDOF 9
ENDMDL
MODEL 3
REMARK VINA RESULT:    -5.391      2.181      5.643
REMARK INTER + INTRA:         -10.719
REMARK INTER:                  -8.931
REMARK INTRA:                  -1.787
REMARK UNBOUND:                -2.492
REMARK SMILES CC(=O)CCC=C(C)CCC=C(C)CCC=C(C)C
REMARK SMILES IDX 10 1 11 2 12 3 13 4 14 5 15 6 16 7 18 8 17 9 19 10 9 11 7 12
REMARK SMILES IDX 6 13 8 14 5 15 4 16 2 17 3 18 1 19
REMARK H PARENT
REMARK Flexibility Score: inf
ROOT
ATOM      1  C   UNL     1      14.643 -33.505  20.426  1.00  0.00     0.032 C 
ENDROOT
BRANCH   1   2
ATOM      2  C   UNL     1      15.351 -34.832  20.303  1.00  0.00    -0.028 C 
ATOM      3  C   UNL     1      16.425 -35.060  19.515  1.00  0.00    -0.077 C 
ATOM      4  C   UNL     1      17.082 -33.955  18.722  1.00  0.00     0.039 C 
BRANCH   3   5
ATOM      5  C   UNL     1      17.002 -36.458  19.448  1.00  0.00     0.034 C 
BRANCH   5   6
ATOM      6  C   UNL     1      17.704 -36.823  20.761  1.00  0.00     0.032 C 
BRANCH   6   7
ATOM      7  C   UNL     1      18.724 -35.776  21.132  1.00  0.00    -0.028 C 
ATOM      8  C   UNL     1      19.783 -34.038  22.509  1.00  0.00     0.039 C 
ATOM      9  C   UNL     1      18.668 -35.019  22.249  1.00  0.00    -0.080 C 
ATOM     10  C   UNL     1      17.521 -35.117  23.227  1.00  0.00     0.039 C 
ENDBRANCH   6   7
ENDBRANCH   5   6
ENDBRANCH   3   5
ENDBRANCH   1   2
BRANCH   1  11
ATOM     11  C   UNL     1      14.907 -32.837  21.784  1.00  0.00     0.034 C 
BRANCH  11  12
ATOM     12  C   UNL     1      15.542 -31.466  21.627  1.00  0.00    -0.077 C 
ATOM     13  C   UNL     1      14.836 -30.314  21.695  1.00  0.00    -0.028 C 
ATOM     14  C   UNL     1      17.023 -31.379  21.356  1.00  0.00     0.039 C 
BRANCH  13  15
ATOM     15  C   UNL     1      13.367 -30.222  22.026  1.00  0.00     0.035 C 
BRANCH  15  16
ATOM     16  C   UNL     1      13.166 -29.905  23.512  1.00  0.00     0.079 C 
BRANCH  16  17
ATOM     17  C   UNL     1      12.362 -28.643  23.681  1.00  0.00     0.130 C 
ATOM     18  O   UNL     1      11.272 -28.546  23.138  1.00  0.00    -0.300 OA
ATOM     19  C   UNL     1      12.875 -27.495  24.499  1.00  0.00     0.087 C 
ENDBRANCH  16  17
ENDBRANCH  15  16
ENDBRANCH  13  15
ENDBRANCH  11  12
ENDBRANCH   1  11
TORSDOF 9
ENDMDL
MODEL 4
REMARK VINA RESULT:    -5.383      1.356      2.108
REMARK INTER + INTRA:         -10.706
REMARK INTER:                  -8.520
REMARK INTRA:                  -2.186
REMARK UNBOUND:                -2.492
REMARK SMILES CC(=O)CCC=C(C)CCC=C(C)CCC=C(C)C
REMARK SMILES IDX 10 1 11 2 12 3 13 4 14 5 15 6 16 7 18 8 17 9 19 10 9 11 7 12
REMARK SMILES IDX 6 13 8 14 5 15 4 16 2 17 3 18 1 19
REMARK H PARENT
REMARK Flexibility Score: inf
ROOT
ATOM      1  C   UNL     1      15.992 -34.240  22.099  1.00  0.00     0.032 C 
ENDROOT
BRANCH   1   2
ATOM      2  C   UNL     1      15.088 -33.035  22.199  1.00  0.00    -0.028 C 
ATOM      3  C   UNL     1      14.325 -32.561  21.189  1.00  0.00    -0.077 C 
ATOM      4  C   UNL     1      14.246 -33.261  19.853  1.00  0.00     0.039 C 
BRANCH   3   5
ATOM      5  C   UNL     1      13.506 -31.309  21.414  1.00  0.00     0.034 C 
BRANCH   5   6
ATOM      6  C   UNL     1      12.945 -31.273  22.840  1.00  0.00     0.032 C 
BRANCH   6   7
ATOM      7  C   UNL     1      13.283 -29.968  23.516  1.00  0.00    -0.028 C 
ATOM      8  C   UNL     1      12.945 -27.646  24.249  1.00  0.00     0.039 C 
ATOM      9  C   UNL     1      12.495 -28.870  23.493  1.00  0.00    -0.080 C 
ATOM     10  C   UNL     1      11.197 -28.833  22.722  1.00  0.00     0.039 C 
ENDBRANCH   6   7
ENDBRANCH   5   6
ENDBRANCH   3   5
ENDBRANCH   1   2
BRANCH   1  11
ATOM     11  C   UNL     1      17.476 -33.843  22.082  1.00  0.00     0.034 C 
BRANCH  11  12
ATOM     12  C   UNL     1      17.960 -33.519  20.678  1.00  0.00    -0.077 C 
ATOM     13  C   UNL     1      18.492 -32.322  20.340  1.00  0.00    -0.028 C 
ATOM     14  C   UNL     1      17.818 -34.566  19.603  1.00  0.00     0.039 C 
BRANCH  13  15
ATOM     15  C   UNL     1      18.766 -31.197  21.306  1.00  0.00     0.035 C 
BRANCH  15  16
ATOM     16  C   UNL     1      17.970 -29.946  20.919  1.00  0.00     0.079 C 
BRANCH  16  17
ATOM     17  C   UNL     1      16.899 -29.661  21.938  1.00  0.00     0.130 C 
ATOM     18  O   UNL     1      15.990 -28.895  21.657  1.00  0.00    -0.300 OA
ATOM     19  C   UNL     1      16.928 -30.294  23.298  1.00  0.00     0.087 C 
ENDBRANCH  16  17
ENDBRANCH  15  16
ENDBRANCH  13  15
ENDBRANCH  11  12
ENDBRANCH   1  11
TORSDOF 9
ENDMDL
MODEL 5
REMARK VINA RESULT:    -5.340      2.474      5.776
REMARK INTER + INTRA:         -10.641
REMARK INTER:                  -8.654
REMARK INTRA:                  -1.987
REMARK UNBOUND:                -2.492
REMARK SMILES CC(=O)CCC=C(C)CCC=C(C)CCC=C(C)C
REMARK SMILES IDX 10 1 11 2 12 3 13 4 14 5 15 6 16 7 18 8 17 9 19 10 9 11 7 12
REMARK SMILES IDX 6 13 8 14 5 15 4 16 2 17 3 18 1 19
REMARK H PARENT
REMARK Flexibility Score: inf
ROOT
ATOM      1  C   UNL     1      14.686 -30.938  23.646  1.00  0.00     0.032 C 
ENDROOT
BRANCH   1   2
ATOM      2  C   UNL     1      16.181 -31.060  23.476  1.00  0.00    -0.028 C 
ATOM      3  C   UNL     1      16.906 -30.399  22.546  1.00  0.00    -0.077 C 
ATOM      4  C   UNL     1      16.277 -29.389  21.616  1.00  0.00     0.039 C 
BRANCH   3   5
ATOM      5  C   UNL     1      18.394 -30.660  22.455  1.00  0.00     0.034 C 
BRANCH   5   6
ATOM      6  C   UNL     1      18.900 -30.438  21.025  1.00  0.00     0.032 C 
BRANCH   6   7
ATOM      7  C   UNL     1      20.200 -29.675  21.029  1.00  0.00    -0.028 C 
ATOM      8  C   UNL     1      21.673 -27.715  20.848  1.00  0.00     0.039 C 
ATOM      9  C   UNL     1      20.309 -28.354  20.767  1.00  0.00    -0.080 C 
ATOM     10  C   UNL     1      19.115 -27.512  20.383  1.00  0.00     0.039 C 
ENDBRANCH   6   7
ENDBRANCH   5   6
ENDBRANCH   3   5
ENDBRANCH   1   2
BRANCH   1  11
ATOM     11  C   UNL     1      13.944 -32.169  23.101  1.00  0.00     0.034 C 
BRANCH  11  12
ATOM     12  C   UNL     1      13.690 -32.063  21.607  1.00  0.00    -0.077 C 
ATOM     13  C   UNL     1      14.301 -32.857  20.698  1.00  0.00    -0.028 C 
ATOM     14  C   UNL     1      12.736 -31.009  21.107  1.00  0.00     0.039 C 
BRANCH  13  15
ATOM     15  C   UNL     1      15.226 -33.999  21.034  1.00  0.00     0.035 C 
BRANCH  15  16
ATOM     16  C   UNL     1      16.642 -33.718  20.519  1.00  0.00     0.079 C 
BRANCH  16  17
ATOM     17  C   UNL     1      17.144 -34.872  19.691  1.00  0.00     0.130 C 
ATOM     18  O   UNL     1      18.095 -34.706  18.943  1.00  0.00    -0.300 OA
ATOM     19  C   UNL     1      16.495 -36.222  19.760  1.00  0.00     0.087 C 
ENDBRANCH  16  17
ENDBRANCH  15  16
ENDBRANCH  13  15
ENDBRANCH  11  12
ENDBRANCH   1  11
TORSDOF 9
ENDMDL
MODEL 6
REMARK VINA RESULT:    -5.331      2.110      3.861
REMARK INTER + INTRA:         -10.627
REMARK INTER:                  -8.683
REMARK INTRA:                  -1.944
REMARK UNBOUND:                -2.492
REMARK SMILES CC(=O)CCC=C(C)CCC=C(C)CCC=C(C)C
REMARK SMILES IDX 10 1 11 2 12 3 13 4 14 5 15 6 16 7 18 8 17 9 19 10 9 11 7 12
REMARK SMILES IDX 6 13 8 14 5 15 4 16 2 17 3 18 1 19
REMARK H PARENT
REMARK Flexibility Score: inf
ROOT
ATOM      1  C   UNL     1      17.074 -31.654  23.622  1.00  0.00     0.032 C 
ENDROOT
BRANCH   1   2
ATOM      2  C   UNL     1      15.708 -31.554  22.988  1.00  0.00    -0.028 C 
ATOM      3  C   UNL     1      15.311 -30.551  22.172  1.00  0.00    -0.077 C 
ATOM      4  C   UNL     1      16.252 -29.449  21.747  1.00  0.00     0.039 C 
BRANCH   3   5
ATOM      5  C   UNL     1      13.890 -30.549  21.651  1.00  0.00     0.034 C 
BRANCH   5   6
ATOM      6  C   UNL     1      12.884 -30.609  22.806  1.00  0.00     0.032 C 
BRANCH   6   7
ATOM      7  C   UNL     1      13.026 -29.404  23.702  1.00  0.00    -0.028 C 
ATOM      8  C   UNL     1      12.376 -27.282  24.758  1.00  0.00     0.039 C 
ATOM      9  C   UNL     1      12.119 -28.406  23.787  1.00  0.00    -0.080 C 
ATOM     10  C   UNL     1      10.875 -28.379  22.931  1.00  0.00     0.039 C 
ENDBRANCH   6   7
ENDBRANCH   5   6
ENDBRANCH   3   5
ENDBRANCH   1   2
BRANCH   1  11
ATOM     11  C   UNL     1      17.956 -32.701  22.922  1.00  0.00     0.034 C 
BRANCH  11  12
ATOM     12  C   UNL     1      18.895 -32.067  21.911  1.00  0.00    -0.077 C 
ATOM     13  C   UNL     1      18.699 -32.141  20.574  1.00  0.00    -0.028 C 
ATOM     14  C   UNL     1      20.119 -31.343  22.413  1.00  0.00     0.039 C 
BRANCH  13  15
ATOM     15  C   UNL     1      17.496 -32.766  19.914  1.00  0.00     0.035 C 
BRANCH  15  16
ATOM     16  C   UNL     1      17.760 -34.240  19.590  1.00  0.00     0.079 C 
BRANCH  16  17
ATOM     17  C   UNL     1      16.541 -35.075  19.879  1.00  0.00     0.130 C 
ATOM     18  O   UNL     1      16.496 -36.231  19.489  1.00  0.00    -0.300 OA
ATOM     19  C   UNL     1      15.371 -34.513  20.633  1.00  0.00     0.087 C 
ENDBRANCH  16  17
ENDBRANCH  15  16
ENDBRANCH  13  15
ENDBRANCH  11  12
ENDBRANCH   1  11
TORSDOF 9
ENDMDL
MODEL 7
REMARK VINA RESULT:    -5.291      1.927      6.008
REMARK INTER + INTRA:         -10.567
REMARK INTER:                  -8.989
REMARK INTRA:                  -1.578
REMARK UNBOUND:                -2.492
REMARK SMILES CC(=O)CCC=C(C)CCC=C(C)CCC=C(C)C
REMARK SMILES IDX 10 1 11 2 12 3 13 4 14 5 15 6 16 7 18 8 17 9 19 10 9 11 7 12
REMARK SMILES IDX 6 13 8 14 5 15 4 16 2 17 3 18 1 19
REMARK H PARENT
REMARK Flexibility Score: inf
ROOT
ATOM      1  C   UNL     1      15.853 -31.564  23.358  1.00  0.00     0.032 C 
ENDROOT
BRANCH   1   2
ATOM      2  C   UNL     1      16.855 -32.368  22.565  1.00  0.00    -0.028 C 
ATOM      3  C   UNL     1      17.533 -31.906  21.491  1.00  0.00    -0.077 C 
ATOM      4  C   UNL     1      17.405 -30.477  21.021  1.00  0.00     0.039 C 
BRANCH   3   5
ATOM      5  C   UNL     1      18.468 -32.843  20.756  1.00  0.00     0.034 C 
BRANCH   5   6
ATOM      6  C   UNL     1      17.863 -33.278  19.416  1.00  0.00     0.032 C 
BRANCH   6   7
ATOM      7  C   UNL     1      18.101 -34.746  19.173  1.00  0.00    -0.028 C 
ATOM      8  C   UNL     1      17.572 -37.147  19.123  1.00  0.00     0.039 C 
ATOM      9  C   UNL     1      17.211 -35.722  19.460  1.00  0.00    -0.080 C 
ATOM     10  C   UNL     1      15.884 -35.426  20.117  1.00  0.00     0.039 C 
ENDBRANCH   6   7
ENDBRANCH   5   6
ENDBRANCH   3   5
ENDBRANCH   1   2
BRANCH   1  11
ATOM     11  C   UNL     1      14.436 -32.149  23.256  1.00  0.00     0.034 C 
BRANCH  11  12
ATOM     12  C   UNL     1      13.714 -31.669  22.008  1.00  0.00    -0.077 C 
ATOM     13  C   UNL     1      12.895 -30.592  21.998  1.00  0.00    -0.028 C 
ATOM     14  C   UNL     1      13.893 -32.441  20.726  1.00  0.00     0.039 C 
BRANCH  13  15
ATOM     15  C   UNL     1      12.662 -29.676  23.174  1.00  0.00     0.035 C 
BRANCH  15  16
ATOM     16  C   UNL     1      13.579 -28.451  23.094  1.00  0.00     0.079 C 
BRANCH  16  17
ATOM     17  C   UNL     1      12.866 -27.221  23.591  1.00  0.00     0.130 C 
ATOM     18  O   UNL     1      13.337 -26.118  23.361  1.00  0.00    -0.300 OA
ATOM     19  C   UNL     1      11.588 -27.322  24.370  1.00  0.00     0.087 C 
ENDBRANCH  16  17
ENDBRANCH  15  16
ENDBRANCH  13  15
ENDBRANCH  11  12
ENDBRANCH   1  11
TORSDOF 9
ENDMDL
MODEL 8
REMARK VINA RESULT:    -5.222      1.874      3.492
REMARK INTER + INTRA:         -10.460
REMARK INTER:                  -7.748
REMARK INTRA:                  -2.712
REMARK UNBOUND:                -2.492
REMARK SMILES CC(=O)CCC=C(C)CCC=C(C)CCC=C(C)C
REMARK SMILES IDX 10 1 11 2 12 3 13 4 14 5 15 6 16 7 18 8 17 9 19 10 9 11 7 12
REMARK SMILES IDX 6 13 8 14 5 15 4 16 2 17 3 18 1 19
REMARK H PARENT
REMARK Flexibility Score: inf
ROOT
ATOM      1  C   UNL     1      18.778 -34.301  21.093  1.00  0.00     0.032 C 
ENDROOT
BRANCH   1   2
ATOM      2  C   UNL     1      18.429 -33.302  22.170  1.00  0.00    -0.028 C 
ATOM      3  C   UNL     1      17.785 -33.605  23.320  1.00  0.00    -0.077 C 
ATOM      4  C   UNL     1      17.415 -35.025  23.676  1.00  0.00     0.039 C 
BRANCH   3   5
ATOM      5  C   UNL     1      17.452 -32.490  24.288  1.00  0.00     0.034 C 
BRANCH   5   6
ATOM      6  C   UNL     1      17.983 -31.146  23.777  1.00  0.00     0.032 C 
BRANCH   6   7
ATOM      7  C   UNL     1      16.858 -30.289  23.256  1.00  0.00    -0.028 C 
ATOM      8  C   UNL     1      15.606 -28.951  21.616  1.00  0.00     0.039 C 
ATOM      9  C   UNL     1      16.817 -29.756  22.014  1.00  0.00    -0.080 C 
ATOM     10  C   UNL     1      17.950 -29.932  21.030  1.00  0.00     0.039 C 
ENDBRANCH   6   7
ENDBRANCH   5   6
ENDBRANCH   3   5
ENDBRANCH   1   2
BRANCH   1  11
ATOM     11  C   UNL     1      17.824 -34.206  19.893  1.00  0.00     0.034 C 
BRANCH  11  12
ATOM     12  C   UNL     1      16.610 -35.104  20.061  1.00  0.00    -0.077 C 
ATOM     13  C   UNL     1      15.396 -34.641  20.439  1.00  0.00    -0.028 C 
ATOM     14  C   UNL     1      16.765 -36.585  19.824  1.00  0.00     0.039 C 
BRANCH  13  15
ATOM     15  C   UNL     1      15.057 -33.186  20.648  1.00  0.00     0.035 C 
BRANCH  15  16
ATOM     16  C   UNL     1      14.520 -32.954  22.064  1.00  0.00     0.079 C 
BRANCH  16  17
ATOM     17  C   UNL     1      13.570 -31.786  22.088  1.00  0.00     0.130 C 
ATOM     18  O   UNL     1      13.316 -31.239  23.149  1.00  0.00    -0.300 OA
ATOM     19  C   UNL     1      12.921 -31.283  20.832  1.00  0.00     0.087 C 
ENDBRANCH  16  17
ENDBRANCH  15  16
ENDBRANCH  13  15
ENDBRANCH  11  12
ENDBRANCH   1  11
TORSDOF 9
ENDMDL
MODEL 9
REMARK VINA RESULT:    -5.166      1.830      5.105
REMARK INTER + INTRA:         -10.376
REMARK INTER:                  -8.081
REMARK INTRA:                  -2.295
REMARK UNBOUND:                -2.492
REMARK SMILES CC(=O)CCC=C(C)CCC=C(C)CCC=C(C)C
REMARK SMILES IDX 10 1 11 2 12 3 13 4 14 5 15 6 16 7 18 8 17 9 19 10 9 11 7 12
REMARK SMILES IDX 6 13 8 14 5 15 4 16 2 17 3 18 1 19
REMARK H PARENT
REMARK Flexibility Score: inf
ROOT
ATOM      1  C   UNL     1      14.566 -33.654  20.228  1.00  0.00     0.032 C 
ENDROOT
BRANCH   1   2
ATOM      2  C   UNL     1      15.387 -34.920  20.190  1.00  0.00    -0.028 C 
ATOM      3  C   UNL     1      16.507 -35.088  19.451  1.00  0.00    -0.077 C 
ATOM      4  C   UNL     1      17.098 -33.965  18.633  1.00  0.00     0.039 C 
BRANCH   3   5
ATOM      5  C   UNL     1      17.200 -36.434  19.467  1.00  0.00     0.034 C 
BRANCH   5   6
ATOM      6  C   UNL     1      17.807 -36.719  20.846  1.00  0.00     0.032 C 
BRANCH   6   7
ATOM      7  C   UNL     1      18.837 -35.678  21.203  1.00  0.00    -0.028 C 
ATOM      8  C   UNL     1      19.900 -33.916  22.548  1.00  0.00     0.039 C 
ATOM      9  C   UNL     1      18.774 -34.886  22.297  1.00  0.00    -0.080 C 
ATOM     10  C   UNL     1      17.608 -34.937  23.256  1.00  0.00     0.039 C 
ENDBRANCH   6   7
ENDBRANCH   5   6
ENDBRANCH   3   5
ENDBRANCH   1   2
BRANCH   1  11
ATOM     11  C   UNL     1      14.623 -32.974  21.605  1.00  0.00     0.034 C 
BRANCH  11  12
ATOM     12  C   UNL     1      14.693 -31.461  21.488  1.00  0.00    -0.077 C 
ATOM     13  C   UNL     1      15.848 -30.766  21.594  1.00  0.00    -0.028 C 
ATOM     14  C   UNL     1      13.415 -30.692  21.271  1.00  0.00     0.039 C 
BRANCH  13  15
ATOM     15  C   UNL     1      17.216 -31.384  21.742  1.00  0.00     0.035 C 
BRANCH  15  16
ATOM     16  C   UNL     1      18.104 -31.029  20.545  1.00  0.00     0.079 C 
BRANCH  16  17
ATOM     17  C   UNL     1      18.986 -29.853  20.869  1.00  0.00     0.130 C 
ATOM     18  O   UNL     1      18.551 -28.720  20.738  1.00  0.00    -0.300 OA
ATOM     19  C   UNL     1      20.396 -30.044  21.345  1.00  0.00     0.087 C 
ENDBRANCH  16  17
ENDBRANCH  15  16
ENDBRANCH  13  15
ENDBRANCH  11  12
ENDBRANCH   1  11
TORSDOF 9
ENDMDL
