MODEL 1
REMARK VINA RESULT:    13.716      0.000      0.000
REMARK INTER + INTRA:          22.764
REMARK INTER:                  21.734
REMARK INTRA:                   1.030
REMARK UNBOUND:                 1.030
REMARK SMILES C[C@H]1O[C@@H](O[C@H]2[C@@H](Oc3cc(O)c4c(c3)O[C@H](c3ccc(O)cc3)CC4=O)O[C@@H](CO)[C@H](O)[C@@H]2O)[C@H](O)[C@H](O)[C@H]1O
REMARK SMILES IDX 6 1 34 2 32 3 29 4 28 5 7 6 5 7 4 8 1 9 2 10 40 11 3 12
REMARK SMILES IDX 38 13 36 14 41 15 39 17 37 19 35 21 8 23 9 24 10 25 15 26
REMARK SMILES IDX 11 27 14 28 13 29 16 30 26 31 17 32 27 33 25 34 12 35 18 37
REMARK SMILES IDX 19 38 24 39 20 40 23 41 21 42 22 43 33 45 30 47 31 48
REMARK H PARENT 41 16 39 18 37 20 35 22 12 36 22 44 33 46 31 49
REMARK Flexibility Score: inf
ROOT
ATOM      1  C   UNL     1       1.966 -13.267   9.764  1.00  0.00     0.221 C 
ATOM      2  C   UNL     1       1.542 -11.999  10.531  1.00  0.00     0.181 C 
ATOM      3  C   UNL     1       1.300 -10.816   9.560  1.00  0.00     0.177 C 
ATOM      4  C   UNL     1       0.767 -11.339   8.199  1.00  0.00     0.179 C 
ATOM      5  O   UNL     1       0.021 -12.524   8.393  1.00  0.00    -0.332 OA
ATOM      6  C   UNL     1       0.868 -13.623   8.708  1.00  0.00     0.339 C 
ENDROOT
BRANCH   1   7
ATOM      7  O   UNL     1       2.127 -14.341  10.685  1.00  0.00    -0.337 OA
BRANCH   7   8
ATOM      8  C   UNL     1       2.459 -13.921  12.000  1.00  0.00     0.282 C 
ATOM      9  C   UNL     1       5.726 -13.613  13.644  1.00  0.00     0.041 C 
ATOM     10  C   UNL     1       4.208 -13.524  13.489  1.00  0.00     0.150 C 
ATOM     11  C   UNL     1       3.489 -14.212  14.675  1.00  0.00     0.174 C 
ATOM     12  O   UNL     1       3.840 -14.124  12.259  1.00  0.00    -0.344 OA
ATOM     13  C   UNL     1       1.960 -14.117  14.485  1.00  0.00     0.179 C 
ATOM     14  C   UNL     1       1.576 -14.614  13.075  1.00  0.00     0.202 C 
BRANCH  11  15
ATOM     15  O   UNL     1       3.876 -15.563  14.750  1.00  0.00    -0.388 OA
ATOM     16  H   UNL     1       4.270 -15.795  13.869  1.00  0.00     0.211 HD
ENDBRANCH  11  15
BRANCH  13  17
ATOM     17  O   UNL     1       1.538 -12.787  14.660  1.00  0.00    -0.387 OA
ATOM     18  H   UNL     1       1.575 -12.600  15.633  1.00  0.00     0.211 HD
ENDBRANCH  13  17
BRANCH  14  19
ATOM     19  O   UNL     1       0.205 -14.421  12.823  1.00  0.00    -0.385 OA
ATOM     20  H   UNL     1      -0.033 -13.500  13.105  1.00  0.00     0.211 HD
ENDBRANCH  14  19
ENDBRANCH   7   8
ENDBRANCH   1   7
BRANCH   2  21
ATOM     21  O   UNL     1       2.466 -11.663  11.539  1.00  0.00    -0.387 OA
ATOM     22  H   UNL     1       3.143 -11.055  11.146  1.00  0.00     0.211 HD
ENDBRANCH   2  21
BRANCH   6  23
ATOM     23  O   UNL     1       0.073 -14.704   9.203  1.00  0.00    -0.462 OA
BRANCH  23  24
ATOM     24  C   UNL     1       0.483 -16.042   9.210  1.00  0.00     0.130 A 
ATOM     25  C   UNL     1       0.101 -16.876   8.156  1.00  0.00     0.093 A 
ATOM     26  C   UNL     1       1.322 -16.539  10.216  1.00  0.00     0.094 A 
ATOM     27  C   UNL     1       0.558 -18.201   8.089  1.00  0.00     0.133 A 
ATOM     28  C   UNL     1       1.777 -17.860  10.167  1.00  0.00     0.138 A 
ATOM     29  C   UNL     1       1.414 -18.696   9.096  1.00  0.00     0.102 A 
ATOM     30  O   UNL     1       2.619 -18.332  11.182  1.00  0.00    -0.484 OA
ATOM     31  C   UNL     1       2.024 -20.046   9.038  1.00  0.00     0.174 C 
ATOM     32  C   UNL     1       2.923 -19.721  11.341  1.00  0.00     0.211 C 
ATOM     33  O   UNL     1       1.665 -20.886   8.172  1.00  0.00    -0.294 OA
ATOM     34  C   UNL     1       3.150 -20.384   9.973  1.00  0.00     0.131 C 
BRANCH  27  35
ATOM     35  O   UNL     1       0.179 -19.009   7.017  1.00  0.00    -0.507 OA
ATOM     36  H   UNL     1       0.850 -19.330   6.331  1.00  0.00     0.293 HD
ENDBRANCH  27  35
BRANCH  32  37
ATOM     37  C   UNL     1       4.138 -19.881  12.222  1.00  0.00    -0.007 A 
ATOM     38  C   UNL     1       4.135 -19.372  13.531  1.00  0.00     0.011 A 
ATOM     39  C   UNL     1       5.263 -20.591  11.765  1.00  0.00     0.011 A 
ATOM     40  C   UNL     1       5.251 -19.537  14.356  1.00  0.00     0.046 A 
ATOM     41  C   UNL     1       6.381 -20.750  12.590  1.00  0.00     0.046 A 
ATOM     42  C   UNL     1       6.377 -20.221  13.887  1.00  0.00     0.115 A 
BRANCH  42  43
ATOM     43  O   UNL     1       7.486 -20.372  14.717  1.00  0.00    -0.508 OA
ATOM     44  H   UNL     1       7.463 -20.087  15.691  1.00  0.00     0.293 HD
ENDBRANCH  42  43
ENDBRANCH  32  37
ENDBRANCH  23  24
ENDBRANCH   6  23
BRANCH   3  45
ATOM     45  O   UNL     1       2.496 -10.107   9.336  1.00  0.00    -0.387 OA
ATOM     46  H   UNL     1       2.400  -9.216   9.764  1.00  0.00     0.211 HD
ENDBRANCH   3  45
BRANCH   4  47
ATOM     47  C   UNL     1      -0.108 -10.298   7.490  1.00  0.00     0.191 C 
BRANCH  47  48
ATOM     48  O   UNL     1      -0.106  -9.082   8.193  1.00  0.00    -0.394 OA
ATOM     49  H   UNL     1      -1.054  -8.839   8.359  1.00  0.00     0.210 HD
ENDBRANCH  47  48
ENDBRANCH   4  47
TORSDOF 14
ENDMDL
MODEL 2
REMARK VINA RESULT:    15.727      1.561      4.652
REMARK INTER + INTRA:          25.951
REMARK INTER:                  20.822
REMARK INTRA:                   5.129
REMARK UNBOUND:                 1.030
REMARK SMILES C[C@H]1O[C@@H](O[C@H]2[C@@H](Oc3cc(O)c4c(c3)O[C@H](c3ccc(O)cc3)CC4=O)O[C@@H](CO)[C@H](O)[C@@H]2O)[C@H](O)[C@H](O)[C@H]1O
REMARK SMILES IDX 6 1 34 2 32 3 29 4 28 5 7 6 5 7 4 8 1 9 2 10 40 11 3 12
REMARK SMILES IDX 38 13 36 14 41 15 39 17 37 19 35 21 8 23 9 24 10 25 15 26
REMARK SMILES IDX 11 27 14 28 13 29 16 30 26 31 17 32 27 33 25 34 12 35 18 37
REMARK SMILES IDX 19 38 24 39 20 40 23 41 21 42 22 43 33 45 30 47 31 48
REMARK H PARENT 41 16 39 18 37 20 35 22 12 36 22 44 33 46 31 49
REMARK Flexibility Score: inf
ROOT
ATOM      1  C   UNL     1       2.521 -12.435  11.944  1.00  0.00     0.221 C 
ATOM      2  C   UNL     1       2.802 -13.632  12.874  1.00  0.00     0.181 C 
ATOM      3  C   UNL     1       2.169 -13.410  14.271  1.00  0.00     0.177 C 
ATOM      4  C   UNL     1       0.867 -12.576  14.145  1.00  0.00     0.179 C 
ATOM      5  O   UNL     1       0.251 -12.823  12.897  1.00  0.00    -0.332 OA
ATOM      6  C   UNL     1       0.975 -12.217  11.833  1.00  0.00     0.339 C 
ENDROOT
BRANCH   1   7
ATOM      7  O   UNL     1       3.071 -12.700  10.658  1.00  0.00    -0.337 OA
BRANCH   7   8
ATOM      8  C   UNL     1       2.724 -11.733   9.677  1.00  0.00     0.282 C 
ATOM      9  C   UNL     1       0.115  -9.152   9.702  1.00  0.00     0.041 C 
ATOM     10  C   UNL     1       1.300  -9.958   9.171  1.00  0.00     0.150 C 
ATOM     11  C   UNL     1       1.035 -10.451   7.728  1.00  0.00     0.174 C 
ATOM     12  O   UNL     1       1.533 -11.052  10.043  1.00  0.00    -0.344 OA
ATOM     13  C   UNL     1       2.243 -11.269   7.225  1.00  0.00     0.179 C 
ATOM     14  C   UNL     1       2.604 -12.357   8.258  1.00  0.00     0.202 C 
BRANCH  11  15
ATOM     15  O   UNL     1      -0.125 -11.246   7.700  1.00  0.00    -0.388 OA
ATOM     16  H   UNL     1      -0.202 -11.668   8.595  1.00  0.00     0.211 HD
ENDBRANCH  11  15
BRANCH  13  17
ATOM     17  O   UNL     1       3.342 -10.420   7.012  1.00  0.00    -0.387 OA
ATOM     18  H   UNL     1       3.199  -9.617   7.576  1.00  0.00     0.211 HD
ENDBRANCH  13  17
BRANCH  14  19
ATOM     19  O   UNL     1       3.779 -13.039   7.891  1.00  0.00    -0.385 OA
ATOM     20  H   UNL     1       4.401 -13.018   8.663  1.00  0.00     0.211 HD
ENDBRANCH  14  19
ENDBRANCH   7   8
ENDBRANCH   1   7
BRANCH   2  21
ATOM     21  O   UNL     1       4.178 -13.914  12.964  1.00  0.00    -0.387 OA
ATOM     22  H   UNL     1       4.446 -13.836  13.916  1.00  0.00     0.211 HD
ENDBRANCH   2  21
BRANCH   6  23
ATOM     23  O   UNL     1       0.514 -12.747  10.588  1.00  0.00    -0.462 OA
BRANCH  23  24
ATOM     24  C   UNL     1       0.639 -14.090  10.212  1.00  0.00     0.130 A 
ATOM     25  C   UNL     1       0.163 -14.493   8.960  1.00  0.00     0.093 A 
ATOM     26  C   UNL     1       1.288 -15.018  11.036  1.00  0.00     0.094 A 
ATOM     27  C   UNL     1       0.341 -15.813   8.518  1.00  0.00     0.133 A 
ATOM     28  C   UNL     1       1.463 -16.338  10.612  1.00  0.00     0.138 A 
ATOM     29  C   UNL     1       1.007 -16.743   9.344  1.00  0.00     0.102 A 
ATOM     30  O   UNL     1       2.120 -17.246  11.452  1.00  0.00    -0.484 OA
ATOM     31  C   UNL     1       1.328 -18.121   8.904  1.00  0.00     0.174 C 
ATOM     32  C   UNL     1       2.119 -18.656  11.207  1.00  0.00     0.211 C 
ATOM     33  O   UNL     1       0.862 -18.587   7.832  1.00  0.00    -0.294 OA
ATOM     34  C   UNL     1       2.296 -18.942   9.707  1.00  0.00     0.131 C 
BRANCH  27  35
ATOM     35  O   UNL     1      -0.125 -16.186   7.257  1.00  0.00    -0.507 OA
ATOM     36  H   UNL     1      -0.293 -15.503   6.530  1.00  0.00     0.293 HD
ENDBRANCH  27  35
BRANCH  32  37
ATOM     37  C   UNL     1       3.213 -19.315  12.010  1.00  0.00    -0.007 A 
ATOM     38  C   UNL     1       3.972 -20.356  11.451  1.00  0.00     0.011 A 
ATOM     39  C   UNL     1       3.527 -18.857  13.303  1.00  0.00     0.011 A 
ATOM     40  C   UNL     1       5.000 -20.956  12.185  1.00  0.00     0.046 A 
ATOM     41  C   UNL     1       4.551 -19.461  14.038  1.00  0.00     0.046 A 
ATOM     42  C   UNL     1       5.289 -20.514  13.480  1.00  0.00     0.115 A 
BRANCH  42  43
ATOM     43  O   UNL     1       6.311 -21.124  14.204  1.00  0.00    -0.508 OA
ATOM     44  H   UNL     1       6.369 -22.133  14.292  1.00  0.00     0.293 HD
ENDBRANCH  42  43
ENDBRANCH  32  37
ENDBRANCH  23  24
ENDBRANCH   6  23
BRANCH   3  45
ATOM     45  O   UNL     1       3.065 -12.728  15.116  1.00  0.00    -0.387 OA
ATOM     46  H   UNL     1       3.940 -12.682  14.649  1.00  0.00     0.211 HD
ENDBRANCH   3  45
BRANCH   4  47
ATOM     47  C   UNL     1      -0.125 -12.891  15.272  1.00  0.00     0.191 C 
BRANCH  47  48
ATOM     48  O   UNL     1       0.082 -12.040  16.372  1.00  0.00    -0.394 OA
ATOM     49  H   UNL     1      -0.345 -12.471  17.158  1.00  0.00     0.210 HD
ENDBRANCH  47  48
ENDBRANCH   4  47
TORSDOF 14
ENDMDL
