MODEL 1
REMARK VINA RESULT:     0.000      0.000      0.000
REMARK INTER + INTRA:          -1.025
REMARK INTER:                   0.000
REMARK INTRA:                  -1.025
REMARK UNBOUND:                -1.025
REMARK SMILES O=C([O-])CCCCCCCC(=O)[O-]
REMARK SMILES IDX 7 1 6 2 5 3 4 4 2 5 1 6 3 7 8 8 9 9 10 10 11 11 12 12 13 13
REMARK H PARENT
REMARK Flexibility Score: inf
ROOT
ATOM      1  C   UNL     1     177.092 197.474 191.140  1.00  0.00     0.000 C 
ENDROOT
BRANCH   1   2
ATOM      2  C   UNL     1     177.071 198.024 189.702  1.00  0.00     0.000 C 
BRANCH   2   3
ATOM      3  C   UNL     1     178.480 198.298 189.154  1.00  0.00     0.006 C 
BRANCH   3   4
ATOM      4  C   UNL     1     178.889 197.304 188.058  1.00  0.00     0.053 C 
BRANCH   4   5
ATOM      5  C   UNL     1     179.749 196.223 188.629  1.00  0.00     0.041 C 
ATOM      6  O   UNL     1     179.958 195.167 187.975  1.00  0.00    -0.550 OA
ATOM      7  O   UNL     1     180.281 196.358 189.905  1.00  0.00    -0.550 OA
ENDBRANCH   4   5
ENDBRANCH   3   4
ENDBRANCH   2   3
ENDBRANCH   1   2
BRANCH   1   8
ATOM      8  C   UNL     1     176.960 195.944 191.188  1.00  0.00     0.000 C 
BRANCH   8   9
ATOM      9  C   UNL     1     175.974 195.402 190.142  1.00  0.00     0.006 C 
BRANCH   9  10
ATOM     10  C   UNL     1     176.613 194.282 189.316  1.00  0.00     0.053 C 
BRANCH  10  11
ATOM     11  C   UNL     1     176.446 194.548 187.853  1.00  0.00     0.041 C 
ATOM     12  O   UNL     1     175.783 195.543 187.462  1.00  0.00    -0.550 OA
ATOM     13  O   UNL     1     177.065 193.723 186.922  1.00  0.00    -0.550 OA
ENDBRANCH  10  11
ENDBRANCH   9  10
ENDBRANCH   8   9
ENDBRANCH   1   8
TORSDOF 8
ENDMDL
MODEL 2
REMARK VINA RESULT:     0.000     12.285     14.072
REMARK INTER + INTRA:          -1.025
REMARK INTER:                   0.000
REMARK INTRA:                  -1.025
REMARK UNBOUND:                -1.025
REMARK SMILES O=C([O-])CCCCCCCC(=O)[O-]
REMARK SMILES IDX 7 1 6 2 5 3 4 4 2 5 1 6 3 7 8 8 9 9 10 10 11 11 12 12 13 13
REMARK H PARENT
REMARK Flexibility Score: inf
ROOT
ATOM      1  C   UNL     1     172.140 182.660 195.216  1.00  0.00     0.000 C 
ENDROOT
BRANCH   1   2
ATOM      2  C   UNL     1     171.209 183.880 195.090  1.00  0.00     0.000 C 
BRANCH   2   3
ATOM      3  C   UNL     1     170.855 184.495 196.453  1.00  0.00     0.006 C 
BRANCH   3   4
ATOM      4  C   UNL     1     171.516 185.863 196.672  1.00  0.00     0.053 C 
BRANCH   4   5
ATOM      5  C   UNL     1     172.749 185.720 197.505  1.00  0.00     0.041 C 
ATOM      6  O   UNL     1     173.585 186.659 197.567  1.00  0.00    -0.550 OA
ATOM      7  O   UNL     1     172.999 184.530 198.177  1.00  0.00    -0.550 OA
ENDBRANCH   4   5
ENDBRANCH   3   4
ENDBRANCH   2   3
ENDBRANCH   1   2
BRANCH   1   8
ATOM      8  C   UNL     1     173.617 183.020 194.992  1.00  0.00     0.000 C 
BRANCH   8   9
ATOM      9  C   UNL     1     173.812 184.039 193.859  1.00  0.00     0.006 C 
BRANCH   9  10
ATOM     10  C   UNL     1     174.673 185.217 194.325  1.00  0.00     0.053 C 
BRANCH  10  11
ATOM     11  C   UNL     1     173.995 186.515 194.020  1.00  0.00     0.041 C 
ATOM     12  O   UNL     1     172.908 186.528 193.385  1.00  0.00    -0.550 OA
ATOM     13  O   UNL     1     174.537 187.708 194.480  1.00  0.00    -0.550 OA
ENDBRANCH  10  11
ENDBRANCH   9  10
ENDBRANCH   8   9
ENDBRANCH   1   8
TORSDOF 8
ENDMDL
MODEL 3
REMARK VINA RESULT:     0.000      9.808     11.285
REMARK INTER + INTRA:          -1.025
REMARK INTER:                   0.000
REMARK INTRA:                  -1.025
REMARK UNBOUND:                -1.025
REMARK SMILES O=C([O-])CCCCCCCC(=O)[O-]
REMARK SMILES IDX 7 1 6 2 5 3 4 4 2 5 1 6 3 7 8 8 9 9 10 10 11 11 12 12 13 13
REMARK H PARENT
REMARK Flexibility Score: inf
ROOT
ATOM      1  C   UNL     1     173.262 192.210 201.042  1.00  0.00     0.000 C 
ENDROOT
BRANCH   1   2
ATOM      2  C   UNL     1     172.125 192.071 200.015  1.00  0.00     0.000 C 
BRANCH   2   3
ATOM      3  C   UNL     1     171.380 193.394 199.774  1.00  0.00     0.006 C 
BRANCH   3   4
ATOM      4  C   UNL     1     171.664 193.986 198.387  1.00  0.00     0.053 C 
BRANCH   4   5
ATOM      5  C   UNL     1     172.714 195.047 198.478  1.00  0.00     0.041 C 
ATOM      6  O   UNL     1     173.293 195.457 197.438  1.00  0.00    -0.550 OA
ATOM      7  O   UNL     1     173.089 195.550 199.717  1.00  0.00    -0.550 OA
ENDBRANCH   4   5
ENDBRANCH   3   4
ENDBRANCH   2   3
ENDBRANCH   1   2
BRANCH   1   8
ATOM      8  C   UNL     1     174.637 192.390 200.379  1.00  0.00     0.000 C 
BRANCH   8   9
ATOM      9  C   UNL     1     174.805 191.522 199.123  1.00  0.00     0.006 C 
BRANCH   9  10
ATOM     10  C   UNL     1     175.280 192.365 197.936  1.00  0.00     0.053 C 
BRANCH  10  11
ATOM     11  C   UNL     1     174.402 192.136 196.746  1.00  0.00     0.041 C 
ATOM     12  O   UNL     1     173.478 191.282 196.795  1.00  0.00    -0.550 OA
ATOM     13  O   UNL     1     174.573 192.900 195.599  1.00  0.00    -0.550 OA
ENDBRANCH  10  11
ENDBRANCH   9  10
ENDBRANCH   8   9
ENDBRANCH   1   8
TORSDOF 8
ENDMDL
MODEL 4
REMARK VINA RESULT:     0.000      9.490     11.093
REMARK INTER + INTRA:          -1.025
REMARK INTER:                   0.000
REMARK INTRA:                  -1.025
REMARK UNBOUND:                -1.025
REMARK SMILES O=C([O-])CCCCCCCC(=O)[O-]
REMARK SMILES IDX 7 1 6 2 5 3 4 4 2 5 1 6 3 7 8 8 9 9 10 10 11 11 12 12 13 13
REMARK H PARENT
REMARK Flexibility Score: inf
ROOT
ATOM      1  C   UNL     1     176.361 187.947 191.182  1.00  0.00     0.000 C 
ENDROOT
BRANCH   1   2
ATOM      2  C   UNL     1     175.730 186.626 190.705  1.00  0.00     0.000 C 
BRANCH   2   3
ATOM      3  C   UNL     1     176.370 185.394 191.364  1.00  0.00     0.006 C 
BRANCH   3   4
ATOM      4  C   UNL     1     175.430 184.704 192.362  1.00  0.00     0.053 C 
BRANCH   4   5
ATOM      5  C   UNL     1     175.749 185.131 193.759  1.00  0.00     0.041 C 
ATOM      6  O   UNL     1     174.934 184.907 194.692  1.00  0.00    -0.550 OA
ATOM      7  O   UNL     1     176.925 185.820 194.024  1.00  0.00    -0.550 OA
ENDBRANCH   4   5
ENDBRANCH   3   4
ENDBRANCH   2   3
ENDBRANCH   1   2
BRANCH   1   8
ATOM      8  C   UNL     1     175.539 188.628 192.287  1.00  0.00     0.000 C 
BRANCH   8   9
ATOM      9  C   UNL     1     174.025 188.496 192.064  1.00  0.00     0.006 C 
BRANCH   9  10
ATOM     10  C   UNL     1     173.331 187.961 193.320  1.00  0.00     0.053 C 
BRANCH  10  11
ATOM     11  C   UNL     1     172.449 186.801 192.978  1.00  0.00     0.041 C 
ATOM     12  O   UNL     1     172.326 186.431 191.782  1.00  0.00    -0.550 OA
ATOM     13  O   UNL     1     171.802 186.099 193.987  1.00  0.00    -0.550 OA
ENDBRANCH  10  11
ENDBRANCH   9  10
ENDBRANCH   8   9
ENDBRANCH   1   8
TORSDOF 8
ENDMDL
MODEL 5
REMARK VINA RESULT:     0.001      6.712      8.456
REMARK INTER + INTRA:          -1.024
REMARK INTER:                   0.000
REMARK INTRA:                  -1.024
REMARK UNBOUND:                -1.025
REMARK SMILES O=C([O-])CCCCCCCC(=O)[O-]
REMARK SMILES IDX 7 1 6 2 5 3 4 4 2 5 1 6 3 7 8 8 9 9 10 10 11 11 12 12 13 13
REMARK H PARENT
REMARK Flexibility Score: inf
ROOT
ATOM      1  C   UNL     1     174.738 190.158 192.037  1.00  0.00     0.000 C 
ENDROOT
BRANCH   1   2
ATOM      2  C   UNL     1     175.595 191.390 192.377  1.00  0.00     0.000 C 
BRANCH   2   3
ATOM      3  C   UNL     1     174.954 192.704 191.904  1.00  0.00     0.006 C 
BRANCH   3   4
ATOM      4  C   UNL     1     174.467 193.575 193.070  1.00  0.00     0.053 C 
BRANCH   4   5
ATOM      5  C   UNL     1     172.993 193.410 193.265  1.00  0.00     0.041 C 
ATOM      6  O   UNL     1     172.444 193.813 194.323  1.00  0.00    -0.550 OA
ATOM      7  O   UNL     1     172.232 192.765 192.298  1.00  0.00    -0.550 OA
ENDBRANCH   4   5
ENDBRANCH   3   4
ENDBRANCH   2   3
ENDBRANCH   1   2
BRANCH   1   8
ATOM      8  C   UNL     1     173.857 189.710 193.214  1.00  0.00     0.000 C 
BRANCH   8   9
ATOM      9  C   UNL     1     174.583 189.801 194.564  1.00  0.00     0.006 C 
BRANCH   9  10
ATOM     10  C   UNL     1     173.742 190.570 195.587  1.00  0.00     0.053 C 
BRANCH  10  11
ATOM     11  C   UNL     1     174.552 191.654 196.223  1.00  0.00     0.041 C 
ATOM     12  O   UNL     1     175.767 191.796 195.924  1.00  0.00    -0.550 OA
ATOM     13  O   UNL     1     173.954 192.541 197.110  1.00  0.00    -0.550 OA
ENDBRANCH  10  11
ENDBRANCH   9  10
ENDBRANCH   8   9
ENDBRANCH   1   8
TORSDOF 8
ENDMDL
MODEL 6
REMARK VINA RESULT:     0.001     11.572     13.062
REMARK INTER + INTRA:          -1.024
REMARK INTER:                   0.000
REMARK INTRA:                  -1.024
REMARK UNBOUND:                -1.025
REMARK SMILES O=C([O-])CCCCCCCC(=O)[O-]
REMARK SMILES IDX 7 1 6 2 5 3 4 4 2 5 1 6 3 7 8 8 9 9 10 10 11 11 12 12 13 13
REMARK H PARENT
REMARK Flexibility Score: inf
ROOT
ATOM      1  C   UNL     1     174.364 185.459 188.009  1.00  0.00     0.000 C 
ENDROOT
BRANCH   1   2
ATOM      2  C   UNL     1     174.828 184.357 188.978  1.00  0.00     0.000 C 
BRANCH   2   3
ATOM      3  C   UNL     1     176.358 184.239 189.050  1.00  0.00     0.006 C 
BRANCH   3   4
ATOM      4  C   UNL     1     176.850 182.803 188.822  1.00  0.00     0.053 C 
BRANCH   4   5
ATOM      5  C   UNL     1     177.924 182.778 187.782  1.00  0.00     0.041 C 
ATOM      6  O   UNL     1     178.350 183.853 187.285  1.00  0.00    -0.550 OA
ATOM      7  O   UNL     1     178.422 181.564 187.325  1.00  0.00    -0.550 OA
ENDBRANCH   4   5
ENDBRANCH   3   4
ENDBRANCH   2   3
ENDBRANCH   1   2
BRANCH   1   8
ATOM      8  C   UNL     1     175.243 185.547 186.751  1.00  0.00     0.000 C 
BRANCH   8   9
ATOM      9  C   UNL     1     174.619 184.831 185.544  1.00  0.00     0.006 C 
BRANCH   9  10
ATOM     10  C   UNL     1     175.418 183.577 185.178  1.00  0.00     0.053 C 
BRANCH  10  11
ATOM     11  C   UNL     1     174.765 182.356 185.745  1.00  0.00     0.041 C 
ATOM     12  O   UNL     1     175.390 181.264 185.786  1.00  0.00    -0.550 OA
ATOM     13  O   UNL     1     173.483 182.435 186.275  1.00  0.00    -0.550 OA
ENDBRANCH  10  11
ENDBRANCH   9  10
ENDBRANCH   8   9
ENDBRANCH   1   8
TORSDOF 8
ENDMDL
MODEL 7
REMARK VINA RESULT:     0.001     14.686     15.844
REMARK INTER + INTRA:          -1.024
REMARK INTER:                   0.000
REMARK INTRA:                  -1.024
REMARK UNBOUND:                -1.025
REMARK SMILES O=C([O-])CCCCCCCC(=O)[O-]
REMARK SMILES IDX 7 1 6 2 5 3 4 4 2 5 1 6 3 7 8 8 9 9 10 10 11 11 12 12 13 13
REMARK H PARENT
REMARK Flexibility Score: inf
ROOT
ATOM      1  C   UNL     1     172.519 187.488 198.681  1.00  0.00     0.000 C 
ENDROOT
BRANCH   1   2
ATOM      2  C   UNL     1     173.378 187.525 199.957  1.00  0.00     0.000 C 
BRANCH   2   3
ATOM      3  C   UNL     1     174.806 187.006 199.723  1.00  0.00     0.006 C 
BRANCH   3   4
ATOM      4  C   UNL     1     175.211 185.921 200.730  1.00  0.00     0.053 C 
BRANCH   4   5
ATOM      5  C   UNL     1     175.769 184.730 200.018  1.00  0.00     0.041 C 
ATOM      6  O   UNL     1     175.916 184.751 198.768  1.00  0.00    -0.550 OA
ATOM      7  O   UNL     1     176.082 183.578 200.728  1.00  0.00    -0.550 OA
ENDBRANCH   4   5
ENDBRANCH   3   4
ENDBRANCH   2   3
ENDBRANCH   1   2
BRANCH   1   8
ATOM      8  C   UNL     1     172.809 186.256 197.810  1.00  0.00     0.000 C 
BRANCH   8   9
ATOM      9  C   UNL     1     171.775 185.137 198.006  1.00  0.00     0.006 C 
BRANCH   9  10
ATOM     10  C   UNL     1     172.399 183.934 198.719  1.00  0.00     0.053 C 
BRANCH  10  11
ATOM     11  C   UNL     1     172.067 183.961 200.178  1.00  0.00     0.041 C 
ATOM     12  O   UNL     1     172.689 183.220 200.983  1.00  0.00    -0.550 OA
ATOM     13  O   UNL     1     171.104 184.841 200.656  1.00  0.00    -0.550 OA
ENDBRANCH  10  11
ENDBRANCH   9  10
ENDBRANCH   8   9
ENDBRANCH   1   8
TORSDOF 8
ENDMDL
MODEL 8
REMARK VINA RESULT:     0.001     14.274     15.446
REMARK INTER + INTRA:          -1.024
REMARK INTER:                   0.000
REMARK INTRA:                  -1.024
REMARK UNBOUND:                -1.025
REMARK SMILES O=C([O-])CCCCCCCC(=O)[O-]
REMARK SMILES IDX 7 1 6 2 5 3 4 4 2 5 1 6 3 7 8 8 9 9 10 10 11 11 12 12 13 13
REMARK H PARENT
REMARK Flexibility Score: inf
ROOT
ATOM      1  C   UNL     1     177.520 186.926 198.974  1.00  0.00     0.000 C 
ENDROOT
BRANCH   1   2
ATOM      2  C   UNL     1     177.817 185.751 198.025  1.00  0.00     0.000 C 
BRANCH   2   3
ATOM      3  C   UNL     1     178.537 184.590 198.730  1.00  0.00     0.006 C 
BRANCH   3   4
ATOM      4  C   UNL     1     177.647 183.349 198.880  1.00  0.00     0.053 C 
BRANCH   4   5
ATOM      5  C   UNL     1     177.043 183.302 200.247  1.00  0.00     0.041 C 
ATOM      6  O   UNL     1     177.495 184.036 201.165  1.00  0.00    -0.550 OA
ATOM      7  O   UNL     1     176.013 182.412 200.522  1.00  0.00    -0.550 OA
ENDBRANCH   4   5
ENDBRANCH   3   4
ENDBRANCH   2   3
ENDBRANCH   1   2
BRANCH   1   8
ATOM      8  C   UNL     1     176.083 186.896 199.518  1.00  0.00     0.000 C 
BRANCH   8   9
ATOM      9  C   UNL     1     175.061 186.449 198.462  1.00  0.00     0.006 C 
BRANCH   9  10
ATOM     10  C   UNL     1     174.169 185.328 199.004  1.00  0.00     0.053 C 
BRANCH  10  11
ATOM     11  C   UNL     1     174.126 184.182 198.043  1.00  0.00     0.041 C 
ATOM     12  O   UNL     1     174.751 184.246 196.953  1.00  0.00    -0.550 OA
ATOM     13  O   UNL     1     173.435 183.023 198.373  1.00  0.00    -0.550 OA
ENDBRANCH  10  11
ENDBRANCH   9  10
ENDBRANCH   8   9
ENDBRANCH   1   8
TORSDOF 8
ENDMDL
MODEL 9
REMARK VINA RESULT:     0.002      5.282      6.552
REMARK INTER + INTRA:          -1.023
REMARK INTER:                   0.000
REMARK INTRA:                  -1.023
REMARK UNBOUND:                -1.025
REMARK SMILES O=C([O-])CCCCCCCC(=O)[O-]
REMARK SMILES IDX 7 1 6 2 5 3 4 4 2 5 1 6 3 7 8 8 9 9 10 10 11 11 12 12 13 13
REMARK H PARENT
REMARK Flexibility Score: inf
ROOT
ATOM      1  C   UNL     1     171.420 195.324 191.833  1.00  0.00     0.000 C 
ENDROOT
BRANCH   1   2
ATOM      2  C   UNL     1     171.065 193.840 192.035  1.00  0.00     0.000 C 
BRANCH   2   3
ATOM      3  C   UNL     1     172.286 192.987 192.412  1.00  0.00     0.006 C 
BRANCH   3   4
ATOM      4  C   UNL     1     172.445 191.755 191.510  1.00  0.00     0.053 C 
BRANCH   4   5
ATOM      5  C   UNL     1     173.843 191.668 190.987  1.00  0.00     0.041 C 
ATOM      6  O   UNL     1     174.709 192.505 191.351  1.00  0.00    -0.550 OA
ATOM      7  O   UNL     1     174.178 190.691 190.058  1.00  0.00    -0.550 OA
ENDBRANCH   4   5
ENDBRANCH   3   4
ENDBRANCH   2   3
ENDBRANCH   1   2
BRANCH   1   8
ATOM      8  C   UNL     1     172.788 195.517 191.161  1.00  0.00     0.000 C 
BRANCH   8   9
ATOM      9  C   UNL     1     172.672 195.794 189.654  1.00  0.00     0.006 C 
BRANCH   9  10
ATOM     10  C   UNL     1     173.212 194.616 188.839  1.00  0.00     0.053 C 
BRANCH  10  11
ATOM     11  C   UNL     1     172.089 193.748 188.364  1.00  0.00     0.041 C 
ATOM     12  O   UNL     1     172.326 192.604 187.898  1.00  0.00    -0.550 OA
ATOM     13  O   UNL     1     170.775 194.184 188.484  1.00  0.00    -0.550 OA
ENDBRANCH  10  11
ENDBRANCH   9  10
ENDBRANCH   8   9
ENDBRANCH   1   8
TORSDOF 8
ENDMDL
