MODEL 1
REMARK VINA RESULT:    -4.274      0.000      0.000
REMARK INTER + INTRA:          -5.919
REMARK INTER:                  -6.273
REMARK INTRA:                   0.354
REMARK UNBOUND:                 0.354
REMARK SMILES C=C1CC=CC(C)(C)CC=C(C)CCC1
REMARK SMILES IDX 2 1 1 2 15 3 14 4 13 5 11 6 12 7 10 8 3 10 4 11 5 12 6 13
REMARK SMILES IDX 7 14 8 15 9 16
REMARK H PARENT
REMARK Flexibility Score: 60.00
ROOT
ATOM      1  C   UNL     1      10.385  33.218  24.691  1.00  0.00    -0.074 C 
ATOM      2  C   UNL     1      10.586  32.766  25.942  1.00  0.00     0.008 C 
ENDROOT
BRANCH   1   3
ATOM      3  C   UNL     1       9.244  34.186  24.425  1.00  0.00     0.031 C 
BRANCH   3   4
ATOM      4  C   UNL     1       7.865  33.508  24.374  1.00  0.00     0.009 C 
BRANCH   4   5
ATOM      5  C   UNL     1       7.485  32.994  22.970  1.00  0.00     0.030 C 
BRANCH   5   6
ATOM      6  C   UNL     1       7.715  31.494  22.853  1.00  0.00    -0.077 C 
ATOM      7  C   UNL     1       7.240  30.596  23.965  1.00  0.00     0.039 C 
ATOM      8  C   UNL     1       8.354  30.926  21.800  1.00  0.00    -0.027 CG0
ATOM      9  G   UNL     1       8.854  31.679  20.585  1.00  0.00     0.000 G0
ENDBRANCH   5   6
ENDBRANCH   4   5
ENDBRANCH   3   4
ENDBRANCH   1   3
BRANCH   1  10
ATOM     10  C   UNL     1      11.157  32.630  23.518  1.00  0.00     0.057 C 
BRANCH  10  11
ATOM     11  C   UNL     1      11.169  33.478  22.257  1.00  0.00    -0.026 C 
ATOM     12  C   UNL     1      10.879  33.118  20.980  1.00  0.00    -0.024 C 
BRANCH  12  13
ATOM     13  C   UNL     1      10.397  31.763  20.440  1.00  0.00    -0.014 C 
ATOM     14  C   UNL     1      11.152  30.600  21.127  1.00  0.00     0.016 C 
ATOM     15  C   UNL     1      10.755  31.705  18.934  1.00  0.00     0.016 C 
BRANCH  13  16
ATOM     16  C   UNL     1       8.846  31.672  20.571  1.00  0.00     0.038 CG0
ATOM     17  G   UNL     1       8.354  30.934  21.798  1.00  0.00     0.000 G0
ENDBRANCH  13  16
ENDBRANCH  12  13
ENDBRANCH  10  11
ENDBRANCH   1  10
TORSDOF 0
ENDMDL
MODEL 2
REMARK VINA RESULT:    -4.075      1.123      1.325
REMARK INTER + INTRA:          -5.627
REMARK INTER:                  -6.078
REMARK INTRA:                   0.450
REMARK UNBOUND:                 0.354
REMARK SMILES C=C1CC=CC(C)(C)CC=C(C)CCC1
REMARK SMILES IDX 2 1 1 2 15 3 14 4 13 5 11 6 12 7 10 8 3 10 4 11 5 12 6 13
REMARK SMILES IDX 7 14 8 15 9 16
REMARK H PARENT
REMARK Flexibility Score: 60.00
ROOT
ATOM      1  C   UNL     1      10.313  33.064  24.668  1.00  0.00    -0.074 C 
ATOM      2  C   UNL     1      10.489  32.734  25.960  1.00  0.00     0.008 C 
ENDROOT
BRANCH   1   3
ATOM      3  C   UNL     1       9.176  34.000  24.288  1.00  0.00     0.031 C 
BRANCH   3   4
ATOM      4  C   UNL     1       7.953  33.273  23.706  1.00  0.00     0.009 C 
BRANCH   4   5
ATOM      5  C   UNL     1       7.782  33.478  22.187  1.00  0.00     0.030 C 
BRANCH   5   6
ATOM      6  C   UNL     1       7.931  32.164  21.434  1.00  0.00    -0.077 C 
ATOM      7  C   UNL     1       6.936  31.062  21.689  1.00  0.00     0.039 C 
ATOM      8  C   UNL     1       8.938  31.926  20.557  1.00  0.00    -0.027 CG0
ATOM      9  G   UNL     1       9.992  32.937  20.158  1.00  0.00     0.000 G0
ENDBRANCH   5   6
ENDBRANCH   4   5
ENDBRANCH   3   4
ENDBRANCH   1   3
BRANCH   1  10
ATOM     10  C   UNL     1      11.108  32.369  23.571  1.00  0.00     0.057 C 
BRANCH  10  11
ATOM     11  C   UNL     1      11.995  33.275  22.736  1.00  0.00    -0.026 C 
ATOM     12  C   UNL     1      12.169  33.300  21.389  1.00  0.00    -0.024 C 
BRANCH  12  13
ATOM     13  C   UNL     1      11.477  32.458  20.306  1.00  0.00    -0.014 C 
ATOM     14  C   UNL     1      11.612  30.948  20.618  1.00  0.00     0.016 C 
ATOM     15  C   UNL     1      12.221  32.709  18.971  1.00  0.00     0.016 C 
BRANCH  13  16
ATOM     16  C   UNL     1      10.004  32.937  20.135  1.00  0.00     0.038 CG0
ATOM     17  G   UNL     1       8.955  31.930  20.556  1.00  0.00     0.000 G0
ENDBRANCH  13  16
ENDBRANCH  12  13
ENDBRANCH  10  11
ENDBRANCH   1  10
TORSDOF 0
ENDMDL
MODEL 3
REMARK VINA RESULT:    -3.990      1.033      3.604
REMARK INTER + INTRA:          -5.502
REMARK INTER:                  -6.078
REMARK INTRA:                   0.576
REMARK UNBOUND:                 0.354
REMARK SMILES C=C1CC=CC(C)(C)CC=C(C)CCC1
REMARK SMILES IDX 2 1 1 2 15 3 14 4 13 5 11 6 12 7 10 8 3 10 4 11 5 12 6 13
REMARK SMILES IDX 7 14 8 15 9 16
REMARK H PARENT
REMARK Flexibility Score: 60.00
ROOT
ATOM      1  C   UNL     1       9.362  32.951  24.883  1.00  0.00    -0.074 C 
ATOM      2  C   UNL     1      10.154  32.582  25.906  1.00  0.00     0.008 C 
ENDROOT
BRANCH   1   3
ATOM      3  C   UNL     1       9.947  33.781  23.752  1.00  0.00     0.031 C 
BRANCH   3   4
ATOM      4  C   UNL     1      11.324  33.289  23.280  1.00  0.00     0.009 C 
BRANCH   4   5
ATOM      5  C   UNL     1      11.250  32.090  22.313  1.00  0.00     0.030 C 
BRANCH   5   6
ATOM      6  C   UNL     1      10.440  32.434  21.071  1.00  0.00    -0.077 C 
ATOM      7  C   UNL     1      10.964  33.487  20.129  1.00  0.00     0.039 C 
ATOM      8  C   UNL     1       9.250  31.851  20.782  1.00  0.00    -0.027 CG0
ATOM      9  G   UNL     1       8.606  30.750  21.598  1.00  0.00     0.000 G0
ENDBRANCH   5   6
ENDBRANCH   4   5
ENDBRANCH   3   4
ENDBRANCH   1   3
BRANCH   1  10
ATOM     10  C   UNL     1       7.858  32.716  24.939  1.00  0.00     0.057 C 
BRANCH  10  11
ATOM     11  C   UNL     1       7.419  31.272  24.768  1.00  0.00    -0.026 C 
ATOM     12  C   UNL     1       7.123  30.596  23.628  1.00  0.00    -0.024 C 
BRANCH  12  13
ATOM     13  C   UNL     1       7.200  31.072  22.169  1.00  0.00    -0.014 C 
ATOM     14  C   UNL     1       6.802  32.564  22.059  1.00  0.00     0.016 C 
ATOM     15  C   UNL     1       6.156  30.267  21.357  1.00  0.00     0.016 C 
BRANCH  13  16
ATOM     16  C   UNL     1       8.613  30.753  21.591  1.00  0.00     0.038 CG0
ATOM     17  G   UNL     1       9.241  31.876  20.792  1.00  0.00     0.000 G0
ENDBRANCH  13  16
ENDBRANCH  12  13
ENDBRANCH  10  11
ENDBRANCH   1  10
TORSDOF 0
ENDMDL
MODEL 4
REMARK VINA RESULT:    -3.926      1.694      3.136
REMARK INTER + INTRA:          -5.409
REMARK INTER:                  -6.072
REMARK INTRA:                   0.663
REMARK UNBOUND:                 0.354
REMARK SMILES C=C1CC=CC(C)(C)CC=C(C)CCC1
REMARK SMILES IDX 2 1 1 2 15 3 14 4 13 5 11 6 12 7 10 8 3 10 4 11 5 12 6 13
REMARK SMILES IDX 7 14 8 15 9 16
REMARK H PARENT
REMARK Flexibility Score: 60.00
ROOT
ATOM      1  C   UNL     1      11.895  33.085  21.940  1.00  0.00    -0.074 C 
ATOM      2  C   UNL     1      13.237  33.178  21.908  1.00  0.00     0.008 C 
ENDROOT
BRANCH   1   3
ATOM      3  C   UNL     1      11.225  32.413  23.126  1.00  0.00     0.031 C 
BRANCH   3   4
ATOM      4  C   UNL     1      10.856  33.388  24.256  1.00  0.00     0.009 C 
BRANCH   4   5
ATOM      5  C   UNL     1       9.632  34.268  23.933  1.00  0.00     0.030 C 
BRANCH   5   6
ATOM      6  C   UNL     1       8.376  33.424  23.765  1.00  0.00    -0.077 C 
ATOM      7  C   UNL     1       7.846  32.665  24.954  1.00  0.00     0.039 C 
ATOM      8  C   UNL     1       7.722  33.301  22.584  1.00  0.00    -0.027 CG0
ATOM      9  G   UNL     1       8.097  34.027  21.309  1.00  0.00     0.000 G0
ENDBRANCH   5   6
ENDBRANCH   4   5
ENDBRANCH   3   4
ENDBRANCH   1   3
BRANCH   1  10
ATOM     10  C   UNL     1      11.059  33.468  20.725  1.00  0.00     0.057 C 
BRANCH  10  11
ATOM     11  C   UNL     1      10.307  32.324  20.068  1.00  0.00    -0.026 C 
ATOM     12  C   UNL     1       8.984  32.224  19.775  1.00  0.00    -0.024 C 
BRANCH  12  13
ATOM     13  C   UNL     1       7.867  33.261  19.970  1.00  0.00    -0.014 C 
ATOM     14  C   UNL     1       6.475  32.590  19.878  1.00  0.00     0.016 C 
ATOM     15  C   UNL     1       7.957  34.272  18.800  1.00  0.00     0.016 C 
BRANCH  13  16
ATOM     16  C   UNL     1       8.104  34.039  21.300  1.00  0.00     0.038 CG0
ATOM     17  G   UNL     1       7.717  33.285  22.555  1.00  0.00     0.000 G0
ENDBRANCH  13  16
ENDBRANCH  12  13
ENDBRANCH  10  11
ENDBRANCH   1  10
TORSDOF 0
ENDMDL
MODEL 5
REMARK VINA RESULT:    -3.861      1.452      4.239
REMARK INTER + INTRA:          -5.313
REMARK INTER:                  -5.687
REMARK INTRA:                   0.374
REMARK UNBOUND:                 0.354
REMARK SMILES C=C1CC=CC(C)(C)CC=C(C)CCC1
REMARK SMILES IDX 2 1 1 2 15 3 14 4 13 5 11 6 12 7 10 8 3 10 4 11 5 12 6 13
REMARK SMILES IDX 7 14 8 15 9 16
REMARK H PARENT
REMARK Flexibility Score: 60.00
ROOT
ATOM      1  C   UNL     1      13.255  32.641  21.706  1.00  0.00    -0.074 C 
ATOM      2  C   UNL     1      14.219  33.255  20.996  1.00  0.00     0.008 C 
ENDROOT
BRANCH   1   3
ATOM      3  C   UNL     1      13.294  31.130  21.862  1.00  0.00     0.031 C 
BRANCH   3   4
ATOM      4  C   UNL     1      12.679  30.375  20.672  1.00  0.00     0.009 C 
BRANCH   4   5
ATOM      5  C   UNL     1      11.191  30.019  20.874  1.00  0.00     0.030 C 
BRANCH   5   6
ATOM      6  C   UNL     1      10.287  31.006  20.149  1.00  0.00    -0.077 C 
ATOM      7  C   UNL     1      10.525  31.271  18.685  1.00  0.00     0.039 C 
ATOM      8  C   UNL     1       9.285  31.680  20.766  1.00  0.00    -0.027 CG0
ATOM      9  G   UNL     1       8.888  31.498  22.216  1.00  0.00     0.000 G0
ENDBRANCH   5   6
ENDBRANCH   4   5
ENDBRANCH   3   4
ENDBRANCH   1   3
BRANCH   1  10
ATOM     10  C   UNL     1      12.033  33.412  22.187  1.00  0.00     0.057 C 
BRANCH  10  11
ATOM     11  C   UNL     1      11.504  33.006  23.552  1.00  0.00    -0.026 C 
ATOM     12  C   UNL     1      10.224  32.770  23.940  1.00  0.00    -0.024 C 
BRANCH  12  13
ATOM     13  C   UNL     1       8.938  32.784  23.100  1.00  0.00    -0.014 C 
ATOM     14  C   UNL     1       8.827  34.100  22.292  1.00  0.00     0.016 C 
ATOM     15  C   UNL     1       7.738  32.755  24.079  1.00  0.00     0.016 C 
BRANCH  13  16
ATOM     16  C   UNL     1       8.875  31.498  22.220  1.00  0.00     0.038 CG0
ATOM     17  G   UNL     1       9.289  31.694  20.777  1.00  0.00     0.000 G0
ENDBRANCH  13  16
ENDBRANCH  12  13
ENDBRANCH  10  11
ENDBRANCH   1  10
TORSDOF 0
ENDMDL
MODEL 6
REMARK VINA RESULT:    -3.707      2.297      3.220
REMARK INTER + INTRA:          -5.086
REMARK INTER:                  -5.601
REMARK INTRA:                   0.515
REMARK UNBOUND:                 0.354
REMARK SMILES C=C1CC=CC(C)(C)CC=C(C)CCC1
REMARK SMILES IDX 2 1 1 2 15 3 14 4 13 5 11 6 12 7 10 8 3 10 4 11 5 12 6 13
REMARK SMILES IDX 7 14 8 15 9 16
REMARK H PARENT
REMARK Flexibility Score: 60.00
ROOT
ATOM      1  C   UNL     1      10.851  32.973  23.357  1.00  0.00    -0.074 C 
ATOM      2  C   UNL     1      10.700  32.471  24.597  1.00  0.00     0.008 C 
ENDROOT
BRANCH   1   3
ATOM      3  C   UNL     1       9.942  34.100  22.897  1.00  0.00     0.031 C 
BRANCH   3   4
ATOM      4  C   UNL     1       8.790  33.629  21.995  1.00  0.00     0.009 C 
BRANCH   4   5
ATOM      5  C   UNL     1       8.752  34.338  20.625  1.00  0.00     0.030 C 
BRANCH   5   6
ATOM      6  C   UNL     1       9.072  33.369  19.495  1.00  0.00    -0.077 C 
ATOM      7  C   UNL     1       7.968  32.502  18.947  1.00  0.00     0.039 C 
ATOM      8  C   UNL     1      10.315  33.230  18.972  1.00  0.00    -0.027 CG0
ATOM      9  G   UNL     1      11.520  34.052  19.379  1.00  0.00     0.000 G0
ENDBRANCH   5   6
ENDBRANCH   4   5
ENDBRANCH   3   4
ENDBRANCH   1   3
BRANCH   1  10
ATOM     10  C   UNL     1      11.780  32.303  22.354  1.00  0.00     0.057 C 
BRANCH  10  11
ATOM     11  C   UNL     1      13.043  33.078  22.018  1.00  0.00    -0.026 C 
ATOM     12  C   UNL     1      13.512  33.468  20.805  1.00  0.00    -0.024 C 
BRANCH  12  13
ATOM     13  C   UNL     1      12.877  33.291  19.417  1.00  0.00    -0.014 C 
ATOM     14  C   UNL     1      12.759  31.790  19.057  1.00  0.00     0.016 C 
ATOM     15  C   UNL     1      13.833  33.929  18.380  1.00  0.00     0.016 C 
BRANCH  13  16
ATOM     16  C   UNL     1      11.522  34.060  19.362  1.00  0.00     0.038 CG0
ATOM     17  G   UNL     1      10.329  33.218  18.963  1.00  0.00     0.000 G0
ENDBRANCH  13  16
ENDBRANCH  12  13
ENDBRANCH  10  11
ENDBRANCH   1  10
TORSDOF 0
ENDMDL
MODEL 7
REMARK VINA RESULT:    -3.686      1.670      4.074
REMARK INTER + INTRA:          -5.056
REMARK INTER:                  -5.800
REMARK INTRA:                   0.744
REMARK UNBOUND:                 0.354
REMARK SMILES C=C1CC=CC(C)(C)CC=C(C)CCC1
REMARK SMILES IDX 2 1 1 2 15 3 14 4 13 5 11 6 12 7 10 8 3 10 4 11 5 12 6 13
REMARK SMILES IDX 7 14 8 15 9 16
REMARK H PARENT
REMARK Flexibility Score: 60.00
ROOT
ATOM      1  C   UNL     1      12.709  33.188  21.454  1.00  0.00    -0.074 C 
ATOM      2  C   UNL     1      13.977  32.739  21.431  1.00  0.00     0.008 C 
ENDROOT
BRANCH   1   3
ATOM      3  C   UNL     1      12.063  33.656  20.160  1.00  0.00     0.031 C 
BRANCH   3   4
ATOM      4  C   UNL     1      10.972  32.705  19.641  1.00  0.00     0.009 C 
BRANCH   4   5
ATOM      5  C   UNL     1       9.596  33.381  19.474  1.00  0.00     0.030 C 
BRANCH   5   6
ATOM      6  C   UNL     1       8.494  32.551  20.119  1.00  0.00    -0.077 C 
ATOM      7  C   UNL     1       7.956  31.355  19.378  1.00  0.00     0.039 C 
ATOM      8  C   UNL     1       7.954  32.853  21.326  1.00  0.00    -0.027 CG0
ATOM      9  G   UNL     1       8.409  33.990  22.216  1.00  0.00     0.000 G0
ENDBRANCH   5   6
ENDBRANCH   4   5
ENDBRANCH   3   4
ENDBRANCH   1   3
BRANCH   1  10
ATOM     10  C   UNL     1      11.987  33.414  22.776  1.00  0.00     0.057 C 
BRANCH  10  11
ATOM     11  C   UNL     1      11.064  32.289  23.213  1.00  0.00    -0.026 C 
ATOM     12  C   UNL     1       9.766  32.350  23.606  1.00  0.00    -0.024 C 
BRANCH  12  13
ATOM     13  C   UNL     1       8.827  33.564  23.669  1.00  0.00    -0.014 C 
ATOM     14  C   UNL     1       9.463  34.704  24.501  1.00  0.00     0.016 C 
ATOM     15  C   UNL     1       7.543  33.125  24.415  1.00  0.00     0.016 C 
BRANCH  13  16
ATOM     16  C   UNL     1       8.425  33.988  22.223  1.00  0.00     0.038 CG0
ATOM     17  G   UNL     1       7.958  32.854  21.336  1.00  0.00     0.000 G0
ENDBRANCH  13  16
ENDBRANCH  12  13
ENDBRANCH  10  11
ENDBRANCH   1  10
TORSDOF 0
ENDMDL
MODEL 8
REMARK VINA RESULT:    -3.565      3.064      4.735
REMARK INTER + INTRA:          -4.879
REMARK INTER:                  -5.612
REMARK INTRA:                   0.734
REMARK UNBOUND:                 0.354
REMARK SMILES C=C1CC=CC(C)(C)CC=C(C)CCC1
REMARK SMILES IDX 2 1 1 2 15 3 14 4 13 5 11 6 12 7 10 8 3 10 4 11 5 12 6 13
REMARK SMILES IDX 7 14 8 15 9 16
REMARK H PARENT
REMARK Flexibility Score: 60.00
ROOT
ATOM      1  C   UNL     1      14.659  33.059  20.762  1.00  0.00    -0.074 C 
ATOM      2  C   UNL     1      15.223  34.060  20.062  1.00  0.00     0.008 C 
ENDROOT
BRANCH   1   3
ATOM      3  C   UNL     1      13.859  33.386  22.012  1.00  0.00     0.031 C 
BRANCH   3   4
ATOM      4  C   UNL     1      12.343  33.462  21.768  1.00  0.00     0.009 C 
BRANCH   4   5
ATOM      5  C   UNL     1      11.870  32.611  20.571  1.00  0.00     0.030 C 
BRANCH   5   6
ATOM      6  C   UNL     1      10.997  31.452  21.032  1.00  0.00    -0.077 C 
ATOM      7  C   UNL     1       9.794  31.744  21.891  1.00  0.00     0.039 C 
ATOM      8  C   UNL     1      11.264  30.159  20.724  1.00  0.00    -0.027 CG0
ATOM      9  G   UNL     1      12.404  29.699  19.840  1.00  0.00     0.000 G0
ENDBRANCH   5   6
ENDBRANCH   4   5
ENDBRANCH   3   4
ENDBRANCH   1   3
BRANCH   1  10
ATOM     10  C   UNL     1      14.970  31.606  20.432  1.00  0.00     0.057 C 
BRANCH  10  11
ATOM     11  C   UNL     1      14.838  30.632  21.590  1.00  0.00    -0.026 C 
ATOM     12  C   UNL     1      14.178  29.447  21.642  1.00  0.00    -0.024 C 
BRANCH  12  13
ATOM     13  C   UNL     1      13.417  28.711  20.529  1.00  0.00    -0.014 C 
ATOM     14  C   UNL     1      12.747  27.428  21.080  1.00  0.00     0.016 C 
ATOM     15  C   UNL     1      14.455  28.258  19.473  1.00  0.00     0.016 C 
BRANCH  13  16
ATOM     16  C   UNL     1      12.423  29.694  19.839  1.00  0.00     0.038 CG0
ATOM     17  G   UNL     1      11.273  30.152  20.711  1.00  0.00     0.000 G0
ENDBRANCH  13  16
ENDBRANCH  12  13
ENDBRANCH  10  11
ENDBRANCH   1  10
TORSDOF 0
ENDMDL
MODEL 9
REMARK VINA RESULT:    -3.400      2.056      4.629
REMARK INTER + INTRA:          -4.636
REMARK INTER:                  -4.945
REMARK INTRA:                   0.309
REMARK UNBOUND:                 0.354
REMARK SMILES C=C1CC=CC(C)(C)CC=C(C)CCC1
REMARK SMILES IDX 2 1 1 2 15 3 14 4 13 5 11 6 12 7 10 8 3 10 4 11 5 12 6 13
REMARK SMILES IDX 7 14 8 15 9 16
REMARK H PARENT
REMARK Flexibility Score: 60.00
ROOT
ATOM      1  C   UNL     1      13.275  32.873  21.643  1.00  0.00    -0.074 C 
ATOM      2  C   UNL     1      14.160  33.363  20.755  1.00  0.00     0.008 C 
ENDROOT
BRANCH   1   3
ATOM      3  C   UNL     1      13.591  31.576  22.369  1.00  0.00     0.031 C 
BRANCH   3   4
ATOM      4  C   UNL     1      14.216  30.503  21.463  1.00  0.00     0.009 C 
BRANCH   4   5
ATOM      5  C   UNL     1      13.186  29.513  20.882  1.00  0.00     0.030 C 
BRANCH   5   6
ATOM      6  C   UNL     1      12.452  30.118  19.693  1.00  0.00    -0.077 C 
ATOM      7  C   UNL     1      13.218  30.381  18.422  1.00  0.00     0.039 C 
ATOM      8  C   UNL     1      11.139  30.457  19.731  1.00  0.00    -0.027 CG0
ATOM      9  G   UNL     1      10.221  30.221  20.911  1.00  0.00     0.000 G0
ENDBRANCH   5   6
ENDBRANCH   4   5
ENDBRANCH   3   4
ENDBRANCH   1   3
BRANCH   1  10
ATOM     10  C   UNL     1      11.891  33.492  21.784  1.00  0.00     0.057 C 
BRANCH  10  11
ATOM     11  C   UNL     1      10.997  32.854  22.833  1.00  0.00    -0.026 C 
ATOM     12  C   UNL     1       9.937  32.022  22.664  1.00  0.00    -0.024 C 
BRANCH  12  13
ATOM     13  C   UNL     1       9.363  31.434  21.367  1.00  0.00    -0.014 C 
ATOM     14  C   UNL     1       9.231  32.529  20.280  1.00  0.00     0.016 C 
ATOM     15  C   UNL     1       7.930  30.930  21.674  1.00  0.00     0.016 C 
BRANCH  13  16
ATOM     16  C   UNL     1      10.221  30.209  20.925  1.00  0.00     0.038 CG0
ATOM     17  G   UNL     1      11.136  30.465  19.748  1.00  0.00     0.000 G0
ENDBRANCH  13  16
ENDBRANCH  12  13
ENDBRANCH  10  11
ENDBRANCH   1  10
TORSDOF 0
ENDMDL
