MODEL 1
REMARK VINA RESULT:    -5.403      0.000      0.000
REMARK INTER + INTRA:          -7.405
REMARK INTER:                  -6.825
REMARK INTRA:                  -0.580
REMARK UNBOUND:                -0.580
REMARK SMILES O=C(C=Cc1ccc(O)cc1)c1ccc(O)cc1O
REMARK SMILES IDX 4 1 3 2 5 3 6 4 7 5 8 6 11 7 10 8 9 9 2 11 1 12 12 13 18 14
REMARK SMILES IDX 13 15 17 16 14 17 15 18 19 19 16 21
REMARK H PARENT 9 10 19 20 16 22
REMARK Flexibility Score: inf
ROOT
ATOM      1  C   UNL     1     107.245 138.617  57.964  1.00  0.00     0.012 C 
ATOM      2  C   UNL     1     107.676 137.994  59.072  1.00  0.00     0.053 C 
ENDROOT
BRANCH   1   3
ATOM      3  C   UNL     1     108.144 139.235  56.959  1.00  0.00    -0.025 A 
ATOM      4  C   UNL     1     109.231 138.483  56.480  1.00  0.00     0.012 A 
ATOM      5  C   UNL     1     110.111 139.025  55.538  1.00  0.00     0.047 A 
ATOM      6  C   UNL     1     109.925 140.328  55.069  1.00  0.00     0.115 A 
ATOM      7  C   UNL     1     107.972 140.554  56.491  1.00  0.00     0.012 A 
ATOM      8  C   UNL     1     108.856 141.092  55.550  1.00  0.00     0.047 A 
BRANCH   6   9
ATOM      9  O   UNL     1     110.810 140.854  54.130  1.00  0.00    -0.508 OA
ATOM     10  H   UNL     1     111.399 140.254  53.564  1.00  0.00     0.293 HD
ENDBRANCH   6   9
ENDBRANCH   1   3
BRANCH   2  11
ATOM     11  C   UNL     1     106.757 137.384  60.056  1.00  0.00     0.189 C 
ATOM     12  O   UNL     1     107.143 137.298  61.252  1.00  0.00    -0.289 OA
BRANCH  11  13
ATOM     13  C   UNL     1     105.400 136.901  59.702  1.00  0.00     0.064 A 
ATOM     14  C   UNL     1     105.222 135.646  59.082  1.00  0.00     0.130 A 
ATOM     15  C   UNL     1     104.270 137.673  60.023  1.00  0.00     0.020 A 
ATOM     16  C   UNL     1     103.929 135.193  58.780  1.00  0.00     0.093 A 
ATOM     17  C   UNL     1     102.987 137.216  59.716  1.00  0.00     0.047 A 
ATOM     18  C   UNL     1     102.813 135.975  59.092  1.00  0.00     0.119 A 
BRANCH  14  19
ATOM     19  O   UNL     1     106.327 134.859  58.757  1.00  0.00    -0.507 OA
ATOM     20  H   UNL     1     107.070 134.686  59.422  1.00  0.00     0.293 HD
ENDBRANCH  14  19
BRANCH  18  21
ATOM     21  O   UNL     1     101.538 135.508  58.781  1.00  0.00    -0.508 OA
ATOM     22  H   UNL     1     101.165 135.572  57.842  1.00  0.00     0.293 HD
ENDBRANCH  18  21
ENDBRANCH  11  13
ENDBRANCH   2  11
TORSDOF 6
ENDMDL
MODEL 2
REMARK VINA RESULT:    -5.336      1.434      2.067
REMARK INTER + INTRA:          -7.319
REMARK INTER:                  -6.691
REMARK INTRA:                  -0.628
REMARK UNBOUND:                -0.580
REMARK SMILES O=C(C=Cc1ccc(O)cc1)c1ccc(O)cc1O
REMARK SMILES IDX 4 1 3 2 5 3 6 4 7 5 8 6 11 7 10 8 9 9 2 11 1 12 12 13 18 14
REMARK SMILES IDX 13 15 17 16 14 17 15 18 19 19 16 21
REMARK H PARENT 9 10 19 20 16 22
REMARK Flexibility Score: inf
ROOT
ATOM      1  C   UNL     1     107.477 137.191  58.077  1.00  0.00     0.012 C 
ATOM      2  C   UNL     1     106.660 137.530  59.087  1.00  0.00     0.053 C 
ENDROOT
BRANCH   1   3
ATOM      3  C   UNL     1     108.528 138.083  57.528  1.00  0.00    -0.025 A 
ATOM      4  C   UNL     1     108.133 139.269  56.887  1.00  0.00     0.012 A 
ATOM      5  C   UNL     1     109.087 140.137  56.346  1.00  0.00     0.047 A 
ATOM      6  C   UNL     1     110.448 139.829  56.430  1.00  0.00     0.115 A 
ATOM      7  C   UNL     1     109.902 137.772  57.595  1.00  0.00     0.012 A 
ATOM      8  C   UNL     1     110.852 138.642  57.052  1.00  0.00     0.047 A 
BRANCH   6   9
ATOM      9  O   UNL     1     111.386 140.703  55.886  1.00  0.00    -0.508 OA
ATOM     10  H   UNL     1     111.366 140.959  54.906  1.00  0.00     0.293 HD
ENDBRANCH   6   9
ENDBRANCH   1   3
BRANCH   2  11
ATOM     11  C   UNL     1     105.622 136.621  59.617  1.00  0.00     0.189 C 
ATOM     12  O   UNL     1     105.997 135.551  60.166  1.00  0.00    -0.289 OA
BRANCH  11  13
ATOM     13  C   UNL     1     104.173 136.929  59.558  1.00  0.00     0.064 A 
ATOM     14  C   UNL     1     103.260 135.993  59.030  1.00  0.00     0.130 A 
ATOM     15  C   UNL     1     103.688 138.146  60.071  1.00  0.00     0.020 A 
ATOM     16  C   UNL     1     101.888 136.291  59.008  1.00  0.00     0.093 A 
ATOM     17  C   UNL     1     102.323 138.434  60.042  1.00  0.00     0.047 A 
ATOM     18  C   UNL     1     101.419 137.507  59.509  1.00  0.00     0.119 A 
BRANCH  14  19
ATOM     19  O   UNL     1     103.714 134.778  58.518  1.00  0.00    -0.507 OA
ATOM     20  H   UNL     1     104.331 134.175  59.049  1.00  0.00     0.293 HD
ENDBRANCH  14  19
BRANCH  18  21
ATOM     21  O   UNL     1     100.054 137.785  59.475  1.00  0.00    -0.508 OA
ATOM     22  H   UNL     1      99.700 138.723  59.619  1.00  0.00     0.293 HD
ENDBRANCH  18  21
ENDBRANCH  11  13
ENDBRANCH   2  11
TORSDOF 6
ENDMDL
MODEL 3
REMARK VINA RESULT:    -5.263      2.945      4.437
REMARK INTER + INTRA:          -7.228
REMARK INTER:                  -6.473
REMARK INTRA:                  -0.755
REMARK UNBOUND:                -0.580
REMARK SMILES O=C(C=Cc1ccc(O)cc1)c1ccc(O)cc1O
REMARK SMILES IDX 4 1 3 2 5 3 6 4 7 5 8 6 11 7 10 8 9 9 2 11 1 12 12 13 18 14
REMARK SMILES IDX 13 15 17 16 14 17 15 18 19 19 16 21
REMARK H PARENT 9 10 19 20 16 22
REMARK Flexibility Score: inf
ROOT
ATOM      1  C   UNL     1     107.055 140.727  55.713  1.00  0.00     0.012 C 
ATOM      2  C   UNL     1     108.267 140.520  56.250  1.00  0.00     0.053 C 
ENDROOT
BRANCH   1   3
ATOM      3  C   UNL     1     106.833 141.373  54.396  1.00  0.00    -0.025 A 
ATOM      4  C   UNL     1     107.708 142.398  53.997  1.00  0.00     0.012 A 
ATOM      5  C   UNL     1     107.534 143.043  52.768  1.00  0.00     0.047 A 
ATOM      6  C   UNL     1     106.479 142.682  51.926  1.00  0.00     0.115 A 
ATOM      7  C   UNL     1     105.762 141.025  53.547  1.00  0.00     0.012 A 
ATOM      8  C   UNL     1     105.592 141.674  52.320  1.00  0.00     0.047 A 
BRANCH   6   9
ATOM      9  O   UNL     1     106.319 143.333  50.705  1.00  0.00    -0.508 OA
ATOM     10  H   UNL     1     106.444 144.335  50.620  1.00  0.00     0.293 HD
ENDBRANCH   6   9
ENDBRANCH   1   3
BRANCH   2  11
ATOM     11  C   UNL     1     108.461 139.870  57.564  1.00  0.00     0.189 C 
ATOM     12  O   UNL     1     109.141 140.479  58.432  1.00  0.00    -0.289 OA
BRANCH  11  13
ATOM     13  C   UNL     1     107.866 138.556  57.909  1.00  0.00     0.064 A 
ATOM     14  C   UNL     1     106.843 138.460  58.876  1.00  0.00     0.130 A 
ATOM     15  C   UNL     1     108.288 137.393  57.240  1.00  0.00     0.020 A 
ATOM     16  C   UNL     1     106.273 137.212  59.168  1.00  0.00     0.093 A 
ATOM     17  C   UNL     1     107.716 136.155  57.540  1.00  0.00     0.047 A 
ATOM     18  C   UNL     1     106.708 136.061  58.507  1.00  0.00     0.119 A 
BRANCH  14  19
ATOM     19  O   UNL     1     106.405 139.599  59.551  1.00  0.00    -0.507 OA
ATOM     20  H   UNL     1     105.477 139.653  59.954  1.00  0.00     0.293 HD
ENDBRANCH  14  19
BRANCH  18  21
ATOM     21  O   UNL     1     106.131 134.831  58.815  1.00  0.00    -0.508 OA
ATOM     22  H   UNL     1     105.405 134.747  59.516  1.00  0.00     0.293 HD
ENDBRANCH  18  21
ENDBRANCH  11  13
ENDBRANCH   2  11
TORSDOF 6
ENDMDL
MODEL 4
REMARK VINA RESULT:    -5.148      3.884      6.849
REMARK INTER + INTRA:          -7.082
REMARK INTER:                  -6.462
REMARK INTRA:                  -0.620
REMARK UNBOUND:                -0.580
REMARK SMILES O=C(C=Cc1ccc(O)cc1)c1ccc(O)cc1O
REMARK SMILES IDX 4 1 3 2 5 3 6 4 7 5 8 6 11 7 10 8 9 9 2 11 1 12 12 13 18 14
REMARK SMILES IDX 13 15 17 16 14 17 15 18 19 19 16 21
REMARK H PARENT 9 10 19 20 16 22
REMARK Flexibility Score: inf
ROOT
ATOM      1  C   UNL     1     110.257 142.209  52.979  1.00  0.00     0.012 C 
ATOM      2  C   UNL     1     110.241 141.120  53.762  1.00  0.00     0.053 C 
ENDROOT
BRANCH   1   3
ATOM      3  C   UNL     1     111.020 142.305  51.710  1.00  0.00    -0.025 A 
ATOM      4  C   UNL     1     111.763 141.189  51.289  1.00  0.00     0.012 A 
ATOM      5  C   UNL     1     112.504 141.233  50.104  1.00  0.00     0.047 A 
ATOM      6  C   UNL     1     112.523 142.395  49.328  1.00  0.00     0.115 A 
ATOM      7  C   UNL     1     111.055 143.478  50.928  1.00  0.00     0.012 A 
ATOM      8  C   UNL     1     111.799 143.518  49.745  1.00  0.00     0.047 A 
BRANCH   6   9
ATOM      9  O   UNL     1     113.266 142.423  48.150  1.00  0.00    -0.508 OA
ATOM     10  H   UNL     1     113.582 143.297  47.745  1.00  0.00     0.293 HD
ENDBRANCH   6   9
ENDBRANCH   1   3
BRANCH   2  11
ATOM     11  C   UNL     1     109.469 141.050  55.021  1.00  0.00     0.189 C 
ATOM     12  O   UNL     1     108.706 142.013  55.302  1.00  0.00    -0.289 OA
BRANCH  11  13
ATOM     13  C   UNL     1     109.532 139.891  55.943  1.00  0.00     0.064 A 
ATOM     14  C   UNL     1     108.352 139.263  56.393  1.00  0.00     0.130 A 
ATOM     15  C   UNL     1     110.778 139.376  56.346  1.00  0.00     0.020 A 
ATOM     16  C   UNL     1     108.432 138.150  57.243  1.00  0.00     0.093 A 
ATOM     17  C   UNL     1     110.848 138.269  57.194  1.00  0.00     0.047 A 
ATOM     18  C   UNL     1     109.674 137.654  57.646  1.00  0.00     0.119 A 
BRANCH  14  19
ATOM     19  O   UNL     1     107.104 139.753  56.006  1.00  0.00    -0.507 OA
ATOM     20  H   UNL     1     106.293 139.674  56.608  1.00  0.00     0.293 HD
ENDBRANCH  14  19
BRANCH  18  21
ATOM     21  O   UNL     1     109.732 136.548  58.492  1.00  0.00    -0.508 OA
ATOM     22  H   UNL     1     110.569 135.982  58.567  1.00  0.00     0.293 HD
ENDBRANCH  18  21
ENDBRANCH  11  13
ENDBRANCH   2  11
TORSDOF 6
ENDMDL
MODEL 5
REMARK VINA RESULT:    -5.114      2.003      2.867
REMARK INTER + INTRA:          -7.039
REMARK INTER:                  -6.390
REMARK INTRA:                  -0.649
REMARK UNBOUND:                -0.580
REMARK SMILES O=C(C=Cc1ccc(O)cc1)c1ccc(O)cc1O
REMARK SMILES IDX 4 1 3 2 5 3 6 4 7 5 8 6 11 7 10 8 9 9 2 11 1 12 12 13 18 14
REMARK SMILES IDX 13 15 17 16 14 17 15 18 19 19 16 21
REMARK H PARENT 9 10 19 20 16 22
REMARK Flexibility Score: inf
ROOT
ATOM      1  C   UNL     1     108.490 139.031  55.781  1.00  0.00     0.012 C 
ATOM      2  C   UNL     1     109.399 138.496  56.611  1.00  0.00     0.053 C 
ENDROOT
BRANCH   1   3
ATOM      3  C   UNL     1     108.817 140.019  54.722  1.00  0.00    -0.025 A 
ATOM      4  C   UNL     1     110.077 139.947  54.104  1.00  0.00     0.012 A 
ATOM      5  C   UNL     1     110.434 140.860  53.107  1.00  0.00     0.047 A 
ATOM      6  C   UNL     1     109.542 141.864  52.720  1.00  0.00     0.115 A 
ATOM      7  C   UNL     1     107.929 141.044  54.337  1.00  0.00     0.012 A 
ATOM      8  C   UNL     1     108.291 141.955  53.340  1.00  0.00     0.047 A 
BRANCH   6   9
ATOM      9  O   UNL     1     109.912 142.766  51.726  1.00  0.00    -0.508 OA
ATOM     10  H   UNL     1     109.305 142.964  50.938  1.00  0.00     0.293 HD
ENDBRANCH   6   9
ENDBRANCH   1   3
BRANCH   2  11
ATOM     11  C   UNL     1     109.047 137.511  57.656  1.00  0.00     0.189 C 
ATOM     12  O   UNL     1     109.939 136.708  58.038  1.00  0.00    -0.289 OA
BRANCH  11  13
ATOM     13  C   UNL     1     107.707 137.451  58.289  1.00  0.00     0.064 A 
ATOM     14  C   UNL     1     106.972 136.247  58.305  1.00  0.00     0.130 A 
ATOM     15  C   UNL     1     107.173 138.588  58.921  1.00  0.00     0.020 A 
ATOM     16  C   UNL     1     105.719 136.202  58.934  1.00  0.00     0.093 A 
ATOM     17  C   UNL     1     105.924 138.534  59.541  1.00  0.00     0.047 A 
ATOM     18  C   UNL     1     105.192 137.341  59.548  1.00  0.00     0.119 A 
BRANCH  14  19
ATOM     19  O   UNL     1     107.480 135.104  57.688  1.00  0.00    -0.507 OA
ATOM     20  H   UNL     1     107.307 134.907  56.709  1.00  0.00     0.293 HD
ENDBRANCH  14  19
BRANCH  18  21
ATOM     21  O   UNL     1     103.944 137.276  60.164  1.00  0.00    -0.508 OA
ATOM     22  H   UNL     1     103.122 137.688  59.740  1.00  0.00     0.293 HD
ENDBRANCH  18  21
ENDBRANCH  11  13
ENDBRANCH   2  11
TORSDOF 6
ENDMDL
MODEL 6
REMARK VINA RESULT:    -5.099      2.366      7.089
REMARK INTER + INTRA:          -7.020
REMARK INTER:                  -6.295
REMARK INTRA:                  -0.726
REMARK UNBOUND:                -0.580
REMARK SMILES O=C(C=Cc1ccc(O)cc1)c1ccc(O)cc1O
REMARK SMILES IDX 4 1 3 2 5 3 6 4 7 5 8 6 11 7 10 8 9 9 2 11 1 12 12 13 18 14
REMARK SMILES IDX 13 15 17 16 14 17 15 18 19 19 16 21
REMARK H PARENT 9 10 19 20 16 22
REMARK Flexibility Score: inf
ROOT
ATOM      1  C   UNL     1     103.480 137.415  59.788  1.00  0.00     0.012 C 
ATOM      2  C   UNL     1     104.505 137.733  60.594  1.00  0.00     0.053 C 
ENDROOT
BRANCH   1   3
ATOM      3  C   UNL     1     102.107 137.954  59.942  1.00  0.00    -0.025 A 
ATOM      4  C   UNL     1     101.019 137.090  59.729  1.00  0.00     0.012 A 
ATOM      5  C   UNL     1      99.706 137.554  59.855  1.00  0.00     0.047 A 
ATOM      6  C   UNL     1      99.460 138.889  60.185  1.00  0.00     0.115 A 
ATOM      7  C   UNL     1     101.850 139.304  60.261  1.00  0.00     0.012 A 
ATOM      8  C   UNL     1     100.535 139.763  60.384  1.00  0.00     0.047 A 
BRANCH   6   9
ATOM      9  O   UNL     1      98.147 139.337  60.307  1.00  0.00    -0.508 OA
ATOM     10  H   UNL     1      97.888 140.041  60.989  1.00  0.00     0.293 HD
ENDBRANCH   6   9
ENDBRANCH   1   3
BRANCH   2  11
ATOM     11  C   UNL     1     105.865 137.182  60.416  1.00  0.00     0.189 C 
ATOM     12  O   UNL     1     106.319 136.422  61.312  1.00  0.00    -0.289 OA
BRANCH  11  13
ATOM     13  C   UNL     1     106.698 137.462  59.221  1.00  0.00     0.064 A 
ATOM     14  C   UNL     1     107.033 136.430  58.320  1.00  0.00     0.130 A 
ATOM     15  C   UNL     1     107.127 138.773  58.951  1.00  0.00     0.020 A 
ATOM     16  C   UNL     1     107.798 136.718  57.179  1.00  0.00     0.093 A 
ATOM     17  C   UNL     1     107.890 139.051  57.815  1.00  0.00     0.047 A 
ATOM     18  C   UNL     1     108.229 138.023  56.927  1.00  0.00     0.119 A 
BRANCH  14  19
ATOM     19  O   UNL     1     106.617 135.121  58.563  1.00  0.00    -0.507 OA
ATOM     20  H   UNL     1     106.037 134.616  57.903  1.00  0.00     0.293 HD
ENDBRANCH  14  19
BRANCH  18  21
ATOM     21  O   UNL     1     108.991 138.288  55.790  1.00  0.00    -0.508 OA
ATOM     22  H   UNL     1     108.558 138.454  54.889  1.00  0.00     0.293 HD
ENDBRANCH  18  21
ENDBRANCH  11  13
ENDBRANCH   2  11
TORSDOF 6
ENDMDL
MODEL 7
REMARK VINA RESULT:    -4.994      1.627      6.976
REMARK INTER + INTRA:          -6.888
REMARK INTER:                  -6.171
REMARK INTRA:                  -0.717
REMARK UNBOUND:                -0.580
REMARK SMILES O=C(C=Cc1ccc(O)cc1)c1ccc(O)cc1O
REMARK SMILES IDX 4 1 3 2 5 3 6 4 7 5 8 6 11 7 10 8 9 9 2 11 1 12 12 13 18 14
REMARK SMILES IDX 13 15 17 16 14 17 15 18 19 19 16 21
REMARK H PARENT 9 10 19 20 16 22
REMARK Flexibility Score: inf
ROOT
ATOM      1  C   UNL     1     105.327 137.412  59.612  1.00  0.00     0.012 C 
ATOM      2  C   UNL     1     105.992 138.507  60.011  1.00  0.00     0.053 C 
ENDROOT
BRANCH   1   3
ATOM      3  C   UNL     1     103.854 137.261  59.699  1.00  0.00    -0.025 A 
ATOM      4  C   UNL     1     103.267 136.097  59.173  1.00  0.00     0.012 A 
ATOM      5  C   UNL     1     101.881 135.913  59.224  1.00  0.00     0.047 A 
ATOM      6  C   UNL     1     101.062 136.892  59.792  1.00  0.00     0.115 A 
ATOM      7  C   UNL     1     103.018 138.250  60.257  1.00  0.00     0.012 A 
ATOM      8  C   UNL     1     101.633 138.062  60.305  1.00  0.00     0.047 A 
BRANCH   6   9
ATOM      9  O   UNL     1      99.684 136.695  59.836  1.00  0.00    -0.508 OA
ATOM     10  H   UNL     1      99.241 136.220  60.615  1.00  0.00     0.293 HD
ENDBRANCH   6   9
ENDBRANCH   1   3
BRANCH   2  11
ATOM     11  C   UNL     1     107.462 138.632  59.909  1.00  0.00     0.189 C 
ATOM     12  O   UNL     1     108.128 138.672  60.978  1.00  0.00    -0.289 OA
BRANCH  11  13
ATOM     13  C   UNL     1     108.180 138.681  58.613  1.00  0.00     0.064 A 
ATOM     14  C   UNL     1     109.258 137.809  58.353  1.00  0.00     0.130 A 
ATOM     15  C   UNL     1     107.762 139.572  57.608  1.00  0.00     0.020 A 
ATOM     16  C   UNL     1     109.907 137.851  57.110  1.00  0.00     0.093 A 
ATOM     17  C   UNL     1     108.416 139.609  56.375  1.00  0.00     0.047 A 
ATOM     18  C   UNL     1     109.491 138.748  56.123  1.00  0.00     0.119 A 
BRANCH  14  19
ATOM     19  O   UNL     1     109.689 136.914  59.332  1.00  0.00    -0.507 OA
ATOM     20  H   UNL     1     110.632 136.544  59.334  1.00  0.00     0.293 HD
ENDBRANCH  14  19
BRANCH  18  21
ATOM     21  O   UNL     1     110.151 138.776  54.896  1.00  0.00    -0.508 OA
ATOM     22  H   UNL     1     111.009 139.299  54.768  1.00  0.00     0.293 HD
ENDBRANCH  18  21
ENDBRANCH  11  13
ENDBRANCH   2  11
TORSDOF 6
ENDMDL
MODEL 8
REMARK VINA RESULT:    -4.958      2.142      7.601
REMARK INTER + INTRA:          -6.843
REMARK INTER:                  -6.336
REMARK INTRA:                  -0.507
REMARK UNBOUND:                -0.580
REMARK SMILES O=C(C=Cc1ccc(O)cc1)c1ccc(O)cc1O
REMARK SMILES IDX 4 1 3 2 5 3 6 4 7 5 8 6 11 7 10 8 9 9 2 11 1 12 12 13 18 14
REMARK SMILES IDX 13 15 17 16 14 17 15 18 19 19 16 21
REMARK H PARENT 9 10 19 20 16 22
REMARK Flexibility Score: inf
ROOT
ATOM      1  C   UNL     1     108.632 139.588  57.065  1.00  0.00     0.012 C 
ATOM      2  C   UNL     1     109.965 139.656  56.927  1.00  0.00     0.053 C 
ENDROOT
BRANCH   1   3
ATOM      3  C   UNL     1     107.920 138.441  57.681  1.00  0.00    -0.025 A 
ATOM      4  C   UNL     1     108.168 137.152  57.180  1.00  0.00     0.012 A 
ATOM      5  C   UNL     1     107.516 136.040  57.723  1.00  0.00     0.047 A 
ATOM      6  C   UNL     1     106.599 136.201  58.765  1.00  0.00     0.115 A 
ATOM      7  C   UNL     1     106.983 138.597  58.723  1.00  0.00     0.012 A 
ATOM      8  C   UNL     1     106.332 137.483  59.261  1.00  0.00     0.047 A 
BRANCH   6   9
ATOM      9  O   UNL     1     105.958 135.084  59.295  1.00  0.00    -0.508 OA
ATOM     10  H   UNL     1     105.600 134.347  58.699  1.00  0.00     0.293 HD
ENDBRANCH   6   9
ENDBRANCH   1   3
BRANCH   2  11
ATOM     11  C   UNL     1     110.649 140.813  56.312  1.00  0.00     0.189 C 
ATOM     12  O   UNL     1     111.740 141.192  56.815  1.00  0.00    -0.289 OA
BRANCH  11  13
ATOM     13  C   UNL     1     110.123 141.521  55.119  1.00  0.00     0.064 A 
ATOM     14  C   UNL     1     110.107 140.891  53.858  1.00  0.00     0.130 A 
ATOM     15  C   UNL     1     109.592 142.817  55.245  1.00  0.00     0.020 A 
ATOM     16  C   UNL     1     109.580 141.566  52.746  1.00  0.00     0.093 A 
ATOM     17  C   UNL     1     109.072 143.482  54.133  1.00  0.00     0.047 A 
ATOM     18  C   UNL     1     109.066 142.858  52.880  1.00  0.00     0.119 A 
BRANCH  14  19
ATOM     19  O   UNL     1     110.625 139.605  53.707  1.00  0.00    -0.507 OA
ATOM     20  H   UNL     1     111.621 139.440  53.617  1.00  0.00     0.293 HD
ENDBRANCH  14  19
BRANCH  18  21
ATOM     21  O   UNL     1     108.549 143.512  51.763  1.00  0.00    -0.508 OA
ATOM     22  H   UNL     1     107.857 144.246  51.852  1.00  0.00     0.293 HD
ENDBRANCH  18  21
ENDBRANCH  11  13
ENDBRANCH   2  11
TORSDOF 6
ENDMDL
MODEL 9
REMARK VINA RESULT:    -4.934      3.317      6.003
REMARK INTER + INTRA:          -6.812
REMARK INTER:                  -6.192
REMARK INTRA:                  -0.620
REMARK UNBOUND:                -0.580
REMARK SMILES O=C(C=Cc1ccc(O)cc1)c1ccc(O)cc1O
REMARK SMILES IDX 4 1 3 2 5 3 6 4 7 5 8 6 11 7 10 8 9 9 2 11 1 12 12 13 18 14
REMARK SMILES IDX 13 15 17 16 14 17 15 18 19 19 16 21
REMARK H PARENT 9 10 19 20 16 22
REMARK Flexibility Score: inf
ROOT
ATOM      1  C   UNL     1     102.993 137.757  60.225  1.00  0.00     0.012 C 
ATOM      2  C   UNL     1     101.967 137.327  59.474  1.00  0.00     0.053 C 
ENDROOT
BRANCH   1   3
ATOM      3  C   UNL     1     104.419 137.600  59.845  1.00  0.00    -0.025 A 
ATOM      4  C   UNL     1     104.878 136.323  59.477  1.00  0.00     0.012 A 
ATOM      5  C   UNL     1     106.215 136.124  59.119  1.00  0.00     0.047 A 
ATOM      6  C   UNL     1     107.115 137.193  59.133  1.00  0.00     0.115 A 
ATOM      7  C   UNL     1     105.336 138.670  59.871  1.00  0.00     0.012 A 
ATOM      8  C   UNL     1     106.673 138.465  59.513  1.00  0.00     0.047 A 
BRANCH   6   9
ATOM      9  O   UNL     1     108.443 136.978  58.774  1.00  0.00    -0.508 OA
ATOM     10  H   UNL     1     108.921 137.592  58.124  1.00  0.00     0.293 HD
ENDBRANCH   6   9
ENDBRANCH   1   3
BRANCH   2  11
ATOM     11  C   UNL     1     100.554 137.500  59.875  1.00  0.00     0.189 C 
ATOM     12  O   UNL     1     100.165 138.656  60.189  1.00  0.00    -0.289 OA
BRANCH  11  13
ATOM     13  C   UNL     1      99.579 136.383  59.893  1.00  0.00     0.064 A 
ATOM     14  C   UNL     1      98.248 136.583  59.472  1.00  0.00     0.130 A 
ATOM     15  C   UNL     1      99.985 135.097  60.291  1.00  0.00     0.020 A 
ATOM     16  C   UNL     1      97.346 135.508  59.469  1.00  0.00     0.093 A 
ATOM     17  C   UNL     1      99.081 134.034  60.287  1.00  0.00     0.047 A 
ATOM     18  C   UNL     1      97.757 134.237  59.877  1.00  0.00     0.119 A 
BRANCH  14  19
ATOM     19  O   UNL     1      97.820 137.848  59.070  1.00  0.00    -0.507 OA
ATOM     20  H   UNL     1      98.463 138.628  58.996  1.00  0.00     0.293 HD
ENDBRANCH  14  19
BRANCH  18  21
ATOM     21  O   UNL     1      96.846 133.183  59.870  1.00  0.00    -0.508 OA
ATOM     22  H   UNL     1      96.049 133.176  59.244  1.00  0.00     0.293 HD
ENDBRANCH  18  21
ENDBRANCH  11  13
ENDBRANCH   2  11
TORSDOF 6
ENDMDL
