MODEL 1
REMARK VINA RESULT:    -2.213      0.000      0.000
REMARK INTER + INTRA:          -2.213
REMARK INTER:                  -2.213
REMARK INTRA:                   0.000
REMARK UNBOUND:                 0.000
REMARK SMILES CC(=O)[O-]
REMARK SMILES IDX 1 1 2 2 3 3 4 4
REMARK H PARENT
REMARK Flexibility Score: inf
ROOT
ATOM      1  C   UNL     1      28.544   9.951  18.556  1.00  0.00     0.063 C 
ATOM      2  C   UNL     1      29.977   9.752  18.196  1.00  0.00     0.038 C 
ATOM      3  O   UNL     1      30.855  10.535  18.645  1.00  0.00    -0.550 OA
ATOM      4  O   UNL     1      30.341   8.737  17.323  1.00  0.00    -0.550 OA
ENDROOT
TORSDOF 0
ENDMDL
MODEL 2
REMARK VINA RESULT:    -2.125     15.354     15.882
REMARK INTER + INTRA:          -2.125
REMARK INTER:                  -2.125
REMARK INTRA:                   0.000
REMARK UNBOUND:                 0.000
REMARK SMILES CC(=O)[O-]
REMARK SMILES IDX 1 1 2 2 3 3 4 4
REMARK H PARENT
REMARK Flexibility Score: inf
ROOT
ATOM      1  C   UNL     1      22.272   2.155   6.113  1.00  0.00     0.063 C 
ATOM      2  C   UNL     1      23.150   3.187   5.488  1.00  0.00     0.038 C 
ATOM      3  O   UNL     1      24.256   3.476   6.013  1.00  0.00    -0.550 OA
ATOM      4  O   UNL     1      22.723   3.869   4.357  1.00  0.00    -0.550 OA
ENDROOT
TORSDOF 0
ENDMDL
MODEL 3
REMARK VINA RESULT:    -2.093     15.122     15.683
REMARK INTER + INTRA:          -2.093
REMARK INTER:                  -2.093
REMARK INTRA:                   0.000
REMARK UNBOUND:                 0.000
REMARK SMILES CC(=O)[O-]
REMARK SMILES IDX 1 1 2 2 3 3 4 4
REMARK H PARENT
REMARK Flexibility Score: inf
ROOT
ATOM      1  C   UNL     1      22.524   1.946   6.137  1.00  0.00     0.063 C 
ATOM      2  C   UNL     1      23.366   3.092   5.687  1.00  0.00     0.038 C 
ATOM      3  O   UNL     1      23.015   3.782   4.695  1.00  0.00    -0.550 OA
ATOM      4  O   UNL     1      24.567   3.365   6.328  1.00  0.00    -0.550 OA
ENDROOT
TORSDOF 0
ENDMDL
MODEL 4
REMARK VINA RESULT:    -2.030     15.435     15.975
REMARK INTER + INTRA:          -2.030
REMARK INTER:                  -2.030
REMARK INTRA:                   0.000
REMARK UNBOUND:                 0.000
REMARK SMILES CC(=O)[O-]
REMARK SMILES IDX 1 1 2 2 3 3 4 4
REMARK H PARENT
REMARK Flexibility Score: inf
ROOT
ATOM      1  C   UNL     1      22.191   3.570   4.371  1.00  0.00     0.063 C 
ATOM      2  C   UNL     1      22.867   3.105   5.616  1.00  0.00     0.038 C 
ATOM      3  O   UNL     1      22.241   2.398   6.449  1.00  0.00    -0.550 OA
ATOM      4  O   UNL     1      24.172   3.494   5.885  1.00  0.00    -0.550 OA
ENDROOT
TORSDOF 0
ENDMDL
MODEL 5
REMARK VINA RESULT:    -2.028     12.094     12.499
REMARK INTER + INTRA:          -2.028
REMARK INTER:                  -2.028
REMARK INTRA:                   0.000
REMARK UNBOUND:                 0.000
REMARK SMILES CC(=O)[O-]
REMARK SMILES IDX 1 1 2 2 3 3 4 4
REMARK H PARENT
REMARK Flexibility Score: inf
ROOT
ATOM      1  C   UNL     1      27.232  10.722   6.415  1.00  0.00     0.063 C 
ATOM      2  C   UNL     1      26.987   9.277   6.137  1.00  0.00     0.038 C 
ATOM      3  O   UNL     1      26.299   8.589   6.936  1.00  0.00    -0.550 OA
ATOM      4  O   UNL     1      27.562   8.675   5.027  1.00  0.00    -0.550 OA
ENDROOT
TORSDOF 0
ENDMDL
MODEL 6
REMARK VINA RESULT:    -2.013     17.751     18.318
REMARK INTER + INTRA:          -2.013
REMARK INTER:                  -2.013
REMARK INTRA:                   0.000
REMARK UNBOUND:                 0.000
REMARK SMILES CC(=O)[O-]
REMARK SMILES IDX 1 1 2 2 3 3 4 4
REMARK H PARENT
REMARK Flexibility Score: inf
ROOT
ATOM      1  C   UNL     1      16.269  -0.136  14.781  1.00  0.00     0.063 C 
ATOM      2  C   UNL     1      16.077  -1.596  14.547  1.00  0.00     0.038 C 
ATOM      3  O   UNL     1      15.279  -1.993  13.658  1.00  0.00    -0.550 OA
ATOM      4  O   UNL     1      16.737  -2.521  15.344  1.00  0.00    -0.550 OA
ENDROOT
TORSDOF 0
ENDMDL
MODEL 7
REMARK VINA RESULT:    -1.926     12.530     12.733
REMARK INTER + INTRA:          -1.926
REMARK INTER:                  -1.926
REMARK INTRA:                   0.000
REMARK UNBOUND:                 0.000
REMARK SMILES CC(=O)[O-]
REMARK SMILES IDX 1 1 2 2 3 3 4 4
REMARK H PARENT
REMARK Flexibility Score: inf
ROOT
ATOM      1  C   UNL     1      27.384  10.632   5.654  1.00  0.00     0.063 C 
ATOM      2  C   UNL     1      28.006  11.965   5.900  1.00  0.00     0.038 C 
ATOM      3  O   UNL     1      27.396  12.829   6.583  1.00  0.00    -0.550 OA
ATOM      4  O   UNL     1      29.234  12.275   5.333  1.00  0.00    -0.550 OA
ENDROOT
TORSDOF 0
ENDMDL
MODEL 8
REMARK VINA RESULT:    -1.845      8.151      8.484
REMARK INTER + INTRA:          -1.845
REMARK INTER:                  -1.845
REMARK INTRA:                   0.000
REMARK UNBOUND:                 0.000
REMARK SMILES CC(=O)[O-]
REMARK SMILES IDX 1 1 2 2 3 3 4 4
REMARK H PARENT
REMARK Flexibility Score: inf
ROOT
ATOM      1  C   UNL     1      20.518   7.802  17.532  1.00  0.00     0.063 C 
ATOM      2  C   UNL     1      21.924   7.483  17.149  1.00  0.00     0.038 C 
ATOM      3  O   UNL     1      22.526   8.196  16.304  1.00  0.00    -0.550 OA
ATOM      4  O   UNL     1      22.554   6.368  17.684  1.00  0.00    -0.550 OA
ENDROOT
TORSDOF 0
ENDMDL
MODEL 9
REMARK VINA RESULT:    -1.777      2.863      3.555
REMARK INTER + INTRA:          -1.777
REMARK INTER:                  -1.777
REMARK INTRA:                   0.000
REMARK UNBOUND:                 0.000
REMARK SMILES CC(=O)[O-]
REMARK SMILES IDX 1 1 2 2 3 3 4 4
REMARK H PARENT
REMARK Flexibility Score: inf
ROOT
ATOM      1  C   UNL     1      29.744   5.995  16.852  1.00  0.00     0.063 C 
ATOM      2  C   UNL     1      30.671   7.143  16.635  1.00  0.00     0.038 C 
ATOM      3  O   UNL     1      31.682   7.007  15.897  1.00  0.00    -0.550 OA
ATOM      4  O   UNL     1      30.450   8.348  17.287  1.00  0.00    -0.550 OA
ENDROOT
TORSDOF 0
ENDMDL
