MODEL 1
REMARK VINA RESULT:    -4.406      0.000      0.000
REMARK INTER + INTRA:          -5.881
REMARK INTER:                  -5.694
REMARK INTRA:                  -0.188
REMARK UNBOUND:                -0.188
REMARK SMILES CCO[C@H]1O[C@H](CO)[C@H](O)[C@@H](O)[C@H]1O
REMARK SMILES IDX 4 1 13 2 11 3 9 4 6 5 5 6 3 7 2 8 1 9 14 10 12 12 7 14 8 15
REMARK SMILES IDX 10 17
REMARK H PARENT 14 11 12 13 8 16 10 18
REMARK Flexibility Score: inf
ROOT
ATOM      1  C   UNL     1     -15.010  -6.531  17.895  1.00  0.00     0.281 C 
ATOM      2  C   UNL     1     -14.231  -5.745  16.814  1.00  0.00     0.202 C 
ATOM      3  C   UNL     1     -14.877  -4.376  16.549  1.00  0.00     0.179 C 
ATOM      4  C   UNL     1     -16.391  -4.542  16.310  1.00  0.00     0.177 C 
ATOM      5  C   UNL     1     -17.007  -5.369  17.462  1.00  0.00     0.178 C 
ATOM      6  O   UNL     1     -16.385  -6.642  17.550  1.00  0.00    -0.341 OA
ENDROOT
BRANCH   1   7
ATOM      7  O   UNL     1     -14.837  -5.924  19.166  1.00  0.00    -0.350 OA
BRANCH   7   8
ATOM      8  C   UNL     1     -15.082  -6.861  20.193  1.00  0.00     0.160 C 
ATOM      9  C   UNL     1     -15.478  -6.118  21.458  1.00  0.00     0.035 C 
ENDBRANCH   7   8
ENDBRANCH   1   7
BRANCH   2  10
ATOM     10  O   UNL     1     -12.892  -5.571  17.201  1.00  0.00    -0.385 OA
ATOM     11  H   UNL     1     -12.450  -5.056  16.477  1.00  0.00     0.211 HD
ENDBRANCH   2  10
BRANCH   3  12
ATOM     12  O   UNL     1     -14.649  -3.519  17.641  1.00  0.00    -0.387 OA
ATOM     13  H   UNL     1     -14.556  -2.602  17.273  1.00  0.00     0.211 HD
ENDBRANCH   3  12
BRANCH   5  14
ATOM     14  C   UNL     1     -18.517  -5.577  17.263  1.00  0.00     0.191 C 
BRANCH  14  15
ATOM     15  O   UNL     1     -18.891  -6.892  17.578  1.00  0.00    -0.394 OA
ATOM     16  H   UNL     1     -19.008  -7.369  16.716  1.00  0.00     0.210 HD
ENDBRANCH  14  15
ENDBRANCH   5  14
BRANCH   4  17
ATOM     17  O   UNL     1     -16.612  -5.192  15.084  1.00  0.00    -0.387 OA
ATOM     18  H   UNL     1     -16.767  -4.482  14.407  1.00  0.00     0.211 HD
ENDBRANCH   4  17
TORSDOF 7
ENDMDL
MODEL 2
REMARK VINA RESULT:    -4.351      1.412      3.457
REMARK INTER + INTRA:          -5.810
REMARK INTER:                  -5.402
REMARK INTRA:                  -0.408
REMARK UNBOUND:                -0.188
REMARK SMILES CCO[C@H]1O[C@H](CO)[C@H](O)[C@@H](O)[C@H]1O
REMARK SMILES IDX 4 1 13 2 11 3 9 4 6 5 5 6 3 7 2 8 1 9 14 10 12 12 7 14 8 15
REMARK SMILES IDX 10 17
REMARK H PARENT 14 11 12 13 8 16 10 18
REMARK Flexibility Score: inf
ROOT
ATOM      1  C   UNL     1     -15.824  -5.401  19.637  1.00  0.00     0.281 C 
ATOM      2  C   UNL     1     -17.081  -4.756  19.009  1.00  0.00     0.202 C 
ATOM      3  C   UNL     1     -17.457  -5.443  17.686  1.00  0.00     0.179 C 
ATOM      4  C   UNL     1     -16.218  -5.546  16.774  1.00  0.00     0.177 C 
ATOM      5  C   UNL     1     -15.050  -6.185  17.561  1.00  0.00     0.178 C 
ATOM      6  O   UNL     1     -14.743  -5.414  18.712  1.00  0.00    -0.341 OA
ENDROOT
BRANCH   1   7
ATOM      7  O   UNL     1     -16.123  -6.705  20.110  1.00  0.00    -0.350 OA
BRANCH   7   8
ATOM      8  C   UNL     1     -15.338  -7.006  21.245  1.00  0.00     0.160 C 
ATOM      9  C   UNL     1     -15.914  -6.284  22.452  1.00  0.00     0.035 C 
ENDBRANCH   7   8
ENDBRANCH   1   7
BRANCH   2  10
ATOM     10  O   UNL     1     -18.165  -4.821  19.901  1.00  0.00    -0.385 OA
ATOM     11  H   UNL     1     -17.781  -4.887  20.814  1.00  0.00     0.211 HD
ENDBRANCH   2  10
BRANCH   3  12
ATOM     12  O   UNL     1     -17.979  -6.724  17.942  1.00  0.00    -0.387 OA
ATOM     13  H   UNL     1     -17.282  -7.224  18.441  1.00  0.00     0.211 HD
ENDBRANCH   3  12
BRANCH   5  14
ATOM     14  C   UNL     1     -13.782  -6.297  16.698  1.00  0.00     0.191 C 
BRANCH  14  15
ATOM     15  O   UNL     1     -12.875  -5.270  16.999  1.00  0.00    -0.394 OA
ATOM     16  H   UNL     1     -13.412  -4.447  17.136  1.00  0.00     0.210 HD
ENDBRANCH  14  15
ENDBRANCH   5  14
BRANCH   4  17
ATOM     17  O   UNL     1     -15.848  -4.267  16.324  1.00  0.00    -0.387 OA
ATOM     18  H   UNL     1     -15.536  -4.372  15.387  1.00  0.00     0.211 HD
ENDBRANCH   4  17
TORSDOF 7
ENDMDL
MODEL 3
REMARK VINA RESULT:    -4.327      1.878      4.214
REMARK INTER + INTRA:          -5.779
REMARK INTER:                  -5.380
REMARK INTRA:                  -0.399
REMARK UNBOUND:                -0.188
REMARK SMILES CCO[C@H]1O[C@H](CO)[C@H](O)[C@@H](O)[C@H]1O
REMARK SMILES IDX 4 1 13 2 11 3 9 4 6 5 5 6 3 7 2 8 1 9 14 10 12 12 7 14 8 15
REMARK SMILES IDX 10 17
REMARK H PARENT 14 11 12 13 8 16 10 18
REMARK Flexibility Score: inf
ROOT
ATOM      1  C   UNL     1     -15.657  -6.599  17.820  1.00  0.00     0.281 C 
ATOM      2  C   UNL     1     -17.159  -6.234  17.813  1.00  0.00     0.202 C 
ATOM      3  C   UNL     1     -17.492  -5.227  18.925  1.00  0.00     0.179 C 
ATOM      4  C   UNL     1     -16.918  -5.715  20.270  1.00  0.00     0.177 C 
ATOM      5  C   UNL     1     -15.420  -6.061  20.096  1.00  0.00     0.178 C 
ATOM      6  O   UNL     1     -15.252  -7.061  19.102  1.00  0.00    -0.341 OA
ENDROOT
BRANCH   1   7
ATOM      7  O   UNL     1     -14.879  -5.491  17.393  1.00  0.00    -0.350 OA
BRANCH   7   8
ATOM      8  C   UNL     1     -14.018  -5.873  16.341  1.00  0.00     0.160 C 
ATOM      9  C   UNL     1     -14.432  -5.145  15.073  1.00  0.00     0.035 C 
ENDBRANCH   7   8
ENDBRANCH   1   7
BRANCH   2  10
ATOM     10  O   UNL     1     -17.531  -5.703  16.566  1.00  0.00    -0.385 OA
ATOM     11  H   UNL     1     -17.789  -4.757  16.723  1.00  0.00     0.211 HD
ENDBRANCH   2  10
BRANCH   3  12
ATOM     12  O   UNL     1     -16.964  -3.963  18.601  1.00  0.00    -0.387 OA
ATOM     13  H   UNL     1     -16.463  -3.649  19.398  1.00  0.00     0.211 HD
ENDBRANCH   3  12
BRANCH   5  14
ATOM     14  C   UNL     1     -14.802  -6.569  21.408  1.00  0.00     0.191 C 
BRANCH  14  15
ATOM     15  O   UNL     1     -15.636  -6.287  22.500  1.00  0.00    -0.394 OA
ATOM     16  H   UNL     1     -15.091  -5.769  23.149  1.00  0.00     0.210 HD
ENDBRANCH  14  15
ENDBRANCH   5  14
BRANCH   4  17
ATOM     17  O   UNL     1     -17.622  -6.850  20.707  1.00  0.00    -0.387 OA
ATOM     18  H   UNL     1     -17.406  -7.583  20.073  1.00  0.00     0.211 HD
ENDBRANCH   4  17
TORSDOF 7
ENDMDL
MODEL 4
REMARK VINA RESULT:    -4.176     18.030     19.861
REMARK INTER + INTRA:          -5.584
REMARK INTER:                  -5.257
REMARK INTRA:                  -0.327
REMARK UNBOUND:                -0.188
REMARK SMILES CCO[C@H]1O[C@H](CO)[C@H](O)[C@@H](O)[C@H]1O
REMARK SMILES IDX 4 1 13 2 11 3 9 4 6 5 5 6 3 7 2 8 1 9 14 10 12 12 7 14 8 15
REMARK SMILES IDX 10 17
REMARK H PARENT 14 11 12 13 8 16 10 18
REMARK Flexibility Score: inf
ROOT
ATOM      1  C   UNL     1     -14.113   8.107  31.444  1.00  0.00     0.281 C 
ATOM      2  C   UNL     1     -14.304   9.220  32.501  1.00  0.00     0.202 C 
ATOM      3  C   UNL     1     -15.533  10.086  32.180  1.00  0.00     0.179 C 
ATOM      4  C   UNL     1     -15.486  10.546  30.709  1.00  0.00     0.177 C 
ATOM      5  C   UNL     1     -15.264   9.321  29.792  1.00  0.00     0.178 C 
ATOM      6  O   UNL     1     -14.058   8.655  30.133  1.00  0.00    -0.341 OA
ENDROOT
BRANCH   1   7
ATOM      7  O   UNL     1     -15.141   7.135  31.561  1.00  0.00    -0.350 OA
BRANCH   7   8
ATOM      8  C   UNL     1     -14.802   5.975  30.831  1.00  0.00     0.160 C 
ATOM      9  C   UNL     1     -16.001   5.042  30.798  1.00  0.00     0.035 C 
ENDBRANCH   7   8
ENDBRANCH   1   7
BRANCH   2  10
ATOM     10  O   UNL     1     -14.439   8.663  33.783  1.00  0.00    -0.385 OA
ATOM     11  H   UNL     1     -14.286   7.686  33.688  1.00  0.00     0.211 HD
ENDBRANCH   2  10
BRANCH   3  12
ATOM     12  O   UNL     1     -16.711   9.356  32.424  1.00  0.00    -0.387 OA
ATOM     13  H   UNL     1     -16.489   8.399  32.284  1.00  0.00     0.211 HD
ENDBRANCH   3  12
BRANCH   5  14
ATOM     14  C   UNL     1     -15.195   9.728  28.312  1.00  0.00     0.191 C 
BRANCH  14  15
ATOM     15  O   UNL     1     -13.909  10.173  27.971  1.00  0.00    -0.394 OA
ATOM     16  H   UNL     1     -13.337   9.365  27.904  1.00  0.00     0.210 HD
ENDBRANCH  14  15
ENDBRANCH   5  14
BRANCH   4  17
ATOM     17  O   UNL     1     -14.444  11.471  30.531  1.00  0.00    -0.387 OA
ATOM     18  H   UNL     1     -13.816  11.072  29.873  1.00  0.00     0.211 HD
ENDBRANCH   4  17
TORSDOF 7
ENDMDL
MODEL 5
REMARK VINA RESULT:    -4.070     17.697     19.564
REMARK INTER + INTRA:          -5.447
REMARK INTER:                  -4.986
REMARK INTRA:                  -0.461
REMARK UNBOUND:                -0.188
REMARK SMILES CCO[C@H]1O[C@H](CO)[C@H](O)[C@@H](O)[C@H]1O
REMARK SMILES IDX 4 1 13 2 11 3 9 4 6 5 5 6 3 7 2 8 1 9 14 10 12 12 7 14 8 15
REMARK SMILES IDX 10 17
REMARK H PARENT 14 11 12 13 8 16 10 18
REMARK Flexibility Score: inf
ROOT
ATOM      1  C   UNL     1     -14.240   8.209  29.854  1.00  0.00     0.281 C 
ATOM      2  C   UNL     1     -14.399   8.048  31.383  1.00  0.00     0.202 C 
ATOM      3  C   UNL     1     -15.676   8.740  31.885  1.00  0.00     0.179 C 
ATOM      4  C   UNL     1     -15.744  10.182  31.343  1.00  0.00     0.177 C 
ATOM      5  C   UNL     1     -15.541  10.166  29.810  1.00  0.00     0.178 C 
ATOM      6  O   UNL     1     -14.292   9.580  29.478  1.00  0.00    -0.341 OA
ENDROOT
BRANCH   1   7
ATOM      7  O   UNL     1     -15.223   7.443  29.173  1.00  0.00    -0.350 OA
BRANCH   7   8
ATOM      8  C   UNL     1     -14.757   7.078  27.891  1.00  0.00     0.160 C 
ATOM      9  C   UNL     1     -13.649   6.049  28.039  1.00  0.00     0.035 C 
ENDBRANCH   7   8
ENDBRANCH   1   7
BRANCH   2  10
ATOM     10  O   UNL     1     -14.428   6.688  31.735  1.00  0.00    -0.385 OA
ATOM     11  H   UNL     1     -15.322   6.344  31.474  1.00  0.00     0.211 HD
ENDBRANCH   2  10
BRANCH   3  12
ATOM     12  O   UNL     1     -16.809   8.013  31.476  1.00  0.00    -0.387 OA
ATOM     13  H   UNL     1     -17.254   8.549  30.769  1.00  0.00     0.211 HD
ENDBRANCH   3  12
BRANCH   5  14
ATOM     14  C   UNL     1     -15.585  11.585  29.219  1.00  0.00     0.191 C 
BRANCH  14  15
ATOM     15  O   UNL     1     -14.329  12.203  29.299  1.00  0.00    -0.394 OA
ATOM     16  H   UNL     1     -13.945  12.187  28.384  1.00  0.00     0.210 HD
ENDBRANCH  14  15
ENDBRANCH   5  14
BRANCH   4  17
ATOM     17  O   UNL     1     -14.749  10.968  31.948  1.00  0.00    -0.387 OA
ATOM     18  H   UNL     1     -15.216  11.621  32.533  1.00  0.00     0.211 HD
ENDBRANCH   4  17
TORSDOF 7
ENDMDL
MODEL 6
REMARK VINA RESULT:    -4.064      1.783      2.546
REMARK INTER + INTRA:          -5.440
REMARK INTER:                  -5.023
REMARK INTRA:                  -0.417
REMARK UNBOUND:                -0.188
REMARK SMILES CCO[C@H]1O[C@H](CO)[C@H](O)[C@@H](O)[C@H]1O
REMARK SMILES IDX 4 1 13 2 11 3 9 4 6 5 5 6 3 7 2 8 1 9 14 10 12 12 7 14 8 15
REMARK SMILES IDX 10 17
REMARK H PARENT 14 11 12 13 8 16 10 18
REMARK Flexibility Score: inf
ROOT
ATOM      1  C   UNL     1     -16.772  -6.377  20.321  1.00  0.00     0.281 C 
ATOM      2  C   UNL     1     -15.355  -6.449  19.706  1.00  0.00     0.202 C 
ATOM      3  C   UNL     1     -15.179  -5.404  18.593  1.00  0.00     0.179 C 
ATOM      4  C   UNL     1     -16.355  -5.485  17.600  1.00  0.00     0.177 C 
ATOM      5  C   UNL     1     -17.691  -5.427  18.377  1.00  0.00     0.178 C 
ATOM      6  O   UNL     1     -17.770  -6.491  19.313  1.00  0.00    -0.341 OA
ENDROOT
BRANCH   1   7
ATOM      7  O   UNL     1     -16.923  -5.184  21.074  1.00  0.00    -0.350 OA
BRANCH   7   8
ATOM      8  C   UNL     1     -17.352  -5.483  22.385  1.00  0.00     0.160 C 
ATOM      9  C   UNL     1     -18.831  -5.156  22.510  1.00  0.00     0.035 C 
ENDBRANCH   7   8
ENDBRANCH   1   7
BRANCH   2  10
ATOM     10  O   UNL     1     -14.379  -6.255  20.697  1.00  0.00    -0.385 OA
ATOM     11  H   UNL     1     -13.945  -5.383  20.505  1.00  0.00     0.211 HD
ENDBRANCH   2  10
BRANCH   3  12
ATOM     12  O   UNL     1     -15.104  -4.116  19.153  1.00  0.00    -0.387 OA
ATOM     13  H   UNL     1     -15.114  -4.230  20.138  1.00  0.00     0.211 HD
ENDBRANCH   3  12
BRANCH   5  14
ATOM     14  C   UNL     1     -18.899  -5.520  17.431  1.00  0.00     0.191 C 
BRANCH  14  15
ATOM     15  O   UNL     1     -19.313  -6.851  17.271  1.00  0.00    -0.394 OA
ATOM     16  H   UNL     1     -19.873  -7.072  18.060  1.00  0.00     0.210 HD
ENDBRANCH  14  15
ENDBRANCH   5  14
BRANCH   4  17
ATOM     17  O   UNL     1     -16.280  -6.682  16.867  1.00  0.00    -0.387 OA
ATOM     18  H   UNL     1     -17.015  -6.656  16.200  1.00  0.00     0.211 HD
ENDBRANCH   4  17
TORSDOF 7
ENDMDL
MODEL 7
REMARK VINA RESULT:    -4.063      2.161      3.907
REMARK INTER + INTRA:          -5.439
REMARK INTER:                  -5.029
REMARK INTRA:                  -0.410
REMARK UNBOUND:                -0.188
REMARK SMILES CCO[C@H]1O[C@H](CO)[C@H](O)[C@@H](O)[C@H]1O
REMARK SMILES IDX 4 1 13 2 11 3 9 4 6 5 5 6 3 7 2 8 1 9 14 10 12 12 7 14 8 15
REMARK SMILES IDX 10 17
REMARK H PARENT 14 11 12 13 8 16 10 18
REMARK Flexibility Score: inf
ROOT
ATOM      1  C   UNL     1     -16.868  -4.805  19.845  1.00  0.00     0.281 C 
ATOM      2  C   UNL     1     -16.709  -6.336  19.986  1.00  0.00     0.202 C 
ATOM      3  C   UNL     1     -15.282  -6.782  19.626  1.00  0.00     0.179 C 
ATOM      4  C   UNL     1     -14.865  -6.177  18.271  1.00  0.00     0.177 C 
ATOM      5  C   UNL     1     -15.112  -4.651  18.289  1.00  0.00     0.178 C 
ATOM      6  O   UNL     1     -16.480  -4.370  18.548  1.00  0.00    -0.341 OA
ENDROOT
BRANCH   1   7
ATOM      7  O   UNL     1     -16.135  -4.138  20.861  1.00  0.00    -0.350 OA
BRANCH   7   8
ATOM      8  C   UNL     1     -16.878  -3.048  21.365  1.00  0.00     0.160 C 
ATOM      9  C   UNL     1     -16.983  -3.175  22.876  1.00  0.00     0.035 C 
ENDBRANCH   7   8
ENDBRANCH   1   7
BRANCH   2  10
ATOM     10  O   UNL     1     -17.018  -6.745  21.294  1.00  0.00    -0.385 OA
ATOM     11  H   UNL     1     -17.997  -6.626  21.407  1.00  0.00     0.211 HD
ENDBRANCH   2  10
BRANCH   3  12
ATOM     12  O   UNL     1     -14.386  -6.381  20.634  1.00  0.00    -0.387 OA
ATOM     13  H   UNL     1     -14.058  -7.208  21.072  1.00  0.00     0.211 HD
ENDBRANCH   3  12
BRANCH   5  14
ATOM     14  C   UNL     1     -14.725  -3.999  16.952  1.00  0.00     0.191 C 
BRANCH  14  15
ATOM     15  O   UNL     1     -13.610  -4.635  16.386  1.00  0.00    -0.394 OA
ATOM     16  H   UNL     1     -13.956  -5.400  15.858  1.00  0.00     0.210 HD
ENDBRANCH  14  15
ENDBRANCH   5  14
BRANCH   4  17
ATOM     17  O   UNL     1     -15.607  -6.769  17.235  1.00  0.00    -0.387 OA
ATOM     18  H   UNL     1     -14.970  -7.309  16.698  1.00  0.00     0.211 HD
ENDBRANCH   4  17
TORSDOF 7
ENDMDL
MODEL 8
REMARK VINA RESULT:    -3.989      2.008      3.695
REMARK INTER + INTRA:          -5.342
REMARK INTER:                  -4.868
REMARK INTRA:                  -0.474
REMARK UNBOUND:                -0.188
REMARK SMILES CCO[C@H]1O[C@H](CO)[C@H](O)[C@@H](O)[C@H]1O
REMARK SMILES IDX 4 1 13 2 11 3 9 4 6 5 5 6 3 7 2 8 1 9 14 10 12 12 7 14 8 15
REMARK SMILES IDX 10 17
REMARK H PARENT 14 11 12 13 8 16 10 18
REMARK Flexibility Score: inf
ROOT
ATOM      1  C   UNL     1     -15.152  -3.766  17.792  1.00  0.00     0.281 C 
ATOM      2  C   UNL     1     -14.770  -4.933  16.853  1.00  0.00     0.202 C 
ATOM      3  C   UNL     1     -15.842  -6.035  16.873  1.00  0.00     0.179 C 
ATOM      4  C   UNL     1     -16.183  -6.416  18.327  1.00  0.00     0.177 C 
ATOM      5  C   UNL     1     -16.512  -5.137  19.132  1.00  0.00     0.178 C 
ATOM      6  O   UNL     1     -15.415  -4.237  19.108  1.00  0.00    -0.341 OA
ENDROOT
BRANCH   1   7
ATOM      7  O   UNL     1     -16.256  -3.048  17.263  1.00  0.00    -0.350 OA
BRANCH   7   8
ATOM      8  C   UNL     1     -16.171  -1.685  17.621  1.00  0.00     0.160 C 
ATOM      9  C   UNL     1     -14.889  -1.101  17.050  1.00  0.00     0.035 C 
ENDBRANCH   7   8
ENDBRANCH   1   7
BRANCH   2  10
ATOM     10  O   UNL     1     -14.591  -4.470  15.540  1.00  0.00    -0.385 OA
ATOM     11  H   UNL     1     -13.642  -4.188  15.463  1.00  0.00     0.211 HD
ENDBRANCH   2  10
BRANCH   3  12
ATOM     12  O   UNL     1     -16.997  -5.592  16.204  1.00  0.00    -0.387 OA
ATOM     13  H   UNL     1     -17.384  -4.860  16.752  1.00  0.00     0.211 HD
ENDBRANCH   3  12
BRANCH   5  14
ATOM     14  C   UNL     1     -16.845  -5.462  20.597  1.00  0.00     0.191 C 
BRANCH  14  15
ATOM     15  O   UNL     1     -17.361  -6.760  20.721  1.00  0.00    -0.394 OA
ATOM     16  H   UNL     1     -17.741  -6.829  21.635  1.00  0.00     0.210 HD
ENDBRANCH  14  15
ENDBRANCH   5  14
BRANCH   4  17
ATOM     17  O   UNL     1     -15.093  -7.082  18.914  1.00  0.00    -0.387 OA
ATOM     18  H   UNL     1     -14.343  -6.432  18.946  1.00  0.00     0.211 HD
ENDBRANCH   4  17
TORSDOF 7
ENDMDL
MODEL 9
REMARK VINA RESULT:    -3.964     17.286     19.202
REMARK INTER + INTRA:          -5.310
REMARK INTER:                  -4.841
REMARK INTRA:                  -0.469
REMARK UNBOUND:                -0.188
REMARK SMILES CCO[C@H]1O[C@H](CO)[C@H](O)[C@@H](O)[C@H]1O
REMARK SMILES IDX 4 1 13 2 11 3 9 4 6 5 5 6 3 7 2 8 1 9 14 10 12 12 7 14 8 15
REMARK SMILES IDX 10 17
REMARK H PARENT 14 11 12 13 8 16 10 18
REMARK Flexibility Score: inf
ROOT
ATOM      1  C   UNL     1     -14.228   9.022  28.958  1.00  0.00     0.281 C 
ATOM      2  C   UNL     1     -13.672   7.605  29.234  1.00  0.00     0.202 C 
ATOM      3  C   UNL     1     -14.554   6.849  30.241  1.00  0.00     0.179 C 
ATOM      4  C   UNL     1     -14.817   7.728  31.479  1.00  0.00     0.177 C 
ATOM      5  C   UNL     1     -15.340   9.112  31.027  1.00  0.00     0.178 C 
ATOM      6  O   UNL     1     -14.402   9.745  30.171  1.00  0.00    -0.341 OA
ENDROOT
BRANCH   1   7
ATOM      7  O   UNL     1     -15.437   8.941  28.219  1.00  0.00    -0.350 OA
BRANCH   7   8
ATOM      8  C   UNL     1     -15.510   9.997  27.285  1.00  0.00     0.160 C 
ATOM      9  C   UNL     1     -14.419   9.814  26.242  1.00  0.00     0.035 C 
ENDBRANCH   7   8
ENDBRANCH   1   7
BRANCH   2  10
ATOM     10  O   UNL     1     -13.580   6.872  28.040  1.00  0.00    -0.385 OA
ATOM     11  H   UNL     1     -14.305   7.199  27.446  1.00  0.00     0.211 HD
ENDBRANCH   2  10
BRANCH   3  12
ATOM     12  O   UNL     1     -15.770   6.486  29.635  1.00  0.00    -0.387 OA
ATOM     13  H   UNL     1     -15.553   5.822  28.930  1.00  0.00     0.211 HD
ENDBRANCH   3  12
BRANCH   5  14
ATOM     14  C   UNL     1     -15.605  10.035  32.227  1.00  0.00     0.191 C 
BRANCH  14  15
ATOM     15  O   UNL     1     -14.466  10.789  32.544  1.00  0.00    -0.394 OA
ATOM     16  H   UNL     1     -14.775  11.718  32.705  1.00  0.00     0.210 HD
ENDBRANCH  14  15
ENDBRANCH   5  14
BRANCH   4  17
ATOM     17  O   UNL     1     -13.631   7.884  32.216  1.00  0.00    -0.387 OA
ATOM     18  H   UNL     1     -12.884   7.634  31.612  1.00  0.00     0.211 HD
ENDBRANCH   4  17
TORSDOF 7
ENDMDL
