MODEL 1
REMARK VINA RESULT:    -3.760      0.000      0.000
REMARK INTER + INTRA:          -4.750
REMARK INTER:                  -4.639
REMARK INTRA:                  -0.111
REMARK UNBOUND:                -0.111
REMARK SMILES CCCCCC(=O)[O-]
REMARK SMILES IDX 4 1 5 2 6 3 7 4 8 5 3 6 2 7 1 8
REMARK H PARENT
REMARK Flexibility Score: inf
ROOT
ATOM      1  C   UNL     1      12.230   4.144  38.786  1.00  0.00     0.006 C 
ENDROOT
BRANCH   1   2
ATOM      2  C   UNL     1      11.410   5.290  38.186  1.00  0.00     0.053 C 
BRANCH   2   3
ATOM      3  C   UNL     1      11.443   6.486  39.083  1.00  0.00     0.041 C 
ATOM      4  O   UNL     1      10.399   6.863  39.675  1.00  0.00    -0.550 OA
ATOM      5  O   UNL     1      12.618   7.214  39.229  1.00  0.00    -0.550 OA
ENDBRANCH   2   3
ENDBRANCH   1   2
BRANCH   1   6
ATOM      6  C   UNL     1      12.097   2.870  37.939  1.00  0.00     0.000 C 
BRANCH   6   7
ATOM      7  C   UNL     1      11.407   3.126  36.590  1.00  0.00    -0.003 C 
ATOM      8  C   UNL     1      12.173   2.530  35.410  1.00  0.00     0.004 C 
ENDBRANCH   6   7
ENDBRANCH   1   6
TORSDOF 4
ENDMDL
MODEL 2
REMARK VINA RESULT:    -3.758     17.150     18.207
REMARK INTER + INTRA:          -4.748
REMARK INTER:                  -4.683
REMARK INTRA:                  -0.065
REMARK UNBOUND:                -0.111
REMARK SMILES CCCCCC(=O)[O-]
REMARK SMILES IDX 4 1 5 2 6 3 7 4 8 5 3 6 2 7 1 8
REMARK H PARENT
REMARK Flexibility Score: inf
ROOT
ATOM      1  C   UNL     1      24.318  -7.210  39.961  1.00  0.00     0.006 C 
ENDROOT
BRANCH   1   2
ATOM      2  C   UNL     1      25.614  -8.026  39.969  1.00  0.00     0.053 C 
BRANCH   2   3
ATOM      3  C   UNL     1      26.776  -7.168  39.583  1.00  0.00     0.041 C 
ATOM      4  O   UNL     1      27.848  -7.694  39.184  1.00  0.00    -0.550 OA
ATOM      5  O   UNL     1      26.694  -5.787  39.711  1.00  0.00    -0.550 OA
ENDBRANCH   2   3
ENDBRANCH   1   2
BRANCH   1   6
ATOM      6  C   UNL     1      23.204  -7.954  39.209  1.00  0.00     0.000 C 
BRANCH   6   7
ATOM      7  C   UNL     1      21.811  -7.366  39.484  1.00  0.00    -0.003 C 
ATOM      8  C   UNL     1      20.988  -8.221  40.447  1.00  0.00     0.004 C 
ENDBRANCH   6   7
ENDBRANCH   1   6
TORSDOF 4
ENDMDL
MODEL 3
REMARK VINA RESULT:    -3.712     17.116     18.074
REMARK INTER + INTRA:          -4.691
REMARK INTER:                  -4.476
REMARK INTRA:                  -0.215
REMARK UNBOUND:                -0.111
REMARK SMILES CCCCCC(=O)[O-]
REMARK SMILES IDX 4 1 5 2 6 3 7 4 8 5 3 6 2 7 1 8
REMARK H PARENT
REMARK Flexibility Score: inf
ROOT
ATOM      1  C   UNL     1      25.147  -5.601  40.287  1.00  0.00     0.006 C 
ENDROOT
BRANCH   1   2
ATOM      2  C   UNL     1      24.294  -6.834  39.977  1.00  0.00     0.053 C 
BRANCH   2   3
ATOM      3  C   UNL     1      23.845  -6.816  38.551  1.00  0.00     0.041 C 
ATOM      4  O   UNL     1      24.315  -5.967  37.749  1.00  0.00    -0.550 OA
ATOM      5  O   UNL     1      22.869  -7.706  38.118  1.00  0.00    -0.550 OA
ENDBRANCH   2   3
ENDBRANCH   1   2
BRANCH   1   6
ATOM      6  C   UNL     1      26.559  -6.007  40.734  1.00  0.00     0.000 C 
BRANCH   6   7
ATOM      7  C   UNL     1      27.556  -6.065  39.566  1.00  0.00    -0.003 C 
ATOM      8  C   UNL     1      27.883  -7.495  39.137  1.00  0.00     0.004 C 
ENDBRANCH   6   7
ENDBRANCH   1   6
TORSDOF 4
ENDMDL
MODEL 4
REMARK VINA RESULT:    -3.671     10.264     11.287
REMARK INTER + INTRA:          -4.640
REMARK INTER:                  -4.538
REMARK INTRA:                  -0.102
REMARK UNBOUND:                -0.111
REMARK SMILES CCCCCC(=O)[O-]
REMARK SMILES IDX 4 1 5 2 6 3 7 4 8 5 3 6 2 7 1 8
REMARK H PARENT
REMARK Flexibility Score: inf
ROOT
ATOM      1  C   UNL     1      18.640  -0.673  44.178  1.00  0.00     0.006 C 
ENDROOT
BRANCH   1   2
ATOM      2  C   UNL     1      20.160  -0.864  44.160  1.00  0.00     0.053 C 
BRANCH   2   3
ATOM      3  C   UNL     1      20.846   0.416  43.804  1.00  0.00     0.041 C 
ATOM      4  O   UNL     1      20.463   1.085  42.809  1.00  0.00    -0.550 OA
ATOM      5  O   UNL     1      21.942   0.846  44.542  1.00  0.00    -0.550 OA
ENDBRANCH   2   3
ENDBRANCH   1   2
BRANCH   1   6
ATOM      6  C   UNL     1      18.124  -0.509  45.615  1.00  0.00     0.000 C 
BRANCH   6   7
ATOM      7  C   UNL     1      16.616  -0.219  45.671  1.00  0.00    -0.003 C 
ATOM      8  C   UNL     1      15.971  -0.169  44.287  1.00  0.00     0.004 C 
ENDBRANCH   6   7
ENDBRANCH   1   6
TORSDOF 4
ENDMDL
MODEL 5
REMARK VINA RESULT:    -3.666     17.127     18.089
REMARK INTER + INTRA:          -4.634
REMARK INTER:                  -4.409
REMARK INTRA:                  -0.224
REMARK UNBOUND:                -0.111
REMARK SMILES CCCCCC(=O)[O-]
REMARK SMILES IDX 4 1 5 2 6 3 7 4 8 5 3 6 2 7 1 8
REMARK H PARENT
REMARK Flexibility Score: inf
ROOT
ATOM      1  C   UNL     1      24.890  -5.752  40.302  1.00  0.00     0.006 C 
ENDROOT
BRANCH   1   2
ATOM      2  C   UNL     1      26.297  -5.805  39.699  1.00  0.00     0.053 C 
BRANCH   2   3
ATOM      3  C   UNL     1      26.759  -7.221  39.570  1.00  0.00     0.041 C 
ATOM      4  O   UNL     1      26.003  -8.168  39.907  1.00  0.00    -0.550 OA
ATOM      5  O   UNL     1      28.046  -7.494  39.123  1.00  0.00    -0.550 OA
ENDBRANCH   2   3
ENDBRANCH   1   2
BRANCH   1   6
ATOM      6  C   UNL     1      23.867  -5.256  39.269  1.00  0.00     0.000 C 
BRANCH   6   7
ATOM      7  C   UNL     1      23.080  -6.405  38.619  1.00  0.00    -0.003 C 
ATOM      8  C   UNL     1      22.605  -7.445  39.633  1.00  0.00     0.004 C 
ENDBRANCH   6   7
ENDBRANCH   1   6
TORSDOF 4
ENDMDL
MODEL 6
REMARK VINA RESULT:    -3.637      3.092      4.591
REMARK INTER + INTRA:          -4.598
REMARK INTER:                  -4.535
REMARK INTRA:                  -0.063
REMARK UNBOUND:                -0.111
REMARK SMILES CCCCCC(=O)[O-]
REMARK SMILES IDX 4 1 5 2 6 3 7 4 8 5 3 6 2 7 1 8
REMARK H PARENT
REMARK Flexibility Score: inf
ROOT
ATOM      1  C   UNL     1      11.506   4.613  38.081  1.00  0.00     0.006 C 
ENDROOT
BRANCH   1   2
ATOM      2  C   UNL     1      10.802   3.605  37.167  1.00  0.00     0.053 C 
BRANCH   2   3
ATOM      3  C   UNL     1      11.803   2.740  36.470  1.00  0.00     0.041 C 
ATOM      4  O   UNL     1      11.991   2.859  35.232  1.00  0.00    -0.550 OA
ATOM      5  O   UNL     1      12.494   1.766  37.181  1.00  0.00    -0.550 OA
ENDBRANCH   2   3
ENDBRANCH   1   2
BRANCH   1   6
ATOM      6  C   UNL     1      10.654   5.878  38.264  1.00  0.00     0.000 C 
BRANCH   6   7
ATOM      7  C   UNL     1      11.035   6.668  39.525  1.00  0.00    -0.003 C 
ATOM      8  C   UNL     1      12.533   6.959  39.612  1.00  0.00     0.004 C 
ENDBRANCH   6   7
ENDBRANCH   1   6
TORSDOF 4
ENDMDL
MODEL 7
REMARK VINA RESULT:    -3.619     17.497     18.475
REMARK INTER + INTRA:          -4.576
REMARK INTER:                  -4.419
REMARK INTRA:                  -0.157
REMARK UNBOUND:                -0.111
REMARK SMILES CCCCCC(=O)[O-]
REMARK SMILES IDX 4 1 5 2 6 3 7 4 8 5 3 6 2 7 1 8
REMARK H PARENT
REMARK Flexibility Score: inf
ROOT
ATOM      1  C   UNL     1      25.802  -7.433  40.022  1.00  0.00     0.006 C 
ENDROOT
BRANCH   1   2
ATOM      2  C   UNL     1      26.722  -6.294  40.473  1.00  0.00     0.053 C 
BRANCH   2   3
ATOM      3  C   UNL     1      27.788  -6.046  39.454  1.00  0.00     0.041 C 
ATOM      4  O   UNL     1      27.966  -4.889  38.992  1.00  0.00    -0.550 OA
ATOM      5  O   UNL     1      28.554  -7.103  38.977  1.00  0.00    -0.550 OA
ENDBRANCH   2   3
ENDBRANCH   1   2
BRANCH   1   6
ATOM      6  C   UNL     1      24.339  -6.968  39.965  1.00  0.00     0.000 C 
BRANCH   6   7
ATOM      7  C   UNL     1      24.208  -5.457  39.721  1.00  0.00    -0.003 C 
ATOM      8  C   UNL     1      24.091  -5.106  38.238  1.00  0.00     0.004 C 
ENDBRANCH   6   7
ENDBRANCH   1   6
TORSDOF 4
ENDMDL
MODEL 8
REMARK VINA RESULT:    -3.610     16.060     17.066
REMARK INTER + INTRA:          -4.565
REMARK INTER:                  -4.385
REMARK INTRA:                  -0.181
REMARK UNBOUND:                -0.111
REMARK SMILES CCCCCC(=O)[O-]
REMARK SMILES IDX 4 1 5 2 6 3 7 4 8 5 3 6 2 7 1 8
REMARK H PARENT
REMARK Flexibility Score: inf
ROOT
ATOM      1  C   UNL     1      23.400  -6.560  38.568  1.00  0.00     0.006 C 
ENDROOT
BRANCH   1   2
ATOM      2  C   UNL     1      22.024  -6.673  39.232  1.00  0.00     0.053 C 
BRANCH   2   3
ATOM      3  C   UNL     1      21.745  -8.089  39.624  1.00  0.00     0.041 C 
ATOM      4  O   UNL     1      22.236  -9.039  38.960  1.00  0.00    -0.550 OA
ATOM      5  O   UNL     1      20.903  -8.360  40.695  1.00  0.00    -0.550 OA
ENDBRANCH   2   3
ENDBRANCH   1   2
BRANCH   1   6
ATOM      6  C   UNL     1      24.242  -5.460  39.231  1.00  0.00     0.000 C 
BRANCH   6   7
ATOM      7  C   UNL     1      25.218  -6.014  40.280  1.00  0.00    -0.003 C 
ATOM      8  C   UNL     1      25.613  -7.466  40.011  1.00  0.00     0.004 C 
ENDBRANCH   6   7
ENDBRANCH   1   6
TORSDOF 4
ENDMDL
MODEL 9
REMARK VINA RESULT:    -3.590      7.918      8.919
REMARK INTER + INTRA:          -4.540
REMARK INTER:                  -4.363
REMARK INTRA:                  -0.177
REMARK UNBOUND:                -0.111
REMARK SMILES CCCCCC(=O)[O-]
REMARK SMILES IDX 4 1 5 2 6 3 7 4 8 5 3 6 2 7 1 8
REMARK H PARENT
REMARK Flexibility Score: inf
ROOT
ATOM      1  C   UNL     1      15.933  -0.284  43.926  1.00  0.00     0.006 C 
ENDROOT
BRANCH   1   2
ATOM      2  C   UNL     1      15.168   0.957  43.456  1.00  0.00     0.053 C 
BRANCH   2   3
ATOM      3  C   UNL     1      15.736   1.468  42.170  1.00  0.00     0.041 C 
ATOM      4  O   UNL     1      16.862   1.070  41.772  1.00  0.00    -0.550 OA
ATOM      5  O   UNL     1      15.043   2.422  41.435  1.00  0.00    -0.550 OA
ENDBRANCH   2   3
ENDBRANCH   1   2
BRANCH   1   6
ATOM      6  C   UNL     1      16.416  -0.116  45.375  1.00  0.00     0.000 C 
BRANCH   6   7
ATOM      7  C   UNL     1      17.886  -0.523  45.558  1.00  0.00    -0.003 C 
ATOM      8  C   UNL     1      18.551  -0.945  44.248  1.00  0.00     0.004 C 
ENDBRANCH   6   7
ENDBRANCH   1   6
TORSDOF 4
ENDMDL
