MODEL 1
REMARK VINA RESULT:    -4.495      0.000      0.000
REMARK INTER + INTRA:          -5.825
REMARK INTER:                  -6.334
REMARK INTRA:                   0.509
REMARK UNBOUND:                 0.509
REMARK SMILES CC1=CCC(=C(C)C)C(=O)CC(C)=CCC1
REMARK SMILES IDX 12 1 14 2 13 3 15 4 16 5 2 6 1 7 3 8 11 10 9 11 10 12 5 13
REMARK SMILES IDX 6 14 7 15 8 16 4 17
REMARK H PARENT
REMARK Flexibility Score: 60.00
ROOT
ATOM      1  C   UNL     1     -14.993  14.358 -30.580  1.00  0.00    -0.070 C 
ATOM      2  C   UNL     1     -16.235  14.452 -30.055  1.00  0.00    -0.027 C 
ATOM      3  C   UNL     1     -14.114  15.583 -30.535  1.00  0.00     0.039 C 
ENDROOT
BRANCH   2   4
ATOM      4  C   UNL     1     -17.293  13.371 -30.091  1.00  0.00     0.032 C 
BRANCH   4   5
ATOM      5  C   UNL     1     -17.386  12.512 -28.814  1.00  0.00     0.034 C 
BRANCH   5   6
ATOM      6  C   UNL     1     -16.553  11.243 -28.885  1.00  0.00    -0.077 C 
ATOM      7  C   UNL     1     -17.235   9.982 -29.352  1.00  0.00     0.039 C 
ATOM      8  C   UNL     1     -15.259  11.156 -28.492  1.00  0.00    -0.023 CG0
ATOM      9  G   UNL     1     -14.371  12.286 -28.009  1.00  0.00     0.000 G0
ENDBRANCH   5   6
ENDBRANCH   4   5
ENDBRANCH   2   4
BRANCH   1  10
ATOM     10  C   UNL     1     -14.481  13.121 -31.288  1.00  0.00     0.111 C 
BRANCH  10  11
ATOM     11  C   UNL     1     -13.526  12.340 -30.423  1.00  0.00     0.163 C 
ATOM     12  O   UNL     1     -12.955  11.336 -30.927  1.00  0.00    -0.294 OA
BRANCH  11  13
ATOM     13  C   UNL     1     -13.284  12.678 -28.989  1.00  0.00    -0.002 C 
ATOM     14  C   UNL     1     -12.102  13.239 -28.592  1.00  0.00    -0.069 C 
ATOM     15  C   UNL     1     -11.066  13.680 -29.602  1.00  0.00     0.039 C 
ATOM     16  C   UNL     1     -11.764  13.446 -27.132  1.00  0.00     0.039 C 
BRANCH  13  17
ATOM     17  C   UNL     1     -14.361  12.285 -27.991  1.00  0.00     0.066 CG0
ATOM     18  G   UNL     1     -15.250  11.172 -28.510  1.00  0.00     0.000 G0
ENDBRANCH  13  17
ENDBRANCH  11  13
ENDBRANCH  10  11
ENDBRANCH   1  10
TORSDOF 0
ENDMDL
MODEL 2
REMARK VINA RESULT:    -4.415      1.756      4.024
REMARK INTER + INTRA:          -5.713
REMARK INTER:                  -5.893
REMARK INTRA:                   0.180
REMARK UNBOUND:                 0.509
REMARK SMILES CC1=CCC(=C(C)C)C(=O)CC(C)=CCC1
REMARK SMILES IDX 12 1 14 2 13 3 15 4 16 5 2 6 1 7 3 8 11 10 9 11 10 12 5 13
REMARK SMILES IDX 6 14 7 15 8 16 4 17
REMARK H PARENT
REMARK Flexibility Score: 60.00
ROOT
ATOM      1  C   UNL     1     -13.697  14.562 -30.399  1.00  0.00    -0.070 C 
ATOM      2  C   UNL     1     -12.524  14.348 -29.763  1.00  0.00    -0.027 C 
ATOM      3  C   UNL     1     -14.003  15.963 -30.863  1.00  0.00     0.039 C 
ENDROOT
BRANCH   2   4
ATOM      4  C   UNL     1     -12.081  13.042 -29.142  1.00  0.00     0.032 C 
BRANCH   4   5
ATOM      5  C   UNL     1     -12.773  12.690 -27.809  1.00  0.00     0.034 C 
BRANCH   5   6
ATOM      6  C   UNL     1     -13.363  11.290 -27.793  1.00  0.00    -0.077 C 
ATOM      7  C   UNL     1     -12.413  10.128 -27.939  1.00  0.00     0.039 C 
ATOM      8  C   UNL     1     -14.689  11.021 -27.725  1.00  0.00    -0.023 CG0
ATOM      9  G   UNL     1     -15.818  12.019 -27.557  1.00  0.00     0.000 G0
ENDBRANCH   5   6
ENDBRANCH   4   5
ENDBRANCH   2   4
BRANCH   1  10
ATOM     10  C   UNL     1     -14.749  13.488 -30.585  1.00  0.00     0.111 C 
BRANCH  10  11
ATOM     11  C   UNL     1     -15.856  13.612 -29.570  1.00  0.00     0.163 C 
ATOM     12  O   UNL     1     -16.252  14.769 -29.263  1.00  0.00    -0.294 OA
BRANCH  11  13
ATOM     13  C   UNL     1     -16.449  12.428 -28.882  1.00  0.00    -0.002 C 
ATOM     14  C   UNL     1     -17.554  11.804 -29.391  1.00  0.00    -0.069 C 
ATOM     15  C   UNL     1     -18.119  12.187 -30.741  1.00  0.00     0.039 C 
ATOM     16  C   UNL     1     -18.271  10.705 -28.638  1.00  0.00     0.039 C 
BRANCH  13  17
ATOM     17  C   UNL     1     -15.833  12.013 -27.556  1.00  0.00     0.066 CG0
ATOM     18  G   UNL     1     -14.704  11.017 -27.731  1.00  0.00     0.000 G0
ENDBRANCH  13  17
ENDBRANCH  11  13
ENDBRANCH  10  11
ENDBRANCH   1  10
TORSDOF 0
ENDMDL
MODEL 3
REMARK VINA RESULT:    -4.381      1.769      2.186
REMARK INTER + INTRA:          -5.664
REMARK INTER:                  -6.110
REMARK INTRA:                   0.446
REMARK UNBOUND:                 0.509
REMARK SMILES CC1=CCC(=C(C)C)C(=O)CC(C)=CCC1
REMARK SMILES IDX 12 1 14 2 13 3 15 4 16 5 2 6 1 7 3 8 11 10 9 11 10 12 5 13
REMARK SMILES IDX 6 14 7 15 8 16 4 17
REMARK H PARENT
REMARK Flexibility Score: 60.00
ROOT
ATOM      1  C   UNL     1     -15.805  14.528 -30.402  1.00  0.00    -0.070 C 
ATOM      2  C   UNL     1     -16.582  14.228 -29.338  1.00  0.00    -0.027 C 
ATOM      3  C   UNL     1     -14.697  15.532 -30.205  1.00  0.00     0.039 C 
ENDROOT
BRANCH   2   4
ATOM      4  C   UNL     1     -17.796  13.325 -29.357  1.00  0.00     0.032 C 
BRANCH   4   5
ATOM      5  C   UNL     1     -17.519  11.859 -28.963  1.00  0.00     0.034 C 
BRANCH   5   6
ATOM      6  C   UNL     1     -16.153  11.659 -28.329  1.00  0.00    -0.077 C 
ATOM      7  C   UNL     1     -16.036  11.857 -26.838  1.00  0.00     0.039 C 
ATOM      8  C   UNL     1     -15.022  11.384 -29.023  1.00  0.00    -0.023 CG0
ATOM      9  G   UNL     1     -14.902  11.127 -30.512  1.00  0.00     0.000 G0
ENDBRANCH   5   6
ENDBRANCH   4   5
ENDBRANCH   2   4
BRANCH   1  10
ATOM     10  C   UNL     1     -16.049  13.979 -31.792  1.00  0.00     0.111 C 
BRANCH  10  11
ATOM     11  C   UNL     1     -14.944  13.051 -32.226  1.00  0.00     0.163 C 
ATOM     12  O   UNL     1     -14.717  12.935 -33.460  1.00  0.00    -0.294 OA
BRANCH  11  13
ATOM     13  C   UNL     1     -14.159  12.231 -31.256  1.00  0.00    -0.002 C 
ATOM     14  C   UNL     1     -12.814  12.425 -31.103  1.00  0.00    -0.069 C 
ATOM     15  C   UNL     1     -12.106  13.574 -31.786  1.00  0.00     0.039 C 
ATOM     16  C   UNL     1     -11.965  11.509 -30.250  1.00  0.00     0.039 C 
BRANCH  13  17
ATOM     17  C   UNL     1     -14.897  11.119 -30.529  1.00  0.00     0.066 CG0
ATOM     18  G   UNL     1     -15.025  11.388 -29.042  1.00  0.00     0.000 G0
ENDBRANCH  13  17
ENDBRANCH  11  13
ENDBRANCH  10  11
ENDBRANCH   1  10
TORSDOF 0
ENDMDL
MODEL 4
REMARK VINA RESULT:    -4.317      1.454      4.157
REMARK INTER + INTRA:          -5.574
REMARK INTER:                  -5.815
REMARK INTRA:                   0.241
REMARK UNBOUND:                 0.509
REMARK SMILES CC1=CCC(=C(C)C)C(=O)CC(C)=CCC1
REMARK SMILES IDX 12 1 14 2 13 3 15 4 16 5 2 6 1 7 3 8 11 10 9 11 10 12 5 13
REMARK SMILES IDX 6 14 7 15 8 16 4 17
REMARK H PARENT
REMARK Flexibility Score: 60.00
ROOT
ATOM      1  C   UNL     1     -11.856  13.891 -31.644  1.00  0.00    -0.070 C 
ATOM      2  C   UNL     1     -10.762  13.586 -30.912  1.00  0.00    -0.027 C 
ATOM      3  C   UNL     1     -11.688  14.037 -33.136  1.00  0.00     0.039 C 
ENDROOT
BRANCH   2   4
ATOM      4  C   UNL     1     -10.707  13.492 -29.402  1.00  0.00     0.032 C 
BRANCH   4   5
ATOM      5  C   UNL     1     -11.335  12.214 -28.809  1.00  0.00     0.034 C 
BRANCH   5   6
ATOM      6  C   UNL     1     -12.380  12.502 -27.745  1.00  0.00    -0.077 C 
ATOM      7  C   UNL     1     -11.917  13.149 -26.464  1.00  0.00     0.039 C 
ATOM      8  C   UNL     1     -13.686  12.152 -27.842  1.00  0.00    -0.023 CG0
ATOM      9  G   UNL     1     -14.377  11.514 -29.032  1.00  0.00     0.000 G0
ENDBRANCH   5   6
ENDBRANCH   4   5
ENDBRANCH   2   4
BRANCH   1  10
ATOM     10  C   UNL     1     -13.211  14.181 -31.033  1.00  0.00     0.111 C 
BRANCH  10  11
ATOM     11  C   UNL     1     -14.130  12.990 -31.127  1.00  0.00     0.163 C 
ATOM     12  O   UNL     1     -14.214  12.392 -32.233  1.00  0.00    -0.294 OA
BRANCH  11  13
ATOM     13  C   UNL     1     -14.977  12.540 -29.983  1.00  0.00    -0.002 C 
ATOM     14  C   UNL     1     -16.201  13.106 -29.754  1.00  0.00    -0.069 C 
ATOM     15  C   UNL     1     -16.806  14.087 -30.733  1.00  0.00     0.039 C 
ATOM     16  C   UNL     1     -17.012  12.786 -28.518  1.00  0.00     0.039 C 
BRANCH  13  17
ATOM     17  C   UNL     1     -14.382  11.507 -29.041  1.00  0.00     0.066 CG0
ATOM     18  G   UNL     1     -13.707  12.142 -27.841  1.00  0.00     0.000 G0
ENDBRANCH  13  17
ENDBRANCH  11  13
ENDBRANCH  10  11
ENDBRANCH   1  10
TORSDOF 0
ENDMDL
MODEL 5
REMARK VINA RESULT:    -4.251      2.026      3.550
REMARK INTER + INTRA:          -5.481
REMARK INTER:                  -5.716
REMARK INTRA:                   0.235
REMARK UNBOUND:                 0.509
REMARK SMILES CC1=CCC(=C(C)C)C(=O)CC(C)=CCC1
REMARK SMILES IDX 12 1 14 2 13 3 15 4 16 5 2 6 1 7 3 8 11 10 9 11 10 12 5 13
REMARK SMILES IDX 6 14 7 15 8 16 4 17
REMARK H PARENT
REMARK Flexibility Score: 60.00
ROOT
ATOM      1  C   UNL     1     -18.019  12.874 -29.447  1.00  0.00    -0.070 C 
ATOM      2  C   UNL     1     -17.737  11.751 -28.751  1.00  0.00    -0.027 C 
ATOM      3  C   UNL     1     -19.388  12.993 -30.070  1.00  0.00     0.039 C 
ENDROOT
BRANCH   2   4
ATOM      4  C   UNL     1     -16.398  11.404 -28.138  1.00  0.00     0.032 C 
BRANCH   4   5
ATOM      5  C   UNL     1     -15.580  10.355 -28.920  1.00  0.00     0.034 C 
BRANCH   5   6
ATOM      6  C   UNL     1     -14.112  10.722 -29.056  1.00  0.00    -0.077 C 
ATOM      7  C   UNL     1     -13.171  10.262 -27.971  1.00  0.00     0.039 C 
ATOM      8  C   UNL     1     -13.607  11.492 -30.050  1.00  0.00    -0.023 CG0
ATOM      9  G   UNL     1     -14.353  12.048 -31.247  1.00  0.00     0.000 G0
ENDBRANCH   5   6
ENDBRANCH   4   5
ENDBRANCH   2   4
BRANCH   1  10
ATOM     10  C   UNL     1     -17.004  13.968 -29.708  1.00  0.00     0.111 C 
BRANCH  10  11
ATOM     11  C   UNL     1     -16.265  13.745 -31.001  1.00  0.00     0.163 C 
ATOM     12  O   UNL     1     -16.935  13.716 -32.069  1.00  0.00    -0.294 OA
BRANCH  11  13
ATOM     13  C   UNL     1     -14.794  13.500 -31.052  1.00  0.00    -0.002 C 
ATOM     14  C   UNL     1     -13.909  14.542 -31.000  1.00  0.00    -0.069 C 
ATOM     15  C   UNL     1     -14.378  15.955 -30.732  1.00  0.00     0.039 C 
ATOM     16  C   UNL     1     -12.424  14.342 -31.207  1.00  0.00     0.039 C 
BRANCH  13  17
ATOM     17  C   UNL     1     -14.333  12.066 -31.259  1.00  0.00     0.066 CG0
ATOM     18  G   UNL     1     -13.618  11.509 -30.044  1.00  0.00     0.000 G0
ENDBRANCH  13  17
ENDBRANCH  11  13
ENDBRANCH  10  11
ENDBRANCH   1  10
TORSDOF 0
ENDMDL
MODEL 6
REMARK VINA RESULT:    -4.223      1.807      3.775
REMARK INTER + INTRA:          -5.442
REMARK INTER:                  -5.830
REMARK INTRA:                   0.387
REMARK UNBOUND:                 0.509
REMARK SMILES CC1=CCC(=C(C)C)C(=O)CC(C)=CCC1
REMARK SMILES IDX 12 1 14 2 13 3 15 4 16 5 2 6 1 7 3 8 11 10 9 11 10 12 5 13
REMARK SMILES IDX 6 14 7 15 8 16 4 17
REMARK H PARENT
REMARK Flexibility Score: 60.00
ROOT
ATOM      1  C   UNL     1     -17.931  12.653 -30.066  1.00  0.00    -0.070 C 
ATOM      2  C   UNL     1     -17.773  13.266 -31.260  1.00  0.00    -0.027 C 
ATOM      3  C   UNL     1     -19.281  12.061 -29.750  1.00  0.00     0.039 C 
ENDROOT
BRANCH   2   4
ATOM      4  C   UNL     1     -16.532  14.000 -31.720  1.00  0.00     0.032 C 
BRANCH   4   5
ATOM      5  C   UNL     1     -15.277  13.117 -31.874  1.00  0.00     0.034 C 
BRANCH   5   6
ATOM      6  C   UNL     1     -14.097  13.606 -31.051  1.00  0.00    -0.077 C 
ATOM      7  C   UNL     1     -13.642  15.029 -31.255  1.00  0.00     0.039 C 
ATOM      8  C   UNL     1     -13.386  12.828 -30.200  1.00  0.00    -0.023 CG0
ATOM      9  G   UNL     1     -13.666  11.386 -29.825  1.00  0.00     0.000 G0
ENDBRANCH   5   6
ENDBRANCH   4   5
ENDBRANCH   2   4
BRANCH   1  10
ATOM     10  C   UNL     1     -16.852  12.612 -29.004  1.00  0.00     0.111 C 
BRANCH  10  11
ATOM     11  C   UNL     1     -16.094  11.310 -29.030  1.00  0.00     0.163 C 
ATOM     12  O   UNL     1     -16.730  10.259 -29.310  1.00  0.00    -0.294 OA
BRANCH  11  13
ATOM     13  C   UNL     1     -14.645  11.220 -28.681  1.00  0.00    -0.002 C 
ATOM     14  C   UNL     1     -14.246  11.093 -27.379  1.00  0.00    -0.069 C 
ATOM     15  C   UNL     1     -15.251  10.883 -26.268  1.00  0.00     0.039 C 
ATOM     16  C   UNL     1     -12.788  11.158 -26.979  1.00  0.00     0.039 C 
BRANCH  13  17
ATOM     17  C   UNL     1     -13.645  11.371 -29.816  1.00  0.00     0.066 CG0
ATOM     18  G   UNL     1     -13.378  12.823 -30.160  1.00  0.00     0.000 G0
ENDBRANCH  13  17
ENDBRANCH  11  13
ENDBRANCH  10  11
ENDBRANCH   1  10
TORSDOF 0
ENDMDL
MODEL 7
REMARK VINA RESULT:    -4.138      1.817      2.895
REMARK INTER + INTRA:          -5.322
REMARK INTER:                  -5.764
REMARK INTRA:                   0.442
REMARK UNBOUND:                 0.509
REMARK SMILES CC1=CCC(=C(C)C)C(=O)CC(C)=CCC1
REMARK SMILES IDX 12 1 14 2 13 3 15 4 16 5 2 6 1 7 3 8 11 10 9 11 10 12 5 13
REMARK SMILES IDX 6 14 7 15 8 16 4 17
REMARK H PARENT
REMARK Flexibility Score: 60.00
ROOT
ATOM      1  C   UNL     1     -12.007  14.043 -32.034  1.00  0.00    -0.070 C 
ATOM      2  C   UNL     1     -13.007  14.950 -31.978  1.00  0.00    -0.027 C 
ATOM      3  C   UNL     1     -11.585  13.541 -33.392  1.00  0.00     0.039 C 
ENDROOT
BRANCH   2   4
ATOM      4  C   UNL     1     -13.634  15.498 -30.714  1.00  0.00     0.032 C 
BRANCH   4   5
ATOM      5  C   UNL     1     -15.106  15.096 -30.493  1.00  0.00     0.034 C 
BRANCH   5   6
ATOM      6  C   UNL     1     -15.371  13.625 -30.768  1.00  0.00    -0.077 C 
ATOM      7  C   UNL     1     -16.233  13.278 -31.956  1.00  0.00     0.039 C 
ATOM      8  C   UNL     1     -14.942  12.612 -29.977  1.00  0.00    -0.023 CG0
ATOM      9  G   UNL     1     -14.056  12.718 -28.752  1.00  0.00     0.000 G0
ENDBRANCH   5   6
ENDBRANCH   4   5
ENDBRANCH   2   4
BRANCH   1  10
ATOM     10  C   UNL     1     -11.358  13.444 -30.803  1.00  0.00     0.111 C 
BRANCH  10  11
ATOM     11  C   UNL     1     -12.084  12.208 -30.338  1.00  0.00     0.163 C 
ATOM     12  O   UNL     1     -12.231  11.263 -31.158  1.00  0.00    -0.294 OA
BRANCH  11  13
ATOM     13  C   UNL     1     -12.678  12.094 -28.973  1.00  0.00    -0.002 C 
ATOM     14  C   UNL     1     -12.038  11.394 -27.988  1.00  0.00    -0.069 C 
ATOM     15  C   UNL     1     -10.642  10.848 -28.194  1.00  0.00     0.039 C 
ATOM     16  C   UNL     1     -12.685  11.126 -26.647  1.00  0.00     0.039 C 
BRANCH  13  17
ATOM     17  C   UNL     1     -14.055  12.701 -28.761  1.00  0.00     0.066 CG0
ATOM     18  G   UNL     1     -14.927  12.600 -29.997  1.00  0.00     0.000 G0
ENDBRANCH  13  17
ENDBRANCH  11  13
ENDBRANCH  10  11
ENDBRANCH   1  10
TORSDOF 0
ENDMDL
MODEL 8
REMARK VINA RESULT:    -4.084      2.232      4.088
REMARK INTER + INTRA:          -5.246
REMARK INTER:                  -5.359
REMARK INTRA:                   0.113
REMARK UNBOUND:                 0.509
REMARK SMILES CC1=CCC(=C(C)C)C(=O)CC(C)=CCC1
REMARK SMILES IDX 12 1 14 2 13 3 15 4 16 5 2 6 1 7 3 8 11 10 9 11 10 12 5 13
REMARK SMILES IDX 6 14 7 15 8 16 4 17
REMARK H PARENT
REMARK Flexibility Score: 60.00
ROOT
ATOM      1  C   UNL     1     -15.722  12.732 -31.313  1.00  0.00    -0.070 C 
ATOM      2  C   UNL     1     -15.162  13.292 -32.408  1.00  0.00    -0.027 C 
ATOM      3  C   UNL     1     -17.192  12.969 -31.073  1.00  0.00     0.039 C 
ENDROOT
BRANCH   2   4
ATOM      4  C   UNL     1     -13.693  13.250 -32.769  1.00  0.00     0.032 C 
BRANCH   4   5
ATOM      5  C   UNL     1     -12.824  14.319 -32.073  1.00  0.00     0.034 C 
BRANCH   5   6
ATOM      6  C   UNL     1     -11.540  13.756 -31.487  1.00  0.00    -0.077 C 
ATOM      7  C   UNL     1     -10.468  13.307 -32.449  1.00  0.00     0.039 C 
ATOM      8  C   UNL     1     -11.324  13.568 -30.163  1.00  0.00    -0.023 CG0
ATOM      9  G   UNL     1     -12.241  13.956 -29.021  1.00  0.00     0.000 G0
ENDBRANCH   5   6
ENDBRANCH   4   5
ENDBRANCH   2   4
BRANCH   1  10
ATOM     10  C   UNL     1     -14.931  11.961 -30.277  1.00  0.00     0.111 C 
BRANCH  10  11
ATOM     11  C   UNL     1     -14.532  12.837 -29.117  1.00  0.00     0.163 C 
ATOM     12  O   UNL     1     -15.395  13.624 -28.644  1.00  0.00    -0.294 OA
BRANCH  11  13
ATOM     13  C   UNL     1     -13.147  12.845 -28.559  1.00  0.00    -0.002 C 
ATOM     14  C   UNL     1     -12.767  11.927 -27.619  1.00  0.00    -0.069 C 
ATOM     15  C   UNL     1     -13.675  10.782 -27.230  1.00  0.00     0.039 C 
ATOM     16  C   UNL     1     -11.427  12.006 -26.920  1.00  0.00     0.039 C 
BRANCH  13  17
ATOM     17  C   UNL     1     -12.223  13.966 -29.006  1.00  0.00     0.066 CG0
ATOM     18  G   UNL     1     -11.330  13.552 -30.158  1.00  0.00     0.000 G0
ENDBRANCH  13  17
ENDBRANCH  11  13
ENDBRANCH  10  11
ENDBRANCH   1  10
TORSDOF 0
ENDMDL
MODEL 9
REMARK VINA RESULT:    -3.984      1.714      3.934
REMARK INTER + INTRA:          -5.105
REMARK INTER:                  -5.432
REMARK INTRA:                   0.327
REMARK UNBOUND:                 0.509
REMARK SMILES CC1=CCC(=C(C)C)C(=O)CC(C)=CCC1
REMARK SMILES IDX 12 1 14 2 13 3 15 4 16 5 2 6 1 7 3 8 11 10 9 11 10 12 5 13
REMARK SMILES IDX 6 14 7 15 8 16 4 17
REMARK H PARENT
REMARK Flexibility Score: 60.00
ROOT
ATOM      1  C   UNL     1     -16.173  13.735 -30.732  1.00  0.00    -0.070 C 
ATOM      2  C   UNL     1     -15.123  14.432 -31.219  1.00  0.00    -0.027 C 
ATOM      3  C   UNL     1     -17.377  13.558 -31.623  1.00  0.00     0.039 C 
ENDROOT
BRANCH   2   4
ATOM      4  C   UNL     1     -13.872  14.797 -30.450  1.00  0.00     0.032 C 
BRANCH   4   5
ATOM      5  C   UNL     1     -12.758  13.730 -30.481  1.00  0.00     0.034 C 
BRANCH   5   6
ATOM      6  C   UNL     1     -12.327  13.275 -29.097  1.00  0.00    -0.077 C 
ATOM      7  C   UNL     1     -11.406  14.180 -28.317  1.00  0.00     0.039 C 
ATOM      8  C   UNL     1     -12.660  12.083 -28.547  1.00  0.00    -0.023 CG0
ATOM      9  G   UNL     1     -13.580  11.029 -29.133  1.00  0.00     0.000 G0
ENDBRANCH   5   6
ENDBRANCH   4   5
ENDBRANCH   2   4
BRANCH   1  10
ATOM     10  C   UNL     1     -16.235  13.207 -29.313  1.00  0.00     0.111 C 
BRANCH  10  11
ATOM     11  C   UNL     1     -16.052  11.712 -29.268  1.00  0.00     0.163 C 
ATOM     12  O   UNL     1     -16.886  10.994 -29.881  1.00  0.00    -0.294 OA
BRANCH  11  13
ATOM     13  C   UNL     1     -14.964  11.062 -28.479  1.00  0.00    -0.002 C 
ATOM     14  C   UNL     1     -15.194  10.612 -27.208  1.00  0.00    -0.069 C 
ATOM     15  C   UNL     1     -16.586  10.613 -26.617  1.00  0.00     0.039 C 
ATOM     16  C   UNL     1     -14.078  10.094 -26.328  1.00  0.00     0.039 C 
BRANCH  13  17
ATOM     17  C   UNL     1     -13.582  11.011 -29.110  1.00  0.00     0.066 CG0
ATOM     18  G   UNL     1     -12.655  12.074 -28.553  1.00  0.00     0.000 G0
ENDBRANCH  13  17
ENDBRANCH  11  13
ENDBRANCH  10  11
ENDBRANCH   1  10
TORSDOF 0
ENDMDL
