MODEL 1
REMARK VINA RESULT:     0.182      0.000      0.000
REMARK INTER + INTRA:           0.182
REMARK INTER:                   0.182
REMARK INTRA:                   0.000
REMARK UNBOUND:                 0.000
REMARK SMILES CC1=CC[C@H]2C[C@@H]1C2(C)C
REMARK SMILES IDX 1 1 2 2 3 3 4 4 5 5 6 6 7 7 8 8 9 9 10 10
REMARK H PARENT
REMARK Flexibility Score: inf
ROOT
ATOM      1  C   UNL     1     -12.453  -2.264  14.971  1.00  0.00     0.039 C 
ATOM      2  C   UNL     1     -13.575  -2.630  15.893  1.00  0.00    -0.074 C 
ATOM      3  C   UNL     1     -14.134  -3.876  15.873  1.00  0.00    -0.027 C 
ATOM      4  C   UNL     1     -15.305  -4.178  16.830  1.00  0.00     0.031 C 
ATOM      5  C   UNL     1     -15.610  -2.923  17.719  1.00  0.00    -0.000 C 
ATOM      6  C   UNL     1     -14.241  -2.432  18.233  1.00  0.00     0.013 C 
ATOM      7  C   UNL     1     -14.140  -1.636  16.918  1.00  0.00     0.021 C 
ATOM      8  C   UNL     1     -15.689  -1.645  16.841  1.00  0.00    -0.026 C 
ATOM      9  C   UNL     1     -16.322  -0.451  17.600  1.00  0.00     0.012 C 
ATOM     10  C   UNL     1     -16.360  -1.742  15.442  1.00  0.00     0.012 C 
ENDROOT
TORSDOF 0
ENDMDL
MODEL 2
REMARK VINA RESULT:     0.532      1.218      3.077
REMARK INTER + INTRA:           0.532
REMARK INTER:                   0.532
REMARK INTRA:                   0.000
REMARK UNBOUND:                 0.000
REMARK SMILES CC1=CC[C@H]2C[C@@H]1C2(C)C
REMARK SMILES IDX 1 1 2 2 3 3 4 4 5 5 6 6 7 7 8 8 9 9 10 10
REMARK H PARENT
REMARK Flexibility Score: inf
ROOT
ATOM      1  C   UNL     1     -16.939   0.442  17.044  1.00  0.00     0.039 C 
ATOM      2  C   UNL     1     -16.146  -0.826  16.959  1.00  0.00    -0.074 C 
ATOM      3  C   UNL     1     -16.584  -1.891  16.226  1.00  0.00    -0.027 C 
ATOM      4  C   UNL     1     -15.733  -3.177  16.203  1.00  0.00     0.031 C 
ATOM      5  C   UNL     1     -14.429  -2.972  17.051  1.00  0.00    -0.000 C 
ATOM      6  C   UNL     1     -13.858  -1.606  16.618  1.00  0.00     0.013 C 
ATOM      7  C   UNL     1     -14.796  -0.987  17.672  1.00  0.00     0.021 C 
ATOM      8  C   UNL     1     -14.773  -2.341  18.428  1.00  0.00    -0.026 C 
ATOM      9  C   UNL     1     -13.592  -2.437  19.427  1.00  0.00     0.012 C 
ATOM     10  C   UNL     1     -16.066  -2.803  19.157  1.00  0.00     0.012 C 
ENDROOT
TORSDOF 0
ENDMDL
MODEL 3
REMARK VINA RESULT:     0.657      1.042      2.942
REMARK INTER + INTRA:           0.657
REMARK INTER:                   0.657
REMARK INTRA:                   0.000
REMARK UNBOUND:                 0.000
REMARK SMILES CC1=CC[C@H]2C[C@@H]1C2(C)C
REMARK SMILES IDX 1 1 2 2 3 3 4 4 5 5 6 6 7 7 8 8 9 9 10 10
REMARK H PARENT
REMARK Flexibility Score: inf
ROOT
ATOM      1  C   UNL     1     -15.129  -2.504  20.246  1.00  0.00     0.039 C 
ATOM      2  C   UNL     1     -14.820  -2.502  18.779  1.00  0.00    -0.074 C 
ATOM      3  C   UNL     1     -13.547  -2.318  18.322  1.00  0.00    -0.027 C 
ATOM      4  C   UNL     1     -13.302  -2.299  16.799  1.00  0.00     0.031 C 
ATOM      5  C   UNL     1     -14.648  -2.553  16.035  1.00  0.00    -0.000 C 
ATOM      6  C   UNL     1     -15.310  -3.754  16.742  1.00  0.00     0.013 C 
ATOM      7  C   UNL     1     -15.910  -2.726  17.721  1.00  0.00     0.021 C 
ATOM      8  C   UNL     1     -15.775  -1.652  16.611  1.00  0.00    -0.026 C 
ATOM      9  C   UNL     1     -17.016  -1.604  15.685  1.00  0.00     0.012 C 
ATOM     10  C   UNL     1     -15.423  -0.196  17.029  1.00  0.00     0.012 C 
ENDROOT
TORSDOF 0
ENDMDL
MODEL 4
REMARK VINA RESULT:     0.972      7.330      8.644
REMARK INTER + INTRA:           0.972
REMARK INTER:                   0.972
REMARK INTRA:                   0.000
REMARK UNBOUND:                 0.000
REMARK SMILES CC1=CC[C@H]2C[C@@H]1C2(C)C
REMARK SMILES IDX 1 1 2 2 3 3 4 4 5 5 6 6 7 7 8 8 9 9 10 10
REMARK H PARENT
REMARK Flexibility Score: inf
ROOT
ATOM      1  C   UNL     1      -9.780  -6.997  17.549  1.00  0.00     0.039 C 
ATOM      2  C   UNL     1      -9.671  -6.988  19.044  1.00  0.00    -0.074 C 
ATOM      3  C   UNL     1      -8.764  -6.196  19.686  1.00  0.00    -0.027 C 
ATOM      4  C   UNL     1      -8.685  -6.257  21.225  1.00  0.00     0.031 C 
ATOM      5  C   UNL     1      -9.763  -7.253  21.779  1.00  0.00    -0.000 C 
ATOM      6  C   UNL     1     -11.072  -6.905  21.041  1.00  0.00     0.013 C 
ATOM      7  C   UNL     1     -10.583  -7.852  19.927  1.00  0.00     0.021 C 
ATOM      8  C   UNL     1      -9.723  -8.588  20.987  1.00  0.00    -0.026 C 
ATOM      9  C   UNL     1     -10.509  -9.716  21.702  1.00  0.00     0.012 C 
ATOM     10  C   UNL     1      -8.342  -9.156  20.554  1.00  0.00     0.012 C 
ENDROOT
TORSDOF 0
ENDMDL
MODEL 5
REMARK VINA RESULT:     1.197      1.076      2.564
REMARK INTER + INTRA:           1.197
REMARK INTER:                   1.197
REMARK INTRA:                   0.000
REMARK UNBOUND:                 0.000
REMARK SMILES CC1=CC[C@H]2C[C@@H]1C2(C)C
REMARK SMILES IDX 1 1 2 2 3 3 4 4 5 5 6 6 7 7 8 8 9 9 10 10
REMARK H PARENT
REMARK Flexibility Score: inf
ROOT
ATOM      1  C   UNL     1     -15.435  -5.468  15.581  1.00  0.00     0.039 C 
ATOM      2  C   UNL     1     -14.803  -4.149  15.910  1.00  0.00    -0.074 C 
ATOM      3  C   UNL     1     -13.476  -4.052  16.211  1.00  0.00    -0.027 C 
ATOM      4  C   UNL     1     -12.895  -2.669  16.568  1.00  0.00     0.031 C 
ATOM      5  C   UNL     1     -14.014  -1.574  16.466  1.00  0.00    -0.000 C 
ATOM      6  C   UNL     1     -14.736  -1.838  15.128  1.00  0.00     0.013 C 
ATOM      7  C   UNL     1     -15.609  -2.842  15.906  1.00  0.00     0.021 C 
ATOM      8  C   UNL     1     -15.299  -2.045  17.200  1.00  0.00    -0.026 C 
ATOM      9  C   UNL     1     -16.300  -0.885  17.430  1.00  0.00     0.012 C 
ATOM     10  C   UNL     1     -15.150  -2.830  18.534  1.00  0.00     0.012 C 
ENDROOT
TORSDOF 0
ENDMDL
MODEL 6
REMARK VINA RESULT:     1.380      6.946      7.918
REMARK INTER + INTRA:           1.380
REMARK INTER:                   1.380
REMARK INTRA:                   0.000
REMARK UNBOUND:                 0.000
REMARK SMILES CC1=CC[C@H]2C[C@@H]1C2(C)C
REMARK SMILES IDX 1 1 2 2 3 3 4 4 5 5 6 6 7 7 8 8 9 9 10 10
REMARK H PARENT
REMARK Flexibility Score: inf
ROOT
ATOM      1  C   UNL     1      -9.728  -6.910  17.265  1.00  0.00     0.039 C 
ATOM      2  C   UNL     1      -9.603  -7.401  18.676  1.00  0.00    -0.074 C 
ATOM      3  C   UNL     1      -9.333  -8.709  18.952  1.00  0.00    -0.027 C 
ATOM      4  C   UNL     1      -9.246  -9.154  20.426  1.00  0.00     0.031 C 
ATOM      5  C   UNL     1      -9.458  -7.921  21.372  1.00  0.00    -0.000 C 
ATOM      6  C   UNL     1      -8.567  -6.798  20.802  1.00  0.00     0.013 C 
ATOM      7  C   UNL     1      -9.753  -6.457  19.878  1.00  0.00     0.021 C 
ATOM      8  C   UNL     1     -10.700  -7.103  20.922  1.00  0.00    -0.026 C 
ATOM      9  C   UNL     1     -11.158  -6.093  22.005  1.00  0.00     0.012 C 
ATOM     10  C   UNL     1     -11.952  -7.870  20.411  1.00  0.00     0.012 C 
ENDROOT
TORSDOF 0
ENDMDL
MODEL 7
REMARK VINA RESULT:     1.574      1.064      3.298
REMARK INTER + INTRA:           1.574
REMARK INTER:                   1.574
REMARK INTRA:                   0.000
REMARK UNBOUND:                 0.000
REMARK SMILES CC1=CC[C@H]2C[C@@H]1C2(C)C
REMARK SMILES IDX 1 1 2 2 3 3 4 4 5 5 6 6 7 7 8 8 9 9 10 10
REMARK H PARENT
REMARK Flexibility Score: inf
ROOT
ATOM      1  C   UNL     1     -14.289  -2.355  19.809  1.00  0.00     0.039 C 
ATOM      2  C   UNL     1     -14.629  -2.190  18.359  1.00  0.00    -0.074 C 
ATOM      3  C   UNL     1     -15.749  -1.518  17.963  1.00  0.00    -0.027 C 
ATOM      4  C   UNL     1     -16.054  -1.410  16.455  1.00  0.00     0.031 C 
ATOM      5  C   UNL     1     -14.919  -2.104  15.626  1.00  0.00    -0.000 C 
ATOM      6  C   UNL     1     -13.592  -1.600  16.229  1.00  0.00     0.013 C 
ATOM      7  C   UNL     1     -13.728  -2.749  17.247  1.00  0.00     0.021 C 
ATOM      8  C   UNL     1     -14.601  -3.506  16.213  1.00  0.00    -0.026 C 
ATOM      9  C   UNL     1     -13.751  -4.368  15.245  1.00  0.00     0.012 C 
ATOM     10  C   UNL     1     -15.777  -4.379  16.735  1.00  0.00     0.012 C 
ENDROOT
TORSDOF 0
ENDMDL
MODEL 8
REMARK VINA RESULT:     1.579      1.005      3.213
REMARK INTER + INTRA:           1.579
REMARK INTER:                   1.579
REMARK INTRA:                   0.000
REMARK UNBOUND:                 0.000
REMARK SMILES CC1=CC[C@H]2C[C@@H]1C2(C)C
REMARK SMILES IDX 1 1 2 2 3 3 4 4 5 5 6 6 7 7 8 8 9 9 10 10
REMARK H PARENT
REMARK Flexibility Score: inf
ROOT
ATOM      1  C   UNL     1     -17.264  -1.989  14.994  1.00  0.00     0.039 C 
ATOM      2  C   UNL     1     -16.259  -1.977  16.105  1.00  0.00    -0.074 C 
ATOM      3  C   UNL     1     -16.162  -0.921  16.965  1.00  0.00    -0.027 C 
ATOM      4  C   UNL     1     -15.087  -0.961  18.070  1.00  0.00     0.031 C 
ATOM      5  C   UNL     1     -14.298  -2.314  18.003  1.00  0.00    -0.000 C 
ATOM      6  C   UNL     1     -15.368  -3.416  17.864  1.00  0.00     0.013 C 
ATOM      7  C   UNL     1     -15.304  -3.155  16.347  1.00  0.00     0.021 C 
ATOM      8  C   UNL     1     -13.863  -2.615  16.543  1.00  0.00    -0.026 C 
ATOM      9  C   UNL     1     -12.799  -3.739  16.468  1.00  0.00     0.012 C 
ATOM     10  C   UNL     1     -13.388  -1.435  15.648  1.00  0.00     0.012 C 
ENDROOT
TORSDOF 0
ENDMDL
MODEL 9
REMARK VINA RESULT:     1.841      6.815      8.263
REMARK INTER + INTRA:           1.841
REMARK INTER:                   1.841
REMARK INTRA:                   0.000
REMARK UNBOUND:                 0.000
REMARK SMILES CC1=CC[C@H]2C[C@@H]1C2(C)C
REMARK SMILES IDX 1 1 2 2 3 3 4 4 5 5 6 6 7 7 8 8 9 9 10 10
REMARK H PARENT
REMARK Flexibility Score: inf
ROOT
ATOM      1  C   UNL     1     -11.374  -5.894  22.008  1.00  0.00     0.039 C 
ATOM      2  C   UNL     1     -10.635  -6.857  21.130  1.00  0.00    -0.074 C 
ATOM      3  C   UNL     1      -9.824  -7.821  21.656  1.00  0.00    -0.027 C 
ATOM      4  C   UNL     1      -9.071  -8.762  20.694  1.00  0.00     0.031 C 
ATOM      5  C   UNL     1      -9.446  -8.425  19.209  1.00  0.00    -0.000 C 
ATOM      6  C   UNL     1     -10.983  -8.292  19.186  1.00  0.00     0.013 C 
ATOM      7  C   UNL     1     -10.766  -6.823  19.600  1.00  0.00     0.021 C 
ATOM      8  C   UNL     1      -9.354  -6.895  18.963  1.00  0.00    -0.026 C 
ATOM      9  C   UNL     1      -9.372  -6.543  17.454  1.00  0.00     0.012 C 
ATOM     10  C   UNL     1      -8.199  -6.100  19.634  1.00  0.00     0.012 C 
ENDROOT
TORSDOF 0
ENDMDL
