MODEL 1
REMARK VINA RESULT:    -6.838      0.000      0.000
REMARK INTER + INTRA:          -8.534
REMARK INTER:                  -8.237
REMARK INTRA:                  -0.297
REMARK UNBOUND:                -0.297
REMARK SMILES O=c1c(O)c(-c2ccc(O)c(O)c2)oc2cc(O)cc(O)c12
REMARK SMILES IDX 5 1 3 2 2 3 1 4 22 5 20 6 19 7 17 8 16 9 15 10 14 11 6 12
REMARK SMILES IDX 7 13 8 14 9 15 13 16 11 17 10 18 12 20 4 22 21 24 18 26
REMARK H PARENT 10 19 12 21 4 23 21 25 18 27
REMARK Flexibility Score: inf
ROOT
ATOM      1  C   UNL     1      -0.926 -20.669  -6.686  1.00  0.00     0.180 A 
ATOM      2  C   UNL     1      -0.817 -19.442  -6.009  1.00  0.00     0.208 A 
ATOM      3  C   UNL     1       0.067 -19.339  -4.923  1.00  0.00     0.238 A 
ATOM      4  O   UNL     1       0.200 -18.223  -4.355  1.00  0.00    -0.285 OA
ATOM      5  C   UNL     1       0.818 -20.467  -4.517  1.00  0.00     0.111 A 
ATOM      6  C   UNL     1       1.714 -20.488  -3.406  1.00  0.00     0.134 A 
ATOM      7  C   UNL     1       2.503 -21.621  -3.175  1.00  0.00     0.093 A 
ATOM      8  C   UNL     1       2.382 -22.758  -3.974  1.00  0.00     0.123 A 
ATOM      9  C   UNL     1       1.467 -22.770  -5.028  1.00  0.00     0.094 A 
ATOM     10  C   UNL     1       0.692 -21.641  -5.305  1.00  0.00     0.146 A 
ATOM     11  O   UNL     1      -0.159 -21.690  -6.322  1.00  0.00    -0.452 OA
ENDROOT
BRANCH   1  12
ATOM     12  C   UNL     1      -1.854 -20.862  -7.823  1.00  0.00     0.025 A 
ATOM     13  C   UNL     1      -1.462 -20.459  -9.110  1.00  0.00     0.016 A 
ATOM     14  C   UNL     1      -2.314 -20.650 -10.201  1.00  0.00     0.051 A 
ATOM     15  C   UNL     1      -3.563 -21.259 -10.024  1.00  0.00     0.157 A 
ATOM     16  C   UNL     1      -3.100 -21.491  -7.653  1.00  0.00     0.062 A 
ATOM     17  C   UNL     1      -3.955 -21.684  -8.748  1.00  0.00     0.158 A 
BRANCH  15  18
ATOM     18  O   UNL     1      -4.417 -21.450 -11.109  1.00  0.00    -0.504 OA
ATOM     19  H   UNL     1      -5.075 -22.221 -11.135  1.00  0.00     0.293 HD
ENDBRANCH  15  18
BRANCH  17  20
ATOM     20  O   UNL     1      -5.192 -22.304  -8.577  1.00  0.00    -0.504 OA
ATOM     21  H   UNL     1      -5.811 -22.050  -7.816  1.00  0.00     0.293 HD
ENDBRANCH  17  20
ENDBRANCH   1  12
BRANCH   2  22
ATOM     22  O   UNL     1      -1.552 -18.333  -6.440  1.00  0.00    -0.502 OA
ATOM     23  H   UNL     1      -1.184 -17.391  -6.405  1.00  0.00     0.293 HD
ENDBRANCH   2  22
BRANCH   6  24
ATOM     24  O   UNL     1       1.844 -19.441  -2.489  1.00  0.00    -0.507 OA
ATOM     25  H   UNL     1       2.721 -19.109  -2.116  1.00  0.00     0.293 HD
ENDBRANCH   6  24
BRANCH   8  26
ATOM     26  O   UNL     1       3.172 -23.874  -3.708  1.00  0.00    -0.508 OA
ATOM     27  H   UNL     1       2.938 -24.525  -2.968  1.00  0.00     0.293 HD
ENDBRANCH   8  26
TORSDOF 6
ENDMDL
MODEL 2
REMARK VINA RESULT:    -6.748      3.122      6.732
REMARK INTER + INTRA:          -8.426
REMARK INTER:                  -8.096
REMARK INTRA:                  -0.330
REMARK UNBOUND:                -0.297
REMARK SMILES O=c1c(O)c(-c2ccc(O)c(O)c2)oc2cc(O)cc(O)c12
REMARK SMILES IDX 5 1 3 2 2 3 1 4 22 5 20 6 19 7 17 8 16 9 15 10 14 11 6 12
REMARK SMILES IDX 7 13 8 14 9 15 13 16 11 17 10 18 12 20 4 22 21 24 18 26
REMARK H PARENT 10 19 12 21 4 23 21 25 18 27
REMARK Flexibility Score: inf
ROOT
ATOM      1  C   UNL     1      -2.418 -22.376  -6.144  1.00  0.00     0.180 A 
ATOM      2  C   UNL     1      -3.714 -22.399  -6.688  1.00  0.00     0.208 A 
ATOM      3  C   UNL     1      -3.972 -21.682  -7.867  1.00  0.00     0.238 A 
ATOM      4  O   UNL     1      -5.121 -21.751  -8.378  1.00  0.00    -0.285 OA
ATOM      5  C   UNL     1      -2.935 -20.938  -8.479  1.00  0.00     0.111 A 
ATOM      6  C   UNL     1      -3.094 -20.142  -9.653  1.00  0.00     0.134 A 
ATOM      7  C   UNL     1      -1.970 -19.553 -10.246  1.00  0.00     0.093 A 
ATOM      8  C   UNL     1      -0.705 -19.675  -9.670  1.00  0.00     0.123 A 
ATOM      9  C   UNL     1      -0.548 -20.403  -8.490  1.00  0.00     0.094 A 
ATOM     10  C   UNL     1      -1.645 -21.032  -7.896  1.00  0.00     0.146 A 
ATOM     11  O   UNL     1      -1.452 -21.722  -6.778  1.00  0.00    -0.452 OA
ENDROOT
BRANCH   1  12
ATOM     12  C   UNL     1      -2.077 -23.086  -4.891  1.00  0.00     0.025 A 
ATOM     13  C   UNL     1      -1.485 -24.358  -4.958  1.00  0.00     0.016 A 
ATOM     14  C   UNL     1      -1.134 -25.037  -3.788  1.00  0.00     0.051 A 
ATOM     15  C   UNL     1      -1.359 -24.450  -2.537  1.00  0.00     0.157 A 
ATOM     16  C   UNL     1      -2.280 -22.492  -3.633  1.00  0.00     0.062 A 
ATOM     17  C   UNL     1      -1.929 -23.173  -2.459  1.00  0.00     0.158 A 
BRANCH  15  18
ATOM     18  O   UNL     1      -1.013 -25.125  -1.367  1.00  0.00    -0.504 OA
ATOM     19  H   UNL     1      -1.530 -24.989  -0.505  1.00  0.00     0.293 HD
ENDBRANCH  15  18
BRANCH  17  20
ATOM     20  O   UNL     1      -2.137 -22.585  -1.212  1.00  0.00    -0.504 OA
ATOM     21  H   UNL     1      -1.375 -22.440  -0.560  1.00  0.00     0.293 HD
ENDBRANCH  17  20
ENDBRANCH   1  12
BRANCH   2  22
ATOM     22  O   UNL     1      -4.718 -23.159  -6.080  1.00  0.00    -0.502 OA
ATOM     23  H   UNL     1      -5.336 -22.779  -5.374  1.00  0.00     0.293 HD
ENDBRANCH   2  22
BRANCH   6  24
ATOM     24  O   UNL     1      -4.326 -19.877 -10.257  1.00  0.00    -0.507 OA
ATOM     25  H   UNL     1      -4.998 -20.581 -10.526  1.00  0.00     0.293 HD
ENDBRANCH   6  24
BRANCH   8  26
ATOM     26  O   UNL     1       0.389 -19.064 -10.278  1.00  0.00    -0.508 OA
ATOM     27  H   UNL     1       0.599 -19.206 -11.258  1.00  0.00     0.293 HD
ENDBRANCH   8  26
TORSDOF 6
ENDMDL
MODEL 3
REMARK VINA RESULT:    -6.578      1.278      3.032
REMARK INTER + INTRA:          -8.221
REMARK INTER:                  -7.952
REMARK INTRA:                  -0.269
REMARK UNBOUND:                -0.297
REMARK SMILES O=c1c(O)c(-c2ccc(O)c(O)c2)oc2cc(O)cc(O)c12
REMARK SMILES IDX 5 1 3 2 2 3 1 4 22 5 20 6 19 7 17 8 16 9 15 10 14 11 6 12
REMARK SMILES IDX 7 13 8 14 9 15 13 16 11 17 10 18 12 20 4 22 21 24 18 26
REMARK H PARENT 10 19 12 21 4 23 21 25 18 27
REMARK Flexibility Score: inf
ROOT
ATOM      1  C   UNL     1      -0.855 -20.655  -6.409  1.00  0.00     0.180 A 
ATOM      2  C   UNL     1      -0.190 -21.732  -5.798  1.00  0.00     0.208 A 
ATOM      3  C   UNL     1       0.645 -21.482  -4.697  1.00  0.00     0.238 A 
ATOM      4  O   UNL     1       1.195 -22.457  -4.121  1.00  0.00    -0.285 OA
ATOM      5  C   UNL     1       0.819 -20.156  -4.233  1.00  0.00     0.111 A 
ATOM      6  C   UNL     1       1.673 -19.781  -3.152  1.00  0.00     0.134 A 
ATOM      7  C   UNL     1       1.667 -18.458  -2.693  1.00  0.00     0.093 A 
ATOM      8  C   UNL     1       0.889 -17.483  -3.317  1.00  0.00     0.123 A 
ATOM      9  C   UNL     1       0.096 -17.826  -4.412  1.00  0.00     0.094 A 
ATOM     10  C   UNL     1       0.053 -19.146  -4.870  1.00  0.00     0.146 A 
ATOM     11  O   UNL     1      -0.723 -19.432  -5.908  1.00  0.00    -0.452 OA
ENDROOT
BRANCH   1  12
ATOM     12  C   UNL     1      -1.731 -20.837  -7.588  1.00  0.00     0.025 A 
ATOM     13  C   UNL     1      -1.242 -20.523  -8.867  1.00  0.00     0.016 A 
ATOM     14  C   UNL     1      -2.044 -20.707  -9.996  1.00  0.00     0.051 A 
ATOM     15  C   UNL     1      -3.341 -21.220  -9.864  1.00  0.00     0.157 A 
ATOM     16  C   UNL     1      -3.025 -21.373  -7.464  1.00  0.00     0.062 A 
ATOM     17  C   UNL     1      -3.831 -21.558  -8.597  1.00  0.00     0.158 A 
BRANCH  15  18
ATOM     18  O   UNL     1      -4.145 -21.404 -10.988  1.00  0.00    -0.504 OA
ATOM     19  H   UNL     1      -3.856 -21.081 -11.904  1.00  0.00     0.293 HD
ENDBRANCH  15  18
BRANCH  17  20
ATOM     20  O   UNL     1      -5.116 -22.083  -8.471  1.00  0.00    -0.504 OA
ATOM     21  H   UNL     1      -5.285 -22.967  -8.004  1.00  0.00     0.293 HD
ENDBRANCH  17  20
ENDBRANCH   1  12
BRANCH   2  22
ATOM     22  O   UNL     1      -0.393 -23.037  -6.259  1.00  0.00    -0.502 OA
ATOM     23  H   UNL     1      -1.094 -23.650  -5.863  1.00  0.00     0.293 HD
ENDBRANCH   2  22
BRANCH   6  24
ATOM     24  O   UNL     1       2.559 -20.657  -2.518  1.00  0.00    -0.507 OA
ATOM     25  H   UNL     1       3.330 -20.371  -1.932  1.00  0.00     0.293 HD
ENDBRANCH   6  24
BRANCH   8  26
ATOM     26  O   UNL     1       0.919 -16.173  -2.844  1.00  0.00    -0.508 OA
ATOM     27  H   UNL     1       1.791 -15.715  -2.606  1.00  0.00     0.293 HD
ENDBRANCH   8  26
TORSDOF 6
ENDMDL
MODEL 4
REMARK VINA RESULT:    -6.553     12.580     14.535
REMARK INTER + INTRA:          -8.192
REMARK INTER:                  -7.863
REMARK INTRA:                  -0.328
REMARK UNBOUND:                -0.297
REMARK SMILES O=c1c(O)c(-c2ccc(O)c(O)c2)oc2cc(O)cc(O)c12
REMARK SMILES IDX 5 1 3 2 2 3 1 4 22 5 20 6 19 7 17 8 16 9 15 10 14 11 6 12
REMARK SMILES IDX 7 13 8 14 9 15 13 16 11 17 10 18 12 20 4 22 21 24 18 26
REMARK H PARENT 10 19 12 21 4 23 21 25 18 27
REMARK Flexibility Score: inf
ROOT
ATOM      1  C   UNL     1      10.524 -12.086  -7.177  1.00  0.00     0.180 A 
ATOM      2  C   UNL     1      10.252 -11.793  -5.829  1.00  0.00     0.208 A 
ATOM      3  C   UNL     1       9.738 -12.805  -5.003  1.00  0.00     0.238 A 
ATOM      4  O   UNL     1       9.548 -12.552  -3.784  1.00  0.00    -0.285 OA
ATOM      5  C   UNL     1       9.484 -14.090  -5.537  1.00  0.00     0.111 A 
ATOM      6  C   UNL     1       8.925 -15.179  -4.801  1.00  0.00     0.134 A 
ATOM      7  C   UNL     1       8.840 -16.444  -5.396  1.00  0.00     0.093 A 
ATOM      8  C   UNL     1       9.231 -16.645  -6.719  1.00  0.00     0.123 A 
ATOM      9  C   UNL     1       9.724 -15.574  -7.467  1.00  0.00     0.094 A 
ATOM     10  C   UNL     1       9.855 -14.309  -6.889  1.00  0.00     0.146 A 
ATOM     11  O   UNL     1      10.337 -13.320  -7.632  1.00  0.00    -0.452 OA
ENDROOT
BRANCH   1  12
ATOM     12  C   UNL     1      11.043 -11.066  -8.116  1.00  0.00     0.025 A 
ATOM     13  C   UNL     1      12.431 -10.912  -8.269  1.00  0.00     0.016 A 
ATOM     14  C   UNL     1      12.943  -9.970  -9.165  1.00  0.00     0.051 A 
ATOM     15  C   UNL     1      12.077  -9.179  -9.929  1.00  0.00     0.157 A 
ATOM     16  C   UNL     1      10.178 -10.284  -8.901  1.00  0.00     0.062 A 
ATOM     17  C   UNL     1      10.692  -9.339  -9.801  1.00  0.00     0.158 A 
BRANCH  15  18
ATOM     18  O   UNL     1      12.584  -8.237 -10.823  1.00  0.00    -0.504 OA
ATOM     19  H   UNL     1      11.971  -7.635 -11.362  1.00  0.00     0.293 HD
ENDBRANCH  15  18
BRANCH  17  20
ATOM     20  O   UNL     1       9.832  -8.561 -10.575  1.00  0.00    -0.504 OA
ATOM     21  H   UNL     1      10.040  -8.343 -11.542  1.00  0.00     0.293 HD
ENDBRANCH  17  20
ENDBRANCH   1  12
BRANCH   2  22
ATOM     22  O   UNL     1      10.531 -10.523  -5.316  1.00  0.00    -0.502 OA
ATOM     23  H   UNL     1      10.490  -9.686  -5.884  1.00  0.00     0.293 HD
ENDBRANCH   2  22
BRANCH   6  24
ATOM     24  O   UNL     1       8.418 -15.065  -3.504  1.00  0.00    -0.507 OA
ATOM     25  H   UNL     1       7.528 -14.651  -3.269  1.00  0.00     0.293 HD
ENDBRANCH   6  24
BRANCH   8  26
ATOM     26  O   UNL     1       9.119 -17.913  -7.285  1.00  0.00    -0.508 OA
ATOM     27  H   UNL     1       9.915 -18.381  -7.701  1.00  0.00     0.293 HD
ENDBRANCH   8  26
TORSDOF 6
ENDMDL
MODEL 5
REMARK VINA RESULT:    -6.539      2.193      7.363
REMARK INTER + INTRA:          -8.174
REMARK INTER:                  -8.188
REMARK INTRA:                   0.013
REMARK UNBOUND:                -0.297
REMARK SMILES O=c1c(O)c(-c2ccc(O)c(O)c2)oc2cc(O)cc(O)c12
REMARK SMILES IDX 5 1 3 2 2 3 1 4 22 5 20 6 19 7 17 8 16 9 15 10 14 11 6 12
REMARK SMILES IDX 7 13 8 14 9 15 13 16 11 17 10 18 12 20 4 22 21 24 18 26
REMARK H PARENT 10 19 12 21 4 23 21 25 18 27
REMARK Flexibility Score: inf
ROOT
ATOM      1  C   UNL     1      -1.711 -20.199  -7.117  1.00  0.00     0.180 A 
ATOM      2  C   UNL     1      -1.584 -20.725  -8.414  1.00  0.00     0.208 A 
ATOM      3  C   UNL     1      -2.649 -20.579  -9.316  1.00  0.00     0.238 A 
ATOM      4  O   UNL     1      -2.508 -21.004 -10.493  1.00  0.00    -0.285 OA
ATOM      5  C   UNL     1      -3.835 -19.924  -8.906  1.00  0.00     0.111 A 
ATOM      6  C   UNL     1      -4.992 -19.754  -9.724  1.00  0.00     0.134 A 
ATOM      7  C   UNL     1      -6.059 -18.976  -9.259  1.00  0.00     0.093 A 
ATOM      8  C   UNL     1      -6.039 -18.416  -7.982  1.00  0.00     0.123 A 
ATOM      9  C   UNL     1      -4.937 -18.624  -7.151  1.00  0.00     0.094 A 
ATOM     10  C   UNL     1      -3.842 -19.366  -7.601  1.00  0.00     0.146 A 
ATOM     11  O   UNL     1      -2.810 -19.532  -6.783  1.00  0.00    -0.452 OA
ENDROOT
BRANCH   1  12
ATOM     12  C   UNL     1      -0.641 -20.337  -6.103  1.00  0.00     0.025 A 
ATOM     13  C   UNL     1      -0.282 -19.225  -5.324  1.00  0.00     0.016 A 
ATOM     14  C   UNL     1       0.710 -19.337  -4.346  1.00  0.00     0.051 A 
ATOM     15  C   UNL     1       1.347 -20.564  -4.124  1.00  0.00     0.157 A 
ATOM     16  C   UNL     1      -0.014 -21.572  -5.861  1.00  0.00     0.062 A 
ATOM     17  C   UNL     1       0.981 -21.685  -4.880  1.00  0.00     0.158 A 
BRANCH  15  18
ATOM     18  O   UNL     1       2.339 -20.681  -3.151  1.00  0.00    -0.504 OA
ATOM     19  H   UNL     1       2.479 -19.962  -2.450  1.00  0.00     0.293 HD
ENDBRANCH  15  18
BRANCH  17  20
ATOM     20  O   UNL     1       1.606 -22.910  -4.646  1.00  0.00    -0.504 OA
ATOM     21  H   UNL     1       1.178 -23.785  -4.923  1.00  0.00     0.293 HD
ENDBRANCH  17  20
ENDBRANCH   1  12
BRANCH   2  22
ATOM     22  O   UNL     1      -0.395 -21.349  -8.806  1.00  0.00    -0.502 OA
ATOM     23  H   UNL     1      -0.333 -21.927  -9.635  1.00  0.00     0.293 HD
ENDBRANCH   2  22
BRANCH   6  24
ATOM     24  O   UNL     1      -5.155 -20.348 -10.979  1.00  0.00    -0.507 OA
ATOM     25  H   UNL     1      -5.330 -19.843 -11.835  1.00  0.00     0.293 HD
ENDBRANCH   6  24
BRANCH   8  26
ATOM     26  O   UNL     1      -7.124 -17.659  -7.545  1.00  0.00    -0.508 OA
ATOM     27  H   UNL     1      -7.506 -16.907  -8.106  1.00  0.00     0.293 HD
ENDBRANCH   8  26
TORSDOF 6
ENDMDL
MODEL 6
REMARK VINA RESULT:    -6.425      2.735      6.828
REMARK INTER + INTRA:          -8.037
REMARK INTER:                  -7.715
REMARK INTRA:                  -0.322
REMARK UNBOUND:                -0.297
REMARK SMILES O=c1c(O)c(-c2ccc(O)c(O)c2)oc2cc(O)cc(O)c12
REMARK SMILES IDX 5 1 3 2 2 3 1 4 22 5 20 6 19 7 17 8 16 9 15 10 14 11 6 12
REMARK SMILES IDX 7 13 8 14 9 15 13 16 11 17 10 18 12 20 4 22 21 24 18 26
REMARK H PARENT 10 19 12 21 4 23 21 25 18 27
REMARK Flexibility Score: inf
ROOT
ATOM      1  C   UNL     1      -1.979 -21.950  -6.349  1.00  0.00     0.180 A 
ATOM      2  C   UNL     1      -0.994 -21.055  -6.799  1.00  0.00     0.208 A 
ATOM      3  C   UNL     1      -1.223 -20.324  -7.976  1.00  0.00     0.238 A 
ATOM      4  O   UNL     1      -0.359 -19.484  -8.345  1.00  0.00    -0.285 OA
ATOM      5  C   UNL     1      -2.426 -20.510  -8.698  1.00  0.00     0.111 A 
ATOM      6  C   UNL     1      -2.745 -19.854  -9.924  1.00  0.00     0.134 A 
ATOM      7  C   UNL     1      -4.019 -20.014 -10.483  1.00  0.00     0.093 A 
ATOM      8  C   UNL     1      -4.962 -20.859  -9.896  1.00  0.00     0.123 A 
ATOM      9  C   UNL     1      -4.639 -21.551  -8.728  1.00  0.00     0.094 A 
ATOM     10  C   UNL     1      -3.389 -21.383  -8.128  1.00  0.00     0.146 A 
ATOM     11  O   UNL     1      -3.126 -22.053  -7.013  1.00  0.00    -0.452 OA
ENDROOT
BRANCH   1  12
ATOM     12  C   UNL     1      -1.800 -22.773  -5.132  1.00  0.00     0.025 A 
ATOM     13  C   UNL     1      -1.139 -24.009  -5.226  1.00  0.00     0.016 A 
ATOM     14  C   UNL     1      -0.939 -24.792  -4.086  1.00  0.00     0.051 A 
ATOM     15  C   UNL     1      -1.384 -24.346  -2.836  1.00  0.00     0.157 A 
ATOM     16  C   UNL     1      -2.226 -22.319  -3.871  1.00  0.00     0.062 A 
ATOM     17  C   UNL     1      -2.025 -23.105  -2.727  1.00  0.00     0.158 A 
BRANCH  15  18
ATOM     18  O   UNL     1      -1.189 -25.125  -1.697  1.00  0.00    -0.504 OA
ATOM     19  H   UNL     1      -0.259 -25.359  -1.368  1.00  0.00     0.293 HD
ENDBRANCH  15  18
BRANCH  17  20
ATOM     20  O   UNL     1      -2.454 -22.657  -1.478  1.00  0.00    -0.504 OA
ATOM     21  H   UNL     1      -2.157 -21.762  -1.106  1.00  0.00     0.293 HD
ENDBRANCH  17  20
ENDBRANCH   1  12
BRANCH   2  22
ATOM     22  O   UNL     1       0.178 -20.869  -6.059  1.00  0.00    -0.502 OA
ATOM     23  H   UNL     1       0.242 -21.099  -5.076  1.00  0.00     0.293 HD
ENDBRANCH   2  22
BRANCH   6  24
ATOM     24  O   UNL     1      -1.845 -19.061 -10.643  1.00  0.00    -0.507 OA
ATOM     25  H   UNL     1      -1.404 -19.333 -11.509  1.00  0.00     0.293 HD
ENDBRANCH   6  24
BRANCH   8  26
ATOM     26  O   UNL     1      -6.214 -21.007 -10.486  1.00  0.00    -0.508 OA
ATOM     27  H   UNL     1      -6.856 -20.228 -10.572  1.00  0.00     0.293 HD
ENDBRANCH   8  26
TORSDOF 6
ENDMDL
MODEL 7
REMARK VINA RESULT:    -6.425      1.346      1.742
REMARK INTER + INTRA:          -8.037
REMARK INTER:                  -8.111
REMARK INTRA:                   0.075
REMARK UNBOUND:                -0.297
REMARK SMILES O=c1c(O)c(-c2ccc(O)c(O)c2)oc2cc(O)cc(O)c12
REMARK SMILES IDX 5 1 3 2 2 3 1 4 22 5 20 6 19 7 17 8 16 9 15 10 14 11 6 12
REMARK SMILES IDX 7 13 8 14 9 15 13 16 11 17 10 18 12 20 4 22 21 24 18 26
REMARK H PARENT 10 19 12 21 4 23 21 25 18 27
REMARK Flexibility Score: inf
ROOT
ATOM      1  C   UNL     1      -2.017 -20.366  -6.842  1.00  0.00     0.180 A 
ATOM      2  C   UNL     1      -1.510 -19.193  -6.258  1.00  0.00     0.208 A 
ATOM      3  C   UNL     1      -0.447 -19.290  -5.345  1.00  0.00     0.238 A 
ATOM      4  O   UNL     1       0.039 -18.232  -4.867  1.00  0.00    -0.285 OA
ATOM      5  C   UNL     1       0.084 -20.560  -5.016  1.00  0.00     0.111 A 
ATOM      6  C   UNL     1       1.133 -20.780  -4.073  1.00  0.00     0.134 A 
ATOM      7  C   UNL     1       1.668 -22.066  -3.923  1.00  0.00     0.093 A 
ATOM      8  C   UNL     1       1.149 -23.150  -4.630  1.00  0.00     0.123 A 
ATOM      9  C   UNL     1       0.083 -22.956  -5.510  1.00  0.00     0.094 A 
ATOM     10  C   UNL     1      -0.447 -21.679  -5.709  1.00  0.00     0.146 A 
ATOM     11  O   UNL     1      -1.454 -21.536  -6.562  1.00  0.00    -0.452 OA
ENDROOT
BRANCH   1  12
ATOM     12  C   UNL     1      -3.152 -20.346  -7.792  1.00  0.00     0.025 A 
ATOM     13  C   UNL     1      -4.288 -19.576  -7.494  1.00  0.00     0.016 A 
ATOM     14  C   UNL     1      -5.362 -19.524  -8.386  1.00  0.00     0.051 A 
ATOM     15  C   UNL     1      -5.311 -20.231  -9.594  1.00  0.00     0.157 A 
ATOM     16  C   UNL     1      -3.096 -21.035  -9.016  1.00  0.00     0.062 A 
ATOM     17  C   UNL     1      -4.173 -20.984  -9.912  1.00  0.00     0.158 A 
BRANCH  15  18
ATOM     18  O   UNL     1      -6.380 -20.184 -10.487  1.00  0.00    -0.504 OA
ATOM     19  H   UNL     1      -6.263 -20.417 -11.466  1.00  0.00     0.293 HD
ENDBRANCH  15  18
BRANCH  17  20
ATOM     20  O   UNL     1      -4.118 -21.674 -11.123  1.00  0.00    -0.504 OA
ATOM     21  H   UNL     1      -3.903 -22.663 -11.160  1.00  0.00     0.293 HD
ENDBRANCH  17  20
ENDBRANCH   1  12
BRANCH   2  22
ATOM     22  O   UNL     1      -2.034 -17.946  -6.614  1.00  0.00    -0.502 OA
ATOM     23  H   UNL     1      -2.994 -17.825  -6.909  1.00  0.00     0.293 HD
ENDBRANCH   2  22
BRANCH   6  24
ATOM     24  O   UNL     1       1.663 -19.784  -3.248  1.00  0.00    -0.507 OA
ATOM     25  H   UNL     1       2.468 -19.219  -3.472  1.00  0.00     0.293 HD
ENDBRANCH   6  24
BRANCH   8  26
ATOM     26  O   UNL     1       1.695 -24.418  -4.445  1.00  0.00    -0.508 OA
ATOM     27  H   UNL     1       2.342 -24.819  -5.112  1.00  0.00     0.293 HD
ENDBRANCH   8  26
TORSDOF 6
ENDMDL
MODEL 8
REMARK VINA RESULT:    -6.399     11.287     13.919
REMARK INTER + INTRA:          -8.006
REMARK INTER:                  -7.997
REMARK INTRA:                  -0.009
REMARK UNBOUND:                -0.297
REMARK SMILES O=c1c(O)c(-c2ccc(O)c(O)c2)oc2cc(O)cc(O)c12
REMARK SMILES IDX 5 1 3 2 2 3 1 4 22 5 20 6 19 7 17 8 16 9 15 10 14 11 6 12
REMARK SMILES IDX 7 13 8 14 9 15 13 16 11 17 10 18 12 20 4 22 21 24 18 26
REMARK H PARENT 10 19 12 21 4 23 21 25 18 27
REMARK Flexibility Score: inf
ROOT
ATOM      1  C   UNL     1       9.927 -13.457  -5.767  1.00  0.00     0.180 A 
ATOM      2  C   UNL     1      11.013 -13.162  -6.609  1.00  0.00     0.208 A 
ATOM      3  C   UNL     1      11.466 -14.141  -7.507  1.00  0.00     0.238 A 
ATOM      4  O   UNL     1      12.404 -13.852  -8.296  1.00  0.00    -0.285 OA
ATOM      5  C   UNL     1      10.839 -15.410  -7.541  1.00  0.00     0.111 A 
ATOM      6  C   UNL     1      11.241 -16.491  -8.382  1.00  0.00     0.134 A 
ATOM      7  C   UNL     1      10.467 -17.657  -8.426  1.00  0.00     0.093 A 
ATOM      8  C   UNL     1       9.344 -17.807  -7.612  1.00  0.00     0.123 A 
ATOM      9  C   UNL     1       8.976 -16.779  -6.743  1.00  0.00     0.094 A 
ATOM     10  C   UNL     1       9.707 -15.590  -6.703  1.00  0.00     0.146 A 
ATOM     11  O   UNL     1       9.318 -14.633  -5.869  1.00  0.00    -0.452 OA
ENDROOT
BRANCH   1  12
ATOM     12  C   UNL     1       9.410 -12.485  -4.778  1.00  0.00     0.025 A 
ATOM     13  C   UNL     1       9.319 -12.858  -3.427  1.00  0.00     0.016 A 
ATOM     14  C   UNL     1       8.854 -11.950  -2.472  1.00  0.00     0.051 A 
ATOM     15  C   UNL     1       8.487 -10.653  -2.852  1.00  0.00     0.157 A 
ATOM     16  C   UNL     1       9.061 -11.175  -5.151  1.00  0.00     0.062 A 
ATOM     17  C   UNL     1       8.594 -10.263  -4.193  1.00  0.00     0.158 A 
BRANCH  15  18
ATOM     18  O   UNL     1       8.020  -9.744  -1.904  1.00  0.00    -0.504 OA
ATOM     19  H   UNL     1       7.303  -9.999  -1.234  1.00  0.00     0.293 HD
ENDBRANCH  15  18
BRANCH  17  20
ATOM     20  O   UNL     1       8.243  -8.966  -4.566  1.00  0.00    -0.504 OA
ATOM     21  H   UNL     1       8.339  -8.645  -5.522  1.00  0.00     0.293 HD
ENDBRANCH  17  20
ENDBRANCH   1  12
BRANCH   2  22
ATOM     22  O   UNL     1      11.604 -11.895  -6.576  1.00  0.00    -0.502 OA
ATOM     23  H   UNL     1      11.809 -11.368  -7.416  1.00  0.00     0.293 HD
ENDBRANCH   2  22
BRANCH   6  24
ATOM     24  O   UNL     1      12.398 -16.481  -9.166  1.00  0.00    -0.507 OA
ATOM     25  H   UNL     1      13.216 -15.920  -8.978  1.00  0.00     0.293 HD
ENDBRANCH   6  24
BRANCH   8  26
ATOM     26  O   UNL     1       8.605 -18.986  -7.670  1.00  0.00    -0.508 OA
ATOM     27  H   UNL     1       7.623 -19.010  -7.421  1.00  0.00     0.293 HD
ENDBRANCH   8  26
TORSDOF 6
ENDMDL
MODEL 9
REMARK VINA RESULT:    -6.330     11.044     13.911
REMARK INTER + INTRA:          -7.922
REMARK INTER:                  -7.634
REMARK INTRA:                  -0.288
REMARK UNBOUND:                -0.297
REMARK SMILES O=c1c(O)c(-c2ccc(O)c(O)c2)oc2cc(O)cc(O)c12
REMARK SMILES IDX 5 1 3 2 2 3 1 4 22 5 20 6 19 7 17 8 16 9 15 10 14 11 6 12
REMARK SMILES IDX 7 13 8 14 9 15 13 16 11 17 10 18 12 20 4 22 21 24 18 26
REMARK H PARENT 10 19 12 21 4 23 21 25 18 27
REMARK Flexibility Score: inf
ROOT
ATOM      1  C   UNL     1       9.742 -13.973  -5.231  1.00  0.00     0.180 A 
ATOM      2  C   UNL     1       9.002 -15.095  -4.821  1.00  0.00     0.208 A 
ATOM      3  C   UNL     1       8.982 -16.234  -5.641  1.00  0.00     0.238 A 
ATOM      4  O   UNL     1       8.361 -17.256  -5.243  1.00  0.00    -0.285 OA
ATOM      5  C   UNL     1       9.686 -16.231  -6.868  1.00  0.00     0.111 A 
ATOM      6  C   UNL     1       9.702 -17.316  -7.797  1.00  0.00     0.134 A 
ATOM      7  C   UNL     1      10.539 -17.254  -8.918  1.00  0.00     0.093 A 
ATOM      8  C   UNL     1      11.310 -16.121  -9.179  1.00  0.00     0.123 A 
ATOM      9  C   UNL     1      11.258 -15.032  -8.309  1.00  0.00     0.094 A 
ATOM     10  C   UNL     1      10.460 -15.079  -7.163  1.00  0.00     0.146 A 
ATOM     11  O   UNL     1      10.447 -14.025  -6.356  1.00  0.00    -0.452 OA
ENDROOT
BRANCH   1  12
ATOM     12  C   UNL     1       9.792 -12.727  -4.433  1.00  0.00     0.025 A 
ATOM     13  C   UNL     1      10.660 -12.647  -3.331  1.00  0.00     0.016 A 
ATOM     14  C   UNL     1      10.738 -11.474  -2.576  1.00  0.00     0.051 A 
ATOM     15  C   UNL     1       9.961 -10.361  -2.919  1.00  0.00     0.157 A 
ATOM     16  C   UNL     1       9.029 -11.600  -4.785  1.00  0.00     0.062 A 
ATOM     17  C   UNL     1       9.108 -10.422  -4.028  1.00  0.00     0.158 A 
BRANCH  15  18
ATOM     18  O   UNL     1      10.034  -9.189  -2.167  1.00  0.00    -0.504 OA
ATOM     19  H   UNL     1       9.790  -9.175  -1.184  1.00  0.00     0.293 HD
ENDBRANCH  15  18
BRANCH  17  20
ATOM     20  O   UNL     1       8.347  -9.307  -4.376  1.00  0.00    -0.504 OA
ATOM     21  H   UNL     1       8.188  -8.548  -3.723  1.00  0.00     0.293 HD
ENDBRANCH  17  20
ENDBRANCH   1  12
BRANCH   2  22
ATOM     22  O   UNL     1       8.331 -15.085  -3.594  1.00  0.00    -0.502 OA
ATOM     23  H   UNL     1       7.344 -15.294  -3.513  1.00  0.00     0.293 HD
ENDBRANCH   2  22
BRANCH   6  24
ATOM     24  O   UNL     1       8.899 -18.454  -7.681  1.00  0.00    -0.507 OA
ATOM     25  H   UNL     1       8.797 -19.161  -8.394  1.00  0.00     0.293 HD
ENDBRANCH   6  24
BRANCH   8  26
ATOM     26  O   UNL     1      12.120 -16.087 -10.312  1.00  0.00    -0.508 OA
ATOM     27  H   UNL     1      13.047 -16.497 -10.313  1.00  0.00     0.293 HD
ENDBRANCH   8  26
TORSDOF 6
ENDMDL
