MODEL 1
REMARK VINA RESULT:    -4.633      0.000      0.000
REMARK INTER + INTRA:          -5.843
REMARK INTER:                  -5.716
REMARK INTRA:                  -0.127
REMARK UNBOUND:                -0.127
REMARK SMILES CCCCCC(=O)[O-]
REMARK SMILES IDX 4 1 5 2 6 3 7 4 8 5 3 6 2 7 1 8
REMARK H PARENT
REMARK Flexibility Score: inf
ROOT
ATOM      1  C   UNL     1      15.951  20.444  71.052  1.00  0.00     0.006 C 
ENDROOT
BRANCH   1   2
ATOM      2  C   UNL     1      15.519  19.155  71.770  1.00  0.00     0.053 C 
BRANCH   2   3
ATOM      3  C   UNL     1      16.320  17.970  71.325  1.00  0.00     0.041 C 
ATOM      4  O   UNL     1      16.342  16.922  72.023  1.00  0.00    -0.550 OA
ATOM      5  O   UNL     1      17.068  18.035  70.157  1.00  0.00    -0.550 OA
ENDBRANCH   2   3
ENDBRANCH   1   2
BRANCH   1   6
ATOM      6  C   UNL     1      15.972  21.693  71.951  1.00  0.00     0.000 C 
BRANCH   6   7
ATOM      7  C   UNL     1      17.282  22.487  71.833  1.00  0.00    -0.003 C 
ATOM      8  C   UNL     1      18.258  21.795  70.884  1.00  0.00     0.004 C 
ENDBRANCH   6   7
ENDBRANCH   1   6
TORSDOF 4
ENDMDL
MODEL 2
REMARK VINA RESULT:    -4.241      1.441      2.220
REMARK INTER + INTRA:          -5.360
REMARK INTER:                  -5.295
REMARK INTRA:                  -0.066
REMARK UNBOUND:                -0.127
REMARK SMILES CCCCCC(=O)[O-]
REMARK SMILES IDX 4 1 5 2 6 3 7 4 8 5 3 6 2 7 1 8
REMARK H PARENT
REMARK Flexibility Score: inf
ROOT
ATOM      1  C   UNL     1      17.562  21.593  71.037  1.00  0.00     0.006 C 
ENDROOT
BRANCH   1   2
ATOM      2  C   UNL     1      16.585  20.419  71.208  1.00  0.00     0.053 C 
BRANCH   2   3
ATOM      3  C   UNL     1      16.986  19.233  70.387  1.00  0.00     0.041 C 
ATOM      4  O   UNL     1      17.387  19.387  69.203  1.00  0.00    -0.550 OA
ATOM      5  O   UNL     1      16.883  17.953  70.918  1.00  0.00    -0.550 OA
ENDBRANCH   2   3
ENDBRANCH   1   2
BRANCH   1   6
ATOM      6  C   UNL     1      17.448  22.677  72.124  1.00  0.00     0.000 C 
BRANCH   6   7
ATOM      7  C   UNL     1      16.984  24.031  71.566  1.00  0.00    -0.003 C 
ATOM      8  C   UNL     1      18.023  24.615  70.613  1.00  0.00     0.004 C 
ENDBRANCH   6   7
ENDBRANCH   1   6
TORSDOF 4
ENDMDL
MODEL 3
REMARK VINA RESULT:    -4.188     18.519     19.154
REMARK INTER + INTRA:          -5.295
REMARK INTER:                  -5.246
REMARK INTRA:                  -0.048
REMARK UNBOUND:                -0.127
REMARK SMILES CCCCCC(=O)[O-]
REMARK SMILES IDX 4 1 5 2 6 3 7 4 8 5 3 6 2 7 1 8
REMARK H PARENT
REMARK Flexibility Score: inf
ROOT
ATOM      1  C   UNL     1      10.871  29.554  55.818  1.00  0.00     0.006 C 
ENDROOT
BRANCH   1   2
ATOM      2  C   UNL     1      10.883  28.240  55.020  1.00  0.00     0.053 C 
BRANCH   2   3
ATOM      3  C   UNL     1      11.375  28.438  53.620  1.00  0.00     0.041 C 
ATOM      4  O   UNL     1      11.999  27.517  53.031  1.00  0.00    -0.550 OA
ATOM      5  O   UNL     1      11.174  29.653  52.978  1.00  0.00    -0.550 OA
ENDBRANCH   2   3
ENDBRANCH   1   2
BRANCH   1   6
ATOM      6  C   UNL     1      10.990  29.372  57.341  1.00  0.00     0.000 C 
BRANCH   6   7
ATOM      7  C   UNL     1      12.189  30.124  57.937  1.00  0.00    -0.003 C 
ATOM      8  C   UNL     1      12.341  29.822  59.426  1.00  0.00     0.004 C 
ENDBRANCH   6   7
ENDBRANCH   1   6
TORSDOF 4
ENDMDL
MODEL 4
REMARK VINA RESULT:    -4.007     11.783     12.480
REMARK INTER + INTRA:          -5.072
REMARK INTER:                  -4.985
REMARK INTRA:                  -0.087
REMARK UNBOUND:                -0.127
REMARK SMILES CCCCCC(=O)[O-]
REMARK SMILES IDX 4 1 5 2 6 3 7 4 8 5 3 6 2 7 1 8
REMARK H PARENT
REMARK Flexibility Score: inf
ROOT
ATOM      1  C   UNL     1      18.128  17.051  59.469  1.00  0.00     0.006 C 
ENDROOT
BRANCH   1   2
ATOM      2  C   UNL     1      16.634  16.693  59.444  1.00  0.00     0.053 C 
BRANCH   2   3
ATOM      3  C   UNL     1      16.326  15.641  58.423  1.00  0.00     0.041 C 
ATOM      4  O   UNL     1      15.474  14.747  58.671  1.00  0.00    -0.550 OA
ATOM      5  O   UNL     1      17.006  15.628  57.212  1.00  0.00    -0.550 OA
ENDBRANCH   2   3
ENDBRANCH   1   2
BRANCH   1   6
ATOM      6  C   UNL     1      18.936  16.321  60.558  1.00  0.00     0.000 C 
BRANCH   6   7
ATOM      7  C   UNL     1      20.069  17.184  61.133  1.00  0.00    -0.003 C 
ATOM      8  C   UNL     1      19.829  17.490  62.609  1.00  0.00     0.004 C 
ENDBRANCH   6   7
ENDBRANCH   1   6
TORSDOF 4
ENDMDL
MODEL 5
REMARK VINA RESULT:    -3.992      9.272     10.022
REMARK INTER + INTRA:          -5.053
REMARK INTER:                  -4.939
REMARK INTRA:                  -0.115
REMARK UNBOUND:                -0.127
REMARK SMILES CCCCCC(=O)[O-]
REMARK SMILES IDX 4 1 5 2 6 3 7 4 8 5 3 6 2 7 1 8
REMARK H PARENT
REMARK Flexibility Score: inf
ROOT
ATOM      1  C   UNL     1      13.775  14.024  64.929  1.00  0.00     0.006 C 
ENDROOT
BRANCH   1   2
ATOM      2  C   UNL     1      13.661  13.160  63.663  1.00  0.00     0.053 C 
BRANCH   2   3
ATOM      3  C   UNL     1      14.261  11.801  63.856  1.00  0.00     0.041 C 
ATOM      4  O   UNL     1      13.649  10.928  64.527  1.00  0.00    -0.550 OA
ATOM      5  O   UNL     1      15.510  11.510  63.323  1.00  0.00    -0.550 OA
ENDBRANCH   2   3
ENDBRANCH   1   2
BRANCH   1   6
ATOM      6  C   UNL     1      13.850  15.537  64.659  1.00  0.00     0.000 C 
BRANCH   6   7
ATOM      7  C   UNL     1      13.968  15.867  63.163  1.00  0.00    -0.003 C 
ATOM      8  C   UNL     1      15.278  16.591  62.864  1.00  0.00     0.004 C 
ENDBRANCH   6   7
ENDBRANCH   1   6
TORSDOF 4
ENDMDL
MODEL 6
REMARK VINA RESULT:    -3.962     12.082     12.898
REMARK INTER + INTRA:          -5.016
REMARK INTER:                  -4.875
REMARK INTRA:                  -0.141
REMARK UNBOUND:                -0.127
REMARK SMILES CCCCCC(=O)[O-]
REMARK SMILES IDX 4 1 5 2 6 3 7 4 8 5 3 6 2 7 1 8
REMARK H PARENT
REMARK Flexibility Score: inf
ROOT
ATOM      1  C   UNL     1      17.342  16.067  60.017  1.00  0.00     0.006 C 
ENDROOT
BRANCH   1   2
ATOM      2  C   UNL     1      17.316  14.946  58.965  1.00  0.00     0.053 C 
BRANCH   2   3
ATOM      3  C   UNL     1      18.339  15.160  57.893  1.00  0.00     0.041 C 
ATOM      4  O   UNL     1      18.503  16.304  57.392  1.00  0.00    -0.550 OA
ATOM      5  O   UNL     1      19.089  14.089  57.423  1.00  0.00    -0.550 OA
ENDBRANCH   2   3
ENDBRANCH   1   2
BRANCH   1   6
ATOM      6  C   UNL     1      18.452  15.919  61.073  1.00  0.00     0.000 C 
BRANCH   6   7
ATOM      7  C   UNL     1      19.539  16.996  60.945  1.00  0.00    -0.003 C 
ATOM      8  C   UNL     1      20.201  17.269  62.293  1.00  0.00     0.004 C 
ENDBRANCH   6   7
ENDBRANCH   1   6
TORSDOF 4
ENDMDL
MODEL 7
REMARK VINA RESULT:    -3.949     11.855     12.622
REMARK INTER + INTRA:          -5.000
REMARK INTER:                  -4.921
REMARK INTRA:                  -0.079
REMARK UNBOUND:                -0.127
REMARK SMILES CCCCCC(=O)[O-]
REMARK SMILES IDX 4 1 5 2 6 3 7 4 8 5 3 6 2 7 1 8
REMARK H PARENT
REMARK Flexibility Score: inf
ROOT
ATOM      1  C   UNL     1      17.713  16.320  60.485  1.00  0.00     0.006 C 
ENDROOT
BRANCH   1   2
ATOM      2  C   UNL     1      17.674  15.099  59.552  1.00  0.00     0.053 C 
BRANCH   2   3
ATOM      3  C   UNL     1      17.251  15.469  58.163  1.00  0.00     0.041 C 
ATOM      4  O   UNL     1      18.115  15.729  57.285  1.00  0.00    -0.550 OA
ATOM      5  O   UNL     1      15.901  15.558  57.849  1.00  0.00    -0.550 OA
ENDBRANCH   2   3
ENDBRANCH   1   2
BRANCH   1   6
ATOM      6  C   UNL     1      18.847  17.315  60.179  1.00  0.00     0.000 C 
BRANCH   6   7
ATOM      7  C   UNL     1      20.092  17.080  61.047  1.00  0.00    -0.003 C 
ATOM      8  C   UNL     1      19.815  17.423  62.508  1.00  0.00     0.004 C 
ENDBRANCH   6   7
ENDBRANCH   1   6
TORSDOF 4
ENDMDL
MODEL 8
REMARK VINA RESULT:    -3.787      9.744     10.538
REMARK INTER + INTRA:          -4.800
REMARK INTER:                  -4.661
REMARK INTRA:                  -0.139
REMARK UNBOUND:                -0.127
REMARK SMILES CCCCCC(=O)[O-]
REMARK SMILES IDX 4 1 5 2 6 3 7 4 8 5 3 6 2 7 1 8
REMARK H PARENT
REMARK Flexibility Score: inf
ROOT
ATOM      1  C   UNL     1      17.860  15.909  61.059  1.00  0.00     0.006 C 
ENDROOT
BRANCH   1   2
ATOM      2  C   UNL     1      16.370  16.278  60.972  1.00  0.00     0.053 C 
BRANCH   2   3
ATOM      3  C   UNL     1      15.770  16.509  62.325  1.00  0.00     0.041 C 
ATOM      4  O   UNL     1      15.667  17.679  62.781  1.00  0.00    -0.550 OA
ATOM      5  O   UNL     1      15.355  15.431  63.095  1.00  0.00    -0.550 OA
ENDBRANCH   2   3
ENDBRANCH   1   2
BRANCH   1   6
ATOM      6  C   UNL     1      18.795  16.864  60.296  1.00  0.00     0.000 C 
BRANCH   6   7
ATOM      7  C   UNL     1      20.077  17.189  61.078  1.00  0.00    -0.003 C 
ATOM      8  C   UNL     1      19.769  17.456  62.549  1.00  0.00     0.004 C 
ENDBRANCH   6   7
ENDBRANCH   1   6
TORSDOF 4
ENDMDL
MODEL 9
REMARK VINA RESULT:    -3.635     11.200     12.216
REMARK INTER + INTRA:          -4.613
REMARK INTER:                  -4.420
REMARK INTRA:                  -0.193
REMARK UNBOUND:                -0.127
REMARK SMILES CCCCCC(=O)[O-]
REMARK SMILES IDX 4 1 5 2 6 3 7 4 8 5 3 6 2 7 1 8
REMARK H PARENT
REMARK Flexibility Score: inf
ROOT
ATOM      1  C   UNL     1      17.755  17.072  59.280  1.00  0.00     0.006 C 
ENDROOT
BRANCH   1   2
ATOM      2  C   UNL     1      19.071  17.045  60.073  1.00  0.00     0.053 C 
BRANCH   2   3
ATOM      3  C   UNL     1      18.841  16.800  61.533  1.00  0.00     0.041 C 
ATOM      4  O   UNL     1      18.497  15.658  61.937  1.00  0.00    -0.550 OA
ATOM      5  O   UNL     1      18.974  17.841  62.442  1.00  0.00    -0.550 OA
ENDBRANCH   2   3
ENDBRANCH   1   2
BRANCH   1   6
ATOM      6  C   UNL     1      17.466  15.784  58.487  1.00  0.00     0.000 C 
BRANCH   6   7
ATOM      7  C   UNL     1      16.003  15.333  58.600  1.00  0.00    -0.003 C 
ATOM      8  C   UNL     1      15.301  16.036  59.759  1.00  0.00     0.004 C 
ENDBRANCH   6   7
ENDBRANCH   1   6
TORSDOF 4
ENDMDL
