MODEL 1
REMARK VINA RESULT:    -5.616      0.000      0.000
REMARK INTER + INTRA:          -6.533
REMARK INTER:                  -6.437
REMARK INTRA:                  -0.095
REMARK UNBOUND:                -0.095
REMARK SMILES COc1cc(C(=O)[O-])ccc1O
REMARK SMILES IDX 5 1 9 2 4 3 10 4 3 5 11 6 6 7 7 8 8 9 2 10 1 11 12 12
REMARK H PARENT 12 13
REMARK Flexibility Score: inf
ROOT
ATOM      1  C   UNL     1     120.193 119.152 100.415  1.00  0.00     0.001 A 
ATOM      2  C   UNL     1     119.763 119.104 101.750  1.00  0.00     0.014 A 
ATOM      3  C   UNL     1     119.486 118.421  99.442  1.00  0.00     0.060 A 
ATOM      4  C   UNL     1     118.649 118.343 102.107  1.00  0.00     0.051 A 
ATOM      5  C   UNL     1     118.360 117.651  99.797  1.00  0.00     0.161 A 
ATOM      6  C   UNL     1     117.947 117.618 101.141  1.00  0.00     0.157 A 
ENDROOT
BRANCH   1   7
ATOM      7  C   UNL     1     121.375 119.960 100.041  1.00  0.00     0.072 C 
ATOM      8  O   UNL     1     122.038 119.689  99.004  1.00  0.00    -0.545 OA
ATOM      9  O   UNL     1     121.772 121.034 100.831  1.00  0.00    -0.545 OA
ENDBRANCH   1   7
BRANCH   5  10
ATOM     10  O   UNL     1     117.635 116.912  98.848  1.00  0.00    -0.493 OA
ATOM     11  C   UNL     1     116.940 117.478  97.740  1.00  0.00     0.278 C 
ENDBRANCH   5  10
BRANCH   6  12
ATOM     12  O   UNL     1     116.838 116.868 101.535  1.00  0.00    -0.504 OA
ATOM     13  H   UNL     1     116.013 116.778 100.956  1.00  0.00     0.293 HD
ENDBRANCH   6  12
TORSDOF 3
ENDMDL
MODEL 2
REMARK VINA RESULT:    -5.591      1.635      4.304
REMARK INTER + INTRA:          -6.504
REMARK INTER:                  -6.424
REMARK INTRA:                  -0.079
REMARK UNBOUND:                -0.095
REMARK SMILES COc1cc(C(=O)[O-])ccc1O
REMARK SMILES IDX 5 1 9 2 4 3 10 4 3 5 11 6 6 7 7 8 8 9 2 10 1 11 12 12
REMARK H PARENT 12 13
REMARK Flexibility Score: inf
ROOT
ATOM      1  C   UNL     1     117.456 117.289  99.207  1.00  0.00     0.001 A 
ATOM      2  C   UNL     1     116.877 116.881 100.418  1.00  0.00     0.014 A 
ATOM      3  C   UNL     1     118.627 118.068  99.236  1.00  0.00     0.060 A 
ATOM      4  C   UNL     1     117.457 117.242 101.636  1.00  0.00     0.051 A 
ATOM      5  C   UNL     1     119.217 118.436 100.463  1.00  0.00     0.161 A 
ATOM      6  C   UNL     1     118.620 118.016 101.665  1.00  0.00     0.157 A 
ENDROOT
BRANCH   1   7
ATOM      7  C   UNL     1     116.838 116.903  97.919  1.00  0.00     0.072 C 
ATOM      8  O   UNL     1     117.054 117.576  96.875  1.00  0.00    -0.545 OA
ATOM      9  O   UNL     1     116.008 115.790  97.841  1.00  0.00    -0.545 OA
ENDBRANCH   1   7
BRANCH   5  10
ATOM     10  O   UNL     1     120.386 119.212 100.523  1.00  0.00    -0.493 OA
ATOM     11  C   UNL     1     121.242 119.474  99.415  1.00  0.00     0.278 C 
ENDBRANCH   5  10
BRANCH   6  12
ATOM     12  O   UNL     1     119.170 118.358 102.901  1.00  0.00    -0.504 OA
ATOM     13  H   UNL     1     118.604 118.464 103.733  1.00  0.00     0.293 HD
ENDBRANCH   6  12
TORSDOF 3
ENDMDL
MODEL 3
REMARK VINA RESULT:    -5.025      1.156      2.641
REMARK INTER + INTRA:          -5.854
REMARK INTER:                  -5.763
REMARK INTRA:                  -0.092
REMARK UNBOUND:                -0.095
REMARK SMILES COc1cc(C(=O)[O-])ccc1O
REMARK SMILES IDX 5 1 9 2 4 3 10 4 3 5 11 6 6 7 7 8 8 9 2 10 1 11 12 12
REMARK H PARENT 12 13
REMARK Flexibility Score: inf
ROOT
ATOM      1  C   UNL     1     120.197 119.625 100.387  1.00  0.00     0.001 A 
ATOM      2  C   UNL     1     119.951 118.646  99.412  1.00  0.00     0.014 A 
ATOM      3  C   UNL     1     119.298 119.763 101.461  1.00  0.00     0.060 A 
ATOM      4  C   UNL     1     118.829 117.821  99.506  1.00  0.00     0.051 A 
ATOM      5  C   UNL     1     118.163 118.931 101.561  1.00  0.00     0.161 A 
ATOM      6  C   UNL     1     117.936 117.958 100.572  1.00  0.00     0.157 A 
ENDROOT
BRANCH   1   7
ATOM      7  C   UNL     1     121.388 120.498 100.283  1.00  0.00     0.072 C 
ATOM      8  O   UNL     1     122.069 120.532  99.223  1.00  0.00    -0.545 OA
ATOM      9  O   UNL     1     121.773 121.296 101.355  1.00  0.00    -0.545 OA
ENDBRANCH   1   7
BRANCH   5  10
ATOM     10  O   UNL     1     117.249 119.046 102.621  1.00  0.00    -0.493 OA
ATOM     11  C   UNL     1     117.350 118.344 103.856  1.00  0.00     0.278 C 
ENDBRANCH   5  10
BRANCH   6  12
ATOM     12  O   UNL     1     116.826 117.115 100.632  1.00  0.00    -0.504 OA
ATOM     13  H   UNL     1     116.514 116.575  99.835  1.00  0.00     0.293 HD
ENDBRANCH   6  12
TORSDOF 3
ENDMDL
MODEL 4
REMARK VINA RESULT:    -4.972     13.009     15.138
REMARK INTER + INTRA:          -5.794
REMARK INTER:                  -5.718
REMARK INTRA:                  -0.076
REMARK UNBOUND:                -0.095
REMARK SMILES COc1cc(C(=O)[O-])ccc1O
REMARK SMILES IDX 5 1 9 2 4 3 10 4 3 5 11 6 6 7 7 8 8 9 2 10 1 11 12 12
REMARK H PARENT 12 13
REMARK Flexibility Score: inf
ROOT
ATOM      1  C   UNL     1     113.974 104.128 100.823  1.00  0.00     0.001 A 
ATOM      2  C   UNL     1     114.101 103.352  99.661  1.00  0.00     0.014 A 
ATOM      3  C   UNL     1     113.661 105.495 100.703  1.00  0.00     0.060 A 
ATOM      4  C   UNL     1     113.920 103.929  98.402  1.00  0.00     0.051 A 
ATOM      5  C   UNL     1     113.477 106.083  99.434  1.00  0.00     0.161 A 
ATOM      6  C   UNL     1     113.610 105.286  98.283  1.00  0.00     0.157 A 
ENDROOT
BRANCH   1   7
ATOM      7  C   UNL     1     114.167 103.512 102.155  1.00  0.00     0.072 C 
ATOM      8  O   UNL     1     113.583 102.436 102.456  1.00  0.00    -0.545 OA
ATOM      9  O   UNL     1     114.997 104.112 103.096  1.00  0.00    -0.545 OA
ENDBRANCH   1   7
BRANCH   5  10
ATOM     10  O   UNL     1     113.165 107.443  99.283  1.00  0.00    -0.493 OA
ATOM     11  C   UNL     1     112.793 108.311 100.350  1.00  0.00     0.278 C 
ENDBRANCH   5  10
BRANCH   6  12
ATOM     12  O   UNL     1     113.436 105.827  97.009  1.00  0.00    -0.504 OA
ATOM     13  H   UNL     1     112.584 105.695  96.478  1.00  0.00     0.293 HD
ENDBRANCH   6  12
TORSDOF 3
ENDMDL
MODEL 5
REMARK VINA RESULT:    -4.943     12.551     15.376
REMARK INTER + INTRA:          -5.761
REMARK INTER:                  -5.684
REMARK INTRA:                  -0.077
REMARK UNBOUND:                -0.095
REMARK SMILES COc1cc(C(=O)[O-])ccc1O
REMARK SMILES IDX 5 1 9 2 4 3 10 4 3 5 11 6 6 7 7 8 8 9 2 10 1 11 12 12
REMARK H PARENT 12 13
REMARK Flexibility Score: inf
ROOT
ATOM      1  C   UNL     1     104.308 114.197 100.735  1.00  0.00     0.001 A 
ATOM      2  C   UNL     1     103.651 114.455  99.522  1.00  0.00     0.014 A 
ATOM      3  C   UNL     1     105.647 113.767 100.710  1.00  0.00     0.060 A 
ATOM      4  C   UNL     1     104.318 114.286  98.307  1.00  0.00     0.051 A 
ATOM      5  C   UNL     1     106.326 113.595  99.486  1.00  0.00     0.161 A 
ATOM      6  C   UNL     1     105.647 113.858  98.283  1.00  0.00     0.157 A 
ENDROOT
BRANCH   1   7
ATOM      7  C   UNL     1     103.597 114.378 102.020  1.00  0.00     0.072 C 
ATOM      8  O   UNL     1     102.866 115.386 102.214  1.00  0.00    -0.545 OA
ATOM      9  O   UNL     1     103.724 113.435 103.035  1.00  0.00    -0.545 OA
ENDBRANCH   1   7
BRANCH   5  10
ATOM     10  O   UNL     1     107.662 113.166  99.430  1.00  0.00    -0.493 OA
ATOM     11  C   UNL     1     108.561 113.174 100.535  1.00  0.00     0.278 C 
ENDBRANCH   5  10
BRANCH   6  12
ATOM     12  O   UNL     1     106.281 113.701  97.049  1.00  0.00    -0.504 OA
ATOM     13  H   UNL     1     106.822 114.442  96.622  1.00  0.00     0.293 HD
ENDBRANCH   6  12
TORSDOF 3
ENDMDL
MODEL 6
REMARK VINA RESULT:    -4.927      2.401      3.787
REMARK INTER + INTRA:          -5.742
REMARK INTER:                  -5.666
REMARK INTRA:                  -0.076
REMARK UNBOUND:                -0.095
REMARK SMILES COc1cc(C(=O)[O-])ccc1O
REMARK SMILES IDX 5 1 9 2 4 3 10 4 3 5 11 6 6 7 7 8 8 9 2 10 1 11 12 12
REMARK H PARENT 12 13
REMARK Flexibility Score: inf
ROOT
ATOM      1  C   UNL     1     117.841 117.735 100.843  1.00  0.00     0.001 A 
ATOM      2  C   UNL     1     118.451 118.316  99.720  1.00  0.00     0.014 A 
ATOM      3  C   UNL     1     116.849 116.755 100.652  1.00  0.00     0.060 A 
ATOM      4  C   UNL     1     118.078 117.928  98.432  1.00  0.00     0.051 A 
ATOM      5  C   UNL     1     116.469 116.359  99.353  1.00  0.00     0.161 A 
ATOM      6  C   UNL     1     117.093 116.956  98.243  1.00  0.00     0.157 A 
ENDROOT
BRANCH   1   7
ATOM      7  C   UNL     1     118.240 118.150 102.206  1.00  0.00     0.072 C 
ATOM      8  O   UNL     1     119.456 118.193 102.535  1.00  0.00    -0.545 OA
ATOM      9  O   UNL     1     117.276 118.501 103.146  1.00  0.00    -0.545 OA
ENDBRANCH   1   7
BRANCH   5  10
ATOM     10  O   UNL     1     115.483 115.384  99.132  1.00  0.00    -0.493 OA
ATOM     11  C   UNL     1     114.835 114.640 100.160  1.00  0.00     0.278 C 
ENDBRANCH   5  10
BRANCH   6  12
ATOM     12  O   UNL     1     116.747 116.593  96.941  1.00  0.00    -0.504 OA
ATOM     13  H   UNL     1     117.319 116.837  96.142  1.00  0.00     0.293 HD
ENDBRANCH   6  12
TORSDOF 3
ENDMDL
MODEL 7
REMARK VINA RESULT:    -4.890      1.825      4.930
REMARK INTER + INTRA:          -5.700
REMARK INTER:                  -5.613
REMARK INTRA:                  -0.087
REMARK UNBOUND:                -0.095
REMARK SMILES COc1cc(C(=O)[O-])ccc1O
REMARK SMILES IDX 5 1 9 2 4 3 10 4 3 5 11 6 6 7 7 8 8 9 2 10 1 11 12 12
REMARK H PARENT 12 13
REMARK Flexibility Score: inf
ROOT
ATOM      1  C   UNL     1     117.179 117.134  99.492  1.00  0.00     0.001 A 
ATOM      2  C   UNL     1     117.988 117.925  98.662  1.00  0.00     0.014 A 
ATOM      3  C   UNL     1     117.297 117.264 100.888  1.00  0.00     0.060 A 
ATOM      4  C   UNL     1     118.897 118.829  99.215  1.00  0.00     0.051 A 
ATOM      5  C   UNL     1     118.214 118.176 101.452  1.00  0.00     0.161 A 
ATOM      6  C   UNL     1     119.014 118.958 100.601  1.00  0.00     0.157 A 
ENDROOT
BRANCH   1   7
ATOM      7  C   UNL     1     116.217 116.177  98.902  1.00  0.00     0.072 C 
ATOM      8  O   UNL     1     116.080 116.093  97.652  1.00  0.00    -0.545 OA
ATOM      9  O   UNL     1     115.449 115.355  99.719  1.00  0.00    -0.545 OA
ENDBRANCH   1   7
BRANCH   5  10
ATOM     10  O   UNL     1     118.353 118.327 102.841  1.00  0.00    -0.493 OA
ATOM     11  C   UNL     1     117.267 118.396 103.761  1.00  0.00     0.278 C 
ENDBRANCH   5  10
BRANCH   6  12
ATOM     12  O   UNL     1     119.934 119.872 101.117  1.00  0.00    -0.504 OA
ATOM     13  H   UNL     1     120.792 120.107 100.632  1.00  0.00     0.293 HD
ENDBRANCH   6  12
TORSDOF 3
ENDMDL
MODEL 8
REMARK VINA RESULT:    -4.675     12.719     14.754
REMARK INTER + INTRA:          -5.453
REMARK INTER:                  -5.350
REMARK INTRA:                  -0.103
REMARK UNBOUND:                -0.095
REMARK SMILES COc1cc(C(=O)[O-])ccc1O
REMARK SMILES IDX 5 1 9 2 4 3 10 4 3 5 11 6 6 7 7 8 8 9 2 10 1 11 12 12
REMARK H PARENT 12 13
REMARK Flexibility Score: inf
ROOT
ATOM      1  C   UNL     1     113.508 106.280  99.225  1.00  0.00     0.001 A 
ATOM      2  C   UNL     1     113.759 105.488  98.094  1.00  0.00     0.014 A 
ATOM      3  C   UNL     1     113.537 105.683 100.499  1.00  0.00     0.060 A 
ATOM      4  C   UNL     1     114.032 104.126  98.231  1.00  0.00     0.051 A 
ATOM      5  C   UNL     1     113.813 104.307 100.643  1.00  0.00     0.161 A 
ATOM      6  C   UNL     1     114.060 103.533  99.496  1.00  0.00     0.157 A 
ENDROOT
BRANCH   1   7
ATOM      7  C   UNL     1     113.219 107.724  99.074  1.00  0.00     0.072 C 
ATOM      8  O   UNL     1     112.923 108.428 100.077  1.00  0.00    -0.545 OA
ATOM      9  O   UNL     1     113.269 108.326  97.821  1.00  0.00    -0.545 OA
ENDBRANCH   1   7
BRANCH   5  10
ATOM     10  O   UNL     1     113.849 103.684 101.901  1.00  0.00    -0.493 OA
ATOM     11  C   UNL     1     114.920 103.802 102.832  1.00  0.00     0.278 C 
ENDBRANCH   5  10
BRANCH   6  12
ATOM     12  O   UNL     1     114.337 102.169  99.593  1.00  0.00    -0.504 OA
ATOM     13  H   UNL     1     115.200 101.767  99.249  1.00  0.00     0.293 HD
ENDBRANCH   6  12
TORSDOF 3
ENDMDL
MODEL 9
REMARK VINA RESULT:    -4.661     12.869     15.101
REMARK INTER + INTRA:          -5.437
REMARK INTER:                  -5.333
REMARK INTRA:                  -0.104
REMARK UNBOUND:                -0.095
REMARK SMILES COc1cc(C(=O)[O-])ccc1O
REMARK SMILES IDX 5 1 9 2 4 3 10 4 3 5 11 6 6 7 7 8 8 9 2 10 1 11 12 12
REMARK H PARENT 12 13
REMARK Flexibility Score: inf
ROOT
ATOM      1  C   UNL     1     106.254 113.542  99.135  1.00  0.00     0.001 A 
ATOM      2  C   UNL     1     105.392 113.658  98.034  1.00  0.00     0.014 A 
ATOM      3  C   UNL     1     105.766 113.838 100.421  1.00  0.00     0.060 A 
ATOM      4  C   UNL     1     104.068 114.061  98.213  1.00  0.00     0.051 A 
ATOM      5  C   UNL     1     104.429 114.247 100.607  1.00  0.00     0.161 A 
ATOM      6  C   UNL     1     103.583 114.356  99.489  1.00  0.00     0.157 A 
ENDROOT
BRANCH   1   7
ATOM      7  C   UNL     1     107.658 113.114  98.940  1.00  0.00     0.072 C 
ATOM      8  O   UNL     1     108.429 112.973  99.927  1.00  0.00    -0.545 OA
ATOM      9  O   UNL     1     108.146 112.859  97.663  1.00  0.00    -0.545 OA
ENDBRANCH   1   7
BRANCH   5  10
ATOM     10  O   UNL     1     103.914 114.549 101.878  1.00  0.00    -0.493 OA
ATOM     11  C   UNL     1     103.439 113.581 102.810  1.00  0.00     0.278 C 
ENDBRANCH   5  10
BRANCH   6  12
ATOM     12  O   UNL     1     102.254 114.756  99.629  1.00  0.00    -0.504 OA
ATOM     13  H   UNL     1     101.689 115.040  98.838  1.00  0.00     0.293 HD
ENDBRANCH   6  12
TORSDOF 3
ENDMDL
