MODEL 1
REMARK VINA RESULT:    -4.680      0.000      0.000
REMARK INTER + INTRA:         -14.204
REMARK INTER:                 -10.700
REMARK INTRA:                  -3.504
REMARK UNBOUND:                -3.504
REMARK SMILES CCCCCCCCCCCCCCCCCCCCCCCC(=O)[O-]
REMARK SMILES IDX 13 1 14 2 15 3 16 4 17 5 18 6 19 7 20 8 21 9 22 10 23 11
REMARK SMILES IDX 24 12 25 13 26 14 12 15 11 16 10 17 9 18 8 19 7 20 6 21 5 22
REMARK SMILES IDX 4 23 3 24 2 25 1 26
REMARK H PARENT
REMARK Flexibility Score: inf
ROOT
ATOM      1  C   UNL     1      14.847  51.879 159.424  1.00  0.00     0.000 C 
ENDROOT
BRANCH   1   2
ATOM      2  C   UNL     1      16.023  51.361 158.582  1.00  0.00     0.000 C 
BRANCH   2   3
ATOM      3  C   UNL     1      17.312  52.127 158.909  1.00  0.00     0.000 C 
BRANCH   3   4
ATOM      4  C   UNL     1      17.127  53.159 160.038  1.00  0.00     0.000 C 
BRANCH   4   5
ATOM      5  C   UNL     1      18.410  53.899 160.463  1.00  0.00     0.000 C 
BRANCH   5   6
ATOM      6  C   UNL     1      19.626  53.684 159.541  1.00  0.00     0.000 C 
BRANCH   6   7
ATOM      7  C   UNL     1      20.983  53.719 160.277  1.00  0.00     0.000 C 
BRANCH   7   8
ATOM      8  C   UNL     1      20.929  54.535 161.577  1.00  0.00     0.000 C 
BRANCH   8   9
ATOM      9  C   UNL     1      22.057  55.577 161.617  1.00  0.00     0.000 C 
BRANCH   9  10
ATOM     10  C   UNL     1      23.351  55.074 160.959  1.00  0.00     0.006 C 
BRANCH  10  11
ATOM     11  C   UNL     1      24.568  55.187 161.888  1.00  0.00     0.053 C 
BRANCH  11  12
ATOM     12  C   UNL     1      24.997  56.614 162.017  1.00  0.00     0.041 C 
ATOM     13  O   UNL     1      25.641  57.169 161.088  1.00  0.00    -0.550 OA
ATOM     14  O   UNL     1      24.650  57.345 163.146  1.00  0.00    -0.550 OA
ENDBRANCH  11  12
ENDBRANCH  10  11
ENDBRANCH   9  10
ENDBRANCH   8   9
ENDBRANCH   7   8
ENDBRANCH   6   7
ENDBRANCH   5   6
ENDBRANCH   4   5
ENDBRANCH   3   4
ENDBRANCH   2   3
ENDBRANCH   1   2
BRANCH   1  15
ATOM     15  C   UNL     1      13.803  52.642 158.589  1.00  0.00     0.000 C 
BRANCH  15  16
ATOM     16  C   UNL     1      14.214  52.926 157.131  1.00  0.00     0.000 C 
BRANCH  16  17
ATOM     17  C   UNL     1      13.668  54.241 156.540  1.00  0.00     0.000 C 
BRANCH  17  18
ATOM     18  C   UNL     1      14.719  55.349 156.349  1.00  0.00    -0.000 C 
BRANCH  18  19
ATOM     19  C   UNL     1      15.876  55.253 157.359  1.00  0.00    -0.000 C 
BRANCH  19  20
ATOM     20  C   UNL     1      16.767  56.505 157.354  1.00  0.00    -0.000 C 
BRANCH  20  21
ATOM     21  C   UNL     1      18.264  56.161 157.264  1.00  0.00    -0.000 C 
BRANCH  21  22
ATOM     22  C   UNL     1      19.165  57.366 157.577  1.00  0.00    -0.000 C 
BRANCH  22  23
ATOM     23  C   UNL     1      20.008  57.161 158.849  1.00  0.00    -0.000 C 
BRANCH  23  24
ATOM     24  C   UNL     1      19.462  57.972 160.044  1.00  0.00    -0.000 C 
BRANCH  24  25
ATOM     25  C   UNL     1      18.149  57.415 160.618  1.00  0.00    -0.003 C 
ATOM     26  C   UNL     1      18.167  57.287 162.140  1.00  0.00     0.004 C 
ENDBRANCH  24  25
ENDBRANCH  23  24
ENDBRANCH  22  23
ENDBRANCH  21  22
ENDBRANCH  20  21
ENDBRANCH  19  20
ENDBRANCH  18  19
ENDBRANCH  17  18
ENDBRANCH  16  17
ENDBRANCH  15  16
ENDBRANCH   1  15
TORSDOF 22
ENDMDL
MODEL 2
REMARK VINA RESULT:    -4.541      1.657      2.043
REMARK INTER + INTRA:         -13.886
REMARK INTER:                  -9.662
REMARK INTRA:                  -4.224
REMARK UNBOUND:                -3.504
REMARK SMILES CCCCCCCCCCCCCCCCCCCCCCCC(=O)[O-]
REMARK SMILES IDX 13 1 14 2 15 3 16 4 17 5 18 6 19 7 20 8 21 9 22 10 23 11
REMARK SMILES IDX 24 12 25 13 26 14 12 15 11 16 10 17 9 18 8 19 7 20 6 21 5 22
REMARK SMILES IDX 4 23 3 24 2 25 1 26
REMARK H PARENT
REMARK Flexibility Score: inf
ROOT
ATOM      1  C   UNL     1      15.964  51.680 158.104  1.00  0.00     0.000 C 
ENDROOT
BRANCH   1   2
ATOM      2  C   UNL     1      17.269  52.308 158.618  1.00  0.00     0.000 C 
BRANCH   2   3
ATOM      3  C   UNL     1      17.054  52.984 159.980  1.00  0.00     0.000 C 
BRANCH   3   4
ATOM      4  C   UNL     1      18.215  53.917 160.376  1.00  0.00     0.000 C 
BRANCH   4   5
ATOM      5  C   UNL     1      19.541  53.660 159.635  1.00  0.00     0.000 C 
BRANCH   5   6
ATOM      6  C   UNL     1      20.803  53.690 160.519  1.00  0.00     0.000 C 
BRANCH   6   7
ATOM      7  C   UNL     1      20.636  54.507 161.819  1.00  0.00     0.000 C 
BRANCH   7   8
ATOM      8  C   UNL     1      21.589  55.709 161.888  1.00  0.00     0.000 C 
BRANCH   8   9
ATOM      9  C   UNL     1      22.580  55.692 160.715  1.00  0.00     0.000 C 
BRANCH   9  10
ATOM     10  C   UNL     1      22.938  57.103 160.223  1.00  0.00     0.006 C 
BRANCH  10  11
ATOM     11  C   UNL     1      22.438  58.203 161.169  1.00  0.00     0.053 C 
BRANCH  11  12
ATOM     12  C   UNL     1      22.739  59.556 160.605  1.00  0.00     0.041 C 
ATOM     13  O   UNL     1      23.443  60.371 161.257  1.00  0.00    -0.550 OA
ATOM     14  O   UNL     1      22.277  59.902 159.342  1.00  0.00    -0.550 OA
ENDBRANCH  11  12
ENDBRANCH  10  11
ENDBRANCH   9  10
ENDBRANCH   8   9
ENDBRANCH   7   8
ENDBRANCH   6   7
ENDBRANCH   5   6
ENDBRANCH   4   5
ENDBRANCH   3   4
ENDBRANCH   2   3
ENDBRANCH   1   2
BRANCH   1  15
ATOM     15  C   UNL     1      14.724  52.157 158.881  1.00  0.00     0.000 C 
BRANCH  15  16
ATOM     16  C   UNL     1      13.749  53.040 158.077  1.00  0.00     0.000 C 
BRANCH  16  17
ATOM     17  C   UNL     1      14.184  53.348 156.630  1.00  0.00     0.000 C 
BRANCH  17  18
ATOM     18  C   UNL     1      14.426  54.838 156.331  1.00  0.00    -0.000 C 
BRANCH  18  19
ATOM     19  C   UNL     1      15.916  55.222 156.388  1.00  0.00    -0.000 C 
BRANCH  19  20
ATOM     20  C   UNL     1      16.323  55.797 157.753  1.00  0.00    -0.000 C 
BRANCH  20  21
ATOM     21  C   UNL     1      17.283  56.993 157.626  1.00  0.00    -0.000 C 
BRANCH  21  22
ATOM     22  C   UNL     1      18.759  56.565 157.600  1.00  0.00    -0.000 C 
BRANCH  22  23
ATOM     23  C   UNL     1      19.581  57.203 158.734  1.00  0.00    -0.000 C 
BRANCH  23  24
ATOM     24  C   UNL     1      18.989  58.553 159.193  1.00  0.00    -0.000 C 
BRANCH  24  25
ATOM     25  C   UNL     1      18.815  58.663 160.717  1.00  0.00    -0.003 C 
ATOM     26  C   UNL     1      18.218  57.404 161.343  1.00  0.00     0.004 C 
ENDBRANCH  24  25
ENDBRANCH  23  24
ENDBRANCH  22  23
ENDBRANCH  21  22
ENDBRANCH  20  21
ENDBRANCH  19  20
ENDBRANCH  18  19
ENDBRANCH  17  18
ENDBRANCH  16  17
ENDBRANCH  15  16
ENDBRANCH   1  15
TORSDOF 22
ENDMDL
MODEL 3
REMARK VINA RESULT:    -4.473      2.598      5.292
REMARK INTER + INTRA:         -13.730
REMARK INTER:                 -10.409
REMARK INTRA:                  -3.322
REMARK UNBOUND:                -3.504
REMARK SMILES CCCCCCCCCCCCCCCCCCCCCCCC(=O)[O-]
REMARK SMILES IDX 13 1 14 2 15 3 16 4 17 5 18 6 19 7 20 8 21 9 22 10 23 11
REMARK SMILES IDX 24 12 25 13 26 14 12 15 11 16 10 17 9 18 8 19 7 20 6 21 5 22
REMARK SMILES IDX 4 23 3 24 2 25 1 26
REMARK H PARENT
REMARK Flexibility Score: inf
ROOT
ATOM      1  C   UNL     1      15.034  52.785 157.414  1.00  0.00     0.000 C 
ENDROOT
BRANCH   1   2
ATOM      2  C   UNL     1      14.039  53.886 157.017  1.00  0.00     0.000 C 
BRANCH   2   3
ATOM      3  C   UNL     1      14.769  55.100 156.426  1.00  0.00     0.000 C 
BRANCH   3   4
ATOM      4  C   UNL     1      15.895  55.624 157.338  1.00  0.00     0.000 C 
BRANCH   4   5
ATOM      5  C   UNL     1      17.256  55.827 156.643  1.00  0.00     0.000 C 
BRANCH   5   6
ATOM      6  C   UNL     1      17.501  57.240 156.081  1.00  0.00     0.000 C 
BRANCH   6   7
ATOM      7  C   UNL     1      18.551  58.053 156.867  1.00  0.00     0.000 C 
BRANCH   7   8
ATOM      8  C   UNL     1      19.689  57.178 157.413  1.00  0.00     0.000 C 
BRANCH   8   9
ATOM      9  C   UNL     1      20.162  57.684 158.784  1.00  0.00     0.000 C 
BRANCH   9  10
ATOM     10  C   UNL     1      19.006  57.851 159.783  1.00  0.00     0.006 C 
BRANCH  10  11
ATOM     11  C   UNL     1      19.001  59.232 160.453  1.00  0.00     0.053 C 
BRANCH  11  12
ATOM     12  C   UNL     1      18.038  60.146 159.761  1.00  0.00     0.041 C 
ATOM     13  O   UNL     1      18.442  61.230 159.262  1.00  0.00    -0.550 OA
ATOM     14  O   UNL     1      16.704  59.782 159.630  1.00  0.00    -0.550 OA
ENDBRANCH  11  12
ENDBRANCH  10  11
ENDBRANCH   9  10
ENDBRANCH   8   9
ENDBRANCH   7   8
ENDBRANCH   6   7
ENDBRANCH   5   6
ENDBRANCH   4   5
ENDBRANCH   3   4
ENDBRANCH   2   3
ENDBRANCH   1   2
BRANCH   1  15
ATOM     15  C   UNL     1      14.655  52.081 158.728  1.00  0.00     0.000 C 
BRANCH  15  16
ATOM     16  C   UNL     1      15.833  51.446 159.493  1.00  0.00     0.000 C 
BRANCH  16  17
ATOM     17  C   UNL     1      17.151  52.245 159.447  1.00  0.00     0.000 C 
BRANCH  17  18
ATOM     18  C   UNL     1      17.208  53.454 160.398  1.00  0.00    -0.000 C 
BRANCH  18  19
ATOM     19  C   UNL     1      18.363  54.416 160.069  1.00  0.00    -0.000 C 
BRANCH  19  20
ATOM     20  C   UNL     1      19.271  53.884 158.949  1.00  0.00    -0.000 C 
BRANCH  20  21
ATOM     21  C   UNL     1      20.691  53.558 159.446  1.00  0.00    -0.000 C 
BRANCH  21  22
ATOM     22  C   UNL     1      20.961  54.107 160.856  1.00  0.00    -0.000 C 
BRANCH  22  23
ATOM     23  C   UNL     1      21.963  55.276 160.855  1.00  0.00    -0.000 C 
BRANCH  23  24
ATOM     24  C   UNL     1      23.411  54.801 161.103  1.00  0.00    -0.000 C 
BRANCH  24  25
ATOM     25  C   UNL     1      24.390  55.946 161.410  1.00  0.00    -0.003 C 
ATOM     26  C   UNL     1      24.037  57.245 160.689  1.00  0.00     0.004 C 
ENDBRANCH  24  25
ENDBRANCH  23  24
ENDBRANCH  22  23
ENDBRANCH  21  22
ENDBRANCH  20  21
ENDBRANCH  19  20
ENDBRANCH  18  19
ENDBRANCH  17  18
ENDBRANCH  16  17
ENDBRANCH  15  16
ENDBRANCH   1  15
TORSDOF 22
ENDMDL
MODEL 4
REMARK VINA RESULT:    -4.453      2.491      4.063
REMARK INTER + INTRA:         -13.684
REMARK INTER:                  -9.574
REMARK INTRA:                  -4.110
REMARK UNBOUND:                -3.504
REMARK SMILES CCCCCCCCCCCCCCCCCCCCCCCC(=O)[O-]
REMARK SMILES IDX 13 1 14 2 15 3 16 4 17 5 18 6 19 7 20 8 21 9 22 10 23 11
REMARK SMILES IDX 24 12 25 13 26 14 12 15 11 16 10 17 9 18 8 19 7 20 6 21 5 22
REMARK SMILES IDX 4 23 3 24 2 25 1 26
REMARK H PARENT
REMARK Flexibility Score: inf
ROOT
ATOM      1  C   UNL     1      17.743  52.972 159.642  1.00  0.00     0.000 C 
ENDROOT
BRANCH   1   2
ATOM      2  C   UNL     1      17.745  54.111 160.674  1.00  0.00     0.000 C 
BRANCH   2   3
ATOM      3  C   UNL     1      19.128  54.772 160.759  1.00  0.00     0.000 C 
BRANCH   3   4
ATOM      4  C   UNL     1      20.233  53.940 160.082  1.00  0.00     0.000 C 
BRANCH   4   5
ATOM      5  C   UNL     1      21.674  54.368 160.423  1.00  0.00     0.000 C 
BRANCH   5   6
ATOM      6  C   UNL     1      21.793  55.474 161.489  1.00  0.00     0.000 C 
BRANCH   6   7
ATOM      7  C   UNL     1      22.262  56.834 160.929  1.00  0.00     0.000 C 
BRANCH   7   8
ATOM      8  C   UNL     1      21.605  58.026 161.643  1.00  0.00     0.000 C 
BRANCH   8   9
ATOM      9  C   UNL     1      20.791  57.556 162.858  1.00  0.00     0.000 C 
BRANCH   9  10
ATOM     10  C   UNL     1      19.414  58.232 162.943  1.00  0.00     0.006 C 
BRANCH  10  11
ATOM     11  C   UNL     1      18.321  57.284 163.455  1.00  0.00     0.053 C 
BRANCH  11  12
ATOM     12  C   UNL     1      18.081  57.501 164.916  1.00  0.00     0.041 C 
ATOM     13  O   UNL     1      17.577  56.585 165.618  1.00  0.00    -0.550 OA
ATOM     14  O   UNL     1      18.452  58.700 165.511  1.00  0.00    -0.550 OA
ENDBRANCH  11  12
ENDBRANCH  10  11
ENDBRANCH   9  10
ENDBRANCH   8   9
ENDBRANCH   7   8
ENDBRANCH   6   7
ENDBRANCH   5   6
ENDBRANCH   4   5
ENDBRANCH   3   4
ENDBRANCH   2   3
ENDBRANCH   1   2
BRANCH   1  15
ATOM     15  C   UNL     1      16.349  52.355 159.435  1.00  0.00     0.000 C 
BRANCH  15  16
ATOM     16  C   UNL     1      16.215  51.446 158.197  1.00  0.00     0.000 C 
BRANCH  16  17
ATOM     17  C   UNL     1      15.669  52.137 156.932  1.00  0.00     0.000 C 
BRANCH  17  18
ATOM     18  C   UNL     1      14.438  53.031 157.164  1.00  0.00    -0.000 C 
BRANCH  18  19
ATOM     19  C   UNL     1      14.702  54.508 156.821  1.00  0.00    -0.000 C 
BRANCH  19  20
ATOM     20  C   UNL     1      16.118  54.739 156.271  1.00  0.00    -0.000 C 
BRANCH  20  21
ATOM     21  C   UNL     1      16.969  55.634 157.190  1.00  0.00    -0.000 C 
BRANCH  21  22
ATOM     22  C   UNL     1      18.477  55.443 156.965  1.00  0.00    -0.000 C 
BRANCH  22  23
ATOM     23  C   UNL     1      19.238  56.780 156.889  1.00  0.00    -0.000 C 
BRANCH  23  24
ATOM     24  C   UNL     1      19.684  57.274 158.282  1.00  0.00    -0.000 C 
BRANCH  24  25
ATOM     25  C   UNL     1      18.902  58.501 158.780  1.00  0.00    -0.003 C 
ATOM     26  C   UNL     1      17.778  58.141 159.750  1.00  0.00     0.004 C 
ENDBRANCH  24  25
ENDBRANCH  23  24
ENDBRANCH  22  23
ENDBRANCH  21  22
ENDBRANCH  20  21
ENDBRANCH  19  20
ENDBRANCH  18  19
ENDBRANCH  17  18
ENDBRANCH  16  17
ENDBRANCH  15  16
ENDBRANCH   1  15
TORSDOF 22
ENDMDL
MODEL 5
REMARK VINA RESULT:    -4.439      2.613      5.450
REMARK INTER + INTRA:         -13.653
REMARK INTER:                  -9.687
REMARK INTRA:                  -3.966
REMARK UNBOUND:                -3.504
REMARK SMILES CCCCCCCCCCCCCCCCCCCCCCCC(=O)[O-]
REMARK SMILES IDX 13 1 14 2 15 3 16 4 17 5 18 6 19 7 20 8 21 9 22 10 23 11
REMARK SMILES IDX 24 12 25 13 26 14 12 15 11 16 10 17 9 18 8 19 7 20 6 21 5 22
REMARK SMILES IDX 4 23 3 24 2 25 1 26
REMARK H PARENT
REMARK Flexibility Score: inf
ROOT
ATOM      1  C   UNL     1      17.841  56.805 160.895  1.00  0.00     0.000 C 
ENDROOT
BRANCH   1   2
ATOM      2  C   UNL     1      18.886  56.330 161.917  1.00  0.00     0.000 C 
BRANCH   2   3
ATOM      3  C   UNL     1      18.869  54.800 162.048  1.00  0.00     0.000 C 
BRANCH   3   4
ATOM      4  C   UNL     1      20.280  54.181 162.025  1.00  0.00     0.000 C 
BRANCH   4   5
ATOM      5  C   UNL     1      20.811  53.820 160.625  1.00  0.00     0.000 C 
BRANCH   5   6
ATOM      6  C   UNL     1      21.641  54.919 159.934  1.00  0.00     0.000 C 
BRANCH   6   7
ATOM      7  C   UNL     1      22.762  55.505 160.819  1.00  0.00     0.000 C 
BRANCH   7   8
ATOM      8  C   UNL     1      22.642  57.026 160.995  1.00  0.00     0.000 C 
BRANCH   8   9
ATOM      9  C   UNL     1      22.133  57.690 159.707  1.00  0.00     0.000 C 
BRANCH   9  10
ATOM     10  C   UNL     1      20.950  58.637 159.957  1.00  0.00     0.006 C 
BRANCH  10  11
ATOM     11  C   UNL     1      20.499  59.367 158.684  1.00  0.00     0.053 C 
BRANCH  11  12
ATOM     12  C   UNL     1      19.512  60.441 159.019  1.00  0.00     0.041 C 
ATOM     13  O   UNL     1      19.685  61.615 158.596  1.00  0.00    -0.550 OA
ATOM     14  O   UNL     1      18.378  60.137 159.762  1.00  0.00    -0.550 OA
ENDBRANCH  11  12
ENDBRANCH  10  11
ENDBRANCH   9  10
ENDBRANCH   8   9
ENDBRANCH   7   8
ENDBRANCH   6   7
ENDBRANCH   5   6
ENDBRANCH   4   5
ENDBRANCH   3   4
ENDBRANCH   2   3
ENDBRANCH   1   2
BRANCH   1  15
ATOM     15  C   UNL     1      17.744  55.885 159.666  1.00  0.00     0.000 C 
BRANCH  15  16
ATOM     16  C   UNL     1      18.376  56.448 158.377  1.00  0.00     0.000 C 
BRANCH  16  17
ATOM     17  C   UNL     1      18.969  55.394 157.422  1.00  0.00     0.000 C 
BRANCH  17  18
ATOM     18  C   UNL     1      18.496  53.951 157.679  1.00  0.00    -0.000 C 
BRANCH  18  19
ATOM     19  C   UNL     1      17.614  53.403 156.543  1.00  0.00    -0.000 C 
BRANCH  19  20
ATOM     20  C   UNL     1      16.524  54.397 156.114  1.00  0.00    -0.000 C 
BRANCH  20  21
ATOM     21  C   UNL     1      15.260  54.297 156.986  1.00  0.00    -0.000 C 
BRANCH  21  22
ATOM     22  C   UNL     1      14.846  52.842 157.259  1.00  0.00    -0.000 C 
BRANCH  22  23
ATOM     23  C   UNL     1      13.865  52.717 158.439  1.00  0.00    -0.000 C 
BRANCH  23  24
ATOM     24  C   UNL     1      14.476  51.936 159.622  1.00  0.00    -0.000 C 
BRANCH  24  25
ATOM     25  C   UNL     1      16.011  51.851 159.577  1.00  0.00    -0.003 C 
ATOM     26  C   UNL     1      16.523  50.441 159.289  1.00  0.00     0.004 C 
ENDBRANCH  24  25
ENDBRANCH  23  24
ENDBRANCH  22  23
ENDBRANCH  21  22
ENDBRANCH  20  21
ENDBRANCH  19  20
ENDBRANCH  18  19
ENDBRANCH  17  18
ENDBRANCH  16  17
ENDBRANCH  15  16
ENDBRANCH   1  15
TORSDOF 22
ENDMDL
MODEL 6
REMARK VINA RESULT:    -4.415      2.355      6.642
REMARK INTER + INTRA:         -13.598
REMARK INTER:                  -9.398
REMARK INTRA:                  -4.200
REMARK UNBOUND:                -3.504
REMARK SMILES CCCCCCCCCCCCCCCCCCCCCCCC(=O)[O-]
REMARK SMILES IDX 13 1 14 2 15 3 16 4 17 5 18 6 19 7 20 8 21 9 22 10 23 11
REMARK SMILES IDX 24 12 25 13 26 14 12 15 11 16 10 17 9 18 8 19 7 20 6 21 5 22
REMARK SMILES IDX 4 23 3 24 2 25 1 26
REMARK H PARENT
REMARK Flexibility Score: inf
ROOT
ATOM      1  C   UNL     1      21.059  57.131 159.077  1.00  0.00     0.000 C 
ENDROOT
BRANCH   1   2
ATOM      2  C   UNL     1      20.824  58.590 158.657  1.00  0.00     0.000 C 
BRANCH   2   3
ATOM      3  C   UNL     1      20.237  58.666 157.241  1.00  0.00     0.000 C 
BRANCH   3   4
ATOM      4  C   UNL     1      19.481  57.385 156.835  1.00  0.00     0.000 C 
BRANCH   4   5
ATOM      5  C   UNL     1      17.946  57.515 156.805  1.00  0.00     0.000 C 
BRANCH   5   6
ATOM      6  C   UNL     1      17.257  57.460 158.182  1.00  0.00     0.000 C 
BRANCH   6   7
ATOM      7  C   UNL     1      17.015  58.847 158.817  1.00  0.00     0.000 C 
BRANCH   7   8
ATOM      8  C   UNL     1      17.422  58.899 160.297  1.00  0.00     0.000 C 
BRANCH   8   9
ATOM      9  C   UNL     1      17.939  57.533 160.772  1.00  0.00     0.000 C 
BRANCH   9  10
ATOM     10  C   UNL     1      17.940  57.401 162.303  1.00  0.00     0.006 C 
BRANCH  10  11
ATOM     11  C   UNL     1      19.161  58.067 162.952  1.00  0.00     0.053 C 
BRANCH  11  12
ATOM     12  C   UNL     1      18.984  58.150 164.436  1.00  0.00     0.041 C 
ATOM     13  O   UNL     1      19.945  58.508 165.168  1.00  0.00    -0.550 OA
ATOM     14  O   UNL     1      17.749  57.873 165.007  1.00  0.00    -0.550 OA
ENDBRANCH  11  12
ENDBRANCH  10  11
ENDBRANCH   9  10
ENDBRANCH   8   9
ENDBRANCH   7   8
ENDBRANCH   6   7
ENDBRANCH   5   6
ENDBRANCH   4   5
ENDBRANCH   3   4
ENDBRANCH   2   3
ENDBRANCH   1   2
BRANCH   1  15
ATOM     15  C   UNL     1      21.878  57.005 160.373  1.00  0.00     0.000 C 
BRANCH  15  16
ATOM     16  C   UNL     1      22.032  55.570 160.913  1.00  0.00     0.000 C 
BRANCH  16  17
ATOM     17  C   UNL     1      21.066  55.191 162.054  1.00  0.00     0.000 C 
BRANCH  17  18
ATOM     18  C   UNL     1      20.000  54.146 161.678  1.00  0.00    -0.000 C 
BRANCH  18  19
ATOM     19  C   UNL     1      20.058  53.744 160.194  1.00  0.00    -0.000 C 
BRANCH  19  20
ATOM     20  C   UNL     1      18.792  54.153 159.424  1.00  0.00    -0.000 C 
BRANCH  20  21
ATOM     21  C   UNL     1      18.902  53.869 157.915  1.00  0.00    -0.000 C 
BRANCH  21  22
ATOM     22  C   UNL     1      17.584  53.353 157.316  1.00  0.00    -0.000 C 
BRANCH  22  23
ATOM     23  C   UNL     1      16.351  53.807 158.117  1.00  0.00    -0.000 C 
BRANCH  23  24
ATOM     24  C   UNL     1      15.273  52.705 158.199  1.00  0.00    -0.000 C 
BRANCH  24  25
ATOM     25  C   UNL     1      15.368  51.843 159.470  1.00  0.00    -0.003 C 
ATOM     26  C   UNL     1      16.356  50.686 159.335  1.00  0.00     0.004 C 
ENDBRANCH  24  25
ENDBRANCH  23  24
ENDBRANCH  22  23
ENDBRANCH  21  22
ENDBRANCH  20  21
ENDBRANCH  19  20
ENDBRANCH  18  19
ENDBRANCH  17  18
ENDBRANCH  16  17
ENDBRANCH  15  16
ENDBRANCH   1  15
TORSDOF 22
ENDMDL
MODEL 7
REMARK VINA RESULT:    -4.412      2.599      5.995
REMARK INTER + INTRA:         -13.590
REMARK INTER:                 -10.466
REMARK INTRA:                  -3.124
REMARK UNBOUND:                -3.504
REMARK SMILES CCCCCCCCCCCCCCCCCCCCCCCC(=O)[O-]
REMARK SMILES IDX 13 1 14 2 15 3 16 4 17 5 18 6 19 7 20 8 21 9 22 10 23 11
REMARK SMILES IDX 24 12 25 13 26 14 12 15 11 16 10 17 9 18 8 19 7 20 6 21 5 22
REMARK SMILES IDX 4 23 3 24 2 25 1 26
REMARK H PARENT
REMARK Flexibility Score: inf
ROOT
ATOM      1  C   UNL     1      17.439  52.667 158.878  1.00  0.00     0.000 C 
ENDROOT
BRANCH   1   2
ATOM      2  C   UNL     1      16.335  51.657 158.529  1.00  0.00     0.000 C 
BRANCH   2   3
ATOM      3  C   UNL     1      15.082  51.896 159.384  1.00  0.00     0.000 C 
BRANCH   3   4
ATOM      4  C   UNL     1      13.950  52.595 158.607  1.00  0.00     0.000 C 
BRANCH   4   5
ATOM      5  C   UNL     1      14.177  52.710 157.087  1.00  0.00     0.000 C 
BRANCH   5   6
ATOM      6  C   UNL     1      14.156  54.146 156.528  1.00  0.00     0.000 C 
BRANCH   6   7
ATOM      7  C   UNL     1      15.557  54.771 156.357  1.00  0.00     0.000 C 
BRANCH   7   8
ATOM      8  C   UNL     1      15.603  56.245 156.788  1.00  0.00     0.000 C 
BRANCH   8   9
ATOM      9  C   UNL     1      16.594  56.447 157.944  1.00  0.00     0.000 C 
BRANCH   9  10
ATOM     10  C   UNL     1      17.068  57.903 158.068  1.00  0.00     0.006 C 
BRANCH  10  11
ATOM     11  C   UNL     1      18.116  58.091 159.174  1.00  0.00     0.053 C 
BRANCH  11  12
ATOM     12  C   UNL     1      18.084  59.494 159.693  1.00  0.00     0.041 C 
ATOM     13  O   UNL     1      16.995  60.123 159.750  1.00  0.00    -0.550 OA
ATOM     14  O   UNL     1      19.250  60.092 160.153  1.00  0.00    -0.550 OA
ENDBRANCH  11  12
ENDBRANCH  10  11
ENDBRANCH   9  10
ENDBRANCH   8   9
ENDBRANCH   7   8
ENDBRANCH   6   7
ENDBRANCH   5   6
ENDBRANCH   4   5
ENDBRANCH   3   4
ENDBRANCH   2   3
ENDBRANCH   1   2
BRANCH   1  15
ATOM     15  C   UNL     1      17.183  53.398 160.208  1.00  0.00     0.000 C 
BRANCH  15  16
ATOM     16  C   UNL     1      18.380  54.202 160.752  1.00  0.00     0.000 C 
BRANCH  16  17
ATOM     17  C   UNL     1      19.756  53.793 160.190  1.00  0.00     0.000 C 
BRANCH  17  18
ATOM     18  C   UNL     1      20.960  54.470 160.870  1.00  0.00    -0.000 C 
BRANCH  18  19
ATOM     19  C   UNL     1      21.330  55.816 160.222  1.00  0.00    -0.000 C 
BRANCH  19  20
ATOM     20  C   UNL     1      22.557  56.467 160.879  1.00  0.00    -0.000 C 
BRANCH  20  21
ATOM     21  C   UNL     1      22.909  55.826 162.234  1.00  0.00    -0.000 C 
BRANCH  21  22
ATOM     22  C   UNL     1      22.982  56.857 163.372  1.00  0.00    -0.000 C 
BRANCH  22  23
ATOM     23  C   UNL     1      22.209  58.148 163.052  1.00  0.00    -0.000 C 
BRANCH  23  24
ATOM     24  C   UNL     1      20.975  58.328 163.963  1.00  0.00    -0.000 C 
BRANCH  24  25
ATOM     25  C   UNL     1      19.662  58.532 163.189  1.00  0.00    -0.003 C 
ATOM     26  C   UNL     1      18.974  57.219 162.821  1.00  0.00     0.004 C 
ENDBRANCH  24  25
ENDBRANCH  23  24
ENDBRANCH  22  23
ENDBRANCH  21  22
ENDBRANCH  20  21
ENDBRANCH  19  20
ENDBRANCH  18  19
ENDBRANCH  17  18
ENDBRANCH  16  17
ENDBRANCH  15  16
ENDBRANCH   1  15
TORSDOF 22
ENDMDL
MODEL 8
REMARK VINA RESULT:    -4.389      2.797      4.329
REMARK INTER + INTRA:         -13.538
REMARK INTER:                 -10.103
REMARK INTRA:                  -3.435
REMARK UNBOUND:                -3.504
REMARK SMILES CCCCCCCCCCCCCCCCCCCCCCCC(=O)[O-]
REMARK SMILES IDX 13 1 14 2 15 3 16 4 17 5 18 6 19 7 20 8 21 9 22 10 23 11
REMARK SMILES IDX 24 12 25 13 26 14 12 15 11 16 10 17 9 18 8 19 7 20 6 21 5 22
REMARK SMILES IDX 4 23 3 24 2 25 1 26
REMARK H PARENT
REMARK Flexibility Score: inf
ROOT
ATOM      1  C   UNL     1      17.428  53.508 159.755  1.00  0.00     0.000 C 
ENDROOT
BRANCH   1   2
ATOM      2  C   UNL     1      18.455  53.379 158.619  1.00  0.00     0.000 C 
BRANCH   2   3
ATOM      3  C   UNL     1      19.733  54.166 158.942  1.00  0.00     0.000 C 
BRANCH   3   4
ATOM      4  C   UNL     1      20.483  53.614 160.170  1.00  0.00     0.000 C 
BRANCH   4   5
ATOM      5  C   UNL     1      20.828  54.660 161.248  1.00  0.00     0.000 C 
BRANCH   5   6
ATOM      6  C   UNL     1      19.647  55.107 162.131  1.00  0.00     0.000 C 
BRANCH   6   7
ATOM      7  C   UNL     1      19.018  56.450 161.701  1.00  0.00     0.000 C 
BRANCH   7   8
ATOM      8  C   UNL     1      19.881  57.659 162.092  1.00  0.00     0.000 C 
BRANCH   8   9
ATOM      9  C   UNL     1      19.249  58.428 163.262  1.00  0.00     0.000 C 
BRANCH   9  10
ATOM     10  C   UNL     1      20.232  58.651 164.422  1.00  0.00     0.006 C 
BRANCH  10  11
ATOM     11  C   UNL     1      19.535  58.678 165.789  1.00  0.00     0.053 C 
BRANCH  11  12
ATOM     12  C   UNL     1      18.943  60.028 166.048  1.00  0.00     0.041 C 
ATOM     13  O   UNL     1      17.841  60.132 166.649  1.00  0.00    -0.550 OA
ATOM     14  O   UNL     1      19.627  61.174 165.664  1.00  0.00    -0.550 OA
ENDBRANCH  11  12
ENDBRANCH  10  11
ENDBRANCH   9  10
ENDBRANCH   8   9
ENDBRANCH   7   8
ENDBRANCH   6   7
ENDBRANCH   5   6
ENDBRANCH   4   5
ENDBRANCH   3   4
ENDBRANCH   2   3
ENDBRANCH   1   2
BRANCH   1  15
ATOM     15  C   UNL     1      16.256  52.520 159.618  1.00  0.00     0.000 C 
BRANCH  15  16
ATOM     16  C   UNL     1      16.319  51.598 158.384  1.00  0.00     0.000 C 
BRANCH  16  17
ATOM     17  C   UNL     1      15.444  52.036 157.193  1.00  0.00     0.000 C 
BRANCH  17  18
ATOM     18  C   UNL     1      14.433  53.154 157.510  1.00  0.00    -0.000 C 
BRANCH  18  19
ATOM     19  C   UNL     1      14.636  54.404 156.636  1.00  0.00    -0.000 C 
BRANCH  19  20
ATOM     20  C   UNL     1      16.038  54.462 156.010  1.00  0.00    -0.000 C 
BRANCH  20  21
ATOM     21  C   UNL     1      16.765  55.784 156.316  1.00  0.00    -0.000 C 
BRANCH  21  22
ATOM     22  C   UNL     1      16.312  56.412 157.644  1.00  0.00    -0.000 C 
BRANCH  22  23
ATOM     23  C   UNL     1      17.449  57.159 158.364  1.00  0.00    -0.000 C 
BRANCH  23  24
ATOM     24  C   UNL     1      16.999  58.543 158.880  1.00  0.00    -0.000 C 
BRANCH  24  25
ATOM     25  C   UNL     1      18.164  59.442 159.326  1.00  0.00    -0.003 C 
ATOM     26  C   UNL     1      19.480  59.107 158.626  1.00  0.00     0.004 C 
ENDBRANCH  24  25
ENDBRANCH  23  24
ENDBRANCH  22  23
ENDBRANCH  21  22
ENDBRANCH  20  21
ENDBRANCH  19  20
ENDBRANCH  18  19
ENDBRANCH  17  18
ENDBRANCH  16  17
ENDBRANCH  15  16
ENDBRANCH   1  15
TORSDOF 22
ENDMDL
MODEL 9
REMARK VINA RESULT:    -4.385      1.248      2.363
REMARK INTER + INTRA:         -13.530
REMARK INTER:                  -9.933
REMARK INTRA:                  -3.597
REMARK UNBOUND:                -3.504
REMARK SMILES CCCCCCCCCCCCCCCCCCCCCCCC(=O)[O-]
REMARK SMILES IDX 13 1 14 2 15 3 16 4 17 5 18 6 19 7 20 8 21 9 22 10 23 11
REMARK SMILES IDX 24 12 25 13 26 14 12 15 11 16 10 17 9 18 8 19 7 20 6 21 5 22
REMARK SMILES IDX 4 23 3 24 2 25 1 26
REMARK H PARENT
REMARK Flexibility Score: inf
ROOT
ATOM      1  C   UNL     1      13.766  53.226 157.308  1.00  0.00     0.000 C 
ENDROOT
BRANCH   1   2
ATOM      2  C   UNL     1      14.511  52.552 158.470  1.00  0.00     0.000 C 
BRANCH   2   3
ATOM      3  C   UNL     1      15.915  52.106 158.037  1.00  0.00     0.000 C 
BRANCH   3   4
ATOM      4  C   UNL     1      16.952  52.201 159.173  1.00  0.00     0.000 C 
BRANCH   4   5
ATOM      5  C   UNL     1      17.155  53.613 159.754  1.00  0.00     0.000 C 
BRANCH   5   6
ATOM      6  C   UNL     1      18.505  53.842 160.463  1.00  0.00     0.000 C 
BRANCH   6   7
ATOM      7  C   UNL     1      19.729  53.715 159.532  1.00  0.00     0.000 C 
BRANCH   7   8
ATOM      8  C   UNL     1      21.053  54.011 160.253  1.00  0.00     0.000 C 
BRANCH   8   9
ATOM      9  C   UNL     1      20.798  54.606 161.646  1.00  0.00     0.000 C 
BRANCH   9  10
ATOM     10  C   UNL     1      21.960  55.483 162.136  1.00  0.00     0.006 C 
BRANCH  10  11
ATOM     11  C   UNL     1      23.260  55.228 161.361  1.00  0.00     0.053 C 
BRANCH  11  12
ATOM     12  C   UNL     1      23.864  56.522 160.913  1.00  0.00     0.041 C 
ATOM     13  O   UNL     1      24.934  56.935 161.433  1.00  0.00    -0.550 OA
ATOM     14  O   UNL     1      23.269  57.251 159.892  1.00  0.00    -0.550 OA
ENDBRANCH  11  12
ENDBRANCH  10  11
ENDBRANCH   9  10
ENDBRANCH   8   9
ENDBRANCH   7   8
ENDBRANCH   6   7
ENDBRANCH   5   6
ENDBRANCH   4   5
ENDBRANCH   3   4
ENDBRANCH   2   3
ENDBRANCH   1   2
BRANCH   1  15
ATOM     15  C   UNL     1      14.705  53.678 156.176  1.00  0.00     0.000 C 
BRANCH  15  16
ATOM     16  C   UNL     1      14.885  55.204 156.046  1.00  0.00     0.000 C 
BRANCH  16  17
ATOM     17  C   UNL     1      15.874  55.835 157.045  1.00  0.00     0.000 C 
BRANCH  17  18
ATOM     18  C   UNL     1      17.355  55.744 156.634  1.00  0.00    -0.000 C 
BRANCH  18  19
ATOM     19  C   UNL     1      18.291  56.469 157.617  1.00  0.00    -0.000 C 
BRANCH  19  20
ATOM     20  C   UNL     1      17.572  57.570 158.410  1.00  0.00    -0.000 C 
BRANCH  20  21
ATOM     21  C   UNL     1      18.545  58.442 159.224  1.00  0.00    -0.000 C 
BRANCH  21  22
ATOM     22  C   UNL     1      19.206  57.668 160.376  1.00  0.00    -0.000 C 
BRANCH  22  23
ATOM     23  C   UNL     1      18.203  57.268 161.473  1.00  0.00    -0.000 C 
BRANCH  23  24
ATOM     24  C   UNL     1      18.688  57.676 162.881  1.00  0.00    -0.000 C 
BRANCH  24  25
ATOM     25  C   UNL     1      19.823  58.714 162.865  1.00  0.00    -0.003 C 
ATOM     26  C   UNL     1      20.068  59.353 164.230  1.00  0.00     0.004 C 
ENDBRANCH  24  25
ENDBRANCH  23  24
ENDBRANCH  22  23
ENDBRANCH  21  22
ENDBRANCH  20  21
ENDBRANCH  19  20
ENDBRANCH  18  19
ENDBRANCH  17  18
ENDBRANCH  16  17
ENDBRANCH  15  16
ENDBRANCH   1  15
TORSDOF 22
ENDMDL
