MODEL 1
REMARK VINA RESULT:    -2.373      0.000      0.000
REMARK INTER + INTRA:          -4.430
REMARK INTER:                  -3.761
REMARK INTRA:                  -0.669
REMARK UNBOUND:                -0.669
REMARK SMILES CCCCCCCCCCCC(=O)[O-]
REMARK SMILES IDX 7 1 8 2 9 3 10 4 11 5 12 6 13 7 14 8 6 9 5 10 4 11 3 12 2 13
REMARK SMILES IDX 1 14
REMARK H PARENT
REMARK Flexibility Score: inf
ROOT
ATOM      1  C   UNL     1      30.369  24.139  31.568  1.00  0.00     0.000 C 
ENDROOT
BRANCH   1   2
ATOM      2  C   UNL     1      30.469  25.091  32.767  1.00  0.00     0.000 C 
BRANCH   2   3
ATOM      3  C   UNL     1      31.658  24.725  33.663  1.00  0.00     0.000 C 
BRANCH   3   4
ATOM      4  C   UNL     1      32.984  25.125  33.007  1.00  0.00     0.006 C 
BRANCH   4   5
ATOM      5  C   UNL     1      34.168  24.446  33.703  1.00  0.00     0.053 C 
BRANCH   5   6
ATOM      6  C   UNL     1      35.442  24.741  32.978  1.00  0.00     0.041 C 
ATOM      7  O   UNL     1      35.434  24.926  31.732  1.00  0.00    -0.550 OA
ATOM      8  O   UNL     1      36.647  24.762  33.669  1.00  0.00    -0.550 OA
ENDBRANCH   5   6
ENDBRANCH   4   5
ENDBRANCH   3   4
ENDBRANCH   2   3
ENDBRANCH   1   2
BRANCH   1   9
ATOM      9  C   UNL     1      30.416  24.912  30.245  1.00  0.00     0.000 C 
BRANCH   9  10
ATOM     10  C   UNL     1      31.762  24.714  29.539  1.00  0.00    -0.000 C 
BRANCH  10  11
ATOM     11  C   UNL     1      31.615  23.800  28.317  1.00  0.00    -0.000 C 
BRANCH  11  12
ATOM     12  C   UNL     1      32.985  23.301  27.834  1.00  0.00    -0.000 C 
BRANCH  12  13
ATOM     13  C   UNL     1      34.143  24.176  28.338  1.00  0.00    -0.003 C 
ATOM     14  C   UNL     1      35.510  23.671  27.877  1.00  0.00     0.004 C 
ENDBRANCH  12  13
ENDBRANCH  11  12
ENDBRANCH  10  11
ENDBRANCH   9  10
ENDBRANCH   1   9
TORSDOF 10
ENDMDL
MODEL 2
REMARK VINA RESULT:    -0.323     17.293     19.730
REMARK INTER + INTRA:          -1.180
REMARK INTER:                  -0.548
REMARK INTRA:                  -0.632
REMARK UNBOUND:                -0.669
REMARK SMILES CCCCCCCCCCCC(=O)[O-]
REMARK SMILES IDX 7 1 8 2 9 3 10 4 11 5 12 6 13 7 14 8 6 9 5 10 4 11 3 12 2 13
REMARK SMILES IDX 1 14
REMARK H PARENT
REMARK Flexibility Score: inf
ROOT
ATOM      1  C   UNL     1      19.414  22.529  46.288  1.00  0.00     0.000 C 
ENDROOT
BRANCH   1   2
ATOM      2  C   UNL     1      18.848  23.789  46.955  1.00  0.00     0.000 C 
BRANCH   2   3
ATOM      3  C   UNL     1      17.370  23.985  46.598  1.00  0.00     0.000 C 
BRANCH   3   4
ATOM      4  C   UNL     1      17.194  25.125  45.588  1.00  0.00     0.006 C 
BRANCH   4   5
ATOM      5  C   UNL     1      16.931  24.578  44.182  1.00  0.00     0.053 C 
BRANCH   5   6
ATOM      6  C   UNL     1      18.100  24.844  43.288  1.00  0.00     0.041 C 
ATOM      7  O   UNL     1      17.967  24.791  42.037  1.00  0.00    -0.550 OA
ATOM      8  O   UNL     1      19.351  25.101  43.837  1.00  0.00    -0.550 OA
ENDBRANCH   5   6
ENDBRANCH   4   5
ENDBRANCH   3   4
ENDBRANCH   2   3
ENDBRANCH   1   2
BRANCH   1   9
ATOM      9  C   UNL     1      20.548  21.925  47.124  1.00  0.00     0.000 C 
BRANCH   9  10
ATOM     10  C   UNL     1      21.869  22.662  46.873  1.00  0.00    -0.000 C 
BRANCH  10  11
ATOM     11  C   UNL     1      22.090  22.905  45.375  1.00  0.00    -0.000 C 
BRANCH  11  12
ATOM     12  C   UNL     1      23.519  22.525  44.961  1.00  0.00    -0.000 C 
BRANCH  12  13
ATOM     13  C   UNL     1      24.580  23.433  45.601  1.00  0.00    -0.003 C 
ATOM     14  C   UNL     1      25.915  22.721  45.819  1.00  0.00     0.004 C 
ENDBRANCH  12  13
ENDBRANCH  11  12
ENDBRANCH  10  11
ENDBRANCH   9  10
ENDBRANCH   1   9
TORSDOF 10
ENDMDL
