MODEL 1
REMARK VINA RESULT:    -5.946      0.000      0.000
REMARK INTER + INTRA:          -6.120
REMARK INTER:                  -6.120
REMARK INTRA:                   0.000
REMARK UNBOUND:                 0.000
REMARK SMILES C=C1[C@H](O)C[C@]23C[C@H]1C(C)(C)[C@H]2CC[C@H]3C
REMARK SMILES IDX 16 1 15 2 14 3 13 4 12 5 6 6 7 7 8 8 9 9 10 10 11 11 2 12
REMARK SMILES IDX 1 13 3 14 5 15 4 16
REMARK H PARENT 4 17
REMARK Flexibility Score: inf
ROOT
ATOM      1  C   UNL     1     112.156 117.528 130.050  1.00  0.00     0.008 C 
ATOM      2  C   UNL     1     110.816 117.417 129.306  1.00  0.00    -0.008 C 
ATOM      3  C   UNL     1     110.323 115.981 129.197  1.00  0.00     0.004 C 
ATOM      4  C   UNL     1     109.299 116.002 128.070  1.00  0.00     0.005 C 
ATOM      5  C   UNL     1     109.709 117.151 127.121  1.00  0.00     0.002 C 
ATOM      6  C   UNL     1     110.817 117.946 127.856  1.00  0.00    -0.020 C 
ATOM      7  C   UNL     1     112.098 117.648 127.067  1.00  0.00     0.016 C 
ATOM      8  C   UNL     1     111.585 117.679 125.642  1.00  0.00     0.023 C 
ATOM      9  C   UNL     1     110.305 116.793 125.712  1.00  0.00    -0.025 C 
ATOM     10  C   UNL     1     109.294 117.110 124.582  1.00  0.00     0.012 C 
ATOM     11  C   UNL     1     110.715 115.303 125.550  1.00  0.00     0.012 C 
ATOM     12  C   UNL     1     111.273 119.137 125.302  1.00  0.00    -0.045 C 
ATOM     13  C   UNL     1     111.501 119.589 124.059  1.00  0.00     0.011 C 
ATOM     14  C   UNL     1     110.548 120.027 126.315  1.00  0.00     0.140 C 
ATOM     15  C   UNL     1     110.567 119.475 127.774  1.00  0.00     0.044 C 
ENDROOT
BRANCH  14  16
ATOM     16  O   UNL     1     111.116 121.313 126.299  1.00  0.00    -0.389 OA
ATOM     17  H   UNL     1     110.458 121.922 126.726  1.00  0.00     0.211 HD
ENDBRANCH  14  16
TORSDOF 1
ENDMDL
MODEL 2
REMARK VINA RESULT:    -5.888      1.946      4.268
REMARK INTER + INTRA:          -6.061
REMARK INTER:                  -6.061
REMARK INTRA:                   0.000
REMARK UNBOUND:                 0.000
REMARK SMILES C=C1[C@H](O)C[C@]23C[C@H]1C(C)(C)[C@H]2CC[C@H]3C
REMARK SMILES IDX 16 1 15 2 14 3 13 4 12 5 6 6 7 7 8 8 9 9 10 10 11 11 2 12
REMARK SMILES IDX 1 13 3 14 5 15 4 16
REMARK H PARENT 4 17
REMARK Flexibility Score: inf
ROOT
ATOM      1  C   UNL     1     110.742 114.526 124.703  1.00  0.00     0.008 C 
ATOM      2  C   UNL     1     109.873 115.730 125.096  1.00  0.00    -0.008 C 
ATOM      3  C   UNL     1     109.837 116.804 124.017  1.00  0.00     0.004 C 
ATOM      4  C   UNL     1     109.363 118.063 124.732  1.00  0.00     0.005 C 
ATOM      5  C   UNL     1     109.810 117.928 126.206  1.00  0.00     0.002 C 
ATOM      6  C   UNL     1     110.307 116.472 126.377  1.00  0.00    -0.020 C 
ATOM      7  C   UNL     1     111.825 116.597 126.561  1.00  0.00     0.016 C 
ATOM      8  C   UNL     1     111.918 117.825 127.443  1.00  0.00     0.023 C 
ATOM      9  C   UNL     1     110.977 118.842 126.728  1.00  0.00    -0.025 C 
ATOM     10  C   UNL     1     110.444 119.938 127.684  1.00  0.00     0.012 C 
ATOM     11  C   UNL     1     111.776 119.564 125.608  1.00  0.00     0.012 C 
ATOM     12  C   UNL     1     111.410 117.429 128.830  1.00  0.00    -0.045 C 
ATOM     13  C   UNL     1     111.984 117.961 129.921  1.00  0.00     0.011 C 
ATOM     14  C   UNL     1     110.150 116.571 128.974  1.00  0.00     0.140 C 
ATOM     15  C   UNL     1     109.736 115.826 127.668  1.00  0.00     0.044 C 
ENDROOT
BRANCH  14  16
ATOM     16  O   UNL     1     110.339 115.631 130.002  1.00  0.00    -0.389 OA
ATOM     17  H   UNL     1     111.293 115.690 130.272  1.00  0.00     0.211 HD
ENDBRANCH  14  16
TORSDOF 1
ENDMDL
MODEL 3
REMARK VINA RESULT:    -5.759      1.852      4.014
REMARK INTER + INTRA:          -5.928
REMARK INTER:                  -5.928
REMARK INTRA:                   0.000
REMARK UNBOUND:                 0.000
REMARK SMILES C=C1[C@H](O)C[C@]23C[C@H]1C(C)(C)[C@H]2CC[C@H]3C
REMARK SMILES IDX 16 1 15 2 14 3 13 4 12 5 6 6 7 7 8 8 9 9 10 10 11 11 2 12
REMARK SMILES IDX 1 13 3 14 5 15 4 16
REMARK H PARENT 4 17
REMARK Flexibility Score: inf
ROOT
ATOM      1  C   UNL     1     111.879 121.687 127.381  1.00  0.00     0.008 C 
ATOM      2  C   UNL     1     112.178 120.472 126.491  1.00  0.00    -0.008 C 
ATOM      3  C   UNL     1     111.796 120.703 125.035  1.00  0.00     0.004 C 
ATOM      4  C   UNL     1     111.706 119.310 124.427  1.00  0.00     0.005 C 
ATOM      5  C   UNL     1     111.323 118.350 125.577  1.00  0.00     0.002 C 
ATOM      6  C   UNL     1     111.455 119.166 126.886  1.00  0.00    -0.020 C 
ATOM      7  C   UNL     1     110.014 119.355 127.375  1.00  0.00     0.016 C 
ATOM      8  C   UNL     1     109.413 117.999 127.066  1.00  0.00     0.023 C 
ATOM      9  C   UNL     1     109.876 117.737 125.600  1.00  0.00    -0.025 C 
ATOM     10  C   UNL     1     109.901 116.231 125.241  1.00  0.00     0.012 C 
ATOM     11  C   UNL     1     108.875 118.420 124.628  1.00  0.00     0.012 C 
ATOM     12  C   UNL     1     110.012 117.001 128.058  1.00  0.00    -0.045 C 
ATOM     13  C   UNL     1     109.250 116.000 128.528  1.00  0.00     0.011 C 
ATOM     14  C   UNL     1     111.508 117.035 128.380  1.00  0.00     0.140 C 
ATOM     15  C   UNL     1     112.214 118.367 127.978  1.00  0.00     0.044 C 
ENDROOT
BRANCH  14  16
ATOM     16  O   UNL     1     111.696 116.808 129.755  1.00  0.00    -0.389 OA
ATOM     17  H   UNL     1     111.231 115.958 129.971  1.00  0.00     0.211 HD
ENDBRANCH  14  16
TORSDOF 1
ENDMDL
MODEL 4
REMARK VINA RESULT:    -5.755      2.176      3.771
REMARK INTER + INTRA:          -5.923
REMARK INTER:                  -5.923
REMARK INTRA:                   0.000
REMARK UNBOUND:                 0.000
REMARK SMILES C=C1[C@H](O)C[C@]23C[C@H]1C(C)(C)[C@H]2CC[C@H]3C
REMARK SMILES IDX 16 1 15 2 14 3 13 4 12 5 6 6 7 7 8 8 9 9 10 10 11 11 2 12
REMARK SMILES IDX 1 13 3 14 5 15 4 16
REMARK H PARENT 4 17
REMARK Flexibility Score: inf
ROOT
ATOM      1  C   UNL     1     112.707 122.110 125.241  1.00  0.00     0.008 C 
ATOM      2  C   UNL     1     111.522 121.380 125.890  1.00  0.00    -0.008 C 
ATOM      3  C   UNL     1     111.852 120.843 127.276  1.00  0.00     0.004 C 
ATOM      4  C   UNL     1     110.791 119.786 127.551  1.00  0.00     0.005 C 
ATOM      5  C   UNL     1     110.356 119.228 126.176  1.00  0.00     0.002 C 
ATOM      6  C   UNL     1     110.986 120.160 125.111  1.00  0.00    -0.020 C 
ATOM      7  C   UNL     1     112.067 119.306 124.438  1.00  0.00     0.016 C 
ATOM      8  C   UNL     1     111.373 117.963 124.346  1.00  0.00     0.023 C 
ATOM      9  C   UNL     1     110.790 117.771 125.779  1.00  0.00    -0.025 C 
ATOM     10  C   UNL     1     109.584 116.801 125.810  1.00  0.00     0.012 C 
ATOM     11  C   UNL     1     111.890 117.160 126.691  1.00  0.00     0.012 C 
ATOM     12  C   UNL     1     110.283 118.086 123.280  1.00  0.00    -0.045 C 
ATOM     13  C   UNL     1     110.013 117.038 122.486  1.00  0.00     0.011 C 
ATOM     14  C   UNL     1     109.390 119.329 123.230  1.00  0.00     0.140 C 
ATOM     15  C   UNL     1     109.956 120.550 124.018  1.00  0.00     0.044 C 
ENDROOT
BRANCH  14  16
ATOM     16  O   UNL     1     109.180 119.700 121.891  1.00  0.00    -0.389 OA
ATOM     17  H   UNL     1     109.768 120.480 121.714  1.00  0.00     0.211 HD
ENDBRANCH  14  16
TORSDOF 1
ENDMDL
MODEL 5
REMARK VINA RESULT:    -5.570      1.868      3.361
REMARK INTER + INTRA:          -5.733
REMARK INTER:                  -5.733
REMARK INTRA:                   0.000
REMARK UNBOUND:                 0.000
REMARK SMILES C=C1[C@H](O)C[C@]23C[C@H]1C(C)(C)[C@H]2CC[C@H]3C
REMARK SMILES IDX 16 1 15 2 14 3 13 4 12 5 6 6 7 7 8 8 9 9 10 10 11 11 2 12
REMARK SMILES IDX 1 13 3 14 5 15 4 16
REMARK H PARENT 4 17
REMARK Flexibility Score: inf
ROOT
ATOM      1  C   UNL     1     109.622 115.997 129.248  1.00  0.00     0.008 C 
ATOM      2  C   UNL     1     110.860 116.449 128.459  1.00  0.00    -0.008 C 
ATOM      3  C   UNL     1     111.719 117.441 129.234  1.00  0.00     0.004 C 
ATOM      4  C   UNL     1     112.582 118.120 128.179  1.00  0.00     0.005 C 
ATOM      5  C   UNL     1     111.778 118.083 126.859  1.00  0.00     0.002 C 
ATOM      6  C   UNL     1     110.571 117.146 127.112  1.00  0.00    -0.020 C 
ATOM      7  C   UNL     1     109.352 118.076 127.121  1.00  0.00     0.016 C 
ATOM      8  C   UNL     1     109.694 119.029 125.994  1.00  0.00     0.023 C 
ATOM      9  C   UNL     1     111.170 119.422 126.304  1.00  0.00    -0.025 C 
ATOM     10  C   UNL     1     111.938 119.905 125.049  1.00  0.00     0.012 C 
ATOM     11  C   UNL     1     111.175 120.596 127.321  1.00  0.00     0.012 C 
ATOM     12  C   UNL     1     109.555 118.251 124.685  1.00  0.00    -0.045 C 
ATOM     13  C   UNL     1     109.091 118.877 123.591  1.00  0.00     0.011 C 
ATOM     14  C   UNL     1     110.101 116.826 124.571  1.00  0.00     0.140 C 
ATOM     15  C   UNL     1     110.378 116.141 125.946  1.00  0.00     0.044 C 
ENDROOT
BRANCH  14  16
ATOM     16  O   UNL     1     109.200 116.037 123.835  1.00  0.00    -0.389 OA
ATOM     17  H   UNL     1     109.533 116.018 122.900  1.00  0.00     0.211 HD
ENDBRANCH  14  16
TORSDOF 1
ENDMDL
MODEL 6
REMARK VINA RESULT:    -5.566      2.094      4.505
REMARK INTER + INTRA:          -5.729
REMARK INTER:                  -5.729
REMARK INTRA:                   0.000
REMARK UNBOUND:                 0.000
REMARK SMILES C=C1[C@H](O)C[C@]23C[C@H]1C(C)(C)[C@H]2CC[C@H]3C
REMARK SMILES IDX 16 1 15 2 14 3 13 4 12 5 6 6 7 7 8 8 9 9 10 10 11 11 2 12
REMARK SMILES IDX 1 13 3 14 5 15 4 16
REMARK H PARENT 4 17
REMARK Flexibility Score: inf
ROOT
ATOM      1  C   UNL     1     110.673 119.190 126.007  1.00  0.00     0.008 C 
ATOM      2  C   UNL     1     110.626 117.746 126.526  1.00  0.00    -0.008 C 
ATOM      3  C   UNL     1     109.265 117.372 127.099  1.00  0.00     0.004 C 
ATOM      4  C   UNL     1     109.527 116.146 127.964  1.00  0.00     0.005 C 
ATOM      5  C   UNL     1     110.989 116.254 128.453  1.00  0.00     0.002 C 
ATOM      6  C   UNL     1     111.632 117.409 127.647  1.00  0.00    -0.020 C 
ATOM      7  C   UNL     1     111.844 118.529 128.674  1.00  0.00     0.016 C 
ATOM      8  C   UNL     1     112.302 117.742 129.884  1.00  0.00     0.023 C 
ATOM      9  C   UNL     1     111.259 116.586 129.965  1.00  0.00    -0.025 C 
ATOM     10  C   UNL     1     111.796 115.347 130.722  1.00  0.00     0.012 C 
ATOM     11  C   UNL     1     110.011 117.089 130.743  1.00  0.00     0.012 C 
ATOM     12  C   UNL     1     113.716 117.238 129.591  1.00  0.00    -0.045 C 
ATOM     13  C   UNL     1     114.613 117.172 130.587  1.00  0.00     0.011 C 
ATOM     14  C   UNL     1     114.057 116.652 128.218  1.00  0.00     0.140 C 
ATOM     15  C   UNL     1     113.029 117.011 127.101  1.00  0.00     0.044 C 
ENDROOT
BRANCH  14  16
ATOM     16  O   UNL     1     115.335 117.087 127.828  1.00  0.00    -0.389 OA
ATOM     17  H   UNL     1     115.491 117.958 128.280  1.00  0.00     0.211 HD
ENDBRANCH  14  16
TORSDOF 1
ENDMDL
MODEL 7
REMARK VINA RESULT:    -5.448      3.638      6.709
REMARK INTER + INTRA:          -5.608
REMARK INTER:                  -5.608
REMARK INTRA:                   0.000
REMARK UNBOUND:                 0.000
REMARK SMILES C=C1[C@H](O)C[C@]23C[C@H]1C(C)(C)[C@H]2CC[C@H]3C
REMARK SMILES IDX 16 1 15 2 14 3 13 4 12 5 6 6 7 7 8 8 9 9 10 10 11 11 2 12
REMARK SMILES IDX 1 13 3 14 5 15 4 16
REMARK H PARENT 4 17
REMARK Flexibility Score: inf
ROOT
ATOM      1  C   UNL     1     115.608 120.524 122.888  1.00  0.00     0.008 C 
ATOM      2  C   UNL     1     114.642 121.702 123.086  1.00  0.00    -0.008 C 
ATOM      3  C   UNL     1     115.366 123.020 123.326  1.00  0.00     0.004 C 
ATOM      4  C   UNL     1     114.322 123.932 123.957  1.00  0.00     0.005 C 
ATOM      5  C   UNL     1     113.327 123.015 124.704  1.00  0.00     0.002 C 
ATOM      6  C   UNL     1     113.665 121.567 124.274  1.00  0.00    -0.020 C 
ATOM      7  C   UNL     1     114.267 120.919 125.527  1.00  0.00     0.016 C 
ATOM      8  C   UNL     1     113.377 121.486 126.614  1.00  0.00     0.023 C 
ATOM      9  C   UNL     1     113.339 123.008 126.276  1.00  0.00    -0.025 C 
ATOM     10  C   UNL     1     112.087 123.717 126.847  1.00  0.00     0.012 C 
ATOM     11  C   UNL     1     114.581 123.694 126.909  1.00  0.00     0.012 C 
ATOM     12  C   UNL     1     112.008 120.819 126.475  1.00  0.00    -0.045 C 
ATOM     13  C   UNL     1     111.297 120.535 127.577  1.00  0.00     0.011 C 
ATOM     14  C   UNL     1     111.375 120.635 125.092  1.00  0.00     0.140 C 
ATOM     15  C   UNL     1     112.384 120.770 123.910  1.00  0.00     0.044 C 
ENDROOT
BRANCH  14  16
ATOM     16  O   UNL     1     110.752 119.377 125.027  1.00  0.00    -0.389 OA
ATOM     17  H   UNL     1     110.526 119.121 125.960  1.00  0.00     0.211 HD
ENDBRANCH  14  16
TORSDOF 1
ENDMDL
MODEL 8
REMARK VINA RESULT:    -5.442      1.646      2.170
REMARK INTER + INTRA:          -5.601
REMARK INTER:                  -5.601
REMARK INTRA:                   0.000
REMARK UNBOUND:                 0.000
REMARK SMILES C=C1[C@H](O)C[C@]23C[C@H]1C(C)(C)[C@H]2CC[C@H]3C
REMARK SMILES IDX 16 1 15 2 14 3 13 4 12 5 6 6 7 7 8 8 9 9 10 10 11 11 2 12
REMARK SMILES IDX 1 13 3 14 5 15 4 16
REMARK H PARENT 4 17
REMARK Flexibility Score: inf
ROOT
ATOM      1  C   UNL     1     112.411 118.940 127.811  1.00  0.00     0.008 C 
ATOM      2  C   UNL     1     111.184 118.105 127.417  1.00  0.00    -0.008 C 
ATOM      3  C   UNL     1     111.460 116.607 127.447  1.00  0.00     0.004 C 
ATOM      4  C   UNL     1     110.354 115.987 126.603  1.00  0.00     0.005 C 
ATOM      5  C   UNL     1     109.933 117.057 125.570  1.00  0.00     0.002 C 
ATOM      6  C   UNL     1     110.623 118.374 126.004  1.00  0.00    -0.020 C 
ATOM      7  C   UNL     1     111.688 118.628 124.930  1.00  0.00     0.016 C 
ATOM      8  C   UNL     1     110.947 118.223 123.673  1.00  0.00     0.023 C 
ATOM      9  C   UNL     1     110.323 116.848 124.062  1.00  0.00    -0.025 C 
ATOM     10  C   UNL     1     109.081 116.491 123.209  1.00  0.00     0.012 C 
ATOM     11  C   UNL     1     111.377 115.732 123.822  1.00  0.00     0.012 C 
ATOM     12  C   UNL     1     109.889 119.293 123.403  1.00  0.00    -0.045 C 
ATOM     13  C   UNL     1     109.600 119.633 122.137  1.00  0.00     0.011 C 
ATOM     14  C   UNL     1     109.043 119.849 124.552  1.00  0.00     0.140 C 
ATOM     15  C   UNL     1     109.635 119.570 125.969  1.00  0.00     0.044 C 
ENDROOT
BRANCH  14  16
ATOM     16  O   UNL     1     108.880 121.235 124.385  1.00  0.00    -0.389 OA
ATOM     17  H   UNL     1     108.472 121.579 125.222  1.00  0.00     0.211 HD
ENDBRANCH  14  16
TORSDOF 1
ENDMDL
