MODEL 1
REMARK VINA RESULT:    -1.486      0.000      0.000
REMARK INTER + INTRA:          -1.863
REMARK INTER:                  -1.746
REMARK INTRA:                  -0.116
REMARK UNBOUND:                -0.116
REMARK SMILES CCCCC(=O)[O-]
REMARK SMILES IDX 4 1 5 2 6 3 7 4 3 5 2 6 1 7
REMARK H PARENT
REMARK Flexibility Score: inf
ROOT
ATOM      1  C   UNL     1     140.395  55.183 -12.852  1.00  0.00     0.053 C 
ENDROOT
BRANCH   1   2
ATOM      2  C   UNL     1     139.383  54.086 -12.760  1.00  0.00     0.041 C 
ATOM      3  O   UNL     1     138.655  53.810 -13.750  1.00  0.00    -0.550 OA
ATOM      4  O   UNL     1     139.275  53.333 -11.597  1.00  0.00    -0.550 OA
ENDBRANCH   1   2
BRANCH   1   5
ATOM      5  C   UNL     1     139.721  56.549 -12.701  1.00  0.00     0.006 C 
BRANCH   5   6
ATOM      6  C   UNL     1     139.412  56.850 -11.229  1.00  0.00    -0.003 C 
ATOM      7  C   UNL     1     140.666  56.736 -10.369  1.00  0.00     0.004 C 
ENDBRANCH   5   6
ENDBRANCH   1   5
TORSDOF 3
ENDMDL
MODEL 2
REMARK VINA RESULT:    -1.460      2.588      3.652
REMARK INTER + INTRA:          -1.832
REMARK INTER:                  -1.811
REMARK INTRA:                  -0.022
REMARK UNBOUND:                -0.116
REMARK SMILES CCCCC(=O)[O-]
REMARK SMILES IDX 4 1 5 2 6 3 7 4 3 5 2 6 1 7
REMARK H PARENT
REMARK Flexibility Score: inf
ROOT
ATOM      1  C   UNL     1     139.002  57.122 -10.253  1.00  0.00     0.053 C 
ENDROOT
BRANCH   1   2
ATOM      2  C   UNL     1     138.077  56.342  -9.373  1.00  0.00     0.041 C 
ATOM      3  O   UNL     1     138.313  55.131  -9.122  1.00  0.00    -0.550 OA
ATOM      4  O   UNL     1     136.981  56.965  -8.790  1.00  0.00    -0.550 OA
ENDBRANCH   1   2
BRANCH   1   5
ATOM      5  C   UNL     1     139.577  56.227 -11.354  1.00  0.00     0.006 C 
BRANCH   5   6
ATOM      6  C   UNL     1     139.594  56.956 -12.703  1.00  0.00    -0.003 C 
ATOM      7  C   UNL     1     140.989  56.948 -13.317  1.00  0.00     0.004 C 
ENDBRANCH   5   6
ENDBRANCH   1   5
TORSDOF 3
ENDMDL
MODEL 3
REMARK VINA RESULT:    -1.430      2.579      2.800
REMARK INTER + INTRA:          -1.797
REMARK INTER:                  -1.733
REMARK INTRA:                  -0.064
REMARK UNBOUND:                -0.116
REMARK SMILES CCCCC(=O)[O-]
REMARK SMILES IDX 4 1 5 2 6 3 7 4 3 5 2 6 1 7
REMARK H PARENT
REMARK Flexibility Score: inf
ROOT
ATOM      1  C   UNL     1     140.377  55.643 -12.936  1.00  0.00     0.053 C 
ENDROOT
BRANCH   1   2
ATOM      2  C   UNL     1     141.726  56.108 -13.386  1.00  0.00     0.041 C 
ATOM      3  O   UNL     1     141.831  57.123 -14.125  1.00  0.00    -0.550 OA
ATOM      4  O   UNL     1     142.870  55.452 -12.951  1.00  0.00    -0.550 OA
ENDBRANCH   1   2
BRANCH   1   5
ATOM      5  C   UNL     1     139.553  56.819 -12.406  1.00  0.00     0.006 C 
BRANCH   5   6
ATOM      6  C   UNL     1     139.609  56.884 -10.875  1.00  0.00    -0.003 C 
ATOM      7  C   UNL     1     139.047  55.613 -10.248  1.00  0.00     0.004 C 
ENDBRANCH   5   6
ENDBRANCH   1   5
TORSDOF 3
ENDMDL
MODEL 4
REMARK VINA RESULT:    -1.405      2.829      3.498
REMARK INTER + INTRA:          -1.768
REMARK INTER:                  -1.686
REMARK INTRA:                  -0.082
REMARK UNBOUND:                -0.116
REMARK SMILES CCCCC(=O)[O-]
REMARK SMILES IDX 4 1 5 2 6 3 7 4 3 5 2 6 1 7
REMARK H PARENT
REMARK Flexibility Score: inf
ROOT
ATOM      1  C   UNL     1     139.709  55.976 -11.467  1.00  0.00     0.053 C 
ENDROOT
BRANCH   1   2
ATOM      2  C   UNL     1     139.546  56.748 -10.196  1.00  0.00     0.041 C 
ATOM      3  O   UNL     1     140.559  57.118  -9.545  1.00  0.00    -0.550 OA
ATOM      4  O   UNL     1     138.278  57.102  -9.754  1.00  0.00    -0.550 OA
ENDBRANCH   1   2
BRANCH   1   5
ATOM      5  C   UNL     1     139.734  56.924 -12.670  1.00  0.00     0.006 C 
BRANCH   5   6
ATOM      6  C   UNL     1     141.164  57.117 -13.188  1.00  0.00    -0.003 C 
ATOM      7  C   UNL     1     141.898  55.784 -13.290  1.00  0.00     0.004 C 
ENDBRANCH   5   6
ENDBRANCH   1   5
TORSDOF 3
ENDMDL
MODEL 5
REMARK VINA RESULT:    -1.384      1.522      2.028
REMARK INTER + INTRA:          -1.744
REMARK INTER:                  -1.603
REMARK INTRA:                  -0.141
REMARK UNBOUND:                -0.116
REMARK SMILES CCCCC(=O)[O-]
REMARK SMILES IDX 4 1 5 2 6 3 7 4 3 5 2 6 1 7
REMARK H PARENT
REMARK Flexibility Score: inf
ROOT
ATOM      1  C   UNL     1     139.664  57.028 -12.657  1.00  0.00     0.053 C 
ENDROOT
BRANCH   1   2
ATOM      2  C   UNL     1     140.209  55.691 -13.047  1.00  0.00     0.041 C 
ATOM      3  O   UNL     1     141.401  55.583 -13.440  1.00  0.00    -0.550 OA
ATOM      4  O   UNL     1     139.417  54.556 -12.931  1.00  0.00    -0.550 OA
ENDBRANCH   1   2
BRANCH   1   5
ATOM      5  C   UNL     1     139.160  57.001 -11.211  1.00  0.00     0.006 C 
BRANCH   5   6
ATOM      6  C   UNL     1     140.318  56.780 -10.230  1.00  0.00    -0.003 C 
ATOM      7  C   UNL     1     140.025  55.618  -9.287  1.00  0.00     0.004 C 
ENDBRANCH   5   6
ENDBRANCH   1   5
TORSDOF 3
ENDMDL
MODEL 6
REMARK VINA RESULT:    -1.309      2.587      3.589
REMARK INTER + INTRA:          -1.655
REMARK INTER:                  -1.592
REMARK INTRA:                  -0.063
REMARK UNBOUND:                -0.116
REMARK SMILES CCCCC(=O)[O-]
REMARK SMILES IDX 4 1 5 2 6 3 7 4 3 5 2 6 1 7
REMARK H PARENT
REMARK Flexibility Score: inf
ROOT
ATOM      1  C   UNL     1     139.484  56.028 -12.618  1.00  0.00     0.053 C 
ENDROOT
BRANCH   1   2
ATOM      2  C   UNL     1     140.791  56.755 -12.654  1.00  0.00     0.041 C 
ATOM      3  O   UNL     1     141.280  57.125 -13.754  1.00  0.00    -0.550 OA
ATOM      4  O   UNL     1     141.446  57.069 -11.470  1.00  0.00    -0.550 OA
ENDBRANCH   1   2
BRANCH   1   5
ATOM      5  C   UNL     1     139.588  54.782 -11.733  1.00  0.00     0.006 C 
BRANCH   5   6
ATOM      6  C   UNL     1     139.783  53.520 -12.582  1.00  0.00    -0.003 C 
ATOM      7  C   UNL     1     138.694  53.395 -13.641  1.00  0.00     0.004 C 
ENDBRANCH   5   6
ENDBRANCH   1   5
TORSDOF 3
ENDMDL
MODEL 7
REMARK VINA RESULT:    -1.247      2.276      3.100
REMARK INTER + INTRA:          -1.582
REMARK INTER:                  -1.458
REMARK INTRA:                  -0.125
REMARK UNBOUND:                -0.116
REMARK SMILES CCCCC(=O)[O-]
REMARK SMILES IDX 4 1 5 2 6 3 7 4 3 5 2 6 1 7
REMARK H PARENT
REMARK Flexibility Score: inf
ROOT
ATOM      1  C   UNL     1     139.664  55.595 -11.100  1.00  0.00     0.053 C 
ENDROOT
BRANCH   1   2
ATOM      2  C   UNL     1     140.981  55.435 -10.409  1.00  0.00     0.041 C 
ATOM      3  O   UNL     1     141.817  54.591 -10.826  1.00  0.00    -0.550 OA
ATOM      4  O   UNL     1     141.306  56.253  -9.334  1.00  0.00    -0.550 OA
ENDBRANCH   1   2
BRANCH   1   5
ATOM      5  C   UNL     1     139.863  55.707 -12.614  1.00  0.00     0.006 C 
BRANCH   5   6
ATOM      6  C   UNL     1     140.291  57.125 -13.009  1.00  0.00    -0.003 C 
ATOM      7  C   UNL     1     141.677  57.125 -13.644  1.00  0.00     0.004 C 
ENDBRANCH   5   6
ENDBRANCH   1   5
TORSDOF 3
ENDMDL
