MODEL 1
REMARK VINA RESULT:    -3.351      0.000      0.000
REMARK INTER + INTRA:          -5.815
REMARK INTER:                  -5.114
REMARK INTRA:                  -0.701
REMARK UNBOUND:                -0.701
REMARK SMILES CCCCCCCCCCC(=O)[O-]
REMARK SMILES IDX 7 1 8 2 9 3 10 4 11 5 12 6 13 7 6 8 5 9 4 10 3 11 2 12 1 13
REMARK H PARENT
REMARK Flexibility Score: inf
ROOT
ATOM      1  C   UNL     1     -98.410 -41.537  91.254  1.00  0.00     0.000 C 
ENDROOT
BRANCH   1   2
ATOM      2  C   UNL     1     -97.329 -40.919  90.351  1.00  0.00     0.000 C 
BRANCH   2   3
ATOM      3  C   UNL     1     -97.918 -39.995  89.274  1.00  0.00     0.006 C 
BRANCH   3   4
ATOM      4  C   UNL     1     -97.140 -40.056  87.952  1.00  0.00     0.053 C 
BRANCH   4   5
ATOM      5  C   UNL     1     -97.070 -41.465  87.454  1.00  0.00     0.041 C 
ATOM      6  O   UNL     1     -98.109 -42.044  87.041  1.00  0.00    -0.550 OA
ATOM      7  O   UNL     1     -95.848 -42.124  87.401  1.00  0.00    -0.550 OA
ENDBRANCH   4   5
ENDBRANCH   3   4
ENDBRANCH   2   3
ENDBRANCH   1   2
BRANCH   1   8
ATOM      8  C   UNL     1     -98.267 -41.119  92.729  1.00  0.00     0.000 C 
BRANCH   8   9
ATOM      9  C   UNL     1     -99.166 -39.945  93.170  1.00  0.00    -0.000 C 
BRANCH   9  10
ATOM     10  C   UNL     1    -100.286 -39.567  92.183  1.00  0.00    -0.000 C 
BRANCH  10  11
ATOM     11  C   UNL     1    -100.185 -38.111  91.697  1.00  0.00    -0.000 C 
BRANCH  11  12
ATOM     12  C   UNL     1    -101.226 -37.196  92.363  1.00  0.00    -0.003 C 
ATOM     13  C   UNL     1    -100.593 -36.128  93.255  1.00  0.00     0.004 C 
ENDBRANCH  11  12
ENDBRANCH  10  11
ENDBRANCH   9  10
ENDBRANCH   8   9
ENDBRANCH   1   8
TORSDOF 9
ENDMDL
MODEL 2
REMARK VINA RESULT:    -3.328     14.571     15.811
REMARK INTER + INTRA:          -5.781
REMARK INTER:                  -4.706
REMARK INTRA:                  -1.075
REMARK UNBOUND:                -0.701
REMARK SMILES CCCCCCCCCCC(=O)[O-]
REMARK SMILES IDX 7 1 8 2 9 3 10 4 11 5 12 6 13 7 6 8 5 9 4 10 3 11 2 12 1 13
REMARK H PARENT
REMARK Flexibility Score: inf
ROOT
ATOM      1  C   UNL     1     -97.963 -28.310  81.314  1.00  0.00     0.000 C 
ENDROOT
BRANCH   1   2
ATOM      2  C   UNL     1     -97.055 -27.239  80.686  1.00  0.00     0.000 C 
BRANCH   2   3
ATOM      3  C   UNL     1     -95.697 -27.126  81.397  1.00  0.00     0.006 C 
BRANCH   3   4
ATOM      4  C   UNL     1     -95.252 -25.671  81.595  1.00  0.00     0.053 C 
BRANCH   4   5
ATOM      5  C   UNL     1     -94.091 -25.356  80.705  1.00  0.00     0.041 C 
ATOM      6  O   UNL     1     -92.977 -25.046  81.204  1.00  0.00    -0.550 OA
ATOM      7  O   UNL     1     -94.226 -25.451  79.326  1.00  0.00    -0.550 OA
ENDBRANCH   4   5
ENDBRANCH   3   4
ENDBRANCH   2   3
ENDBRANCH   1   2
BRANCH   1   8
ATOM      8  C   UNL     1     -99.035 -27.714  82.245  1.00  0.00     0.000 C 
BRANCH   8   9
ATOM      9  C   UNL     1     -98.756 -27.870  83.754  1.00  0.00    -0.000 C 
BRANCH   9  10
ATOM     10  C   UNL     1     -97.837 -26.798  84.368  1.00  0.00    -0.000 C 
BRANCH  10  11
ATOM     11  C   UNL     1     -96.602 -27.398  85.062  1.00  0.00    -0.000 C 
BRANCH  11  12
ATOM     12  C   UNL     1     -96.321 -28.842  84.614  1.00  0.00    -0.003 C 
ATOM     13  C   UNL     1     -95.696 -29.695  85.718  1.00  0.00     0.004 C 
ENDBRANCH  11  12
ENDBRANCH  10  11
ENDBRANCH   9  10
ENDBRANCH   8   9
ENDBRANCH   1   8
TORSDOF 9
ENDMDL
MODEL 3
REMARK VINA RESULT:    -3.274      3.376      6.461
REMARK INTER + INTRA:          -5.698
REMARK INTER:                  -5.094
REMARK INTRA:                  -0.603
REMARK UNBOUND:                -0.701
REMARK SMILES CCCCCCCCCCC(=O)[O-]
REMARK SMILES IDX 7 1 8 2 9 3 10 4 11 5 12 6 13 7 6 8 5 9 4 10 3 11 2 12 1 13
REMARK H PARENT
REMARK Flexibility Score: inf
ROOT
ATOM      1  C   UNL     1     -98.843 -40.937  90.650  1.00  0.00     0.000 C 
ENDROOT
BRANCH   1   2
ATOM      2  C   UNL     1     -99.194 -39.987  91.808  1.00  0.00     0.000 C 
BRANCH   2   3
ATOM      3  C   UNL     1     -99.853 -38.685  91.323  1.00  0.00     0.006 C 
BRANCH   3   4
ATOM      4  C   UNL     1    -100.468 -37.871  92.469  1.00  0.00     0.053 C 
BRANCH   4   5
ATOM      5  C   UNL     1    -101.591 -37.023  91.961  1.00  0.00     0.041 C 
ATOM      6  O   UNL     1    -101.809 -35.890  92.467  1.00  0.00    -0.550 OA
ATOM      7  O   UNL     1    -102.369 -37.463  90.897  1.00  0.00    -0.550 OA
ENDBRANCH   4   5
ENDBRANCH   3   4
ENDBRANCH   2   3
ENDBRANCH   1   2
BRANCH   1   8
ATOM      8  C   UNL     1     -97.405 -40.743  90.135  1.00  0.00     0.000 C 
BRANCH   8   9
ATOM      9  C   UNL     1     -97.266 -39.834  88.896  1.00  0.00    -0.000 C 
BRANCH   9  10
ATOM     10  C   UNL     1     -97.169 -40.571  87.547  1.00  0.00    -0.000 C 
BRANCH  10  11
ATOM     11  C   UNL     1     -96.417 -41.909  87.652  1.00  0.00    -0.000 C 
BRANCH  11  12
ATOM     12  C   UNL     1     -97.284 -43.105  87.225  1.00  0.00    -0.003 C 
ATOM     13  C   UNL     1     -98.707 -42.699  86.840  1.00  0.00     0.004 C 
ENDBRANCH  11  12
ENDBRANCH  10  11
ENDBRANCH   9  10
ENDBRANCH   8   9
ENDBRANCH   1   8
TORSDOF 9
ENDMDL
MODEL 4
REMARK VINA RESULT:    -3.246     14.525     16.317
REMARK INTER + INTRA:          -5.656
REMARK INTER:                  -4.505
REMARK INTRA:                  -1.151
REMARK UNBOUND:                -0.701
REMARK SMILES CCCCCCCCCCC(=O)[O-]
REMARK SMILES IDX 7 1 8 2 9 3 10 4 11 5 12 6 13 7 6 8 5 9 4 10 3 11 2 12 1 13
REMARK H PARENT
REMARK Flexibility Score: inf
ROOT
ATOM      1  C   UNL     1     -96.447 -25.397  81.076  1.00  0.00     0.000 C 
ENDROOT
BRANCH   1   2
ATOM      2  C   UNL     1     -95.741 -26.489  81.897  1.00  0.00     0.000 C 
BRANCH   2   3
ATOM      3  C   UNL     1     -96.483 -26.818  83.202  1.00  0.00     0.006 C 
BRANCH   3   4
ATOM      4  C   UNL     1     -96.502 -28.321  83.508  1.00  0.00     0.053 C 
BRANCH   4   5
ATOM      5  C   UNL     1     -96.172 -28.564  84.947  1.00  0.00     0.041 C 
ATOM      6  O   UNL     1     -95.891 -29.726  85.346  1.00  0.00    -0.550 OA
ATOM      7  O   UNL     1     -96.125 -27.501  85.839  1.00  0.00    -0.550 OA
ENDBRANCH   4   5
ENDBRANCH   3   4
ENDBRANCH   2   3
ENDBRANCH   1   2
BRANCH   1   8
ATOM      8  C   UNL     1     -96.081 -25.443  79.581  1.00  0.00     0.000 C 
BRANCH   8   9
ATOM      9  C   UNL     1     -95.412 -26.751  79.107  1.00  0.00    -0.000 C 
BRANCH   9  10
ATOM     10  C   UNL     1     -96.346 -27.748  78.398  1.00  0.00    -0.000 C 
BRANCH  10  11
ATOM     11  C   UNL     1     -96.515 -29.064  79.176  1.00  0.00    -0.000 C 
BRANCH  11  12
ATOM     12  C   UNL     1     -97.775 -29.066  80.059  1.00  0.00    -0.003 C 
ATOM     13  C   UNL     1     -98.826 -28.059  79.594  1.00  0.00     0.004 C 
ENDBRANCH  11  12
ENDBRANCH  10  11
ENDBRANCH   9  10
ENDBRANCH   8   9
ENDBRANCH   1   8
TORSDOF 9
ENDMDL
MODEL 5
REMARK VINA RESULT:    -3.242      1.661      2.288
REMARK INTER + INTRA:          -5.649
REMARK INTER:                  -4.822
REMARK INTRA:                  -0.826
REMARK UNBOUND:                -0.701
REMARK SMILES CCCCCCCCCCC(=O)[O-]
REMARK SMILES IDX 7 1 8 2 9 3 10 4 11 5 12 6 13 7 6 8 5 9 4 10 3 11 2 12 1 13
REMARK H PARENT
REMARK Flexibility Score: inf
ROOT
ATOM      1  C   UNL     1     -96.161 -42.541  92.496  1.00  0.00     0.000 C 
ENDROOT
BRANCH   1   2
ATOM      2  C   UNL     1     -96.326 -42.460  90.969  1.00  0.00     0.000 C 
BRANCH   2   3
ATOM      3  C   UNL     1     -96.445 -41.013  90.465  1.00  0.00     0.006 C 
BRANCH   3   4
ATOM      4  C   UNL     1     -97.674 -40.797  89.572  1.00  0.00     0.053 C 
BRANCH   4   5
ATOM      5  C   UNL     1     -97.275 -40.146  88.285  1.00  0.00     0.041 C 
ATOM      6  O   UNL     1     -97.303 -40.799  87.209  1.00  0.00    -0.550 OA
ATOM      7  O   UNL     1     -96.918 -38.803  88.267  1.00  0.00    -0.550 OA
ENDBRANCH   4   5
ENDBRANCH   3   4
ENDBRANCH   2   3
ENDBRANCH   1   2
BRANCH   1   8
ATOM      8  C   UNL     1     -96.229 -41.162  93.178  1.00  0.00     0.000 C 
BRANCH   8   9
ATOM      9  C   UNL     1     -97.448 -40.941  94.098  1.00  0.00    -0.000 C 
BRANCH   9  10
ATOM     10  C   UNL     1     -98.818 -40.996  93.398  1.00  0.00    -0.000 C 
BRANCH  10  11
ATOM     11  C   UNL     1     -99.535 -39.635  93.383  1.00  0.00    -0.000 C 
BRANCH  11  12
ATOM     12  C   UNL     1     -99.831 -39.142  91.956  1.00  0.00    -0.003 C 
ATOM     13  C   UNL     1    -100.623 -37.835  91.932  1.00  0.00     0.004 C 
ENDBRANCH  11  12
ENDBRANCH  10  11
ENDBRANCH   9  10
ENDBRANCH   8   9
ENDBRANCH   1   8
TORSDOF 9
ENDMDL
MODEL 6
REMARK VINA RESULT:    -3.230      2.912      5.353
REMARK INTER + INTRA:          -5.631
REMARK INTER:                  -4.552
REMARK INTRA:                  -1.079
REMARK UNBOUND:                -0.701
REMARK SMILES CCCCCCCCCCC(=O)[O-]
REMARK SMILES IDX 7 1 8 2 9 3 10 4 11 5 12 6 13 7 6 8 5 9 4 10 3 11 2 12 1 13
REMARK H PARENT
REMARK Flexibility Score: inf
ROOT
ATOM      1  C   UNL     1     -96.130 -42.866  91.738  1.00  0.00     0.000 C 
ENDROOT
BRANCH   1   2
ATOM      2  C   UNL     1     -96.476 -41.371  91.627  1.00  0.00     0.000 C 
BRANCH   2   3
ATOM      3  C   UNL     1     -97.798 -41.018  92.328  1.00  0.00     0.006 C 
BRANCH   3   4
ATOM      4  C   UNL     1     -98.934 -40.728  91.338  1.00  0.00     0.053 C 
BRANCH   4   5
ATOM      5  C   UNL     1     -99.765 -39.581  91.820  1.00  0.00     0.041 C 
ATOM      6  O   UNL     1    -100.384 -39.663  92.913  1.00  0.00    -0.550 OA
ATOM      7  O   UNL     1     -99.816 -38.403  91.086  1.00  0.00    -0.550 OA
ENDBRANCH   4   5
ENDBRANCH   3   4
ENDBRANCH   2   3
ENDBRANCH   1   2
BRANCH   1   8
ATOM      8  C   UNL     1     -96.309 -43.620  90.407  1.00  0.00     0.000 C 
BRANCH   8   9
ATOM      9  C   UNL     1     -96.017 -42.793  89.137  1.00  0.00    -0.000 C 
BRANCH   9  10
ATOM     10  C   UNL     1     -97.053 -42.936  88.006  1.00  0.00    -0.000 C 
BRANCH  10  11
ATOM     11  C   UNL     1     -97.867 -41.652  87.777  1.00  0.00    -0.000 C 
BRANCH  11  12
ATOM     12  C   UNL     1     -96.975 -40.432  87.495  1.00  0.00    -0.003 C 
ATOM     13  C   UNL     1     -97.188 -39.297  88.495  1.00  0.00     0.004 C 
ENDBRANCH  11  12
ENDBRANCH  10  11
ENDBRANCH   9  10
ENDBRANCH   8   9
ENDBRANCH   1   8
TORSDOF 9
ENDMDL
MODEL 7
REMARK VINA RESULT:    -3.189      3.764      6.286
REMARK INTER + INTRA:          -5.568
REMARK INTER:                  -4.908
REMARK INTRA:                  -0.661
REMARK UNBOUND:                -0.701
REMARK SMILES CCCCCCCCCCC(=O)[O-]
REMARK SMILES IDX 7 1 8 2 9 3 10 4 11 5 12 6 13 7 6 8 5 9 4 10 3 11 2 12 1 13
REMARK H PARENT
REMARK Flexibility Score: inf
ROOT
ATOM      1  C   UNL     1     -98.391 -40.533  93.070  1.00  0.00     0.000 C 
ENDROOT
BRANCH   1   2
ATOM      2  C   UNL     1     -99.877 -40.181  92.893  1.00  0.00     0.000 C 
BRANCH   2   3
ATOM      3  C   UNL     1    -100.203 -38.751  93.354  1.00  0.00     0.006 C 
BRANCH   3   4
ATOM      4  C   UNL     1    -100.439 -37.791  92.179  1.00  0.00     0.053 C 
BRANCH   4   5
ATOM      5  C   UNL     1    -100.974 -36.484  92.674  1.00  0.00     0.041 C 
ATOM      6  O   UNL     1    -100.354 -35.841  93.563  1.00  0.00    -0.550 OA
ATOM      7  O   UNL     1    -102.131 -35.952  92.121  1.00  0.00    -0.550 OA
ENDBRANCH   4   5
ENDBRANCH   3   4
ENDBRANCH   2   3
ENDBRANCH   1   2
BRANCH   1   8
ATOM      8  C   UNL     1     -97.753 -41.092  91.785  1.00  0.00     0.000 C 
BRANCH   8   9
ATOM      9  C   UNL     1     -98.603 -40.937  90.506  1.00  0.00    -0.000 C 
BRANCH   9  10
ATOM     10  C   UNL     1     -98.214 -39.758  89.597  1.00  0.00    -0.000 C 
BRANCH  10  11
ATOM     11  C   UNL     1     -97.051 -40.094  88.648  1.00  0.00    -0.000 C 
BRANCH  11  12
ATOM     12  C   UNL     1     -97.434 -41.153  87.601  1.00  0.00    -0.003 C 
ATOM     13  C   UNL     1     -96.375 -42.244  87.445  1.00  0.00     0.004 C 
ENDBRANCH  11  12
ENDBRANCH  10  11
ENDBRANCH   9  10
ENDBRANCH   8   9
ENDBRANCH   1   8
TORSDOF 9
ENDMDL
MODEL 8
REMARK VINA RESULT:    -3.171      3.460      5.834
REMARK INTER + INTRA:          -5.542
REMARK INTER:                  -4.763
REMARK INTRA:                  -0.779
REMARK UNBOUND:                -0.701
REMARK SMILES CCCCCCCCCCC(=O)[O-]
REMARK SMILES IDX 7 1 8 2 9 3 10 4 11 5 12 6 13 7 6 8 5 9 4 10 3 11 2 12 1 13
REMARK H PARENT
REMARK Flexibility Score: inf
ROOT
ATOM      1  C   UNL     1     -99.470 -39.873  93.449  1.00  0.00     0.000 C 
ENDROOT
BRANCH   1   2
ATOM      2  C   UNL     1    -100.140 -39.787  92.067  1.00  0.00     0.000 C 
BRANCH   2   3
ATOM      3  C   UNL     1    -100.083 -38.371  91.472  1.00  0.00     0.006 C 
BRANCH   3   4
ATOM      4  C   UNL     1    -100.588 -37.298  92.446  1.00  0.00     0.053 C 
BRANCH   4   5
ATOM      5  C   UNL     1    -101.857 -36.690  91.940  1.00  0.00     0.041 C 
ATOM      6  O   UNL     1    -102.568 -37.309  91.104  1.00  0.00    -0.550 OA
ATOM      7  O   UNL     1    -102.281 -35.460  92.425  1.00  0.00    -0.550 OA
ENDBRANCH   4   5
ENDBRANCH   3   4
ENDBRANCH   2   3
ENDBRANCH   1   2
BRANCH   1   8
ATOM      8  C   UNL     1     -98.155 -40.672  93.426  1.00  0.00     0.000 C 
BRANCH   8   9
ATOM      9  C   UNL     1     -97.914 -41.508  92.151  1.00  0.00    -0.000 C 
BRANCH   9  10
ATOM     10  C   UNL     1     -96.484 -41.444  91.582  1.00  0.00    -0.000 C 
BRANCH  10  11
ATOM     11  C   UNL     1     -96.457 -41.362  90.047  1.00  0.00    -0.000 C 
BRANCH  11  12
ATOM     12  C   UNL     1     -97.607 -40.512  89.483  1.00  0.00    -0.003 C 
ATOM     13  C   UNL     1     -97.236 -39.798  88.184  1.00  0.00     0.004 C 
ENDBRANCH  11  12
ENDBRANCH  10  11
ENDBRANCH   9  10
ENDBRANCH   8   9
ENDBRANCH   1   8
TORSDOF 9
ENDMDL
MODEL 9
REMARK VINA RESULT:    -3.118     14.397     16.254
REMARK INTER + INTRA:          -5.459
REMARK INTER:                  -4.530
REMARK INTRA:                  -0.929
REMARK UNBOUND:                -0.701
REMARK SMILES CCCCCCCCCCC(=O)[O-]
REMARK SMILES IDX 7 1 8 2 9 3 10 4 11 5 12 6 13 7 6 8 5 9 4 10 3 11 2 12 1 13
REMARK H PARENT
REMARK Flexibility Score: inf
ROOT
ATOM      1  C   UNL     1     -95.479 -26.187  81.492  1.00  0.00     0.000 C 
ENDROOT
BRANCH   1   2
ATOM      2  C   UNL     1     -96.890 -25.986  82.067  1.00  0.00     0.000 C 
BRANCH   2   3
ATOM      3  C   UNL     1     -97.489 -27.286  82.628  1.00  0.00     0.006 C 
BRANCH   3   4
ATOM      4  C   UNL     1     -96.416 -28.273  83.106  1.00  0.00     0.053 C 
BRANCH   4   5
ATOM      5  C   UNL     1     -96.405 -28.347  84.600  1.00  0.00     0.041 C 
ATOM      6  O   UNL     1     -96.763 -27.354  85.287  1.00  0.00    -0.550 OA
ATOM      7  O   UNL     1     -96.046 -29.529  85.235  1.00  0.00    -0.550 OA
ENDBRANCH   4   5
ENDBRANCH   3   4
ENDBRANCH   2   3
ENDBRANCH   1   2
BRANCH   1   8
ATOM      8  C   UNL     1     -95.330 -25.625  80.065  1.00  0.00     0.000 C 
BRANCH   8   9
ATOM      9  C   UNL     1     -95.310 -26.681  78.941  1.00  0.00    -0.000 C 
BRANCH   9  10
ATOM     10  C   UNL     1     -96.597 -27.515  78.798  1.00  0.00    -0.000 C 
BRANCH  10  11
ATOM     11  C   UNL     1     -96.392 -28.995  79.163  1.00  0.00    -0.000 C 
BRANCH  11  12
ATOM     12  C   UNL     1     -97.578 -29.875  78.734  1.00  0.00    -0.003 C 
ATOM     13  C   UNL     1     -98.657 -29.983  79.811  1.00  0.00     0.004 C 
ENDBRANCH  11  12
ENDBRANCH  10  11
ENDBRANCH   9  10
ENDBRANCH   8   9
ENDBRANCH   1   8
TORSDOF 9
ENDMDL
