MODEL 1
REMARK VINA RESULT:    -5.048      0.000      0.000
REMARK INTER + INTRA:          -6.217
REMARK INTER:                  -5.933
REMARK INTRA:                  -0.284
REMARK UNBOUND:                -0.284
REMARK SMILES COc1cc2ccc(=O)oc2c(OC)c1OC
REMARK SMILES IDX 3 1 15 2 12 3 11 4 5 5 4 6 6 7 7 8 8 9 9 10 10 11 2 12 1 13
REMARK SMILES IDX 16 14 17 15 13 16 14 17
REMARK H PARENT
REMARK Flexibility Score: inf
ROOT
ATOM      1  C   UNL     1       8.387  -5.465 -10.421  1.00  0.00     0.165 A 
ATOM      2  C   UNL     1       8.170  -6.855 -10.640  1.00  0.00     0.207 A 
ATOM      3  C   UNL     1       7.922  -7.706  -9.526  1.00  0.00     0.208 A 
ATOM      4  C   UNL     1       7.892  -7.170  -8.233  1.00  0.00     0.184 A 
ATOM      5  C   UNL     1       8.107  -5.795  -8.025  1.00  0.00     0.025 A 
ATOM      6  C   UNL     1       8.351  -4.954  -9.109  1.00  0.00     0.062 A 
ATOM      7  C   UNL     1       8.069  -5.301  -6.716  1.00  0.00     0.020 A 
ATOM      8  C   UNL     1       7.822  -6.175  -5.660  1.00  0.00     0.094 A 
ATOM      9  C   UNL     1       7.617  -7.528  -5.938  1.00  0.00     0.336 A 
ATOM     10  O   UNL     1       7.392  -8.337  -5.000  1.00  0.00    -0.246 OA
ATOM     11  O   UNL     1       7.659  -7.969  -7.192  1.00  0.00    -0.419 OA
ENDROOT
BRANCH   1  12
ATOM     12  O   UNL     1       8.632  -4.613 -11.509  1.00  0.00    -0.493 OA
ATOM     13  C   UNL     1       7.631  -3.948 -12.274  1.00  0.00     0.278 C 
ENDBRANCH   1  12
BRANCH   2  14
ATOM     14  O   UNL     1       8.193  -7.429 -11.926  1.00  0.00    -0.490 OA
ATOM     15  C   UNL     1       9.323  -7.932 -12.628  1.00  0.00     0.278 C 
ENDBRANCH   2  14
BRANCH   3  16
ATOM     16  O   UNL     1       7.695  -9.093  -9.632  1.00  0.00    -0.490 OA
ATOM     17  C   UNL     1       8.675 -10.125  -9.629  1.00  0.00     0.278 C 
ENDBRANCH   3  16
TORSDOF 3
ENDMDL
MODEL 2
REMARK VINA RESULT:    -4.869      2.293      3.301
REMARK INTER + INTRA:          -6.007
REMARK INTER:                  -5.745
REMARK INTRA:                  -0.262
REMARK UNBOUND:                -0.284
REMARK SMILES COc1cc2ccc(=O)oc2c(OC)c1OC
REMARK SMILES IDX 3 1 15 2 12 3 11 4 5 5 4 6 6 7 7 8 8 9 9 10 10 11 2 12 1 13
REMARK SMILES IDX 16 14 17 15 13 16 14 17
REMARK H PARENT
REMARK Flexibility Score: inf
ROOT
ATOM      1  C   UNL     1       8.396  -8.226 -10.468  1.00  0.00     0.165 A 
ATOM      2  C   UNL     1       9.529  -7.407 -10.736  1.00  0.00     0.207 A 
ATOM      3  C   UNL     1      10.024  -6.547  -9.717  1.00  0.00     0.208 A 
ATOM      4  C   UNL     1       9.394  -6.514  -8.466  1.00  0.00     0.184 A 
ATOM      5  C   UNL     1       8.275  -7.326  -8.210  1.00  0.00     0.025 A 
ATOM      6  C   UNL     1       7.784  -8.172  -9.202  1.00  0.00     0.062 A 
ATOM      7  C   UNL     1       7.676  -7.263  -6.946  1.00  0.00     0.020 A 
ATOM      8  C   UNL     1       8.197  -6.403  -5.982  1.00  0.00     0.094 A 
ATOM      9  C   UNL     1       9.312  -5.625  -6.305  1.00  0.00     0.336 A 
ATOM     10  O   UNL     1       9.801  -4.841  -5.450  1.00  0.00    -0.246 OA
ATOM     11  O   UNL     1       9.860  -5.707  -7.513  1.00  0.00    -0.419 OA
ENDROOT
BRANCH   1  12
ATOM     12  O   UNL     1       7.897  -9.082 -11.464  1.00  0.00    -0.493 OA
ATOM     13  C   UNL     1       6.524  -9.413 -11.649  1.00  0.00     0.278 C 
ENDBRANCH   1  12
BRANCH   2  14
ATOM     14  O   UNL     1      10.188  -7.414 -11.981  1.00  0.00    -0.490 OA
ATOM     15  C   UNL     1      11.224  -8.291 -12.407  1.00  0.00     0.278 C 
ENDBRANCH   2  14
BRANCH   3  16
ATOM     16  O   UNL     1      11.138  -5.697  -9.877  1.00  0.00    -0.490 OA
ATOM     17  C   UNL     1      12.510  -6.046  -9.735  1.00  0.00     0.278 C 
ENDBRANCH   3  16
TORSDOF 3
ENDMDL
MODEL 3
REMARK VINA RESULT:    -4.791      1.321      4.801
REMARK INTER + INTRA:          -5.916
REMARK INTER:                  -5.671
REMARK INTRA:                  -0.245
REMARK UNBOUND:                -0.284
REMARK SMILES COc1cc2ccc(=O)oc2c(OC)c1OC
REMARK SMILES IDX 3 1 15 2 12 3 11 4 5 5 4 6 6 7 7 8 8 9 9 10 10 11 2 12 1 13
REMARK SMILES IDX 16 14 17 15 13 16 14 17
REMARK H PARENT
REMARK Flexibility Score: inf
ROOT
ATOM      1  C   UNL     1       7.808  -5.816  -7.148  1.00  0.00     0.165 A 
ATOM      2  C   UNL     1       7.986  -7.220  -7.304  1.00  0.00     0.207 A 
ATOM      3  C   UNL     1       8.171  -7.759  -8.608  1.00  0.00     0.208 A 
ATOM      4  C   UNL     1       8.176  -6.906  -9.720  1.00  0.00     0.184 A 
ATOM      5  C   UNL     1       7.999  -5.520  -9.557  1.00  0.00     0.025 A 
ATOM      6  C   UNL     1       7.818  -4.984  -8.284  1.00  0.00     0.062 A 
ATOM      7  C   UNL     1       8.011  -4.705 -10.695  1.00  0.00     0.020 A 
ATOM      8  C   UNL     1       8.194  -5.280 -11.949  1.00  0.00     0.094 A 
ATOM      9  C   UNL     1       8.365  -6.664 -12.038  1.00  0.00     0.336 A 
ATOM     10  O   UNL     1       8.533  -7.207 -13.161  1.00  0.00    -0.246 OA
ATOM     11  O   UNL     1       8.349  -7.414 -10.940  1.00  0.00    -0.419 OA
ENDROOT
BRANCH   1  12
ATOM     12  O   UNL     1       7.626  -5.269  -5.867  1.00  0.00    -0.493 OA
ATOM     13  C   UNL     1       8.658  -5.067  -4.906  1.00  0.00     0.278 C 
ENDBRANCH   1  12
BRANCH   2  14
ATOM     14  O   UNL     1       7.987  -8.107  -6.210  1.00  0.00    -0.490 OA
ATOM     15  C   UNL     1       6.860  -8.606  -5.501  1.00  0.00     0.278 C 
ENDBRANCH   2  14
BRANCH   3  16
ATOM     16  O   UNL     1       8.356  -9.131  -8.874  1.00  0.00    -0.490 OA
ATOM     17  C   UNL     1       7.345 -10.125  -8.993  1.00  0.00     0.278 C 
ENDBRANCH   3  16
TORSDOF 3
ENDMDL
MODEL 4
REMARK VINA RESULT:    -4.662      2.250      5.423
REMARK INTER + INTRA:          -5.764
REMARK INTER:                  -5.503
REMARK INTRA:                  -0.261
REMARK UNBOUND:                -0.284
REMARK SMILES COc1cc2ccc(=O)oc2c(OC)c1OC
REMARK SMILES IDX 3 1 15 2 12 3 11 4 5 5 4 6 6 7 7 8 8 9 9 10 10 11 2 12 1 13
REMARK SMILES IDX 16 14 17 15 13 16 14 17
REMARK H PARENT
REMARK Flexibility Score: inf
ROOT
ATOM      1  C   UNL     1       8.817  -7.226  -7.482  1.00  0.00     0.165 A 
ATOM      2  C   UNL     1       8.693  -6.124  -8.376  1.00  0.00     0.207 A 
ATOM      3  C   UNL     1       9.381  -6.156  -9.621  1.00  0.00     0.208 A 
ATOM      4  C   UNL     1      10.169  -7.266  -9.954  1.00  0.00     0.184 A 
ATOM      5  C   UNL     1      10.285  -8.350  -9.065  1.00  0.00     0.025 A 
ATOM      6  C   UNL     1       9.615  -8.327  -7.844  1.00  0.00     0.062 A 
ATOM      7  C   UNL     1      11.082  -9.439  -9.437  1.00  0.00     0.020 A 
ATOM      8  C   UNL     1      11.736  -9.422 -10.667  1.00  0.00     0.094 A 
ATOM      9  C   UNL     1      11.576  -8.312 -11.500  1.00  0.00     0.336 A 
ATOM     10  O   UNL     1      12.157  -8.274 -12.616  1.00  0.00    -0.246 OA
ATOM     11  O   UNL     1      10.812  -7.292 -11.120  1.00  0.00    -0.419 OA
ENDROOT
BRANCH   1  12
ATOM     12  O   UNL     1       8.143  -7.209  -6.250  1.00  0.00    -0.493 OA
ATOM     13  C   UNL     1       7.247  -8.217  -5.790  1.00  0.00     0.278 C 
ENDBRANCH   1  12
BRANCH   2  14
ATOM     14  O   UNL     1       7.911  -4.992  -8.075  1.00  0.00    -0.490 OA
ATOM     15  C   UNL     1       6.494  -4.878  -8.140  1.00  0.00     0.278 C 
ENDBRANCH   2  14
BRANCH   3  16
ATOM     16  O   UNL     1       9.328  -5.120 -10.576  1.00  0.00    -0.490 OA
ATOM     17  C   UNL     1       8.272  -4.853 -11.492  1.00  0.00     0.278 C 
ENDBRANCH   3  16
TORSDOF 3
ENDMDL
MODEL 5
REMARK VINA RESULT:    -4.604      1.579      4.974
REMARK INTER + INTRA:          -5.696
REMARK INTER:                  -5.417
REMARK INTRA:                  -0.278
REMARK UNBOUND:                -0.284
REMARK SMILES COc1cc2ccc(=O)oc2c(OC)c1OC
REMARK SMILES IDX 3 1 15 2 12 3 11 4 5 5 4 6 6 7 7 8 8 9 9 10 10 11 2 12 1 13
REMARK SMILES IDX 16 14 17 15 13 16 14 17
REMARK H PARENT
REMARK Flexibility Score: inf
ROOT
ATOM      1  C   UNL     1       8.692  -7.184  -9.045  1.00  0.00     0.165 A 
ATOM      2  C   UNL     1       8.740  -8.155 -10.086  1.00  0.00     0.207 A 
ATOM      3  C   UNL     1       8.455  -7.759 -11.423  1.00  0.00     0.208 A 
ATOM      4  C   UNL     1       8.132  -6.425 -11.700  1.00  0.00     0.184 A 
ATOM      5  C   UNL     1       8.086  -5.472 -10.666  1.00  0.00     0.025 A 
ATOM      6  C   UNL     1       8.364  -5.850  -9.355  1.00  0.00     0.062 A 
ATOM      7  C   UNL     1       7.758  -4.149 -10.988  1.00  0.00     0.020 A 
ATOM      8  C   UNL     1       7.486  -3.812 -12.312  1.00  0.00     0.094 A 
ATOM      9  C   UNL     1       7.550  -4.810 -13.288  1.00  0.00     0.336 A 
ATOM     10  O   UNL     1       7.309  -4.529 -14.491  1.00  0.00    -0.246 OA
ATOM     11  O   UNL     1       7.865  -6.058 -12.953  1.00  0.00    -0.419 OA
ENDROOT
BRANCH   1  12
ATOM     12  O   UNL     1       8.973  -7.559  -7.721  1.00  0.00    -0.493 OA
ATOM     13  C   UNL     1       8.008  -7.680  -6.680  1.00  0.00     0.278 C 
ENDBRANCH   1  12
BRANCH   2  14
ATOM     14  O   UNL     1       9.062  -9.504  -9.844  1.00  0.00    -0.490 OA
ATOM     15  C   UNL     1      10.359 -10.074  -9.709  1.00  0.00     0.278 C 
ENDBRANCH   2  14
BRANCH   3  16
ATOM     16  O   UNL     1       8.475  -8.638 -12.525  1.00  0.00    -0.490 OA
ATOM     17  C   UNL     1       9.616  -9.071 -13.256  1.00  0.00     0.278 C 
ENDBRANCH   3  16
TORSDOF 3
ENDMDL
MODEL 6
REMARK VINA RESULT:    -4.583     14.786     17.443
REMARK INTER + INTRA:          -5.671
REMARK INTER:                  -5.436
REMARK INTRA:                  -0.235
REMARK UNBOUND:                -0.284
REMARK SMILES COc1cc2ccc(=O)oc2c(OC)c1OC
REMARK SMILES IDX 3 1 15 2 12 3 11 4 5 5 4 6 6 7 7 8 8 9 9 10 10 11 2 12 1 13
REMARK SMILES IDX 16 14 17 15 13 16 14 17
REMARK H PARENT
REMARK Flexibility Score: inf
ROOT
ATOM      1  C   UNL     1      19.977   1.116 -15.225  1.00  0.00     0.165 A 
ATOM      2  C   UNL     1      21.251   1.471 -15.753  1.00  0.00     0.207 A 
ATOM      3  C   UNL     1      21.588   1.085 -17.080  1.00  0.00     0.208 A 
ATOM      4  C   UNL     1      20.667   0.364 -17.851  1.00  0.00     0.184 A 
ATOM      5  C   UNL     1      19.411   0.017 -17.322  1.00  0.00     0.025 A 
ATOM      6  C   UNL     1      19.072   0.391 -16.023  1.00  0.00     0.062 A 
ATOM      7  C   UNL     1      18.521  -0.705 -18.127  1.00  0.00     0.020 A 
ATOM      8  C   UNL     1      18.899  -1.059 -19.420  1.00  0.00     0.094 A 
ATOM      9  C   UNL     1      20.162  -0.681 -19.881  1.00  0.00     0.336 A 
ATOM     10  O   UNL     1      20.525  -0.990 -21.046  1.00  0.00    -0.246 OA
ATOM     11  O   UNL     1      20.986   0.004 -19.094  1.00  0.00    -0.419 OA
ENDROOT
BRANCH   1  12
ATOM     12  O   UNL     1      19.630   1.490 -13.917  1.00  0.00    -0.493 OA
ATOM     13  C   UNL     1      19.667   0.633 -12.780  1.00  0.00     0.278 C 
ENDBRANCH   1  12
BRANCH   2  14
ATOM     14  O   UNL     1      22.201   2.196 -15.007  1.00  0.00    -0.490 OA
ATOM     15  C   UNL     1      23.265   1.672 -14.220  1.00  0.00     0.278 C 
ENDBRANCH   2  14
BRANCH   3  16
ATOM     16  O   UNL     1      22.819   1.385 -17.698  1.00  0.00    -0.490 OA
ATOM     17  C   UNL     1      23.107   2.494 -18.542  1.00  0.00     0.278 C 
ENDBRANCH   3  16
TORSDOF 3
ENDMDL
MODEL 7
REMARK VINA RESULT:    -4.542      2.980      5.128
REMARK INTER + INTRA:          -5.623
REMARK INTER:                  -5.373
REMARK INTRA:                  -0.251
REMARK UNBOUND:                -0.284
REMARK SMILES COc1cc2ccc(=O)oc2c(OC)c1OC
REMARK SMILES IDX 3 1 15 2 12 3 11 4 5 5 4 6 6 7 7 8 8 9 9 10 10 11 2 12 1 13
REMARK SMILES IDX 16 14 17 15 13 16 14 17
REMARK H PARENT
REMARK Flexibility Score: inf
ROOT
ATOM      1  C   UNL     1       9.383  -6.704  -8.126  1.00  0.00     0.165 A 
ATOM      2  C   UNL     1       9.035  -7.928  -8.765  1.00  0.00     0.207 A 
ATOM      3  C   UNL     1       9.862  -8.430  -9.809  1.00  0.00     0.208 A 
ATOM      4  C   UNL     1      11.005  -7.718 -10.195  1.00  0.00     0.184 A 
ATOM      5  C   UNL     1      11.341  -6.509  -9.559  1.00  0.00     0.025 A 
ATOM      6  C   UNL     1      10.537  -6.011  -8.536  1.00  0.00     0.062 A 
ATOM      7  C   UNL     1      12.491  -5.829  -9.977  1.00  0.00     0.020 A 
ATOM      8  C   UNL     1      13.268  -6.361 -11.004  1.00  0.00     0.094 A 
ATOM      9  C   UNL     1      12.875  -7.566 -11.591  1.00  0.00     0.336 A 
ATOM     10  O   UNL     1      13.560  -8.067 -12.521  1.00  0.00    -0.246 OA
ATOM     11  O   UNL     1      11.777  -8.190 -11.173  1.00  0.00    -0.419 OA
ENDROOT
BRANCH   1  12
ATOM     12  O   UNL     1       8.577  -6.197  -7.094  1.00  0.00    -0.493 OA
ATOM     13  C   UNL     1       9.034  -5.375  -6.024  1.00  0.00     0.278 C 
ENDBRANCH   1  12
BRANCH   2  14
ATOM     14  O   UNL     1       7.895  -8.671  -8.402  1.00  0.00    -0.490 OA
ATOM     15  C   UNL     1       7.810  -9.704  -7.428  1.00  0.00     0.278 C 
ENDBRANCH   2  14
BRANCH   3  16
ATOM     16  O   UNL     1       9.610  -9.630 -10.505  1.00  0.00    -0.490 OA
ATOM     17  C   UNL     1       8.697  -9.821 -11.580  1.00  0.00     0.278 C 
ENDBRANCH   3  16
TORSDOF 3
ENDMDL
MODEL 8
REMARK VINA RESULT:    -4.491      3.366      3.676
REMARK INTER + INTRA:          -5.564
REMARK INTER:                  -5.315
REMARK INTRA:                  -0.248
REMARK UNBOUND:                -0.284
REMARK SMILES COc1cc2ccc(=O)oc2c(OC)c1OC
REMARK SMILES IDX 3 1 15 2 12 3 11 4 5 5 4 6 6 7 7 8 8 9 9 10 10 11 2 12 1 13
REMARK SMILES IDX 16 14 17 15 13 16 14 17
REMARK H PARENT
REMARK Flexibility Score: inf
ROOT
ATOM      1  C   UNL     1      12.501  -6.639 -10.669  1.00  0.00     0.165 A 
ATOM      2  C   UNL     1      12.006  -7.902 -11.104  1.00  0.00     0.207 A 
ATOM      3  C   UNL     1      10.923  -8.505 -10.405  1.00  0.00     0.208 A 
ATOM      4  C   UNL     1      10.357  -7.853  -9.302  1.00  0.00     0.184 A 
ATOM      5  C   UNL     1      10.852  -6.606  -8.879  1.00  0.00     0.025 A 
ATOM      6  C   UNL     1      11.912  -6.008  -9.558  1.00  0.00     0.062 A 
ATOM      7  C   UNL     1      10.257  -5.989  -7.772  1.00  0.00     0.020 A 
ATOM      8  C   UNL     1       9.199  -6.621  -7.121  1.00  0.00     0.094 A 
ATOM      9  C   UNL     1       8.759  -7.859  -7.595  1.00  0.00     0.336 A 
ATOM     10  O   UNL     1       7.804  -8.448  -7.024  1.00  0.00    -0.246 OA
ATOM     11  O   UNL     1       9.343  -8.420  -8.650  1.00  0.00    -0.419 OA
ENDROOT
BRANCH   1  12
ATOM     12  O   UNL     1      13.568  -6.032 -11.350  1.00  0.00    -0.493 OA
ATOM     13  C   UNL     1      14.368  -4.968 -10.840  1.00  0.00     0.278 C 
ENDBRANCH   1  12
BRANCH   2  14
ATOM     14  O   UNL     1      12.550  -8.586 -12.208  1.00  0.00    -0.490 OA
ATOM     15  C   UNL     1      13.587  -9.560 -12.197  1.00  0.00     0.278 C 
ENDBRANCH   2  14
BRANCH   3  16
ATOM     16  O   UNL     1      10.358  -9.749 -10.751  1.00  0.00    -0.490 OA
ATOM     17  C   UNL     1       9.383  -9.998 -11.757  1.00  0.00     0.278 C 
ENDBRANCH   3  16
TORSDOF 3
ENDMDL
MODEL 9
REMARK VINA RESULT:    -3.897      2.140      2.320
REMARK INTER + INTRA:          -4.865
REMARK INTER:                  -4.587
REMARK INTRA:                  -0.277
REMARK UNBOUND:                -0.284
REMARK SMILES COc1cc2ccc(=O)oc2c(OC)c1OC
REMARK SMILES IDX 3 1 15 2 12 3 11 4 5 5 4 6 6 7 7 8 8 9 9 10 10 11 2 12 1 13
REMARK SMILES IDX 16 14 17 15 13 16 14 17
REMARK H PARENT
REMARK Flexibility Score: inf
ROOT
ATOM      1  C   UNL     1      10.691  -6.369  -9.714  1.00  0.00     0.165 A 
ATOM      2  C   UNL     1      10.295  -7.716  -9.952  1.00  0.00     0.207 A 
ATOM      3  C   UNL     1       9.413  -8.356  -9.038  1.00  0.00     0.208 A 
ATOM      4  C   UNL     1       8.944  -7.657  -7.918  1.00  0.00     0.184 A 
ATOM      5  C   UNL     1       9.340  -6.327  -7.689  1.00  0.00     0.025 A 
ATOM      6  C   UNL     1      10.204  -5.693  -8.580  1.00  0.00     0.062 A 
ATOM      7  C   UNL     1       8.848  -5.666  -6.558  1.00  0.00     0.020 A 
ATOM      8  C   UNL     1       7.987  -6.336  -5.692  1.00  0.00     0.094 A 
ATOM      9  C   UNL     1       7.635  -7.657  -5.980  1.00  0.00     0.336 A 
ATOM     10  O   UNL     1       6.858  -8.283  -5.212  1.00  0.00    -0.246 OA
ATOM     11  O   UNL     1       8.118  -8.260  -7.063  1.00  0.00    -0.419 OA
ENDROOT
BRANCH   1  12
ATOM     12  O   UNL     1      11.560  -5.725 -10.609  1.00  0.00    -0.493 OA
ATOM     13  C   UNL     1      12.972  -5.620 -10.451  1.00  0.00     0.278 C 
ENDBRANCH   1  12
BRANCH   2  14
ATOM     14  O   UNL     1      10.746  -8.449 -11.067  1.00  0.00    -0.490 OA
ATOM     15  C   UNL     1      11.955  -9.190 -11.184  1.00  0.00     0.278 C 
ENDBRANCH   2  14
BRANCH   3  16
ATOM     16  O   UNL     1       8.960  -9.684  -9.179  1.00  0.00    -0.490 OA
ATOM     17  C   UNL     1       7.807 -10.125  -9.887  1.00  0.00     0.278 C 
ENDBRANCH   3  16
TORSDOF 3
ENDMDL
