MODEL 1
REMARK VINA RESULT:    -4.836      0.000      0.000
REMARK INTER + INTRA:         -18.424
REMARK INTER:                 -12.751
REMARK INTRA:                  -5.673
REMARK UNBOUND:                -5.673
REMARK SMILES CCCCCCCCCCCCCCCCCCCCCCCCCCCCCC(=O)[O-]
REMARK SMILES IDX 16 1 17 2 18 3 19 4 20 5 21 6 22 7 23 8 24 9 25 10 26 11
REMARK SMILES IDX 27 12 28 13 29 14 30 15 31 16 32 17 15 18 14 19 13 20 12 21
REMARK SMILES IDX 11 22 10 23 9 24 8 25 7 26 6 27 5 28 4 29 3 30 2 31 1 32
REMARK H PARENT
REMARK Flexibility Score: inf
ROOT
ATOM      1  C   UNL     1      13.339  -4.281 -19.312  1.00  0.00     0.000 C 
ENDROOT
BRANCH   1   2
ATOM      2  C   UNL     1      11.863  -4.635 -19.588  1.00  0.00     0.000 C 
BRANCH   2   3
ATOM      3  C   UNL     1      11.677  -6.077 -20.090  1.00  0.00     0.000 C 
BRANCH   3   4
ATOM      4  C   UNL     1      10.547  -6.209 -21.125  1.00  0.00     0.000 C 
BRANCH   4   5
ATOM      5  C   UNL     1      10.783  -7.323 -22.165  1.00  0.00     0.000 C 
BRANCH   5   6
ATOM      6  C   UNL     1      11.401  -6.785 -23.465  1.00  0.00     0.000 C 
BRANCH   6   7
ATOM      7  C   UNL     1      12.871  -6.396 -23.262  1.00  0.00     0.000 C 
BRANCH   7   8
ATOM      8  C   UNL     1      13.164  -5.022 -23.882  1.00  0.00     0.000 C 
BRANCH   8   9
ATOM      9  C   UNL     1      12.717  -3.854 -22.986  1.00  0.00     0.000 C 
BRANCH   9  10
ATOM     10  C   UNL     1      11.688  -2.918 -23.658  1.00  0.00     0.000 C 
BRANCH  10  11
ATOM     11  C   UNL     1      10.243  -3.408 -23.465  1.00  0.00     0.000 C 
BRANCH  11  12
ATOM     12  C   UNL     1       9.569  -3.789 -24.793  1.00  0.00     0.000 C 
BRANCH  12  13
ATOM     13  C   UNL     1       8.080  -4.138 -24.624  1.00  0.00     0.006 C 
BRANCH  13  14
ATOM     14  C   UNL     1       7.857  -5.643 -24.424  1.00  0.00     0.053 C 
BRANCH  14  15
ATOM     15  C   UNL     1       7.428  -5.961 -23.025  1.00  0.00     0.041 C 
ATOM     16  O   UNL     1       7.096  -7.136 -22.715  1.00  0.00    -0.550 OA
ATOM     17  O   UNL     1       7.341  -4.950 -22.075  1.00  0.00    -0.550 OA
ENDBRANCH  14  15
ENDBRANCH  13  14
ENDBRANCH  12  13
ENDBRANCH  11  12
ENDBRANCH  10  11
ENDBRANCH   9  10
ENDBRANCH   8   9
ENDBRANCH   7   8
ENDBRANCH   6   7
ENDBRANCH   5   6
ENDBRANCH   4   5
ENDBRANCH   3   4
ENDBRANCH   2   3
ENDBRANCH   1   2
BRANCH   1  18
ATOM     18  C   UNL     1      14.342  -5.356 -19.771  1.00  0.00     0.000 C 
BRANCH  18  19
ATOM     19  C   UNL     1      15.477  -4.854 -20.684  1.00  0.00     0.000 C 
BRANCH  19  20
ATOM     20  C   UNL     1      16.399  -5.952 -21.248  1.00  0.00     0.000 C 
BRANCH  20  21
ATOM     21  C   UNL     1      17.832  -5.462 -21.502  1.00  0.00     0.000 C 
BRANCH  21  22
ATOM     22  C   UNL     1      17.944  -3.951 -21.249  1.00  0.00     0.000 C 
BRANCH  22  23
ATOM     23  C   UNL     1      18.888  -3.611 -20.084  1.00  0.00     0.000 C 
BRANCH  23  24
ATOM     24  C   UNL     1      18.436  -2.365 -19.302  1.00  0.00    -0.000 C 
BRANCH  24  25
ATOM     25  C   UNL     1      17.940  -2.702 -17.886  1.00  0.00    -0.000 C 
BRANCH  25  26
ATOM     26  C   UNL     1      16.407  -2.709 -17.782  1.00  0.00    -0.000 C 
BRANCH  26  27
ATOM     27  C   UNL     1      15.936  -3.714 -16.720  1.00  0.00    -0.000 C 
BRANCH  27  28
ATOM     28  C   UNL     1      16.996  -4.781 -16.385  1.00  0.00    -0.000 C 
BRANCH  28  29
ATOM     29  C   UNL     1      16.874  -6.096 -17.178  1.00  0.00    -0.000 C 
BRANCH  29  30
ATOM     30  C   UNL     1      18.163  -6.460 -17.935  1.00  0.00    -0.000 C 
BRANCH  30  31
ATOM     31  C   UNL     1      19.430  -6.024 -17.181  1.00  0.00    -0.003 C 
ATOM     32  C   UNL     1      20.548  -7.064 -17.256  1.00  0.00     0.004 C 
ENDBRANCH  30  31
ENDBRANCH  29  30
ENDBRANCH  28  29
ENDBRANCH  27  28
ENDBRANCH  26  27
ENDBRANCH  25  26
ENDBRANCH  24  25
ENDBRANCH  23  24
ENDBRANCH  22  23
ENDBRANCH  21  22
ENDBRANCH  20  21
ENDBRANCH  19  20
ENDBRANCH  18  19
ENDBRANCH   1  18
TORSDOF 28
ENDMDL
MODEL 2
REMARK VINA RESULT:    -4.832      1.462      3.350
REMARK INTER + INTRA:         -18.414
REMARK INTER:                 -12.557
REMARK INTRA:                  -5.857
REMARK UNBOUND:                -5.673
REMARK SMILES CCCCCCCCCCCCCCCCCCCCCCCCCCCCCC(=O)[O-]
REMARK SMILES IDX 16 1 17 2 18 3 19 4 20 5 21 6 22 7 23 8 24 9 25 10 26 11
REMARK SMILES IDX 27 12 28 13 29 14 30 15 31 16 32 17 15 18 14 19 13 20 12 21
REMARK SMILES IDX 11 22 10 23 9 24 8 25 7 26 6 27 5 28 4 29 3 30 2 31 1 32
REMARK H PARENT
REMARK Flexibility Score: inf
ROOT
ATOM      1  C   UNL     1      15.936  -3.632 -18.165  1.00  0.00     0.000 C 
ENDROOT
BRANCH   1   2
ATOM      2  C   UNL     1      15.057  -4.794 -18.671  1.00  0.00     0.000 C 
BRANCH   2   3
ATOM      3  C   UNL     1      13.992  -4.343 -19.685  1.00  0.00     0.000 C 
BRANCH   3   4
ATOM      4  C   UNL     1      12.634  -5.033 -19.474  1.00  0.00     0.000 C 
BRANCH   4   5
ATOM      5  C   UNL     1      11.506  -4.472 -20.364  1.00  0.00     0.000 C 
BRANCH   5   6
ATOM      6  C   UNL     1      10.758  -5.579 -21.124  1.00  0.00     0.000 C 
BRANCH   6   7
ATOM      7  C   UNL     1      11.663  -6.793 -21.368  1.00  0.00     0.000 C 
BRANCH   7   8
ATOM      8  C   UNL     1      12.228  -6.775 -22.796  1.00  0.00     0.000 C 
BRANCH   8   9
ATOM      9  C   UNL     1      13.685  -6.287 -22.857  1.00  0.00     0.000 C 
BRANCH   9  10
ATOM     10  C   UNL     1      13.844  -4.893 -23.502  1.00  0.00     0.000 C 
BRANCH  10  11
ATOM     11  C   UNL     1      12.638  -4.518 -24.381  1.00  0.00     0.000 C 
BRANCH  11  12
ATOM     12  C   UNL     1      11.900  -3.273 -23.865  1.00  0.00     0.000 C 
BRANCH  12  13
ATOM     13  C   UNL     1      10.372  -3.383 -24.017  1.00  0.00     0.006 C 
BRANCH  13  14
ATOM     14  C   UNL     1       9.972  -4.276 -25.198  1.00  0.00     0.053 C 
BRANCH  14  15
ATOM     15  C   UNL     1       8.805  -5.153 -24.863  1.00  0.00     0.041 C 
ATOM     16  O   UNL     1       8.954  -6.142 -24.096  1.00  0.00    -0.550 OA
ATOM     17  O   UNL     1       7.563  -4.912 -25.438  1.00  0.00    -0.550 OA
ENDBRANCH  14  15
ENDBRANCH  13  14
ENDBRANCH  12  13
ENDBRANCH  11  12
ENDBRANCH  10  11
ENDBRANCH   9  10
ENDBRANCH   8   9
ENDBRANCH   7   8
ENDBRANCH   6   7
ENDBRANCH   5   6
ENDBRANCH   4   5
ENDBRANCH   3   4
ENDBRANCH   2   3
ENDBRANCH   1   2
BRANCH   1  18
ATOM     18  C   UNL     1      16.466  -2.710 -19.281  1.00  0.00     0.000 C 
BRANCH  18  19
ATOM     19  C   UNL     1      17.946  -2.301 -19.151  1.00  0.00     0.000 C 
BRANCH  19  20
ATOM     20  C   UNL     1      18.644  -2.766 -17.858  1.00  0.00     0.000 C 
BRANCH  20  21
ATOM     21  C   UNL     1      20.107  -3.174 -18.078  1.00  0.00     0.000 C 
BRANCH  21  22
ATOM     22  C   UNL     1      20.581  -2.772 -19.483  1.00  0.00     0.000 C 
BRANCH  22  23
ATOM     23  C   UNL     1      21.117  -3.962 -20.294  1.00  0.00     0.000 C 
BRANCH  23  24
ATOM     24  C   UNL     1      20.781  -3.856 -21.792  1.00  0.00    -0.000 C 
BRANCH  24  25
ATOM     25  C   UNL     1      19.804  -4.946 -22.258  1.00  0.00    -0.000 C 
BRANCH  25  26
ATOM     26  C   UNL     1      18.333  -4.523 -22.121  1.00  0.00    -0.000 C 
BRANCH  26  27
ATOM     27  C   UNL     1      17.512  -5.617 -21.424  1.00  0.00    -0.000 C 
BRANCH  27  28
ATOM     28  C   UNL     1      18.375  -6.579 -20.586  1.00  0.00    -0.000 C 
BRANCH  28  29
ATOM     29  C   UNL     1      18.283  -6.380 -19.061  1.00  0.00    -0.000 C 
BRANCH  29  30
ATOM     30  C   UNL     1      19.577  -6.775 -18.327  1.00  0.00    -0.000 C 
BRANCH  30  31
ATOM     31  C   UNL     1      19.492  -6.524 -16.813  1.00  0.00    -0.003 C 
ATOM     32  C   UNL     1      18.083  -6.146 -16.356  1.00  0.00     0.004 C 
ENDBRANCH  30  31
ENDBRANCH  29  30
ENDBRANCH  28  29
ENDBRANCH  27  28
ENDBRANCH  26  27
ENDBRANCH  25  26
ENDBRANCH  24  25
ENDBRANCH  23  24
ENDBRANCH  22  23
ENDBRANCH  21  22
ENDBRANCH  20  21
ENDBRANCH  19  20
ENDBRANCH  18  19
ENDBRANCH   1  18
TORSDOF 28
ENDMDL
MODEL 3
REMARK VINA RESULT:    -4.782      3.236      8.896
REMARK INTER + INTRA:         -18.282
REMARK INTER:                 -12.385
REMARK INTRA:                  -5.897
REMARK UNBOUND:                -5.673
REMARK SMILES CCCCCCCCCCCCCCCCCCCCCCCCCCCCCC(=O)[O-]
REMARK SMILES IDX 16 1 17 2 18 3 19 4 20 5 21 6 22 7 23 8 24 9 25 10 26 11
REMARK SMILES IDX 27 12 28 13 29 14 30 15 31 16 32 17 15 18 14 19 13 20 12 21
REMARK SMILES IDX 11 22 10 23 9 24 8 25 7 26 6 27 5 28 4 29 3 30 2 31 1 32
REMARK H PARENT
REMARK Flexibility Score: inf
ROOT
ATOM      1  C   UNL     1      15.080  -4.072 -20.771  1.00  0.00     0.000 C 
ENDROOT
BRANCH   1   2
ATOM      2  C   UNL     1      15.974  -5.330 -20.771  1.00  0.00     0.000 C 
BRANCH   2   3
ATOM      3  C   UNL     1      15.753  -6.221 -19.537  1.00  0.00     0.000 C 
BRANCH   3   4
ATOM      4  C   UNL     1      17.023  -6.388 -18.686  1.00  0.00     0.000 C 
BRANCH   4   5
ATOM      5  C   UNL     1      16.769  -6.307 -17.166  1.00  0.00     0.000 C 
BRANCH   5   6
ATOM      6  C   UNL     1      17.319  -5.011 -16.551  1.00  0.00     0.000 C 
BRANCH   6   7
ATOM      7  C   UNL     1      16.209  -3.966 -16.374  1.00  0.00     0.000 C 
BRANCH   7   8
ATOM      8  C   UNL     1      16.407  -2.790 -17.342  1.00  0.00     0.000 C 
BRANCH   8   9
ATOM      9  C   UNL     1      17.879  -2.582 -17.739  1.00  0.00     0.000 C 
BRANCH   9  10
ATOM     10  C   UNL     1      18.117  -2.605 -19.265  1.00  0.00     0.000 C 
BRANCH  10  11
ATOM     11  C   UNL     1      19.270  -3.544 -19.660  1.00  0.00     0.000 C 
BRANCH  11  12
ATOM     12  C   UNL     1      19.955  -3.116 -20.967  1.00  0.00     0.000 C 
BRANCH  12  13
ATOM     13  C   UNL     1      20.485  -4.312 -21.778  1.00  0.00     0.006 C 
BRANCH  13  14
ATOM     14  C   UNL     1      19.356  -5.087 -22.471  1.00  0.00     0.053 C 
BRANCH  14  15
ATOM     15  C   UNL     1      19.258  -6.495 -21.970  1.00  0.00     0.041 C 
ATOM     16  O   UNL     1      19.952  -6.868 -20.988  1.00  0.00    -0.550 OA
ATOM     17  O   UNL     1      18.439  -7.410 -22.619  1.00  0.00    -0.550 OA
ENDBRANCH  14  15
ENDBRANCH  13  14
ENDBRANCH  12  13
ENDBRANCH  11  12
ENDBRANCH  10  11
ENDBRANCH   9  10
ENDBRANCH   8   9
ENDBRANCH   7   8
ENDBRANCH   6   7
ENDBRANCH   5   6
ENDBRANCH   4   5
ENDBRANCH   3   4
ENDBRANCH   2   3
ENDBRANCH   1   2
BRANCH   1  18
ATOM     18  C   UNL     1      13.913  -4.128 -19.766  1.00  0.00     0.000 C 
BRANCH  18  19
ATOM     19  C   UNL     1      12.504  -4.122 -20.390  1.00  0.00     0.000 C 
BRANCH  19  20
ATOM     20  C   UNL     1      11.501  -5.104 -19.753  1.00  0.00     0.000 C 
BRANCH  20  21
ATOM     21  C   UNL     1      11.212  -6.325 -20.636  1.00  0.00     0.000 C 
BRANCH  21  22
ATOM     22  C   UNL     1      12.303  -7.393 -20.466  1.00  0.00     0.000 C 
BRANCH  22  23
ATOM     23  C   UNL     1      13.090  -7.651 -21.760  1.00  0.00     0.000 C 
BRANCH  23  24
ATOM     24  C   UNL     1      12.518  -6.880 -22.963  1.00  0.00    -0.000 C 
BRANCH  24  25
ATOM     25  C   UNL     1      13.552  -5.947 -23.614  1.00  0.00    -0.000 C 
BRANCH  25  26
ATOM     26  C   UNL     1      12.925  -4.990 -24.639  1.00  0.00    -0.000 C 
BRANCH  26  27
ATOM     27  C   UNL     1      12.211  -3.826 -23.936  1.00  0.00    -0.000 C 
BRANCH  27  28
ATOM     28  C   UNL     1      10.709  -3.750 -24.267  1.00  0.00    -0.000 C 
BRANCH  28  29
ATOM     29  C   UNL     1       9.764  -3.871 -23.057  1.00  0.00    -0.000 C 
BRANCH  29  30
ATOM     30  C   UNL     1       8.722  -4.992 -23.220  1.00  0.00    -0.000 C 
BRANCH  30  31
ATOM     31  C   UNL     1       7.820  -5.138 -21.984  1.00  0.00    -0.003 C 
ATOM     32  C   UNL     1       7.573  -6.598 -21.604  1.00  0.00     0.004 C 
ENDBRANCH  30  31
ENDBRANCH  29  30
ENDBRANCH  28  29
ENDBRANCH  27  28
ENDBRANCH  26  27
ENDBRANCH  25  26
ENDBRANCH  24  25
ENDBRANCH  23  24
ENDBRANCH  22  23
ENDBRANCH  21  22
ENDBRANCH  20  21
ENDBRANCH  19  20
ENDBRANCH  18  19
ENDBRANCH   1  18
TORSDOF 28
ENDMDL
MODEL 4
REMARK VINA RESULT:    -4.779      1.699      4.394
REMARK INTER + INTRA:         -18.276
REMARK INTER:                 -12.221
REMARK INTRA:                  -6.054
REMARK UNBOUND:                -5.673
REMARK SMILES CCCCCCCCCCCCCCCCCCCCCCCCCCCCCC(=O)[O-]
REMARK SMILES IDX 16 1 17 2 18 3 19 4 20 5 21 6 22 7 23 8 24 9 25 10 26 11
REMARK SMILES IDX 27 12 28 13 29 14 30 15 31 16 32 17 15 18 14 19 13 20 12 21
REMARK SMILES IDX 11 22 10 23 9 24 8 25 7 26 6 27 5 28 4 29 3 30 2 31 1 32
REMARK H PARENT
REMARK Flexibility Score: inf
ROOT
ATOM      1  C   UNL     1      16.641  -6.328 -19.353  1.00  0.00     0.000 C 
ENDROOT
BRANCH   1   2
ATOM      2  C   UNL     1      15.562  -5.633 -20.210  1.00  0.00     0.000 C 
BRANCH   2   3
ATOM      3  C   UNL     1      14.223  -5.472 -19.472  1.00  0.00     0.000 C 
BRANCH   3   4
ATOM      4  C   UNL     1      13.471  -4.191 -19.870  1.00  0.00     0.000 C 
BRANCH   4   5
ATOM      5  C   UNL     1      13.931  -3.593 -21.215  1.00  0.00     0.000 C 
BRANCH   5   6
ATOM      6  C   UNL     1      12.907  -3.826 -22.337  1.00  0.00     0.000 C 
BRANCH   6   7
ATOM      7  C   UNL     1      13.565  -4.470 -23.564  1.00  0.00     0.000 C 
BRANCH   7   8
ATOM      8  C   UNL     1      13.025  -5.890 -23.792  1.00  0.00     0.000 C 
BRANCH   8   9
ATOM      9  C   UNL     1      13.987  -6.983 -23.296  1.00  0.00     0.000 C 
BRANCH   9  10
ATOM     10  C   UNL     1      13.393  -7.870 -22.180  1.00  0.00     0.000 C 
BRANCH  10  11
ATOM     11  C   UNL     1      11.950  -8.303 -22.487  1.00  0.00     0.000 C 
BRANCH  11  12
ATOM     12  C   UNL     1      11.005  -8.087 -21.295  1.00  0.00     0.000 C 
BRANCH  12  13
ATOM     13  C   UNL     1      10.857  -6.603 -20.917  1.00  0.00     0.006 C 
BRANCH  13  14
ATOM     14  C   UNL     1       9.465  -6.055 -21.258  1.00  0.00     0.053 C 
BRANCH  14  15
ATOM     15  C   UNL     1       9.458  -5.331 -22.569  1.00  0.00     0.041 C 
ATOM     16  O   UNL     1       9.364  -4.075 -22.600  1.00  0.00    -0.550 OA
ATOM     17  O   UNL     1       9.499  -6.046 -23.760  1.00  0.00    -0.550 OA
ENDBRANCH  14  15
ENDBRANCH  13  14
ENDBRANCH  12  13
ENDBRANCH  11  12
ENDBRANCH  10  11
ENDBRANCH   9  10
ENDBRANCH   8   9
ENDBRANCH   7   8
ENDBRANCH   6   7
ENDBRANCH   5   6
ENDBRANCH   4   5
ENDBRANCH   3   4
ENDBRANCH   2   3
ENDBRANCH   1   2
BRANCH   1  18
ATOM     18  C   UNL     1      16.263  -6.483 -17.868  1.00  0.00     0.000 C 
BRANCH  18  19
ATOM     19  C   UNL     1      17.298  -5.942 -16.863  1.00  0.00     0.000 C 
BRANCH  19  20
ATOM     20  C   UNL     1      16.791  -4.813 -15.944  1.00  0.00     0.000 C 
BRANCH  20  21
ATOM     21  C   UNL     1      15.837  -3.843 -16.655  1.00  0.00     0.000 C 
BRANCH  21  22
ATOM     22  C   UNL     1      16.596  -2.611 -17.171  1.00  0.00     0.000 C 
BRANCH  22  23
ATOM     23  C   UNL     1      16.542  -2.476 -18.701  1.00  0.00     0.000 C 
BRANCH  23  24
ATOM     24  C   UNL     1      17.891  -2.792 -19.370  1.00  0.00    -0.000 C 
BRANCH  24  25
ATOM     25  C   UNL     1      19.040  -2.917 -18.356  1.00  0.00    -0.000 C 
BRANCH  25  26
ATOM     26  C   UNL     1      20.421  -2.967 -19.028  1.00  0.00    -0.000 C 
BRANCH  26  27
ATOM     27  C   UNL     1      20.338  -2.489 -20.485  1.00  0.00    -0.000 C 
BRANCH  27  28
ATOM     28  C   UNL     1      20.843  -3.537 -21.494  1.00  0.00    -0.000 C 
BRANCH  28  29
ATOM     29  C   UNL     1      20.153  -4.911 -21.411  1.00  0.00    -0.000 C 
BRANCH  29  30
ATOM     30  C   UNL     1      19.607  -5.390 -22.768  1.00  0.00    -0.000 C 
BRANCH  30  31
ATOM     31  C   UNL     1      18.108  -5.725 -22.712  1.00  0.00    -0.003 C 
ATOM     32  C   UNL     1      17.224  -4.541 -23.103  1.00  0.00     0.004 C 
ENDBRANCH  30  31
ENDBRANCH  29  30
ENDBRANCH  28  29
ENDBRANCH  27  28
ENDBRANCH  26  27
ENDBRANCH  25  26
ENDBRANCH  24  25
ENDBRANCH  23  24
ENDBRANCH  22  23
ENDBRANCH  21  22
ENDBRANCH  20  21
ENDBRANCH  19  20
ENDBRANCH  18  19
ENDBRANCH   1  18
TORSDOF 28
ENDMDL
MODEL 5
REMARK VINA RESULT:    -4.764      2.429      4.284
REMARK INTER + INTRA:         -18.236
REMARK INTER:                 -12.589
REMARK INTRA:                  -5.647
REMARK UNBOUND:                -5.673
REMARK SMILES CCCCCCCCCCCCCCCCCCCCCCCCCCCCCC(=O)[O-]
REMARK SMILES IDX 16 1 17 2 18 3 19 4 20 5 21 6 22 7 23 8 24 9 25 10 26 11
REMARK SMILES IDX 27 12 28 13 29 14 30 15 31 16 32 17 15 18 14 19 13 20 12 21
REMARK SMILES IDX 11 22 10 23 9 24 8 25 7 26 6 27 5 28 4 29 3 30 2 31 1 32
REMARK H PARENT
REMARK Flexibility Score: inf
ROOT
ATOM      1  C   UNL     1      15.141  -5.783 -19.231  1.00  0.00     0.000 C 
ENDROOT
BRANCH   1   2
ATOM      2  C   UNL     1      14.426  -4.421 -19.110  1.00  0.00     0.000 C 
BRANCH   2   3
ATOM      3  C   UNL     1      12.935  -4.492 -19.480  1.00  0.00     0.000 C 
BRANCH   3   4
ATOM      4  C   UNL     1      12.646  -3.978 -20.900  1.00  0.00     0.000 C 
BRANCH   4   5
ATOM      5  C   UNL     1      11.335  -4.522 -21.504  1.00  0.00     0.000 C 
BRANCH   5   6
ATOM      6  C   UNL     1      10.727  -5.651 -20.657  1.00  0.00     0.000 C 
BRANCH   6   7
ATOM      7  C   UNL     1      10.108  -6.739 -21.544  1.00  0.00     0.000 C 
BRANCH   7   8
ATOM      8  C   UNL     1       8.711  -7.128 -21.036  1.00  0.00     0.000 C 
BRANCH   8   9
ATOM      9  C   UNL     1       7.636  -6.086 -21.386  1.00  0.00     0.000 C 
BRANCH   9  10
ATOM     10  C   UNL     1       7.489  -5.834 -22.903  1.00  0.00     0.000 C 
BRANCH  10  11
ATOM     11  C   UNL     1       7.619  -4.344 -23.261  1.00  0.00     0.000 C 
BRANCH  11  12
ATOM     12  C   UNL     1       8.631  -4.097 -24.391  1.00  0.00     0.000 C 
BRANCH  12  13
ATOM     13  C   UNL     1       9.225  -5.401 -24.952  1.00  0.00     0.006 C 
BRANCH  13  14
ATOM     14  C   UNL     1      10.758  -5.406 -24.904  1.00  0.00     0.053 C 
BRANCH  14  15
ATOM     15  C   UNL     1      11.354  -4.674 -26.067  1.00  0.00     0.041 C 
ATOM     16  O   UNL     1      11.795  -5.311 -27.059  1.00  0.00    -0.550 OA
ATOM     17  O   UNL     1      11.471  -3.289 -26.033  1.00  0.00    -0.550 OA
ENDBRANCH  14  15
ENDBRANCH  13  14
ENDBRANCH  12  13
ENDBRANCH  11  12
ENDBRANCH  10  11
ENDBRANCH   9  10
ENDBRANCH   8   9
ENDBRANCH   7   8
ENDBRANCH   6   7
ENDBRANCH   5   6
ENDBRANCH   4   5
ENDBRANCH   3   4
ENDBRANCH   2   3
ENDBRANCH   1   2
BRANCH   1  18
ATOM     18  C   UNL     1      14.242  -6.924 -19.746  1.00  0.00     0.000 C 
BRANCH  18  19
ATOM     19  C   UNL     1      14.673  -7.552 -21.085  1.00  0.00     0.000 C 
BRANCH  19  20
ATOM     20  C   UNL     1      13.642  -7.439 -22.225  1.00  0.00     0.000 C 
BRANCH  20  21
ATOM     21  C   UNL     1      14.059  -6.443 -23.315  1.00  0.00     0.000 C 
BRANCH  21  22
ATOM     22  C   UNL     1      15.518  -6.002 -23.123  1.00  0.00     0.000 C 
BRANCH  22  23
ATOM     23  C   UNL     1      15.692  -4.476 -23.190  1.00  0.00     0.000 C 
BRANCH  23  24
ATOM     24  C   UNL     1      16.671  -3.946 -22.127  1.00  0.00    -0.000 C 
BRANCH  24  25
ATOM     25  C   UNL     1      17.701  -5.001 -21.692  1.00  0.00    -0.000 C 
BRANCH  25  26
ATOM     26  C   UNL     1      19.011  -4.914 -22.489  1.00  0.00    -0.000 C 
BRANCH  26  27
ATOM     27  C   UNL     1      20.219  -4.811 -21.547  1.00  0.00    -0.000 C 
BRANCH  27  28
ATOM     28  C   UNL     1      20.741  -3.371 -21.387  1.00  0.00    -0.000 C 
BRANCH  28  29
ATOM     29  C   UNL     1      20.200  -2.611 -20.162  1.00  0.00    -0.000 C 
BRANCH  29  30
ATOM     30  C   UNL     1      20.006  -3.517 -18.933  1.00  0.00    -0.000 C 
BRANCH  30  31
ATOM     31  C   UNL     1      18.674  -3.251 -18.213  1.00  0.00    -0.003 C 
ATOM     32  C   UNL     1      17.742  -2.342 -19.015  1.00  0.00     0.004 C 
ENDBRANCH  30  31
ENDBRANCH  29  30
ENDBRANCH  28  29
ENDBRANCH  27  28
ENDBRANCH  26  27
ENDBRANCH  25  26
ENDBRANCH  24  25
ENDBRANCH  23  24
ENDBRANCH  22  23
ENDBRANCH  21  22
ENDBRANCH  20  21
ENDBRANCH  19  20
ENDBRANCH  18  19
ENDBRANCH   1  18
TORSDOF 28
ENDMDL
MODEL 6
REMARK VINA RESULT:    -4.739      3.508      9.560
REMARK INTER + INTRA:         -18.168
REMARK INTER:                 -12.914
REMARK INTRA:                  -5.254
REMARK UNBOUND:                -5.673
REMARK SMILES CCCCCCCCCCCCCCCCCCCCCCCCCCCCCC(=O)[O-]
REMARK SMILES IDX 16 1 17 2 18 3 19 4 20 5 21 6 22 7 23 8 24 9 25 10 26 11
REMARK SMILES IDX 27 12 28 13 29 14 30 15 31 16 32 17 15 18 14 19 13 20 12 21
REMARK SMILES IDX 11 22 10 23 9 24 8 25 7 26 6 27 5 28 4 29 3 30 2 31 1 32
REMARK H PARENT
REMARK Flexibility Score: inf
ROOT
ATOM      1  C   UNL     1      10.956  -5.544 -20.277  1.00  0.00     0.000 C 
ENDROOT
BRANCH   1   2
ATOM      2  C   UNL     1      12.040  -4.499 -20.613  1.00  0.00     0.000 C 
BRANCH   2   3
ATOM      3  C   UNL     1      13.183  -4.471 -19.584  1.00  0.00     0.000 C 
BRANCH   3   4
ATOM      4  C   UNL     1      14.482  -3.873 -20.150  1.00  0.00     0.000 C 
BRANCH   4   5
ATOM      5  C   UNL     1      15.577  -4.922 -20.434  1.00  0.00     0.000 C 
BRANCH   5   6
ATOM      6  C   UNL     1      15.118  -6.350 -20.100  1.00  0.00     0.000 C 
BRANCH   6   7
ATOM      7  C   UNL     1      16.024  -6.991 -19.041  1.00  0.00     0.000 C 
BRANCH   7   8
ATOM      8  C   UNL     1      17.406  -6.320 -19.026  1.00  0.00     0.000 C 
BRANCH   8   9
ATOM      9  C   UNL     1      17.956  -6.116 -17.604  1.00  0.00     0.000 C 
BRANCH   9  10
ATOM     10  C   UNL     1      16.855  -5.980 -16.529  1.00  0.00     0.000 C 
BRANCH  10  11
ATOM     11  C   UNL     1      16.747  -4.545 -15.986  1.00  0.00     0.000 C 
BRANCH  11  12
ATOM     12  C   UNL     1      16.306  -3.541 -17.062  1.00  0.00     0.000 C 
BRANCH  12  13
ATOM     13  C   UNL     1      17.391  -2.496 -17.378  1.00  0.00     0.006 C 
BRANCH  13  14
ATOM     14  C   UNL     1      17.653  -2.370 -18.884  1.00  0.00     0.053 C 
BRANCH  14  15
ATOM     15  C   UNL     1      19.067  -2.719 -19.234  1.00  0.00     0.041 C 
ATOM     16  O   UNL     1      19.852  -3.150 -18.349  1.00  0.00    -0.550 OA
ATOM     17  O   UNL     1      19.534  -2.517 -20.527  1.00  0.00    -0.550 OA
ENDBRANCH  14  15
ENDBRANCH  13  14
ENDBRANCH  12  13
ENDBRANCH  11  12
ENDBRANCH  10  11
ENDBRANCH   9  10
ENDBRANCH   8   9
ENDBRANCH   7   8
ENDBRANCH   6   7
ENDBRANCH   5   6
ENDBRANCH   4   5
ENDBRANCH   3   4
ENDBRANCH   2   3
ENDBRANCH   1   2
BRANCH   1  18
ATOM     18  C   UNL     1      10.384  -6.277 -21.506  1.00  0.00     0.000 C 
BRANCH  18  19
ATOM     19  C   UNL     1       8.863  -6.524 -21.480  1.00  0.00     0.000 C 
BRANCH  19  20
ATOM     20  C   UNL     1       8.293  -7.236 -22.722  1.00  0.00     0.000 C 
BRANCH  20  21
ATOM     21  C   UNL     1       9.335  -7.434 -23.832  1.00  0.00     0.000 C 
BRANCH  21  22
ATOM     22  C   UNL     1       8.671  -7.391 -25.217  1.00  0.00     0.000 C 
BRANCH  22  23
ATOM     23  C   UNL     1       7.153  -7.164 -25.142  1.00  0.00     0.000 C 
BRANCH  23  24
ATOM     24  C   UNL     1       6.715  -5.868 -25.847  1.00  0.00    -0.000 C 
BRANCH  24  25
ATOM     25  C   UNL     1       6.710  -4.653 -24.905  1.00  0.00    -0.000 C 
BRANCH  25  26
ATOM     26  C   UNL     1       7.928  -3.739 -25.111  1.00  0.00    -0.000 C 
BRANCH  26  27
ATOM     27  C   UNL     1       8.848  -3.769 -23.882  1.00  0.00    -0.000 C 
BRANCH  27  28
ATOM     28  C   UNL     1      10.344  -3.743 -24.246  1.00  0.00    -0.000 C 
BRANCH  28  29
ATOM     29  C   UNL     1      10.702  -4.409 -25.588  1.00  0.00    -0.000 C 
BRANCH  29  30
ATOM     30  C   UNL     1      12.156  -4.911 -25.639  1.00  0.00    -0.000 C 
BRANCH  30  31
ATOM     31  C   UNL     1      12.624  -5.488 -24.293  1.00  0.00    -0.003 C 
ATOM     32  C   UNL     1      13.917  -4.843 -23.794  1.00  0.00     0.004 C 
ENDBRANCH  30  31
ENDBRANCH  29  30
ENDBRANCH  28  29
ENDBRANCH  27  28
ENDBRANCH  26  27
ENDBRANCH  25  26
ENDBRANCH  24  25
ENDBRANCH  23  24
ENDBRANCH  22  23
ENDBRANCH  21  22
ENDBRANCH  20  21
ENDBRANCH  19  20
ENDBRANCH  18  19
ENDBRANCH   1  18
TORSDOF 28
ENDMDL
MODEL 7
REMARK VINA RESULT:    -4.731      3.723      9.008
REMARK INTER + INTRA:         -18.147
REMARK INTER:                 -12.813
REMARK INTRA:                  -5.334
REMARK UNBOUND:                -5.673
REMARK SMILES CCCCCCCCCCCCCCCCCCCCCCCCCCCCCC(=O)[O-]
REMARK SMILES IDX 16 1 17 2 18 3 19 4 20 5 21 6 22 7 23 8 24 9 25 10 26 11
REMARK SMILES IDX 27 12 28 13 29 14 30 15 31 16 32 17 15 18 14 19 13 20 12 21
REMARK SMILES IDX 11 22 10 23 9 24 8 25 7 26 6 27 5 28 4 29 3 30 2 31 1 32
REMARK H PARENT
REMARK Flexibility Score: inf
ROOT
ATOM      1  C   UNL     1      17.035  -4.832 -22.218  1.00  0.00     0.000 C 
ENDROOT
BRANCH   1   2
ATOM      2  C   UNL     1      17.110  -5.504 -20.831  1.00  0.00     0.000 C 
BRANCH   2   3
ATOM      3  C   UNL     1      16.283  -6.798 -20.747  1.00  0.00     0.000 C 
BRANCH   3   4
ATOM      4  C   UNL     1      16.127  -7.316 -19.308  1.00  0.00     0.000 C 
BRANCH   4   5
ATOM      5  C   UNL     1      15.941  -6.197 -18.261  1.00  0.00     0.000 C 
BRANCH   5   6
ATOM      6  C   UNL     1      17.023  -6.234 -17.171  1.00  0.00     0.000 C 
BRANCH   6   7
ATOM      7  C   UNL     1      17.331  -4.826 -16.646  1.00  0.00     0.000 C 
BRANCH   7   8
ATOM      8  C   UNL     1      16.321  -3.806 -17.193  1.00  0.00     0.000 C 
BRANCH   8   9
ATOM      9  C   UNL     1      16.985  -2.682 -18.006  1.00  0.00     0.000 C 
BRANCH   9  10
ATOM     10  C   UNL     1      18.451  -2.981 -18.390  1.00  0.00     0.000 C 
BRANCH  10  11
ATOM     11  C   UNL     1      18.846  -2.332 -19.728  1.00  0.00     0.000 C 
BRANCH  11  12
ATOM     12  C   UNL     1      20.311  -2.602 -20.103  1.00  0.00     0.000 C 
BRANCH  12  13
ATOM     13  C   UNL     1      20.454  -3.633 -21.236  1.00  0.00     0.006 C 
BRANCH  13  14
ATOM     14  C   UNL     1      21.383  -4.791 -20.852  1.00  0.00     0.053 C 
BRANCH  14  15
ATOM     15  C   UNL     1      21.072  -6.035 -21.627  1.00  0.00     0.041 C 
ATOM     16  O   UNL     1      21.664  -7.114 -21.359  1.00  0.00    -0.550 OA
ATOM     17  O   UNL     1      20.168  -5.991 -22.681  1.00  0.00    -0.550 OA
ENDBRANCH  14  15
ENDBRANCH  13  14
ENDBRANCH  12  13
ENDBRANCH  11  12
ENDBRANCH  10  11
ENDBRANCH   9  10
ENDBRANCH   8   9
ENDBRANCH   7   8
ENDBRANCH   6   7
ENDBRANCH   5   6
ENDBRANCH   4   5
ENDBRANCH   3   4
ENDBRANCH   2   3
ENDBRANCH   1   2
BRANCH   1  18
ATOM     18  C   UNL     1      15.959  -3.734 -22.330  1.00  0.00     0.000 C 
BRANCH  18  19
ATOM     19  C   UNL     1      15.253  -3.365 -21.011  1.00  0.00     0.000 C 
BRANCH  19  20
ATOM     20  C   UNL     1      13.764  -3.755 -20.933  1.00  0.00     0.000 C 
BRANCH  20  21
ATOM     21  C   UNL     1      13.325  -4.173 -19.523  1.00  0.00     0.000 C 
BRANCH  21  22
ATOM     22  C   UNL     1      11.953  -4.862 -19.560  1.00  0.00     0.000 C 
BRANCH  22  23
ATOM     23  C   UNL     1      11.643  -5.498 -20.924  1.00  0.00     0.000 C 
BRANCH  23  24
ATOM     24  C   UNL     1      10.199  -6.022 -21.017  1.00  0.00    -0.000 C 
BRANCH  24  25
ATOM     25  C   UNL     1       9.396  -5.353 -22.144  1.00  0.00    -0.000 C 
BRANCH  25  26
ATOM     26  C   UNL     1      10.057  -4.065 -22.658  1.00  0.00    -0.000 C 
BRANCH  26  27
ATOM     27  C   UNL     1       9.796  -3.878 -24.160  1.00  0.00    -0.000 C 
BRANCH  27  28
ATOM     28  C   UNL     1      11.021  -3.343 -24.924  1.00  0.00    -0.000 C 
BRANCH  28  29
ATOM     29  C   UNL     1      11.613  -4.306 -25.970  1.00  0.00    -0.000 C 
BRANCH  29  30
ATOM     30  C   UNL     1      12.210  -5.578 -25.343  1.00  0.00    -0.000 C 
BRANCH  30  31
ATOM     31  C   UNL     1      13.280  -5.264 -24.285  1.00  0.00    -0.003 C 
ATOM     32  C   UNL     1      13.775  -6.514 -23.559  1.00  0.00     0.004 C 
ENDBRANCH  30  31
ENDBRANCH  29  30
ENDBRANCH  28  29
ENDBRANCH  27  28
ENDBRANCH  26  27
ENDBRANCH  25  26
ENDBRANCH  24  25
ENDBRANCH  23  24
ENDBRANCH  22  23
ENDBRANCH  21  22
ENDBRANCH  20  21
ENDBRANCH  19  20
ENDBRANCH  18  19
ENDBRANCH   1  18
TORSDOF 28
ENDMDL
MODEL 8
REMARK VINA RESULT:    -4.727      3.629      8.991
REMARK INTER + INTRA:         -18.137
REMARK INTER:                 -12.029
REMARK INTRA:                  -6.107
REMARK UNBOUND:                -5.673
REMARK SMILES CCCCCCCCCCCCCCCCCCCCCCCCCCCCCC(=O)[O-]
REMARK SMILES IDX 16 1 17 2 18 3 19 4 20 5 21 6 22 7 23 8 24 9 25 10 26 11
REMARK SMILES IDX 27 12 28 13 29 14 30 15 31 16 32 17 15 18 14 19 13 20 12 21
REMARK SMILES IDX 11 22 10 23 9 24 8 25 7 26 6 27 5 28 4 29 3 30 2 31 1 32
REMARK H PARENT
REMARK Flexibility Score: inf
ROOT
ATOM      1  C   UNL     1      13.845  -4.033 -19.834  1.00  0.00     0.000 C 
ENDROOT
BRANCH   1   2
ATOM      2  C   UNL     1      15.281  -3.701 -20.289  1.00  0.00     0.000 C 
BRANCH   2   3
ATOM      3  C   UNL     1      15.443  -3.716 -21.818  1.00  0.00     0.000 C 
BRANCH   3   4
ATOM      4  C   UNL     1      16.853  -4.138 -22.266  1.00  0.00     0.000 C 
BRANCH   4   5
ATOM      5  C   UNL     1      17.199  -5.604 -21.930  1.00  0.00     0.000 C 
BRANCH   5   6
ATOM      6  C   UNL     1      18.362  -5.713 -20.930  1.00  0.00     0.000 C 
BRANCH   6   7
ATOM      7  C   UNL     1      18.057  -6.743 -19.835  1.00  0.00     0.000 C 
BRANCH   7   8
ATOM      8  C   UNL     1      16.542  -6.910 -19.648  1.00  0.00     0.000 C 
BRANCH   8   9
ATOM      9  C   UNL     1      16.097  -6.738 -18.186  1.00  0.00     0.000 C 
BRANCH   9  10
ATOM     10  C   UNL     1      17.009  -5.796 -17.369  1.00  0.00     0.000 C 
BRANCH  10  11
ATOM     11  C   UNL     1      16.255  -4.558 -16.855  1.00  0.00     0.000 C 
BRANCH  11  12
ATOM     12  C   UNL     1      17.028  -3.253 -17.102  1.00  0.00     0.000 C 
BRANCH  12  13
ATOM     13  C   UNL     1      18.355  -3.483 -17.847  1.00  0.00     0.006 C 
BRANCH  13  14
ATOM     14  C   UNL     1      18.475  -2.605 -19.100  1.00  0.00     0.053 C 
BRANCH  14  15
ATOM     15  C   UNL     1      19.874  -2.585 -19.634  1.00  0.00     0.041 C 
ATOM     16  O   UNL     1      20.081  -2.395 -20.862  1.00  0.00    -0.550 OA
ATOM     17  O   UNL     1      20.947  -2.831 -18.787  1.00  0.00    -0.550 OA
ENDBRANCH  14  15
ENDBRANCH  13  14
ENDBRANCH  12  13
ENDBRANCH  11  12
ENDBRANCH  10  11
ENDBRANCH   9  10
ENDBRANCH   8   9
ENDBRANCH   7   8
ENDBRANCH   6   7
ENDBRANCH   5   6
ENDBRANCH   4   5
ENDBRANCH   3   4
ENDBRANCH   2   3
ENDBRANCH   1   2
BRANCH   1  18
ATOM     18  C   UNL     1      12.769  -3.778 -20.907  1.00  0.00     0.000 C 
BRANCH  18  19
ATOM     19  C   UNL     1      11.480  -4.610 -20.760  1.00  0.00     0.000 C 
BRANCH  19  20
ATOM     20  C   UNL     1      11.670  -6.009 -20.141  1.00  0.00     0.000 C 
BRANCH  20  21
ATOM     21  C   UNL     1      11.830  -7.114 -21.194  1.00  0.00     0.000 C 
BRANCH  21  22
ATOM     22  C   UNL     1      13.309  -7.491 -21.368  1.00  0.00     0.000 C 
BRANCH  22  23
ATOM     23  C   UNL     1      13.914  -6.940 -22.670  1.00  0.00     0.000 C 
BRANCH  23  24
ATOM     24  C   UNL     1      12.845  -6.387 -23.629  1.00  0.00    -0.000 C 
BRANCH  24  25
ATOM     25  C   UNL     1      13.298  -5.102 -24.343  1.00  0.00    -0.000 C 
BRANCH  25  26
ATOM     26  C   UNL     1      12.179  -4.463 -25.180  1.00  0.00    -0.000 C 
BRANCH  26  27
ATOM     27  C   UNL     1      11.324  -3.520 -24.321  1.00  0.00    -0.000 C 
BRANCH  27  28
ATOM     28  C   UNL     1       9.816  -3.649 -24.601  1.00  0.00    -0.000 C 
BRANCH  28  29
ATOM     29  C   UNL     1       9.096  -4.758 -23.811  1.00  0.00    -0.000 C 
BRANCH  29  30
ATOM     30  C   UNL     1       8.180  -4.208 -22.704  1.00  0.00    -0.000 C 
BRANCH  30  31
ATOM     31  C   UNL     1       7.413  -5.320 -21.971  1.00  0.00    -0.003 C 
ATOM     32  C   UNL     1       8.287  -6.536 -21.665  1.00  0.00     0.004 C 
ENDBRANCH  30  31
ENDBRANCH  29  30
ENDBRANCH  28  29
ENDBRANCH  27  28
ENDBRANCH  26  27
ENDBRANCH  25  26
ENDBRANCH  24  25
ENDBRANCH  23  24
ENDBRANCH  22  23
ENDBRANCH  21  22
ENDBRANCH  20  21
ENDBRANCH  19  20
ENDBRANCH  18  19
ENDBRANCH   1  18
TORSDOF 28
ENDMDL
MODEL 9
REMARK VINA RESULT:    -4.704      1.421      2.903
REMARK INTER + INTRA:         -18.078
REMARK INTER:                 -12.689
REMARK INTRA:                  -5.389
REMARK UNBOUND:                -5.673
REMARK SMILES CCCCCCCCCCCCCCCCCCCCCCCCCCCCCC(=O)[O-]
REMARK SMILES IDX 16 1 17 2 18 3 19 4 20 5 21 6 22 7 23 8 24 9 25 10 26 11
REMARK SMILES IDX 27 12 28 13 29 14 30 15 31 16 32 17 15 18 14 19 13 20 12 21
REMARK SMILES IDX 11 22 10 23 9 24 8 25 7 26 6 27 5 28 4 29 3 30 2 31 1 32
REMARK H PARENT
REMARK Flexibility Score: inf
ROOT
ATOM      1  C   UNL     1      11.726  -4.503 -20.021  1.00  0.00     0.000 C 
ENDROOT
BRANCH   1   2
ATOM      2  C   UNL     1      11.171  -5.913 -20.314  1.00  0.00     0.000 C 
BRANCH   2   3
ATOM      3  C   UNL     1      12.255  -7.003 -20.279  1.00  0.00     0.000 C 
BRANCH   3   4
ATOM      4  C   UNL     1      12.346  -7.798 -21.592  1.00  0.00     0.000 C 
BRANCH   4   5
ATOM      5  C   UNL     1      12.126  -6.940 -22.855  1.00  0.00     0.000 C 
BRANCH   5   6
ATOM      6  C   UNL     1      13.417  -6.253 -23.326  1.00  0.00     0.000 C 
BRANCH   6   7
ATOM      7  C   UNL     1      13.116  -5.136 -24.334  1.00  0.00     0.000 C 
BRANCH   7   8
ATOM      8  C   UNL     1      12.308  -4.008 -23.674  1.00  0.00     0.000 C 
BRANCH   8   9
ATOM      9  C   UNL     1      11.367  -3.293 -24.658  1.00  0.00     0.000 C 
BRANCH   9  10
ATOM     10  C   UNL     1       9.882  -3.680 -24.485  1.00  0.00     0.000 C 
BRANCH  10  11
ATOM     11  C   UNL     1       9.574  -4.184 -23.064  1.00  0.00     0.000 C 
BRANCH  11  12
ATOM     12  C   UNL     1       8.070  -4.170 -22.749  1.00  0.00     0.000 C 
BRANCH  12  13
ATOM     13  C   UNL     1       7.454  -5.581 -22.733  1.00  0.00     0.006 C 
BRANCH  13  14
ATOM     14  C   UNL     1       8.525  -6.679 -22.697  1.00  0.00     0.053 C 
BRANCH  14  15
ATOM     15  C   UNL     1       8.025  -7.923 -22.030  1.00  0.00     0.041 C 
ATOM     16  O   UNL     1       8.733  -8.964 -22.016  1.00  0.00    -0.550 OA
ATOM     17  O   UNL     1       6.753  -7.950 -21.469  1.00  0.00    -0.550 OA
ENDBRANCH  14  15
ENDBRANCH  13  14
ENDBRANCH  12  13
ENDBRANCH  11  12
ENDBRANCH  10  11
ENDBRANCH   9  10
ENDBRANCH   8   9
ENDBRANCH   7   8
ENDBRANCH   6   7
ENDBRANCH   5   6
ENDBRANCH   4   5
ENDBRANCH   3   4
ENDBRANCH   2   3
ENDBRANCH   1   2
BRANCH   1  18
ATOM     18  C   UNL     1      13.121  -4.498 -19.367  1.00  0.00     0.000 C 
BRANCH  18  19
ATOM     19  C   UNL     1      14.245  -3.869 -20.213  1.00  0.00     0.000 C 
BRANCH  19  20
ATOM     20  C   UNL     1      15.301  -4.860 -20.740  1.00  0.00     0.000 C 
BRANCH  20  21
ATOM     21  C   UNL     1      16.261  -4.229 -21.758  1.00  0.00     0.000 C 
BRANCH  21  22
ATOM     22  C   UNL     1      17.164  -5.298 -22.392  1.00  0.00     0.000 C 
BRANCH  22  23
ATOM     23  C   UNL     1      18.618  -4.827 -22.558  1.00  0.00     0.000 C 
BRANCH  23  24
ATOM     24  C   UNL     1      19.608  -5.668 -21.733  1.00  0.00    -0.000 C 
BRANCH  24  25
ATOM     25  C   UNL     1      20.642  -4.805 -20.989  1.00  0.00    -0.000 C 
BRANCH  25  26
ATOM     26  C   UNL     1      20.487  -3.306 -21.288  1.00  0.00    -0.000 C 
BRANCH  26  27
ATOM     27  C   UNL     1      20.209  -2.518 -20.000  1.00  0.00    -0.000 C 
BRANCH  27  28
ATOM     28  C   UNL     1      18.726  -2.544 -19.584  1.00  0.00    -0.000 C 
BRANCH  28  29
ATOM     29  C   UNL     1      18.449  -3.133 -18.188  1.00  0.00    -0.000 C 
BRANCH  29  30
ATOM     30  C   UNL     1      18.049  -4.619 -18.233  1.00  0.00    -0.000 C 
BRANCH  30  31
ATOM     31  C   UNL     1      16.795  -4.915 -17.395  1.00  0.00    -0.003 C 
ATOM     32  C   UNL     1      16.131  -3.646 -16.860  1.00  0.00     0.004 C 
ENDBRANCH  30  31
ENDBRANCH  29  30
ENDBRANCH  28  29
ENDBRANCH  27  28
ENDBRANCH  26  27
ENDBRANCH  25  26
ENDBRANCH  24  25
ENDBRANCH  23  24
ENDBRANCH  22  23
ENDBRANCH  21  22
ENDBRANCH  20  21
ENDBRANCH  19  20
ENDBRANCH  18  19
ENDBRANCH   1  18
TORSDOF 28
ENDMDL
