MODEL 1
REMARK VINA RESULT:    -6.260      0.000      0.000
REMARK INTER + INTRA:          -8.026
REMARK INTER:                  -7.541
REMARK INTRA:                  -0.485
REMARK UNBOUND:                -0.485
REMARK SMILES O=c1c(O)c(-c2ccc(O)cc2O)oc2cc(O)cc(O)c12
REMARK SMILES IDX 5 1 3 2 2 3 1 4 22 5 20 6 19 7 17 8 16 9 15 10 14 11 6 12
REMARK SMILES IDX 8 13 7 14 9 15 11 16 12 17 10 18 13 20 4 22 21 24 18 26
REMARK H PARENT 10 19 13 21 4 23 21 25 18 27
REMARK Flexibility Score: inf
ROOT
ATOM      1  C   UNL     1     -16.224  -3.397 -30.034  1.00  0.00     0.184 A 
ATOM      2  C   UNL     1     -15.907  -4.000 -28.805  1.00  0.00     0.208 A 
ATOM      3  C   UNL     1     -14.827  -3.500 -28.060  1.00  0.00     0.238 A 
ATOM      4  O   UNL     1     -14.513  -4.080 -26.988  1.00  0.00    -0.285 OA
ATOM      5  C   UNL     1     -14.092  -2.390 -28.543  1.00  0.00     0.111 A 
ATOM      6  C   UNL     1     -13.004  -1.776 -27.852  1.00  0.00     0.134 A 
ATOM      7  C   UNL     1     -12.269  -0.765 -28.483  1.00  0.00     0.093 A 
ATOM      8  C   UNL     1     -12.621  -0.302 -29.753  1.00  0.00     0.123 A 
ATOM      9  C   UNL     1     -13.717  -0.856 -30.410  1.00  0.00     0.094 A 
ATOM     10  C   UNL     1     -14.449  -1.890 -29.823  1.00  0.00     0.146 A 
ATOM     11  O   UNL     1     -15.479  -2.397 -30.489  1.00  0.00    -0.451 OA
ENDROOT
BRANCH   1  12
ATOM     12  C   UNL     1     -17.365  -3.858 -30.858  1.00  0.00     0.063 A 
ATOM     13  C   UNL     1     -19.756  -3.905 -31.315  1.00  0.00     0.047 A 
ATOM     14  C   UNL     1     -18.682  -3.494 -30.523  1.00  0.00     0.020 A 
ATOM     15  C   UNL     1     -19.530  -4.678 -32.460  1.00  0.00     0.119 A 
ATOM     16  C   UNL     1     -18.224  -5.034 -32.810  1.00  0.00     0.093 A 
ATOM     17  C   UNL     1     -17.140  -4.627 -32.019  1.00  0.00     0.130 A 
BRANCH  15  18
ATOM     18  O   UNL     1     -20.593  -5.094 -33.258  1.00  0.00    -0.508 OA
ATOM     19  H   UNL     1     -21.552  -4.861 -33.026  1.00  0.00     0.293 HD
ENDBRANCH  15  18
BRANCH  17  20
ATOM     20  O   UNL     1     -15.843  -4.996 -32.376  1.00  0.00    -0.507 OA
ATOM     21  H   UNL     1     -15.130  -5.177 -31.679  1.00  0.00     0.293 HD
ENDBRANCH  17  20
ENDBRANCH   1  12
BRANCH   2  22
ATOM     22  O   UNL     1     -16.639  -5.103 -28.356  1.00  0.00    -0.502 OA
ATOM     23  H   UNL     1     -16.446  -6.047 -28.668  1.00  0.00     0.293 HD
ENDBRANCH   2  22
BRANCH   6  24
ATOM     24  O   UNL     1     -12.627  -2.099 -26.545  1.00  0.00    -0.507 OA
ATOM     25  H   UNL     1     -11.735  -2.493 -26.286  1.00  0.00     0.293 HD
ENDBRANCH   6  24
BRANCH   8  26
ATOM     26  O   UNL     1     -11.894   0.714 -30.367  1.00  0.00    -0.508 OA
ATOM     27  H   UNL     1     -10.898   0.626 -30.534  1.00  0.00     0.293 HD
ENDBRANCH   8  26
TORSDOF 6
ENDMDL
MODEL 2
REMARK VINA RESULT:    -5.748      3.201      4.109
REMARK INTER + INTRA:          -7.409
REMARK INTER:                  -7.059
REMARK INTRA:                  -0.351
REMARK UNBOUND:                -0.485
REMARK SMILES O=c1c(O)c(-c2ccc(O)cc2O)oc2cc(O)cc(O)c12
REMARK SMILES IDX 5 1 3 2 2 3 1 4 22 5 20 6 19 7 17 8 16 9 15 10 14 11 6 12
REMARK SMILES IDX 8 13 7 14 9 15 11 16 12 17 10 18 13 20 4 22 21 24 18 26
REMARK H PARENT 10 19 13 21 4 23 21 25 18 27
REMARK Flexibility Score: inf
ROOT
ATOM      1  C   UNL     1     -16.486  -2.498 -29.799  1.00  0.00     0.184 A 
ATOM      2  C   UNL     1     -15.678  -3.394 -29.079  1.00  0.00     0.208 A 
ATOM      3  C   UNL     1     -14.530  -3.920 -29.692  1.00  0.00     0.238 A 
ATOM      4  O   UNL     1     -13.841  -4.765 -29.063  1.00  0.00    -0.285 OA
ATOM      5  C   UNL     1     -14.193  -3.528 -31.011  1.00  0.00     0.111 A 
ATOM      6  C   UNL     1     -13.033  -3.967 -31.716  1.00  0.00     0.134 A 
ATOM      7  C   UNL     1     -12.868  -3.614 -33.061  1.00  0.00     0.093 A 
ATOM      8  C   UNL     1     -13.789  -2.786 -33.708  1.00  0.00     0.123 A 
ATOM      9  C   UNL     1     -14.894  -2.305 -33.010  1.00  0.00     0.094 A 
ATOM     10  C   UNL     1     -15.105  -2.668 -31.678  1.00  0.00     0.146 A 
ATOM     11  O   UNL     1     -16.178  -2.196 -31.054  1.00  0.00    -0.451 OA
ENDROOT
BRANCH   1  12
ATOM     12  C   UNL     1     -17.697  -1.887 -29.203  1.00  0.00     0.063 A 
ATOM     13  C   UNL     1     -18.743  -0.532 -27.473  1.00  0.00     0.047 A 
ATOM     14  C   UNL     1     -17.607  -1.132 -28.020  1.00  0.00     0.020 A 
ATOM     15  C   UNL     1     -19.984  -0.669 -28.105  1.00  0.00     0.119 A 
ATOM     16  C   UNL     1     -20.082  -1.406 -29.289  1.00  0.00     0.093 A 
ATOM     17  C   UNL     1     -18.947  -2.014 -29.845  1.00  0.00     0.130 A 
BRANCH  15  18
ATOM     18  O   UNL     1     -21.125  -0.075 -27.569  1.00  0.00    -0.508 OA
ATOM     19  H   UNL     1     -21.065   0.602 -26.816  1.00  0.00     0.293 HD
ENDBRANCH  15  18
BRANCH  17  20
ATOM     20  O   UNL     1     -19.061  -2.752 -31.022  1.00  0.00    -0.507 OA
ATOM     21  H   UNL     1     -18.300  -2.809 -31.689  1.00  0.00     0.293 HD
ENDBRANCH  17  20
ENDBRANCH   1  12
BRANCH   2  22
ATOM     22  O   UNL     1     -16.038  -3.776 -27.783  1.00  0.00    -0.502 OA
ATOM     23  H   UNL     1     -16.929  -3.527 -27.371  1.00  0.00     0.293 HD
ENDBRANCH   2  22
BRANCH   6  24
ATOM     24  O   UNL     1     -12.007  -4.721 -31.138  1.00  0.00    -0.507 OA
ATOM     25  H   UNL     1     -11.369  -5.312 -31.650  1.00  0.00     0.293 HD
ENDBRANCH   6  24
BRANCH   8  26
ATOM     26  O   UNL     1     -13.608  -2.428 -35.041  1.00  0.00    -0.508 OA
ATOM     27  H   UNL     1     -13.807  -3.075 -35.795  1.00  0.00     0.293 HD
ENDBRANCH   8  26
TORSDOF 6
ENDMDL
MODEL 3
REMARK VINA RESULT:    -5.704      2.458      6.547
REMARK INTER + INTRA:          -7.356
REMARK INTER:                  -6.935
REMARK INTRA:                  -0.421
REMARK UNBOUND:                -0.485
REMARK SMILES O=c1c(O)c(-c2ccc(O)cc2O)oc2cc(O)cc(O)c12
REMARK SMILES IDX 5 1 3 2 2 3 1 4 22 5 20 6 19 7 17 8 16 9 15 10 14 11 6 12
REMARK SMILES IDX 8 13 7 14 9 15 11 16 12 17 10 18 13 20 4 22 21 24 18 26
REMARK H PARENT 10 19 13 21 4 23 21 25 18 27
REMARK Flexibility Score: inf
ROOT
ATOM      1  C   UNL     1     -16.943  -2.794 -29.000  1.00  0.00     0.184 A 
ATOM      2  C   UNL     1     -17.430  -3.887 -29.735  1.00  0.00     0.208 A 
ATOM      3  C   UNL     1     -18.591  -3.726 -30.509  1.00  0.00     0.238 A 
ATOM      4  O   UNL     1     -19.055  -4.724 -31.120  1.00  0.00    -0.285 OA
ATOM      5  C   UNL     1     -19.238  -2.466 -30.554  1.00  0.00     0.111 A 
ATOM      6  C   UNL     1     -20.397  -2.178 -31.335  1.00  0.00     0.134 A 
ATOM      7  C   UNL     1     -21.026  -0.934 -31.204  1.00  0.00     0.093 A 
ATOM      8  C   UNL     1     -20.500   0.055 -30.368  1.00  0.00     0.123 A 
ATOM      9  C   UNL     1     -19.336  -0.197 -29.647  1.00  0.00     0.094 A 
ATOM     10  C   UNL     1     -18.706  -1.441 -29.729  1.00  0.00     0.146 A 
ATOM     11  O   UNL     1     -17.605  -1.643 -29.015  1.00  0.00    -0.451 OA
ENDROOT
BRANCH   1  12
ATOM     12  C   UNL     1     -15.711  -2.888 -28.184  1.00  0.00     0.063 A 
ATOM     13  C   UNL     1     -14.537  -3.732 -26.226  1.00  0.00     0.047 A 
ATOM     14  C   UNL     1     -15.705  -3.619 -26.982  1.00  0.00     0.020 A 
ATOM     15  C   UNL     1     -13.354  -3.125 -26.663  1.00  0.00     0.119 A 
ATOM     16  C   UNL     1     -13.345  -2.408 -27.863  1.00  0.00     0.093 A 
ATOM     17  C   UNL     1     -14.515  -2.287 -28.628  1.00  0.00     0.130 A 
BRANCH  15  18
ATOM     18  O   UNL     1     -12.183  -3.231 -25.917  1.00  0.00    -0.508 OA
ATOM     19  H   UNL     1     -11.274  -3.295 -26.364  1.00  0.00     0.293 HD
ENDBRANCH  15  18
BRANCH  17  20
ATOM     20  O   UNL     1     -14.493  -1.563 -29.820  1.00  0.00    -0.507 OA
ATOM     21  H   UNL     1     -14.434  -0.551 -29.826  1.00  0.00     0.293 HD
ENDBRANCH  17  20
ENDBRANCH   1  12
BRANCH   2  22
ATOM     22  O   UNL     1     -16.783  -5.124 -29.664  1.00  0.00    -0.502 OA
ATOM     23  H   UNL     1     -17.179  -5.917 -29.173  1.00  0.00     0.293 HD
ENDBRANCH   2  22
BRANCH   6  24
ATOM     24  O   UNL     1     -20.949  -3.061 -32.268  1.00  0.00    -0.507 OA
ATOM     25  H   UNL     1     -21.796  -2.890 -32.790  1.00  0.00     0.293 HD
ENDBRANCH   6  24
BRANCH   8  26
ATOM     26  O   UNL     1     -21.124   1.295 -30.256  1.00  0.00    -0.508 OA
ATOM     27  H   UNL     1     -21.186   1.931 -31.043  1.00  0.00     0.293 HD
ENDBRANCH   8  26
TORSDOF 6
ENDMDL
MODEL 4
REMARK VINA RESULT:    -5.449      1.311      2.862
REMARK INTER + INTRA:          -7.049
REMARK INTER:                  -6.814
REMARK INTRA:                  -0.235
REMARK UNBOUND:                -0.485
REMARK SMILES O=c1c(O)c(-c2ccc(O)cc2O)oc2cc(O)cc(O)c12
REMARK SMILES IDX 5 1 3 2 2 3 1 4 22 5 20 6 19 7 17 8 16 9 15 10 14 11 6 12
REMARK SMILES IDX 8 13 7 14 9 15 11 16 12 17 10 18 13 20 4 22 21 24 18 26
REMARK H PARENT 10 19 13 21 4 23 21 25 18 27
REMARK Flexibility Score: inf
ROOT
ATOM      1  C   UNL     1     -16.385  -3.179 -30.684  1.00  0.00     0.184 A 
ATOM      2  C   UNL     1     -15.424  -2.441 -31.395  1.00  0.00     0.208 A 
ATOM      3  C   UNL     1     -14.261  -2.020 -30.730  1.00  0.00     0.238 A 
ATOM      4  O   UNL     1     -13.430  -1.310 -31.356  1.00  0.00    -0.285 OA
ATOM      5  C   UNL     1     -14.064  -2.361 -29.370  1.00  0.00     0.111 A 
ATOM      6  C   UNL     1     -12.905  -2.022 -28.608  1.00  0.00     0.134 A 
ATOM      7  C   UNL     1     -12.875  -2.301 -27.236  1.00  0.00     0.093 A 
ATOM      8  C   UNL     1     -13.935  -2.964 -26.612  1.00  0.00     0.123 A 
ATOM      9  C   UNL     1     -15.044  -3.351 -27.359  1.00  0.00     0.094 A 
ATOM     10  C   UNL     1     -15.120  -3.055 -28.722  1.00  0.00     0.146 A 
ATOM     11  O   UNL     1     -16.201  -3.431 -29.394  1.00  0.00    -0.451 OA
ENDROOT
BRANCH   1  12
ATOM     12  C   UNL     1     -17.622  -3.675 -31.330  1.00  0.00     0.063 A 
ATOM     13  C   UNL     1     -20.044  -3.621 -31.572  1.00  0.00     0.047 A 
ATOM     14  C   UNL     1     -18.879  -3.175 -30.944  1.00  0.00     0.020 A 
ATOM     15  C   UNL     1     -19.970  -4.567 -32.602  1.00  0.00     0.119 A 
ATOM     16  C   UNL     1     -18.725  -5.060 -33.002  1.00  0.00     0.093 A 
ATOM     17  C   UNL     1     -17.550  -4.619 -32.376  1.00  0.00     0.130 A 
BRANCH  15  18
ATOM     18  O   UNL     1     -21.125  -5.020 -33.235  1.00  0.00    -0.508 OA
ATOM     19  H   UNL     1     -22.006  -5.099 -32.737  1.00  0.00     0.293 HD
ENDBRANCH  15  18
BRANCH  17  20
ATOM     20  O   UNL     1     -16.315  -5.125 -32.781  1.00  0.00    -0.507 OA
ATOM     21  H   UNL     1     -16.100  -5.282 -33.759  1.00  0.00     0.293 HD
ENDBRANCH  17  20
ENDBRANCH   1  12
BRANCH   2  22
ATOM     22  O   UNL     1     -15.646  -2.104 -32.733  1.00  0.00    -0.502 OA
ATOM     23  H   UNL     1     -16.532  -1.738 -33.061  1.00  0.00     0.293 HD
ENDBRANCH   2  22
BRANCH   6  24
ATOM     24  O   UNL     1     -11.756  -1.441 -29.152  1.00  0.00    -0.507 OA
ATOM     25  H   UNL     1     -11.285  -0.634 -28.772  1.00  0.00     0.293 HD
ENDBRANCH   6  24
BRANCH   8  26
ATOM     26  O   UNL     1     -13.889  -3.251 -25.250  1.00  0.00    -0.508 OA
ATOM     27  H   UNL     1     -13.984  -2.523 -24.551  1.00  0.00     0.293 HD
ENDBRANCH   8  26
TORSDOF 6
ENDMDL
MODEL 5
REMARK VINA RESULT:    -5.392      3.285      5.705
REMARK INTER + INTRA:          -6.979
REMARK INTER:                  -6.679
REMARK INTRA:                  -0.301
REMARK UNBOUND:                -0.485
REMARK SMILES O=c1c(O)c(-c2ccc(O)cc2O)oc2cc(O)cc(O)c12
REMARK SMILES IDX 5 1 3 2 2 3 1 4 22 5 20 6 19 7 17 8 16 9 15 10 14 11 6 12
REMARK SMILES IDX 8 13 7 14 9 15 11 16 12 17 10 18 13 20 4 22 21 24 18 26
REMARK H PARENT 10 19 13 21 4 23 21 25 18 27
REMARK Flexibility Score: inf
ROOT
ATOM      1  C   UNL     1     -16.535  -2.732 -31.761  1.00  0.00     0.184 A 
ATOM      2  C   UNL     1     -17.288  -3.818 -31.285  1.00  0.00     0.208 A 
ATOM      3  C   UNL     1     -18.486  -3.568 -30.597  1.00  0.00     0.238 A 
ATOM      4  O   UNL     1     -19.127  -4.542 -30.124  1.00  0.00    -0.285 OA
ATOM      5  C   UNL     1     -18.927  -2.234 -30.413  1.00  0.00     0.111 A 
ATOM      6  C   UNL     1     -20.144  -1.865 -29.766  1.00  0.00     0.134 A 
ATOM      7  C   UNL     1     -20.417  -0.513 -29.527  1.00  0.00     0.093 A 
ATOM      8  C   UNL     1     -19.546   0.487 -29.968  1.00  0.00     0.123 A 
ATOM      9  C   UNL     1     -18.384   0.139 -30.652  1.00  0.00     0.094 A 
ATOM     10  C   UNL     1     -18.067  -1.203 -30.875  1.00  0.00     0.146 A 
ATOM     11  O   UNL     1     -16.943  -1.492 -31.520  1.00  0.00    -0.451 OA
ENDROOT
BRANCH   1  12
ATOM     12  C   UNL     1     -15.275  -2.926 -32.516  1.00  0.00     0.063 A 
ATOM     13  C   UNL     1     -14.001  -2.730 -34.580  1.00  0.00     0.047 A 
ATOM     14  C   UNL     1     -15.196  -2.574 -33.875  1.00  0.00     0.020 A 
ATOM     15  C   UNL     1     -12.864  -3.231 -33.935  1.00  0.00     0.119 A 
ATOM     16  C   UNL     1     -12.928  -3.571 -32.581  1.00  0.00     0.093 A 
ATOM     17  C   UNL     1     -14.125  -3.419 -31.865  1.00  0.00     0.130 A 
BRANCH  15  18
ATOM     18  O   UNL     1     -11.667  -3.392 -34.628  1.00  0.00    -0.508 OA
ATOM     19  H   UNL     1     -11.063  -2.603 -34.833  1.00  0.00     0.293 HD
ENDBRANCH  15  18
BRANCH  17  20
ATOM     20  O   UNL     1     -14.176  -3.769 -30.516  1.00  0.00    -0.507 OA
ATOM     21  H   UNL     1     -13.470  -4.360 -30.093  1.00  0.00     0.293 HD
ENDBRANCH  17  20
ENDBRANCH   1  12
BRANCH   2  22
ATOM     22  O   UNL     1     -16.826  -5.125 -31.468  1.00  0.00    -0.502 OA
ATOM     23  H   UNL     1     -17.212  -5.744 -32.171  1.00  0.00     0.293 HD
ENDBRANCH   2  22
BRANCH   6  24
ATOM     24  O   UNL     1     -21.125  -2.779 -29.368  1.00  0.00    -0.507 OA
ATOM     25  H   UNL     1     -21.161  -3.225 -28.464  1.00  0.00     0.293 HD
ENDBRANCH   6  24
BRANCH   8  26
ATOM     26  O   UNL     1     -19.832   1.830 -29.740  1.00  0.00    -0.508 OA
ATOM     27  H   UNL     1     -19.653   2.538 -30.443  1.00  0.00     0.293 HD
ENDBRANCH   8  26
TORSDOF 6
ENDMDL
MODEL 6
REMARK VINA RESULT:    -5.347      2.806      4.548
REMARK INTER + INTRA:          -6.926
REMARK INTER:                  -6.496
REMARK INTRA:                  -0.430
REMARK UNBOUND:                -0.485
REMARK SMILES O=c1c(O)c(-c2ccc(O)cc2O)oc2cc(O)cc(O)c12
REMARK SMILES IDX 5 1 3 2 2 3 1 4 22 5 20 6 19 7 17 8 16 9 15 10 14 11 6 12
REMARK SMILES IDX 8 13 7 14 9 15 11 16 12 17 10 18 13 20 4 22 21 24 18 26
REMARK H PARENT 10 19 13 21 4 23 21 25 18 27
REMARK Flexibility Score: inf
ROOT
ATOM      1  C   UNL     1     -14.682  -3.233 -30.967  1.00  0.00     0.184 A 
ATOM      2  C   UNL     1     -15.987  -2.741 -30.806  1.00  0.00     0.208 A 
ATOM      3  C   UNL     1     -16.426  -2.382 -29.521  1.00  0.00     0.238 A 
ATOM      4  O   UNL     1     -17.615  -1.996 -29.374  1.00  0.00    -0.285 OA
ATOM      5  C   UNL     1     -15.546  -2.500 -28.418  1.00  0.00     0.111 A 
ATOM      6  C   UNL     1     -15.871  -2.129 -27.078  1.00  0.00     0.134 A 
ATOM      7  C   UNL     1     -14.967  -2.408 -26.046  1.00  0.00     0.093 A 
ATOM      8  C   UNL     1     -13.723  -2.987 -26.313  1.00  0.00     0.123 A 
ATOM      9  C   UNL     1     -13.375  -3.299 -27.625  1.00  0.00     0.094 A 
ATOM     10  C   UNL     1     -14.269  -3.065 -28.672  1.00  0.00     0.146 A 
ATOM     11  O   UNL     1     -13.900  -3.389 -29.905  1.00  0.00    -0.451 OA
ENDROOT
BRANCH   1  12
ATOM     12  C   UNL     1     -14.147  -3.606 -32.297  1.00  0.00     0.063 A 
ATOM     13  C   UNL     1     -14.090  -5.125 -34.198  1.00  0.00     0.047 A 
ATOM     14  C   UNL     1     -14.572  -4.787 -32.932  1.00  0.00     0.020 A 
ATOM     15  C   UNL     1     -13.183  -4.284 -34.854  1.00  0.00     0.119 A 
ATOM     16  C   UNL     1     -12.764  -3.102 -34.237  1.00  0.00     0.093 A 
ATOM     17  C   UNL     1     -13.242  -2.755 -32.965  1.00  0.00     0.130 A 
BRANCH  15  18
ATOM     18  O   UNL     1     -12.695  -4.611 -36.116  1.00  0.00    -0.508 OA
ATOM     19  H   UNL     1     -11.700  -4.620 -36.313  1.00  0.00     0.293 HD
ENDBRANCH  15  18
BRANCH  17  20
ATOM     20  O   UNL     1     -12.809  -1.575 -32.359  1.00  0.00    -0.507 OA
ATOM     21  H   UNL     1     -12.100  -0.989 -32.783  1.00  0.00     0.293 HD
ENDBRANCH  17  20
ENDBRANCH   1  12
BRANCH   2  22
ATOM     22  O   UNL     1     -16.842  -2.646 -31.908  1.00  0.00    -0.502 OA
ATOM     23  H   UNL     1     -16.587  -2.146 -32.751  1.00  0.00     0.293 HD
ENDBRANCH   2  22
BRANCH   6  24
ATOM     24  O   UNL     1     -17.046  -1.463 -26.716  1.00  0.00    -0.507 OA
ATOM     25  H   UNL     1     -17.484  -0.734 -27.258  1.00  0.00     0.293 HD
ENDBRANCH   6  24
BRANCH   8  26
ATOM     26  O   UNL     1     -12.825  -3.248 -25.282  1.00  0.00    -0.508 OA
ATOM     27  H   UNL     1     -11.831  -3.080 -25.390  1.00  0.00     0.293 HD
ENDBRANCH   8  26
TORSDOF 6
ENDMDL
MODEL 7
REMARK VINA RESULT:    -5.292      2.305      6.677
REMARK INTER + INTRA:          -6.859
REMARK INTER:                  -6.422
REMARK INTRA:                  -0.437
REMARK UNBOUND:                -0.485
REMARK SMILES O=c1c(O)c(-c2ccc(O)cc2O)oc2cc(O)cc(O)c12
REMARK SMILES IDX 5 1 3 2 2 3 1 4 22 5 20 6 19 7 17 8 16 9 15 10 14 11 6 12
REMARK SMILES IDX 8 13 7 14 9 15 11 16 12 17 10 18 13 20 4 22 21 24 18 26
REMARK H PARENT 10 19 13 21 4 23 21 25 18 27
REMARK Flexibility Score: inf
ROOT
ATOM      1  C   UNL     1     -16.520  -2.381 -29.311  1.00  0.00     0.184 A 
ATOM      2  C   UNL     1     -17.043  -3.676 -29.458  1.00  0.00     0.208 A 
ATOM      3  C   UNL     1     -18.322  -3.835 -30.016  1.00  0.00     0.238 A 
ATOM      4  O   UNL     1     -18.808  -4.994 -30.093  1.00  0.00    -0.285 OA
ATOM      5  C   UNL     1     -19.052  -2.698 -30.439  1.00  0.00     0.111 A 
ATOM      6  C   UNL     1     -20.339  -2.744 -31.054  1.00  0.00     0.134 A 
ATOM      7  C   UNL     1     -21.023  -1.550 -31.315  1.00  0.00     0.093 A 
ATOM      8  C   UNL     1     -20.438  -0.310 -31.042  1.00  0.00     0.123 A 
ATOM      9  C   UNL     1     -19.159  -0.255 -30.496  1.00  0.00     0.094 A 
ATOM     10  C   UNL     1     -18.466  -1.429 -30.192  1.00  0.00     0.146 A 
ATOM     11  O   UNL     1     -17.253  -1.331 -29.661  1.00  0.00    -0.451 OA
ENDROOT
BRANCH   1  12
ATOM     12  C   UNL     1     -15.169  -2.143 -28.753  1.00  0.00     0.063 A 
ATOM     13  C   UNL     1     -12.769  -1.892 -29.072  1.00  0.00     0.047 A 
ATOM     14  C   UNL     1     -14.040  -2.143 -29.593  1.00  0.00     0.020 A 
ATOM     15  C   UNL     1     -12.607  -1.627 -27.707  1.00  0.00     0.119 A 
ATOM     16  C   UNL     1     -13.724  -1.611 -26.867  1.00  0.00     0.093 A 
ATOM     17  C   UNL     1     -15.004  -1.865 -27.380  1.00  0.00     0.130 A 
BRANCH  15  18
ATOM     18  O   UNL     1     -11.344  -1.375 -27.176  1.00  0.00    -0.508 OA
ATOM     19  H   UNL     1     -11.130  -0.500 -26.710  1.00  0.00     0.293 HD
ENDBRANCH  15  18
BRANCH  17  20
ATOM     20  O   UNL     1     -16.109  -1.853 -26.529  1.00  0.00    -0.507 OA
ATOM     21  H   UNL     1     -16.830  -2.563 -26.584  1.00  0.00     0.293 HD
ENDBRANCH  17  20
ENDBRANCH   1  12
BRANCH   2  22
ATOM     22  O   UNL     1     -16.309  -4.783 -29.021  1.00  0.00    -0.502 OA
ATOM     23  H   UNL     1     -16.700  -5.484 -28.402  1.00  0.00     0.293 HD
ENDBRANCH   2  22
BRANCH   6  24
ATOM     24  O   UNL     1     -20.973  -3.925 -31.452  1.00  0.00    -0.507 OA
ATOM     25  H   UNL     1     -20.688  -4.852 -31.173  1.00  0.00     0.293 HD
ENDBRANCH   6  24
BRANCH   8  26
ATOM     26  O   UNL     1     -21.119   0.872 -31.319  1.00  0.00    -0.508 OA
ATOM     27  H   UNL     1     -21.967   0.879 -31.874  1.00  0.00     0.293 HD
ENDBRANCH   8  26
TORSDOF 6
ENDMDL
MODEL 8
REMARK VINA RESULT:    -4.963      2.933      4.569
REMARK INTER + INTRA:          -6.463
REMARK INTER:                  -6.176
REMARK INTRA:                  -0.288
REMARK UNBOUND:                -0.485
REMARK SMILES O=c1c(O)c(-c2ccc(O)cc2O)oc2cc(O)cc(O)c12
REMARK SMILES IDX 5 1 3 2 2 3 1 4 22 5 20 6 19 7 17 8 16 9 15 10 14 11 6 12
REMARK SMILES IDX 8 13 7 14 9 15 11 16 12 17 10 18 13 20 4 22 21 24 18 26
REMARK H PARENT 10 19 13 21 4 23 21 25 18 27
REMARK Flexibility Score: inf
ROOT
ATOM      1  C   UNL     1     -14.845  -2.942 -30.351  1.00  0.00     0.184 A 
ATOM      2  C   UNL     1     -14.000  -2.896 -29.230  1.00  0.00     0.208 A 
ATOM      3  C   UNL     1     -14.509  -2.413 -28.013  1.00  0.00     0.238 A 
ATOM      4  O   UNL     1     -13.733  -2.320 -27.027  1.00  0.00    -0.285 OA
ATOM      5  C   UNL     1     -15.863  -2.003 -27.929  1.00  0.00     0.111 A 
ATOM      6  C   UNL     1     -16.495  -1.535 -26.739  1.00  0.00     0.134 A 
ATOM      7  C   UNL     1     -17.802  -1.036 -26.802  1.00  0.00     0.093 A 
ATOM      8  C   UNL     1     -18.522  -1.048 -28.000  1.00  0.00     0.123 A 
ATOM      9  C   UNL     1     -17.932  -1.557 -29.154  1.00  0.00     0.094 A 
ATOM     10  C   UNL     1     -16.618  -2.029 -29.131  1.00  0.00     0.146 A 
ATOM     11  O   UNL     1     -16.091  -2.495 -30.257  1.00  0.00    -0.451 OA
ENDROOT
BRANCH   1  12
ATOM     12  C   UNL     1     -14.379  -3.463 -31.658  1.00  0.00     0.063 A 
ATOM     13  C   UNL     1     -14.504  -5.125 -33.432  1.00  0.00     0.047 A 
ATOM     14  C   UNL     1     -14.922  -4.648 -32.188  1.00  0.00     0.020 A 
ATOM     15  C   UNL     1     -13.545  -4.420 -34.170  1.00  0.00     0.119 A 
ATOM     16  C   UNL     1     -13.010  -3.235 -33.658  1.00  0.00     0.093 A 
ATOM     17  C   UNL     1     -13.422  -2.749 -32.408  1.00  0.00     0.130 A 
BRANCH  15  18
ATOM     18  O   UNL     1     -13.120  -4.886 -35.412  1.00  0.00    -0.508 OA
ATOM     19  H   UNL     1     -12.244  -4.580 -35.821  1.00  0.00     0.293 HD
ENDBRANCH  15  18
BRANCH  17  20
ATOM     20  O   UNL     1     -12.874  -1.569 -31.907  1.00  0.00    -0.507 OA
ATOM     21  H   UNL     1     -11.872  -1.446 -31.814  1.00  0.00     0.293 HD
ENDBRANCH  17  20
ENDBRANCH   1  12
BRANCH   2  22
ATOM     22  O   UNL     1     -12.665  -3.293 -29.340  1.00  0.00    -0.502 OA
ATOM     23  H   UNL     1     -11.894  -2.683 -29.093  1.00  0.00     0.293 HD
ENDBRANCH   2  22
BRANCH   6  24
ATOM     24  O   UNL     1     -15.899  -1.564 -25.474  1.00  0.00    -0.507 OA
ATOM     25  H   UNL     1     -16.321  -1.205 -24.631  1.00  0.00     0.293 HD
ENDBRANCH   6  24
BRANCH   8  26
ATOM     26  O   UNL     1     -19.826  -0.564 -28.050  1.00  0.00    -0.508 OA
ATOM     27  H   UNL     1     -20.349  -0.538 -28.918  1.00  0.00     0.293 HD
ENDBRANCH   8  26
TORSDOF 6
ENDMDL
MODEL 9
REMARK VINA RESULT:    -4.909      2.149      6.715
REMARK INTER + INTRA:          -6.398
REMARK INTER:                  -6.079
REMARK INTRA:                  -0.319
REMARK UNBOUND:                -0.485
REMARK SMILES O=c1c(O)c(-c2ccc(O)cc2O)oc2cc(O)cc(O)c12
REMARK SMILES IDX 5 1 3 2 2 3 1 4 22 5 20 6 19 7 17 8 16 9 15 10 14 11 6 12
REMARK SMILES IDX 8 13 7 14 9 15 11 16 12 17 10 18 13 20 4 22 21 24 18 26
REMARK H PARENT 10 19 13 21 4 23 21 25 18 27
REMARK Flexibility Score: inf
ROOT
ATOM      1  C   UNL     1     -16.554  -2.917 -28.685  1.00  0.00     0.184 A 
ATOM      2  C   UNL     1     -17.514  -1.945 -28.358  1.00  0.00     0.208 A 
ATOM      3  C   UNL     1     -18.651  -1.810 -29.171  1.00  0.00     0.238 A 
ATOM      4  O   UNL     1     -19.479  -0.900 -28.907  1.00  0.00    -0.285 OA
ATOM      5  C   UNL     1     -18.824  -2.665 -30.288  1.00  0.00     0.111 A 
ATOM      6  C   UNL     1     -19.956  -2.644 -31.157  1.00  0.00     0.134 A 
ATOM      7  C   UNL     1     -19.961  -3.448 -32.303  1.00  0.00     0.093 A 
ATOM      8  C   UNL     1     -18.903  -4.319 -32.578  1.00  0.00     0.123 A 
ATOM      9  C   UNL     1     -17.821  -4.388 -31.704  1.00  0.00     0.094 A 
ATOM     10  C   UNL     1     -17.770  -3.573 -30.571  1.00  0.00     0.146 A 
ATOM     11  O   UNL     1     -16.714  -3.662 -29.772  1.00  0.00    -0.451 OA
ENDROOT
BRANCH   1  12
ATOM     12  C   UNL     1     -15.345  -3.129 -27.857  1.00  0.00     0.063 A 
ATOM     13  C   UNL     1     -14.041  -4.519 -26.343  1.00  0.00     0.047 A 
ATOM     14  C   UNL     1     -15.193  -4.306 -27.101  1.00  0.00     0.020 A 
ATOM     15  C   UNL     1     -13.017  -3.564 -26.334  1.00  0.00     0.119 A 
ATOM     16  C   UNL     1     -13.152  -2.397 -27.092  1.00  0.00     0.093 A 
ATOM     17  C   UNL     1     -14.307  -2.174 -27.856  1.00  0.00     0.130 A 
BRANCH  15  18
ATOM     18  O   UNL     1     -11.863  -3.765 -25.581  1.00  0.00    -0.508 OA
ATOM     19  H   UNL     1     -11.488  -4.694 -25.425  1.00  0.00     0.293 HD
ENDBRANCH  15  18
BRANCH  17  20
ATOM     20  O   UNL     1     -14.431  -1.002 -28.601  1.00  0.00    -0.507 OA
ATOM     21  H   UNL     1     -15.248  -0.407 -28.525  1.00  0.00     0.293 HD
ENDBRANCH  17  20
ENDBRANCH   1  12
BRANCH   2  22
ATOM     22  O   UNL     1     -17.315  -1.104 -27.259  1.00  0.00    -0.502 OA
ATOM     23  H   UNL     1     -16.458  -0.582 -27.123  1.00  0.00     0.293 HD
ENDBRANCH   2  22
BRANCH   6  24
ATOM     24  O   UNL     1     -21.104  -1.880 -30.925  1.00  0.00    -0.507 OA
ATOM     25  H   UNL     1     -21.590  -1.825 -30.043  1.00  0.00     0.293 HD
ENDBRANCH   6  24
BRANCH   8  26
ATOM     26  O   UNL     1     -18.924  -5.125 -33.713  1.00  0.00    -0.508 OA
ATOM     27  H   UNL     1     -18.297  -4.960 -34.492  1.00  0.00     0.293 HD
ENDBRANCH   8  26
TORSDOF 6
ENDMDL
