MODEL 1
REMARK VINA RESULT:    -3.998      0.000      0.000
REMARK INTER + INTRA:          -6.559
REMARK INTER:                  -6.101
REMARK INTRA:                  -0.458
REMARK UNBOUND:                -0.458
REMARK SMILES CC1=CCC[C@@H](C)C(=O)C[C@H](C(C)C)C(=O)C1
REMARK SMILES IDX 8 1 9 2 6 3 7 4 5 5 4 6 3 7 2 8 1 9 10 11 11 12 15 13 16 14
REMARK SMILES IDX 17 15 12 17 13 18 14 19
REMARK H PARENT
REMARK Flexibility Score: 70.00
ROOT
ATOM      1  C   UNL     1     102.361 113.304 125.540  1.00  0.00     0.136 C 
ATOM      2  O   UNL     1     102.928 112.229 125.673  1.00  0.00    -0.299 OA
ENDROOT
BRANCH   1   3
ATOM      3  C   UNL     1     101.447 113.810 126.640  1.00  0.00     0.053 C 
ATOM      4  C   UNL     1     100.061 113.172 126.488  1.00  0.00     0.016 C 
BRANCH   3   5
ATOM      5  C   UNL     1     101.332 115.349 126.629  1.00  0.00     0.015 C 
BRANCH   5   6
ATOM      6  C   UNL     1     100.014 115.888 126.045  1.00  0.00     0.028 C 
BRANCH   6   7
ATOM      7  C   UNL     1     100.180 117.154 125.236  1.00  0.00    -0.028 C 
ATOM      8  C   UNL     1     100.040 117.310 123.894  1.00  0.00    -0.070 CG0
ATOM      9  C   UNL     1     100.166 118.718 123.359  1.00  0.00     0.039 C 
ATOM     10  G   UNL     1      99.859 116.183 122.884  1.00  0.00     0.000 G0
ENDBRANCH   6   7
ENDBRANCH   5   6
ENDBRANCH   3   5
ENDBRANCH   1   3
BRANCH   1  11
ATOM     11  C   UNL     1     102.617 114.116 124.296  1.00  0.00     0.087 C 
BRANCH  11  12
ATOM     12  C   UNL     1     101.427 114.061 123.298  1.00  0.00     0.066 C 
BRANCH  12  13
ATOM     13  C   UNL     1     101.120 115.381 122.591  1.00  0.00     0.140 C 
ATOM     14  O   UNL     1     101.974 115.853 121.855  1.00  0.00    -0.299 OA
BRANCH  13  15
ATOM     15  C   UNL     1      99.875 116.195 122.852  1.00  0.00     0.106 CG0
ATOM     16  G   UNL     1     100.033 117.304 123.886  1.00  0.00     0.000 G0
ENDBRANCH  13  15
ENDBRANCH  12  13
BRANCH  12  17
ATOM     17  C   UNL     1     101.551 112.908 122.253  1.00  0.00    -0.006 C 
ATOM     18  C   UNL     1     100.694 111.689 122.631  1.00  0.00     0.008 C 
ATOM     19  C   UNL     1     103.002 112.472 121.992  1.00  0.00     0.008 C 
ENDBRANCH  12  17
ENDBRANCH  11  12
ENDBRANCH   1  11
TORSDOF 1
ENDMDL
MODEL 2
REMARK VINA RESULT:    -3.969      1.905      4.257
REMARK INTER + INTRA:          -6.514
REMARK INTER:                  -6.405
REMARK INTRA:                  -0.109
REMARK UNBOUND:                -0.458
REMARK SMILES CC1=CCC[C@@H](C)C(=O)C[C@H](C(C)C)C(=O)C1
REMARK SMILES IDX 8 1 9 2 6 3 7 4 5 5 4 6 3 7 2 8 1 9 10 11 11 12 15 13 16 14
REMARK SMILES IDX 17 15 12 17 13 18 14 19
REMARK H PARENT
REMARK Flexibility Score: 70.00
ROOT
ATOM      1  C   UNL     1      99.927 117.766 124.288  1.00  0.00     0.136 C 
ATOM      2  O   UNL     1     100.394 118.800 123.830  1.00  0.00    -0.299 OA
ENDROOT
BRANCH   1   3
ATOM      3  C   UNL     1      99.728 117.634 125.785  1.00  0.00     0.053 C 
ATOM      4  C   UNL     1      99.857 119.011 126.444  1.00  0.00     0.016 C 
BRANCH   3   5
ATOM      5  C   UNL     1     100.732 116.643 126.412  1.00  0.00     0.015 C 
BRANCH   5   6
ATOM      6  C   UNL     1     100.206 115.204 126.556  1.00  0.00     0.028 C 
BRANCH   6   7
ATOM      7  C   UNL     1     101.253 114.146 126.295  1.00  0.00    -0.028 C 
ATOM      8  C   UNL     1     101.659 113.652 125.095  1.00  0.00    -0.070 CG0
ATOM      9  C   UNL     1     102.802 112.663 125.122  1.00  0.00     0.039 C 
ATOM     10  G   UNL     1     101.005 113.941 123.749  1.00  0.00     0.000 G0
ENDBRANCH   6   7
ENDBRANCH   5   6
ENDBRANCH   3   5
ENDBRANCH   1   3
BRANCH   1  11
ATOM     11  C   UNL     1      99.529 116.663 123.341  1.00  0.00     0.087 C 
BRANCH  11  12
ATOM     12  C   UNL     1     100.700 116.224 122.418  1.00  0.00     0.066 C 
BRANCH  12  13
ATOM     13  C   UNL     1     101.563 115.091 122.972  1.00  0.00     0.140 C 
ATOM     14  O   UNL     1     102.752 115.079 122.686  1.00  0.00    -0.299 OA
BRANCH  13  15
ATOM     15  C   UNL     1     101.004 113.920 123.745  1.00  0.00     0.106 CG0
ATOM     16  G   UNL     1     101.655 113.673 125.101  1.00  0.00     0.000 G0
ENDBRANCH  13  15
ENDBRANCH  12  13
BRANCH  12  17
ATOM     17  C   UNL     1     100.247 115.891 120.961  1.00  0.00    -0.006 C 
ATOM     18  C   UNL     1     101.309 116.285 119.921  1.00  0.00     0.008 C 
ATOM     19  C   UNL     1      98.889 116.505 120.587  1.00  0.00     0.008 C 
ENDBRANCH  12  17
ENDBRANCH  11  12
ENDBRANCH   1  11
TORSDOF 1
ENDMDL
MODEL 3
REMARK VINA RESULT:    -3.964      2.033      4.323
REMARK INTER + INTRA:          -6.507
REMARK INTER:                  -6.341
REMARK INTRA:                  -0.166
REMARK UNBOUND:                -0.458
REMARK SMILES CC1=CCC[C@@H](C)C(=O)C[C@H](C(C)C)C(=O)C1
REMARK SMILES IDX 8 1 9 2 6 3 7 4 5 5 4 6 3 7 2 8 1 9 10 11 11 12 15 13 16 14
REMARK SMILES IDX 17 15 12 17 13 18 14 19
REMARK H PARENT
REMARK Flexibility Score: 70.00
ROOT
ATOM      1  C   UNL     1     100.328 116.035 125.578  1.00  0.00     0.136 C 
ATOM      2  O   UNL     1     100.607 117.173 125.930  1.00  0.00    -0.299 OA
ENDROOT
BRANCH   1   3
ATOM      3  C   UNL     1     100.633 114.871 126.500  1.00  0.00     0.053 C 
ATOM      4  C   UNL     1     102.139 114.821 126.783  1.00  0.00     0.016 C 
BRANCH   3   5
ATOM      5  C   UNL     1     100.155 113.528 125.907  1.00  0.00     0.015 C 
BRANCH   5   6
ATOM      6  C   UNL     1     101.284 112.619 125.391  1.00  0.00     0.028 C 
BRANCH   6   7
ATOM      7  C   UNL     1     101.035 112.066 124.007  1.00  0.00    -0.028 C 
ATOM      8  C   UNL     1     101.389 112.612 122.814  1.00  0.00    -0.070 CG0
ATOM      9  C   UNL     1     101.101 111.790 121.580  1.00  0.00     0.039 C 
ATOM     10  G   UNL     1     101.964 114.011 122.615  1.00  0.00     0.000 G0
ENDBRANCH   6   7
ENDBRANCH   5   6
ENDBRANCH   3   5
ENDBRANCH   1   3
BRANCH   1  11
ATOM     11  C   UNL     1      99.653 115.827 124.246  1.00  0.00     0.087 C 
BRANCH  11  12
ATOM     12  C   UNL     1     100.564 116.232 123.053  1.00  0.00     0.066 C 
BRANCH  12  13
ATOM     13  C   UNL     1     101.011 115.071 122.165  1.00  0.00     0.140 C 
ATOM     14  O   UNL     1     100.482 114.945 121.070  1.00  0.00    -0.299 OA
BRANCH  13  15
ATOM     15  C   UNL     1     101.977 114.001 122.617  1.00  0.00     0.106 CG0
ATOM     16  G   UNL     1     101.364 112.619 122.810  1.00  0.00     0.000 G0
ENDBRANCH  13  15
ENDBRANCH  12  13
BRANCH  12  17
ATOM     17  C   UNL     1      99.962 117.376 122.178  1.00  0.00    -0.006 C 
ATOM     18  C   UNL     1     101.049 118.155 121.417  1.00  0.00     0.008 C 
ATOM     19  C   UNL     1      99.073 118.349 122.969  1.00  0.00     0.008 C 
ENDBRANCH  12  17
ENDBRANCH  11  12
ENDBRANCH   1  11
TORSDOF 1
ENDMDL
MODEL 4
REMARK VINA RESULT:    -3.930      1.857      3.712
REMARK INTER + INTRA:          -6.456
REMARK INTER:                  -6.126
REMARK INTRA:                  -0.330
REMARK UNBOUND:                -0.458
REMARK SMILES CC1=CCC[C@@H](C)C(=O)C[C@H](C(C)C)C(=O)C1
REMARK SMILES IDX 8 1 9 2 6 3 7 4 5 5 4 6 3 7 2 8 1 9 10 11 11 12 15 13 16 14
REMARK SMILES IDX 17 15 12 17 13 18 14 19
REMARK H PARENT
REMARK Flexibility Score: 70.00
ROOT
ATOM      1  C   UNL     1     100.370 116.231 125.940  1.00  0.00     0.136 C 
ATOM      2  O   UNL     1      99.524 116.126 126.816  1.00  0.00    -0.299 OA
ENDROOT
BRANCH   1   3
ATOM      3  C   UNL     1     100.302 117.394 124.969  1.00  0.00     0.053 C 
ATOM      4  C   UNL     1     100.176 118.707 125.750  1.00  0.00     0.016 C 
BRANCH   3   5
ATOM      5  C   UNL     1      99.128 117.246 123.977  1.00  0.00     0.015 C 
BRANCH   5   6
ATOM      6  C   UNL     1      99.399 116.289 122.803  1.00  0.00     0.028 C 
BRANCH   6   7
ATOM      7  C   UNL     1     100.778 116.438 122.203  1.00  0.00    -0.028 C 
ATOM      8  C   UNL     1     101.686 115.461 121.945  1.00  0.00    -0.070 CG0
ATOM      9  C   UNL     1     102.956 115.884 121.244  1.00  0.00     0.039 C 
ATOM     10  G   UNL     1     101.569 114.004 122.380  1.00  0.00     0.000 G0
ENDBRANCH   6   7
ENDBRANCH   5   6
ENDBRANCH   3   5
ENDBRANCH   1   3
BRANCH   1  11
ATOM     11  C   UNL     1     101.482 115.216 125.873  1.00  0.00     0.087 C 
BRANCH  11  12
ATOM     12  C   UNL     1     101.104 113.980 125.010  1.00  0.00     0.066 C 
BRANCH  12  13
ATOM     13  C   UNL     1     102.008 113.740 123.801  1.00  0.00     0.140 C 
ATOM     14  O   UNL     1     103.170 113.420 124.003  1.00  0.00    -0.299 OA
BRANCH  13  15
ATOM     15  C   UNL     1     101.579 114.001 122.376  1.00  0.00     0.106 CG0
ATOM     16  G   UNL     1     101.699 115.451 121.920  1.00  0.00     0.000 G0
ENDBRANCH  13  15
ENDBRANCH  12  13
BRANCH  12  17
ATOM     17  C   UNL     1     100.961 112.666 125.841  1.00  0.00    -0.006 C 
ATOM     18  C   UNL     1      99.565 112.532 126.475  1.00  0.00     0.008 C 
ATOM     19  C   UNL     1     102.046 112.501 126.917  1.00  0.00     0.008 C 
ENDBRANCH  12  17
ENDBRANCH  11  12
ENDBRANCH   1  11
TORSDOF 1
ENDMDL
MODEL 5
REMARK VINA RESULT:    -3.670      2.272      4.718
REMARK INTER + INTRA:          -6.059
REMARK INTER:                  -5.829
REMARK INTRA:                  -0.230
REMARK UNBOUND:                -0.458
REMARK SMILES CC1=CCC[C@@H](C)C(=O)C[C@H](C(C)C)C(=O)C1
REMARK SMILES IDX 8 1 9 2 6 3 7 4 5 5 4 6 3 7 2 8 1 9 10 11 11 12 15 13 16 14
REMARK SMILES IDX 17 15 12 17 13 18 14 19
REMARK H PARENT
REMARK Flexibility Score: 70.00
ROOT
ATOM      1  C   UNL     1      99.844 119.136 123.987  1.00  0.00     0.136 C 
ATOM      2  O   UNL     1     100.646 119.885 123.448  1.00  0.00    -0.299 OA
ENDROOT
BRANCH   1   3
ATOM      3  C   UNL     1      99.380 119.428 125.401  1.00  0.00     0.053 C 
ATOM      4  C   UNL     1     100.290 120.489 126.030  1.00  0.00     0.016 C 
BRANCH   3   5
ATOM      5  C   UNL     1      99.359 118.155 126.273  1.00  0.00     0.015 C 
BRANCH   5   6
ATOM      6  C   UNL     1     100.699 117.402 126.338  1.00  0.00     0.028 C 
BRANCH   6   7
ATOM      7  C   UNL     1     100.553 115.921 126.603  1.00  0.00    -0.028 C 
ATOM      8  C   UNL     1     100.121 114.959 125.745  1.00  0.00    -0.070 CG0
ATOM      9  C   UNL     1     100.169 113.534 126.247  1.00  0.00     0.039 C 
ATOM     10  G   UNL     1      99.515 115.205 124.368  1.00  0.00     0.000 G0
ENDBRANCH   6   7
ENDBRANCH   5   6
ENDBRANCH   3   5
ENDBRANCH   1   3
BRANCH   1  11
ATOM     11  C   UNL     1      99.310 117.958 123.213  1.00  0.00     0.087 C 
BRANCH  11  12
ATOM     12  C   UNL     1     100.443 117.034 122.685  1.00  0.00     0.066 C 
BRANCH  12  13
ATOM     13  C   UNL     1     100.468 115.635 123.299  1.00  0.00     0.140 C 
ATOM     14  O   UNL     1     101.232 114.808 122.822  1.00  0.00    -0.299 OA
BRANCH  13  15
ATOM     15  C   UNL     1      99.512 115.181 124.377  1.00  0.00     0.106 CG0
ATOM     16  G   UNL     1     100.143 114.952 125.746  1.00  0.00     0.000 G0
ENDBRANCH  13  15
ENDBRANCH  12  13
BRANCH  12  17
ATOM     17  C   UNL     1     100.487 116.938 121.128  1.00  0.00    -0.006 C 
ATOM     18  C   UNL     1     101.643 117.758 120.530  1.00  0.00     0.008 C 
ATOM     19  C   UNL     1      99.161 117.325 120.453  1.00  0.00     0.008 C 
ENDBRANCH  12  17
ENDBRANCH  11  12
ENDBRANCH   1  11
TORSDOF 1
ENDMDL
MODEL 6
REMARK VINA RESULT:    -3.637      1.665      3.846
REMARK INTER + INTRA:          -6.009
REMARK INTER:                  -5.780
REMARK INTRA:                  -0.229
REMARK UNBOUND:                -0.458
REMARK SMILES CC1=CCC[C@@H](C)C(=O)C[C@H](C(C)C)C(=O)C1
REMARK SMILES IDX 8 1 9 2 6 3 7 4 5 5 4 6 3 7 2 8 1 9 10 11 11 12 15 13 16 14
REMARK SMILES IDX 17 15 12 17 13 18 14 19
REMARK H PARENT
REMARK Flexibility Score: 70.00
ROOT
ATOM      1  C   UNL     1     101.860 114.534 122.591  1.00  0.00     0.136 C 
ATOM      2  O   UNL     1     102.915 115.076 122.888  1.00  0.00    -0.299 OA
ENDROOT
BRANCH   1   3
ATOM      3  C   UNL     1     101.462 114.420 121.133  1.00  0.00     0.053 C 
ATOM      4  C   UNL     1     102.682 114.015 120.298  1.00  0.00     0.016 C 
BRANCH   3   5
ATOM      5  C   UNL     1     100.860 115.736 120.597  1.00  0.00     0.015 C 
BRANCH   5   6
ATOM      6  C   UNL     1      99.491 116.104 121.195  1.00  0.00     0.028 C 
BRANCH   6   7
ATOM      7  C   UNL     1      99.500 117.387 121.994  1.00  0.00    -0.028 C 
ATOM      8  C   UNL     1      99.493 117.529 123.345  1.00  0.00    -0.070 CG0
ATOM      9  C   UNL     1      99.607 118.939 123.878  1.00  0.00     0.039 C 
ATOM     10  G   UNL     1      99.291 116.404 124.354  1.00  0.00     0.000 G0
ENDBRANCH   6   7
ENDBRANCH   5   6
ENDBRANCH   3   5
ENDBRANCH   1   3
BRANCH   1  11
ATOM     11  C   UNL     1     101.000 113.959 123.688  1.00  0.00     0.087 C 
BRANCH  11  12
ATOM     12  C   UNL     1     101.217 114.679 125.048  1.00  0.00     0.066 C 
BRANCH  12  13
ATOM     13  C   UNL     1     100.494 116.018 125.188  1.00  0.00     0.140 C 
ATOM     14  O   UNL     1     100.848 116.775 126.080  1.00  0.00    -0.299 OA
BRANCH  13  15
ATOM     15  C   UNL     1      99.285 116.401 124.368  1.00  0.00     0.106 CG0
ATOM     16  G   UNL     1      99.515 117.525 123.364  1.00  0.00     0.000 G0
ENDBRANCH  13  15
ENDBRANCH  12  13
BRANCH  12  17
ATOM     17  C   UNL     1     100.913 113.773 126.282  1.00  0.00    -0.006 C 
ATOM     18  C   UNL     1     102.100 112.862 126.639  1.00  0.00     0.008 C 
ATOM     19  C   UNL     1      99.634 112.935 126.126  1.00  0.00     0.008 C 
ENDBRANCH  12  17
ENDBRANCH  11  12
ENDBRANCH   1  11
TORSDOF 1
ENDMDL
MODEL 7
REMARK VINA RESULT:    -3.491      1.773      2.373
REMARK INTER + INTRA:          -5.786
REMARK INTER:                  -5.574
REMARK INTRA:                  -0.212
REMARK UNBOUND:                -0.458
REMARK SMILES CC1=CCC[C@@H](C)C(=O)C[C@H](C(C)C)C(=O)C1
REMARK SMILES IDX 8 1 9 2 6 3 7 4 5 5 4 6 3 7 2 8 1 9 10 11 11 12 15 13 16 14
REMARK SMILES IDX 17 15 12 17 13 18 14 19
REMARK H PARENT
REMARK Flexibility Score: 70.00
ROOT
ATOM      1  C   UNL     1     101.801 114.285 123.997  1.00  0.00     0.136 C 
ATOM      2  O   UNL     1     101.040 113.434 123.558  1.00  0.00    -0.299 OA
ENDROOT
BRANCH   1   3
ATOM      3  C   UNL     1     102.442 114.087 125.356  1.00  0.00     0.053 C 
ATOM      4  C   UNL     1     102.091 112.694 125.890  1.00  0.00     0.016 C 
BRANCH   3   5
ATOM      5  C   UNL     1     102.003 115.172 126.362  1.00  0.00     0.015 C 
BRANCH   5   6
ATOM      6  C   UNL     1     100.555 115.662 126.183  1.00  0.00     0.028 C 
BRANCH   6   7
ATOM      7  C   UNL     1     100.420 117.167 126.169  1.00  0.00    -0.028 C 
ATOM      8  C   UNL     1      99.813 117.942 125.231  1.00  0.00    -0.070 CG0
ATOM      9  C   UNL     1      99.738 119.423 125.522  1.00  0.00     0.039 C 
ATOM     10  G   UNL     1      99.290 117.457 123.884  1.00  0.00     0.000 G0
ENDBRANCH   6   7
ENDBRANCH   5   6
ENDBRANCH   3   5
ENDBRANCH   1   3
BRANCH   1  11
ATOM     11  C   UNL     1     102.107 115.496 123.152  1.00  0.00     0.087 C 
BRANCH  11  12
ATOM     12  C   UNL     1     100.871 115.982 122.345  1.00  0.00     0.066 C 
BRANCH  12  13
ATOM     13  C   UNL     1     100.303 117.329 122.790  1.00  0.00     0.140 C 
ATOM     14  O   UNL     1     100.787 118.346 122.314  1.00  0.00    -0.299 OA
BRANCH  13  15
ATOM     15  C   UNL     1      99.267 117.477 123.879  1.00  0.00     0.106 CG0
ATOM     16  G   UNL     1      99.809 117.934 125.229  1.00  0.00     0.000 G0
ENDBRANCH  13  15
ENDBRANCH  12  13
BRANCH  12  17
ATOM     17  C   UNL     1     101.103 115.981 120.801  1.00  0.00    -0.006 C 
ATOM     18  C   UNL     1      99.783 116.076 120.017  1.00  0.00     0.008 C 
ATOM     19  C   UNL     1     101.925 114.780 120.306  1.00  0.00     0.008 C 
ENDBRANCH  12  17
ENDBRANCH  11  12
ENDBRANCH   1  11
TORSDOF 1
ENDMDL
MODEL 8
REMARK VINA RESULT:    -3.491      7.327      9.856
REMARK INTER + INTRA:          -5.785
REMARK INTER:                  -5.600
REMARK INTRA:                  -0.185
REMARK UNBOUND:                -0.458
REMARK SMILES CC1=CCC[C@@H](C)C(=O)C[C@H](C(C)C)C(=O)C1
REMARK SMILES IDX 8 1 9 2 6 3 7 4 5 5 4 6 3 7 2 8 1 9 10 11 11 12 15 13 16 14
REMARK SMILES IDX 17 15 12 17 13 18 14 19
REMARK H PARENT
REMARK Flexibility Score: 70.00
ROOT
ATOM      1  C   UNL     1     102.394 104.261 120.379  1.00  0.00     0.136 C 
ATOM      2  O   UNL     1     101.369 103.674 120.692  1.00  0.00    -0.299 OA
ENDROOT
BRANCH   1   3
ATOM      3  C   UNL     1     103.708 103.872 121.028  1.00  0.00     0.053 C 
ATOM      4  C   UNL     1     103.592 102.460 121.613  1.00  0.00     0.016 C 
BRANCH   3   5
ATOM      5  C   UNL     1     104.126 104.873 122.126  1.00  0.00     0.015 C 
BRANCH   5   6
ATOM      6  C   UNL     1     104.424 106.294 121.615  1.00  0.00     0.028 C 
BRANCH   6   7
ATOM      7  C   UNL     1     103.608 107.369 122.296  1.00  0.00    -0.028 C 
ATOM      8  C   UNL     1     102.619 108.131 121.759  1.00  0.00    -0.070 CG0
ATOM      9  C   UNL     1     101.899 109.067 122.702  1.00  0.00     0.039 C 
ATOM     10  G   UNL     1     102.242 108.184 120.283  1.00  0.00     0.000 G0
ENDBRANCH   6   7
ENDBRANCH   5   6
ENDBRANCH   3   5
ENDBRANCH   1   3
BRANCH   1  11
ATOM     11  C   UNL     1     102.327 105.337 119.325  1.00  0.00     0.087 C 
BRANCH  11  12
ATOM     12  C   UNL     1     100.953 106.063 119.308  1.00  0.00     0.066 C 
BRANCH  12  13
ATOM     13  C   UNL     1     100.961 107.467 119.911  1.00  0.00     0.140 C 
ATOM     14  O   UNL     1      99.897 108.060 120.009  1.00  0.00    -0.299 OA
BRANCH  13  15
ATOM     15  C   UNL     1     102.226 108.210 120.274  1.00  0.00     0.106 CG0
ATOM     16  G   UNL     1     102.620 108.133 121.745  1.00  0.00     0.000 G0
ENDBRANCH  13  15
ENDBRANCH  12  13
BRANCH  12  17
ATOM     17  C   UNL     1     100.286 106.089 117.897  1.00  0.00    -0.006 C 
ATOM     18  C   UNL     1     100.052 104.674 117.341  1.00  0.00     0.008 C 
ATOM     19  C   UNL     1     101.054 106.938 116.872  1.00  0.00     0.008 C 
ENDBRANCH  12  17
ENDBRANCH  11  12
ENDBRANCH   1  11
TORSDOF 1
ENDMDL
MODEL 9
REMARK VINA RESULT:    -3.342      2.290      4.971
REMARK INTER + INTRA:          -5.559
REMARK INTER:                  -5.181
REMARK INTRA:                  -0.378
REMARK UNBOUND:                -0.458
REMARK SMILES CC1=CCC[C@@H](C)C(=O)C[C@H](C(C)C)C(=O)C1
REMARK SMILES IDX 8 1 9 2 6 3 7 4 5 5 4 6 3 7 2 8 1 9 10 11 11 12 15 13 16 14
REMARK SMILES IDX 17 15 12 17 13 18 14 19
REMARK H PARENT
REMARK Flexibility Score: 70.00
ROOT
ATOM      1  C   UNL     1     100.584 115.911 123.711  1.00  0.00     0.136 C 
ATOM      2  O   UNL     1      99.779 116.086 124.615  1.00  0.00    -0.299 OA
ENDROOT
BRANCH   1   3
ATOM      3  C   UNL     1     100.423 116.671 122.409  1.00  0.00     0.053 C 
ATOM      4  C   UNL     1      99.210 117.603 122.506  1.00  0.00     0.016 C 
BRANCH   3   5
ATOM      5  C   UNL     1     100.272 115.719 121.204  1.00  0.00     0.015 C 
BRANCH   5   6
ATOM      6  C   UNL     1     101.598 115.330 120.526  1.00  0.00     0.028 C 
BRANCH   6   7
ATOM      7  C   UNL     1     101.639 113.897 120.047  1.00  0.00    -0.028 C 
ATOM      8  C   UNL     1     102.078 112.804 120.725  1.00  0.00    -0.070 CG0
ATOM      9  C   UNL     1     101.911 111.469 120.036  1.00  0.00     0.039 C 
ATOM     10  G   UNL     1     102.800 112.823 122.068  1.00  0.00     0.000 G0
ENDBRANCH   6   7
ENDBRANCH   5   6
ENDBRANCH   3   5
ENDBRANCH   1   3
BRANCH   1  11
ATOM     11  C   UNL     1     101.739 114.968 123.933  1.00  0.00     0.087 C 
BRANCH  11  12
ATOM     12  C   UNL     1     101.270 113.505 124.168  1.00  0.00     0.066 C 
BRANCH  12  13
ATOM     13  C   UNL     1     101.938 112.465 123.269  1.00  0.00     0.140 C 
ATOM     14  O   UNL     1     101.864 111.289 123.593  1.00  0.00    -0.299 OA
BRANCH  13  15
ATOM     15  C   UNL     1     102.791 112.822 122.075  1.00  0.00     0.106 CG0
ATOM     16  G   UNL     1     102.065 112.807 120.735  1.00  0.00     0.000 G0
ENDBRANCH  13  15
ENDBRANCH  12  13
BRANCH  12  17
ATOM     17  C   UNL     1     101.359 113.060 125.662  1.00  0.00    -0.006 C 
ATOM     18  C   UNL     1      99.973 112.968 126.322  1.00  0.00     0.008 C 
ATOM     19  C   UNL     1     102.289 113.943 126.509  1.00  0.00     0.008 C 
ENDBRANCH  12  17
ENDBRANCH  11  12
ENDBRANCH   1  11
TORSDOF 1
ENDMDL
