MODEL 1
REMARK VINA RESULT:    -4.113      0.000      0.000
REMARK INTER + INTRA:          -6.078
REMARK INTER:                  -5.797
REMARK INTRA:                  -0.281
REMARK UNBOUND:                -0.281
REMARK SMILES CCCCCCCCC(=O)[O-]
REMARK SMILES IDX 6 1 7 2 8 3 9 4 10 5 11 6 5 7 4 8 3 9 2 10 1 11
REMARK H PARENT
REMARK Flexibility Score: inf
ROOT
ATOM      1  C   UNL     1      46.710   6.602  18.498  1.00  0.00     0.000 C 
ENDROOT
BRANCH   1   2
ATOM      2  C   UNL     1      46.764   6.682  16.968  1.00  0.00     0.006 C 
BRANCH   2   3
ATOM      3  C   UNL     1      47.569   5.518  16.384  1.00  0.00     0.053 C 
BRANCH   3   4
ATOM      4  C   UNL     1      47.122   5.218  14.987  1.00  0.00     0.041 C 
ATOM      5  O   UNL     1      46.015   5.650  14.571  1.00  0.00    -0.550 OA
ATOM      6  O   UNL     1      47.905   4.421  14.163  1.00  0.00    -0.550 OA
ENDBRANCH   3   4
ENDBRANCH   2   3
ENDBRANCH   1   2
BRANCH   1   7
ATOM      7  C   UNL     1      46.190   7.917  19.098  1.00  0.00     0.000 C 
BRANCH   7   8
ATOM      8  C   UNL     1      46.359   7.981  20.625  1.00  0.00    -0.000 C 
BRANCH   8   9
ATOM      9  C   UNL     1      47.193   6.813  21.178  1.00  0.00    -0.000 C 
BRANCH   9  10
ATOM     10  C   UNL     1      48.045   7.219  22.389  1.00  0.00    -0.003 C 
ATOM     11  C   UNL     1      47.621   8.559  22.991  1.00  0.00     0.004 C 
ENDBRANCH   9  10
ENDBRANCH   8   9
ENDBRANCH   7   8
ENDBRANCH   1   7
TORSDOF 7
ENDMDL
MODEL 2
REMARK VINA RESULT:    -4.103      2.005      2.986
REMARK INTER + INTRA:          -6.064
REMARK INTER:                  -5.387
REMARK INTRA:                  -0.677
REMARK UNBOUND:                -0.281
REMARK SMILES CCCCCCCCC(=O)[O-]
REMARK SMILES IDX 6 1 7 2 8 3 9 4 10 5 11 6 5 7 4 8 3 9 2 10 1 11
REMARK H PARENT
REMARK Flexibility Score: inf
ROOT
ATOM      1  C   UNL     1      44.553   8.827  20.056  1.00  0.00     0.000 C 
ENDROOT
BRANCH   1   2
ATOM      2  C   UNL     1      45.956   8.787  19.439  1.00  0.00     0.006 C 
BRANCH   2   3
ATOM      3  C   UNL     1      46.380   7.348  19.130  1.00  0.00     0.053 C 
BRANCH   3   4
ATOM      4  C   UNL     1      46.759   7.211  17.689  1.00  0.00     0.041 C 
ATOM      5  O   UNL     1      46.770   8.222  16.938  1.00  0.00    -0.550 OA
ATOM      6  O   UNL     1      47.050   5.960  17.163  1.00  0.00    -0.550 OA
ENDBRANCH   3   4
ENDBRANCH   2   3
ENDBRANCH   1   2
BRANCH   1   7
ATOM      7  C   UNL     1      44.597   8.444  21.544  1.00  0.00     0.000 C 
BRANCH   7   8
ATOM      8  C   UNL     1      45.654   9.235  22.330  1.00  0.00    -0.000 C 
BRANCH   8   9
ATOM      9  C   UNL     1      46.519   8.336  23.230  1.00  0.00    -0.000 C 
BRANCH   9  10
ATOM     10  C   UNL     1      47.890   8.028  22.611  1.00  0.00    -0.003 C 
ATOM     11  C   UNL     1      48.097   6.538  22.338  1.00  0.00     0.004 C 
ENDBRANCH   9  10
ENDBRANCH   8   9
ENDBRANCH   7   8
ENDBRANCH   1   7
TORSDOF 7
ENDMDL
MODEL 3
REMARK VINA RESULT:    -4.084      4.074      6.544
REMARK INTER + INTRA:          -6.037
REMARK INTER:                  -5.803
REMARK INTRA:                  -0.234
REMARK UNBOUND:                -0.281
REMARK SMILES CCCCCCCCC(=O)[O-]
REMARK SMILES IDX 6 1 7 2 8 3 9 4 10 5 11 6 5 7 4 8 3 9 2 10 1 11
REMARK H PARENT
REMARK Flexibility Score: inf
ROOT
ATOM      1  C   UNL     1      46.298   7.422  18.507  1.00  0.00     0.000 C 
ENDROOT
BRANCH   1   2
ATOM      2  C   UNL     1      46.752   6.873  19.864  1.00  0.00     0.006 C 
BRANCH   2   3
ATOM      3  C   UNL     1      46.407   7.847  20.994  1.00  0.00     0.053 C 
BRANCH   3   4
ATOM      4  C   UNL     1      47.403   7.735  22.106  1.00  0.00     0.041 C 
ATOM      5  O   UNL     1      47.573   8.694  22.903  1.00  0.00    -0.550 OA
ATOM      6  O   UNL     1      48.178   6.590  22.230  1.00  0.00    -0.550 OA
ENDBRANCH   3   4
ENDBRANCH   2   3
ENDBRANCH   1   2
BRANCH   1   7
ATOM      7  C   UNL     1      47.005   6.691  17.354  1.00  0.00     0.000 C 
BRANCH   7   8
ATOM      8  C   UNL     1      46.153   6.630  16.077  1.00  0.00    -0.000 C 
BRANCH   8   9
ATOM      9  C   UNL     1      44.677   6.981  16.332  1.00  0.00    -0.000 C 
BRANCH   9  10
ATOM     10  C   UNL     1      43.720   6.209  15.411  1.00  0.00    -0.003 C 
ATOM     11  C   UNL     1      43.640   6.804  14.006  1.00  0.00     0.004 C 
ENDBRANCH   9  10
ENDBRANCH   8   9
ENDBRANCH   7   8
ENDBRANCH   1   7
TORSDOF 7
ENDMDL
MODEL 4
REMARK VINA RESULT:    -4.077      4.106      6.686
REMARK INTER + INTRA:          -6.026
REMARK INTER:                  -5.850
REMARK INTRA:                  -0.176
REMARK UNBOUND:                -0.281
REMARK SMILES CCCCCCCCC(=O)[O-]
REMARK SMILES IDX 6 1 7 2 8 3 9 4 10 5 11 6 5 7 4 8 3 9 2 10 1 11
REMARK H PARENT
REMARK Flexibility Score: inf
ROOT
ATOM      1  C   UNL     1      46.387   7.476  18.681  1.00  0.00     0.000 C 
ENDROOT
BRANCH   1   2
ATOM      2  C   UNL     1      46.797   6.838  20.013  1.00  0.00     0.006 C 
BRANCH   2   3
ATOM      3  C   UNL     1      46.659   7.837  21.166  1.00  0.00     0.053 C 
BRANCH   3   4
ATOM      4  C   UNL     1      47.683   7.563  22.223  1.00  0.00     0.041 C 
ATOM      5  O   UNL     1      48.146   6.402  22.371  1.00  0.00    -0.550 OA
ATOM      6  O   UNL     1      48.088   8.579  23.078  1.00  0.00    -0.550 OA
ENDBRANCH   3   4
ENDBRANCH   2   3
ENDBRANCH   1   2
BRANCH   1   7
ATOM      7  C   UNL     1      46.649   6.516  17.510  1.00  0.00     0.000 C 
BRANCH   7   8
ATOM      8  C   UNL     1      46.459   7.185  16.139  1.00  0.00    -0.000 C 
BRANCH   8   9
ATOM      9  C   UNL     1      45.624   6.328  15.173  1.00  0.00    -0.000 C 
BRANCH   9  10
ATOM     10  C   UNL     1      44.113   6.528  15.363  1.00  0.00    -0.003 C 
ATOM     11  C   UNL     1      43.358   6.646  14.039  1.00  0.00     0.004 C 
ENDBRANCH   9  10
ENDBRANCH   8   9
ENDBRANCH   7   8
ENDBRANCH   1   7
TORSDOF 7
ENDMDL
MODEL 5
REMARK VINA RESULT:    -4.057      3.794      6.463
REMARK INTER + INTRA:          -5.999
REMARK INTER:                  -5.791
REMARK INTRA:                  -0.208
REMARK UNBOUND:                -0.281
REMARK SMILES CCCCCCCCC(=O)[O-]
REMARK SMILES IDX 6 1 7 2 8 3 9 4 10 5 11 6 5 7 4 8 3 9 2 10 1 11
REMARK H PARENT
REMARK Flexibility Score: inf
ROOT
ATOM      1  C   UNL     1      46.196   7.811  18.871  1.00  0.00     0.000 C 
ENDROOT
BRANCH   1   2
ATOM      2  C   UNL     1      46.741   7.004  20.055  1.00  0.00     0.006 C 
BRANCH   2   3
ATOM      3  C   UNL     1      46.692   7.824  21.348  1.00  0.00     0.053 C 
BRANCH   3   4
ATOM      4  C   UNL     1      47.856   7.489  22.226  1.00  0.00     0.041 C 
ATOM      5  O   UNL     1      48.252   6.298  22.326  1.00  0.00    -0.550 OA
ATOM      6  O   UNL     1      48.472   8.484  22.973  1.00  0.00    -0.550 OA
ENDBRANCH   3   4
ENDBRANCH   2   3
ENDBRANCH   1   2
BRANCH   1   7
ATOM      7  C   UNL     1      46.787   7.306  17.545  1.00  0.00     0.000 C 
BRANCH   7   8
ATOM      8  C   UNL     1      45.712   6.798  16.571  1.00  0.00    -0.000 C 
BRANCH   8   9
ATOM      9  C   UNL     1      46.312   6.209  15.283  1.00  0.00    -0.000 C 
BRANCH   9  10
ATOM     10  C   UNL     1      47.534   5.319  15.555  1.00  0.00    -0.003 C 
ATOM     11  C   UNL     1      47.814   4.332  14.422  1.00  0.00     0.004 C 
ENDBRANCH   9  10
ENDBRANCH   8   9
ENDBRANCH   7   8
ENDBRANCH   1   7
TORSDOF 7
ENDMDL
MODEL 6
REMARK VINA RESULT:    -4.013      1.334      1.960
REMARK INTER + INTRA:          -5.937
REMARK INTER:                  -5.622
REMARK INTRA:                  -0.315
REMARK UNBOUND:                -0.281
REMARK SMILES CCCCCCCCC(=O)[O-]
REMARK SMILES IDX 6 1 7 2 8 3 9 4 10 5 11 6 5 7 4 8 3 9 2 10 1 11
REMARK H PARENT
REMARK Flexibility Score: inf
ROOT
ATOM      1  C   UNL     1      46.725   6.801  18.255  1.00  0.00     0.000 C 
ENDROOT
BRANCH   1   2
ATOM      2  C   UNL     1      46.470   6.849  16.745  1.00  0.00     0.006 C 
BRANCH   2   3
ATOM      3  C   UNL     1      44.975   6.992  16.444  1.00  0.00     0.053 C 
BRANCH   3   4
ATOM      4  C   UNL     1      44.645   6.374  15.121  1.00  0.00     0.041 C 
ATOM      5  O   UNL     1      45.538   5.788  14.455  1.00  0.00    -0.550 OA
ATOM      6  O   UNL     1      43.362   6.488  14.602  1.00  0.00    -0.550 OA
ENDBRANCH   3   4
ENDBRANCH   2   3
ENDBRANCH   1   2
BRANCH   1   7
ATOM      7  C   UNL     1      45.932   7.900  18.981  1.00  0.00     0.000 C 
BRANCH   7   8
ATOM      8  C   UNL     1      46.331   8.044  20.459  1.00  0.00    -0.000 C 
BRANCH   8   9
ATOM      9  C   UNL     1      47.086   6.814  20.990  1.00  0.00    -0.000 C 
BRANCH   9  10
ATOM     10  C   UNL     1      47.888   7.120  22.264  1.00  0.00    -0.003 C 
ATOM     11  C   UNL     1      47.598   8.512  22.827  1.00  0.00     0.004 C 
ENDBRANCH   9  10
ENDBRANCH   8   9
ENDBRANCH   7   8
ENDBRANCH   1   7
TORSDOF 7
ENDMDL
MODEL 7
REMARK VINA RESULT:    -3.985      3.707      5.847
REMARK INTER + INTRA:          -5.898
REMARK INTER:                  -5.395
REMARK INTRA:                  -0.503
REMARK UNBOUND:                -0.281
REMARK SMILES CCCCCCCCC(=O)[O-]
REMARK SMILES IDX 6 1 7 2 8 3 9 4 10 5 11 6 5 7 4 8 3 9 2 10 1 11
REMARK H PARENT
REMARK Flexibility Score: inf
ROOT
ATOM      1  C   UNL     1      45.771   8.901  18.879  1.00  0.00     0.000 C 
ENDROOT
BRANCH   1   2
ATOM      2  C   UNL     1      45.782   8.414  20.333  1.00  0.00     0.006 C 
BRANCH   2   3
ATOM      3  C   UNL     1      46.792   7.277  20.523  1.00  0.00     0.053 C 
BRANCH   3   4
ATOM      4  C   UNL     1      47.420   7.356  21.879  1.00  0.00     0.041 C 
ATOM      5  O   UNL     1      47.200   8.348  22.623  1.00  0.00    -0.550 OA
ATOM      6  O   UNL     1      48.290   6.359  22.300  1.00  0.00    -0.550 OA
ENDBRANCH   3   4
ENDBRANCH   2   3
ENDBRANCH   1   2
BRANCH   1   7
ATOM      7  C   UNL     1      44.577   8.312  18.112  1.00  0.00     0.000 C 
BRANCH   7   8
ATOM      8  C   UNL     1      45.008   7.407  16.946  1.00  0.00    -0.000 C 
BRANCH   8   9
ATOM      9  C   UNL     1      46.532   7.399  16.735  1.00  0.00    -0.000 C 
BRANCH   9  10
ATOM     10  C   UNL     1      47.141   5.998  16.900  1.00  0.00    -0.003 C 
ATOM     11  C   UNL     1      47.507   5.350  15.565  1.00  0.00     0.004 C 
ENDBRANCH   9  10
ENDBRANCH   8   9
ENDBRANCH   7   8
ENDBRANCH   1   7
TORSDOF 7
ENDMDL
MODEL 8
REMARK VINA RESULT:    -3.968      6.128      7.693
REMARK INTER + INTRA:          -5.873
REMARK INTER:                  -5.245
REMARK INTRA:                  -0.628
REMARK UNBOUND:                -0.281
REMARK SMILES CCCCCCCCC(=O)[O-]
REMARK SMILES IDX 6 1 7 2 8 3 9 4 10 5 11 6 5 7 4 8 3 9 2 10 1 11
REMARK H PARENT
REMARK Flexibility Score: inf
ROOT
ATOM      1  C   UNL     1      44.218   8.480  22.236  1.00  0.00     0.000 C 
ENDROOT
BRANCH   1   2
ATOM      2  C   UNL     1      44.103   9.755  23.080  1.00  0.00     0.006 C 
BRANCH   2   3
ATOM      3  C   UNL     1      44.820   9.591  24.423  1.00  0.00     0.053 C 
BRANCH   3   4
ATOM      4  C   UNL     1      43.832   9.329  25.517  1.00  0.00     0.041 C 
ATOM      5  O   UNL     1      44.214   8.832  26.609  1.00  0.00    -0.550 OA
ATOM      6  O   UNL     1      42.484   9.587  25.311  1.00  0.00    -0.550 OA
ENDBRANCH   3   4
ENDBRANCH   2   3
ENDBRANCH   1   2
BRANCH   1   7
ATOM      7  C   UNL     1      44.680   8.807  20.807  1.00  0.00     0.000 C 
BRANCH   7   8
ATOM      8  C   UNL     1      46.191   8.602  20.609  1.00  0.00    -0.000 C 
BRANCH   8   9
ATOM      9  C   UNL     1      46.638   7.163  20.914  1.00  0.00    -0.000 C 
BRANCH   9  10
ATOM     10  C   UNL     1      47.843   7.110  21.866  1.00  0.00    -0.003 C 
ATOM     11  C   UNL     1      47.953   8.350  22.752  1.00  0.00     0.004 C 
ENDBRANCH   9  10
ENDBRANCH   8   9
ENDBRANCH   7   8
ENDBRANCH   1   7
TORSDOF 7
ENDMDL
MODEL 9
REMARK VINA RESULT:    -3.955      1.367      2.018
REMARK INTER + INTRA:          -5.855
REMARK INTER:                  -5.388
REMARK INTRA:                  -0.468
REMARK UNBOUND:                -0.281
REMARK SMILES CCCCCCCCC(=O)[O-]
REMARK SMILES IDX 6 1 7 2 8 3 9 4 10 5 11 6 5 7 4 8 3 9 2 10 1 11
REMARK H PARENT
REMARK Flexibility Score: inf
ROOT
ATOM      1  C   UNL     1      44.570   8.394  17.890  1.00  0.00     0.000 C 
ENDROOT
BRANCH   1   2
ATOM      2  C   UNL     1      45.045   7.327  16.898  1.00  0.00     0.006 C 
BRANCH   2   3
ATOM      3  C   UNL     1      46.438   6.811  17.272  1.00  0.00     0.053 C 
BRANCH   3   4
ATOM      4  C   UNL     1      47.060   6.094  16.115  1.00  0.00     0.041 C 
ATOM      5  O   UNL     1      47.850   5.134  16.315  1.00  0.00    -0.550 OA
ATOM      6  O   UNL     1      46.807   6.519  14.818  1.00  0.00    -0.550 OA
ENDBRANCH   3   4
ENDBRANCH   2   3
ENDBRANCH   1   2
BRANCH   1   7
ATOM      7  C   UNL     1      45.623   8.636  18.983  1.00  0.00     0.000 C 
BRANCH   7   8
ATOM      8  C   UNL     1      44.999   8.905  20.362  1.00  0.00    -0.000 C 
BRANCH   8   9
ATOM      9  C   UNL     1      45.712   8.145  21.493  1.00  0.00    -0.000 C 
BRANCH   9  10
ATOM     10  C   UNL     1      46.845   7.245  20.975  1.00  0.00    -0.003 C 
ATOM     11  C   UNL     1      47.881   6.917  22.051  1.00  0.00     0.004 C 
ENDBRANCH   9  10
ENDBRANCH   8   9
ENDBRANCH   7   8
ENDBRANCH   1   7
TORSDOF 7
ENDMDL
