MODEL 1
REMARK VINA RESULT:    -4.589      0.000      0.000
REMARK INTER + INTRA:         -10.632
REMARK INTER:                  -8.613
REMARK INTRA:                  -2.019
REMARK UNBOUND:                -2.019
REMARK SMILES CCCCCC=CCC=CCCCCCCCC(=O)OC
REMARK SMILES IDX 11 1 10 2 9 3 8 4 7 5 6 6 5 7 4 8 3 9 2 10 1 11 12 12 13 13
REMARK SMILES IDX 14 14 15 15 16 16 17 17 18 18 19 19 20 20 21 21
REMARK H PARENT
REMARK Flexibility Score: inf
ROOT
ATOM      1  C   UNL     1      70.138  50.523  23.682  1.00  0.00     0.027 C 
ENDROOT
BRANCH   1   2
ATOM      2  C   UNL     1      69.641  50.080  22.327  1.00  0.00    -0.031 C 
ATOM      3  C   UNL     1      69.889  50.718  21.168  1.00  0.00    -0.027 C 
BRANCH   3   4
ATOM      4  C   UNL     1      70.673  52.001  21.043  1.00  0.00     0.054 C 
BRANCH   4   5
ATOM      5  C   UNL     1      69.870  53.162  21.570  1.00  0.00    -0.027 C 
ATOM      6  C   UNL     1      69.042  53.915  20.823  1.00  0.00    -0.031 C 
BRANCH   6   7
ATOM      7  C   UNL     1      68.836  53.746  19.337  1.00  0.00     0.027 C 
BRANCH   7   8
ATOM      8  C   UNL     1      67.657  52.814  19.018  1.00  0.00     0.004 C 
BRANCH   8   9
ATOM      9  C   UNL     1      67.952  51.901  17.816  1.00  0.00     0.000 C 
BRANCH   9  10
ATOM     10  C   UNL     1      67.863  50.409  18.174  1.00  0.00    -0.003 C 
ATOM     11  C   UNL     1      66.864  50.125  19.296  1.00  0.00     0.004 C 
ENDBRANCH   9  10
ENDBRANCH   8   9
ENDBRANCH   7   8
ENDBRANCH   6   7
ENDBRANCH   4   5
ENDBRANCH   3   4
ENDBRANCH   1   2
BRANCH   1  12
ATOM     12  C   UNL     1      71.361  49.720  24.154  1.00  0.00     0.004 C 
BRANCH  12  13
ATOM     13  C   UNL     1      72.533  50.631  24.551  1.00  0.00     0.000 C 
BRANCH  13  14
ATOM     14  C   UNL     1      72.137  52.109  24.464  1.00  0.00     0.000 C 
BRANCH  14  15
ATOM     15  C   UNL     1      72.683  52.893  25.666  1.00  0.00     0.001 C 
BRANCH  15  16
ATOM     16  C   UNL     1      71.741  52.853  26.884  1.00  0.00     0.012 C 
BRANCH  16  17
ATOM     17  C   UNL     1      71.442  54.231  27.496  1.00  0.00     0.123 C 
BRANCH  17  18
ATOM     18  C   UNL     1      70.085  54.734  27.107  1.00  0.00     0.305 C 
ATOM     19  O   UNL     1      69.058  54.273  27.678  1.00  0.00    -0.252 OA
BRANCH  18  20
ATOM     20  O   UNL     1      69.976  55.728  26.130  1.00  0.00    -0.469 OA
ATOM     21  C   UNL     1      69.673  55.436  24.771  1.00  0.00     0.282 C 
ENDBRANCH  18  20
ENDBRANCH  17  18
ENDBRANCH  16  17
ENDBRANCH  15  16
ENDBRANCH  14  15
ENDBRANCH  13  14
ENDBRANCH  12  13
ENDBRANCH   1  12
TORSDOF 15
ENDMDL
MODEL 2
REMARK VINA RESULT:    -4.582      2.582      5.042
REMARK INTER + INTRA:         -10.618
REMARK INTER:                  -7.854
REMARK INTRA:                  -2.764
REMARK UNBOUND:                -2.019
REMARK SMILES CCCCCC=CCC=CCCCCCCCC(=O)OC
REMARK SMILES IDX 11 1 10 2 9 3 8 4 7 5 6 6 5 7 4 8 3 9 2 10 1 11 12 12 13 13
REMARK SMILES IDX 14 14 15 15 16 16 17 17 18 18 19 19 20 20 21 21
REMARK H PARENT
REMARK Flexibility Score: inf
ROOT
ATOM      1  C   UNL     1      69.660  51.549  18.235  1.00  0.00     0.027 C 
ENDROOT
BRANCH   1   2
ATOM      2  C   UNL     1      69.569  52.777  17.360  1.00  0.00    -0.031 C 
ATOM      3  C   UNL     1      70.593  53.606  17.085  1.00  0.00    -0.027 C 
BRANCH   3   4
ATOM      4  C   UNL     1      71.989  53.461  17.640  1.00  0.00     0.054 C 
BRANCH   4   5
ATOM      5  C   UNL     1      72.344  54.654  18.489  1.00  0.00    -0.027 C 
ATOM      6  C   UNL     1      72.202  54.704  19.827  1.00  0.00    -0.031 C 
BRANCH   6   7
ATOM      7  C   UNL     1      71.614  53.596  20.668  1.00  0.00     0.027 C 
BRANCH   7   8
ATOM      8  C   UNL     1      70.151  53.869  21.044  1.00  0.00     0.004 C 
BRANCH   8   9
ATOM      9  C   UNL     1      69.710  55.291  20.653  1.00  0.00     0.000 C 
BRANCH   9  10
ATOM     10  C   UNL     1      68.402  55.301  19.847  1.00  0.00    -0.003 C 
ATOM     11  C   UNL     1      67.473  54.141  20.206  1.00  0.00     0.004 C 
ENDBRANCH   9  10
ENDBRANCH   8   9
ENDBRANCH   7   8
ENDBRANCH   6   7
ENDBRANCH   4   5
ENDBRANCH   3   4
ENDBRANCH   1   2
BRANCH   1  12
ATOM     12  C   UNL     1      68.307  50.841  18.402  1.00  0.00     0.004 C 
BRANCH  12  13
ATOM     13  C   UNL     1      68.018  50.483  19.868  1.00  0.00     0.000 C 
BRANCH  13  14
ATOM     14  C   UNL     1      69.306  50.474  20.698  1.00  0.00     0.000 C 
BRANCH  14  15
ATOM     15  C   UNL     1      69.012  50.111  22.161  1.00  0.00     0.001 C 
BRANCH  15  16
ATOM     16  C   UNL     1      70.283  49.755  22.955  1.00  0.00     0.012 C 
BRANCH  16  17
ATOM     17  C   UNL     1      70.948  50.954  23.651  1.00  0.00     0.123 C 
BRANCH  17  18
ATOM     18  C   UNL     1      72.033  50.524  24.591  1.00  0.00     0.305 C 
ATOM     19  O   UNL     1      71.954  49.404  25.168  1.00  0.00    -0.252 OA
BRANCH  18  20
ATOM     20  O   UNL     1      73.134  51.360  24.797  1.00  0.00    -0.469 OA
ATOM     21  C   UNL     1      73.001  52.758  25.025  1.00  0.00     0.282 C 
ENDBRANCH  18  20
ENDBRANCH  17  18
ENDBRANCH  16  17
ENDBRANCH  15  16
ENDBRANCH  14  15
ENDBRANCH  13  14
ENDBRANCH  12  13
ENDBRANCH   1  12
TORSDOF 15
ENDMDL
MODEL 3
REMARK VINA RESULT:    -4.502      1.320      2.518
REMARK INTER + INTRA:         -10.468
REMARK INTER:                  -8.390
REMARK INTRA:                  -2.078
REMARK UNBOUND:                -2.019
REMARK SMILES CCCCCC=CCC=CCCCCCCCC(=O)OC
REMARK SMILES IDX 11 1 10 2 9 3 8 4 7 5 6 6 5 7 4 8 3 9 2 10 1 11 12 12 13 13
REMARK SMILES IDX 14 14 15 15 16 16 17 17 18 18 19 19 20 20 21 21
REMARK H PARENT
REMARK Flexibility Score: inf
ROOT
ATOM      1  C   UNL     1      70.099  51.225  21.021  1.00  0.00     0.027 C 
ENDROOT
BRANCH   1   2
ATOM      2  C   UNL     1      70.223  52.603  21.625  1.00  0.00    -0.031 C 
ATOM      3  C   UNL     1      70.918  53.622  21.085  1.00  0.00    -0.027 C 
BRANCH   3   4
ATOM      4  C   UNL     1      71.716  53.537  19.807  1.00  0.00     0.054 C 
BRANCH   4   5
ATOM      5  C   UNL     1      71.065  54.359  18.725  1.00  0.00    -0.027 C 
ATOM      6  C   UNL     1      70.194  53.873  17.821  1.00  0.00    -0.031 C 
BRANCH   6   7
ATOM      7  C   UNL     1      69.781  52.424  17.721  1.00  0.00     0.027 C 
BRANCH   7   8
ATOM      8  C   UNL     1      68.273  52.268  17.479  1.00  0.00     0.004 C 
BRANCH   8   9
ATOM      9  C   UNL     1      67.456  52.489  18.764  1.00  0.00     0.000 C 
BRANCH   9  10
ATOM     10  C   UNL     1      66.438  51.366  19.016  1.00  0.00    -0.003 C 
ATOM     11  C   UNL     1      67.091  49.991  19.154  1.00  0.00     0.004 C 
ENDBRANCH   9  10
ENDBRANCH   8   9
ENDBRANCH   7   8
ENDBRANCH   6   7
ENDBRANCH   4   5
ENDBRANCH   3   4
ENDBRANCH   1   2
BRANCH   1  12
ATOM     12  C   UNL     1      69.593  50.182  22.030  1.00  0.00     0.004 C 
BRANCH  12  13
ATOM     13  C   UNL     1      70.026  50.509  23.467  1.00  0.00     0.000 C 
BRANCH  13  14
ATOM     14  C   UNL     1      71.179  49.604  23.915  1.00  0.00     0.000 C 
BRANCH  14  15
ATOM     15  C   UNL     1      72.093  50.335  24.909  1.00  0.00     0.001 C 
BRANCH  15  16
ATOM     16  C   UNL     1      71.738  51.827  25.062  1.00  0.00     0.012 C 
BRANCH  16  17
ATOM     17  C   UNL     1      71.971  52.389  26.473  1.00  0.00     0.123 C 
BRANCH  17  18
ATOM     18  C   UNL     1      71.713  53.863  26.538  1.00  0.00     0.305 C 
ATOM     19  O   UNL     1      72.322  54.641  25.752  1.00  0.00    -0.252 OA
BRANCH  18  20
ATOM     20  O   UNL     1      70.779  54.357  27.454  1.00  0.00    -0.469 OA
ATOM     21  C   UNL     1      69.378  54.330  27.207  1.00  0.00     0.282 C 
ENDBRANCH  18  20
ENDBRANCH  17  18
ENDBRANCH  16  17
ENDBRANCH  15  16
ENDBRANCH  14  15
ENDBRANCH  13  14
ENDBRANCH  12  13
ENDBRANCH   1  12
TORSDOF 15
ENDMDL
MODEL 4
REMARK VINA RESULT:    -4.452      2.870      7.065
REMARK INTER + INTRA:         -10.375
REMARK INTER:                  -8.817
REMARK INTRA:                  -1.558
REMARK UNBOUND:                -2.019
REMARK SMILES CCCCCC=CCC=CCCCCCCCC(=O)OC
REMARK SMILES IDX 11 1 10 2 9 3 8 4 7 5 6 6 5 7 4 8 3 9 2 10 1 11 12 12 13 13
REMARK SMILES IDX 14 14 15 15 16 16 17 17 18 18 19 19 20 20 21 21
REMARK H PARENT
REMARK Flexibility Score: inf
ROOT
ATOM      1  C   UNL     1      70.211  50.679  23.472  1.00  0.00     0.027 C 
ENDROOT
BRANCH   1   2
ATOM      2  C   UNL     1      71.295  49.916  24.196  1.00  0.00    -0.031 C 
ATOM      3  C   UNL     1      72.278  50.478  24.924  1.00  0.00    -0.027 C 
BRANCH   3   4
ATOM      4  C   UNL     1      72.474  51.963  25.103  1.00  0.00     0.054 C 
BRANCH   4   5
ATOM      5  C   UNL     1      72.104  52.379  26.502  1.00  0.00    -0.027 C 
ATOM      6  C   UNL     1      71.095  53.219  26.804  1.00  0.00    -0.031 C 
BRANCH   6   7
ATOM      7  C   UNL     1      70.222  53.910  25.785  1.00  0.00     0.027 C 
BRANCH   7   8
ATOM      8  C   UNL     1      70.733  55.317  25.444  1.00  0.00     0.004 C 
BRANCH   8   9
ATOM      9  C   UNL     1      69.834  56.417  26.034  1.00  0.00     0.000 C 
BRANCH   9  10
ATOM     10  C   UNL     1      68.512  55.863  26.587  1.00  0.00    -0.003 C 
ATOM     11  C   UNL     1      67.320  56.781  26.310  1.00  0.00     0.004 C 
ENDBRANCH   9  10
ENDBRANCH   8   9
ENDBRANCH   7   8
ENDBRANCH   6   7
ENDBRANCH   4   5
ENDBRANCH   3   4
ENDBRANCH   1   2
BRANCH   1  12
ATOM     12  C   UNL     1      69.290  49.761  22.653  1.00  0.00     0.004 C 
BRANCH  12  13
ATOM     13  C   UNL     1      69.089  50.274  21.218  1.00  0.00     0.000 C 
BRANCH  13  14
ATOM     14  C   UNL     1      70.069  51.407  20.896  1.00  0.00     0.000 C 
BRANCH  14  15
ATOM     15  C   UNL     1      70.250  51.559  19.378  1.00  0.00     0.001 C 
BRANCH  15  16
ATOM     16  C   UNL     1      69.106  50.912  18.573  1.00  0.00     0.012 C 
BRANCH  16  17
ATOM     17  C   UNL     1      68.113  51.918  17.969  1.00  0.00     0.123 C 
BRANCH  17  18
ATOM     18  C   UNL     1      66.974  52.207  18.897  1.00  0.00     0.305 C 
ATOM     19  O   UNL     1      65.898  51.555  18.792  1.00  0.00    -0.252 OA
BRANCH  18  20
ATOM     20  O   UNL     1      67.128  53.180  19.889  1.00  0.00    -0.469 OA
ATOM     21  C   UNL     1      67.856  54.383  19.675  1.00  0.00     0.282 C 
ENDBRANCH  18  20
ENDBRANCH  17  18
ENDBRANCH  16  17
ENDBRANCH  15  16
ENDBRANCH  14  15
ENDBRANCH  13  14
ENDBRANCH  12  13
ENDBRANCH   1  12
TORSDOF 15
ENDMDL
MODEL 5
REMARK VINA RESULT:    -4.446      2.893      5.555
REMARK INTER + INTRA:         -10.364
REMARK INTER:                  -7.752
REMARK INTRA:                  -2.612
REMARK UNBOUND:                -2.019
REMARK SMILES CCCCCC=CCC=CCCCCCCCC(=O)OC
REMARK SMILES IDX 11 1 10 2 9 3 8 4 7 5 6 6 5 7 4 8 3 9 2 10 1 11 12 12 13 13
REMARK SMILES IDX 14 14 15 15 16 16 17 17 18 18 19 19 20 20 21 21
REMARK H PARENT
REMARK Flexibility Score: inf
ROOT
ATOM      1  C   UNL     1      67.307  52.753  18.812  1.00  0.00     0.027 C 
ENDROOT
BRANCH   1   2
ATOM      2  C   UNL     1      67.396  53.538  20.099  1.00  0.00    -0.031 C 
ATOM      3  C   UNL     1      68.279  54.524  20.342  1.00  0.00    -0.027 C 
BRANCH   3   4
ATOM      4  C   UNL     1      69.347  54.978  19.378  1.00  0.00     0.054 C 
BRANCH   4   5
ATOM      5  C   UNL     1      70.604  54.169  19.565  1.00  0.00    -0.027 C 
ATOM      6  C   UNL     1      71.191  53.442  18.596  1.00  0.00    -0.031 C 
BRANCH   6   7
ATOM      7  C   UNL     1      70.650  53.284  17.195  1.00  0.00     0.027 C 
BRANCH   7   8
ATOM      8  C   UNL     1      71.358  54.206  16.193  1.00  0.00     0.004 C 
BRANCH   8   9
ATOM      9  C   UNL     1      72.788  54.556  16.641  1.00  0.00     0.000 C 
BRANCH   9  10
ATOM     10  C   UNL     1      73.042  56.070  16.672  1.00  0.00    -0.003 C 
ATOM     11  C   UNL     1      73.166  56.624  18.092  1.00  0.00     0.004 C 
ENDBRANCH   9  10
ENDBRANCH   8   9
ENDBRANCH   7   8
ENDBRANCH   6   7
ENDBRANCH   4   5
ENDBRANCH   3   4
ENDBRANCH   1   2
BRANCH   1  12
ATOM     12  C   UNL     1      67.284  51.235  19.045  1.00  0.00     0.004 C 
BRANCH  12  13
ATOM     13  C   UNL     1      68.560  50.551  18.528  1.00  0.00     0.000 C 
BRANCH  13  14
ATOM     14  C   UNL     1      69.642  50.512  19.611  1.00  0.00     0.000 C 
BRANCH  14  15
ATOM     15  C   UNL     1      69.014  50.493  21.013  1.00  0.00     0.001 C 
BRANCH  15  16
ATOM     16  C   UNL     1      70.065  50.490  22.139  1.00  0.00     0.012 C 
BRANCH  16  17
ATOM     17  C   UNL     1      70.516  51.891  22.584  1.00  0.00     0.123 C 
BRANCH  17  18
ATOM     18  C   UNL     1      71.202  51.861  23.915  1.00  0.00     0.305 C 
ATOM     19  O   UNL     1      70.875  52.691  24.807  1.00  0.00    -0.252 OA
BRANCH  18  20
ATOM     20  O   UNL     1      72.181  50.894  24.161  1.00  0.00    -0.469 OA
ATOM     21  C   UNL     1      71.957  49.778  25.014  1.00  0.00     0.282 C 
ENDBRANCH  18  20
ENDBRANCH  17  18
ENDBRANCH  16  17
ENDBRANCH  15  16
ENDBRANCH  14  15
ENDBRANCH  13  14
ENDBRANCH  12  13
ENDBRANCH   1  12
TORSDOF 15
ENDMDL
MODEL 6
REMARK VINA RESULT:    -4.397      1.457      2.535
REMARK INTER + INTRA:         -10.271
REMARK INTER:                  -8.300
REMARK INTRA:                  -1.971
REMARK UNBOUND:                -2.019
REMARK SMILES CCCCCC=CCC=CCCCCCCCC(=O)OC
REMARK SMILES IDX 11 1 10 2 9 3 8 4 7 5 6 6 5 7 4 8 3 9 2 10 1 11 12 12 13 13
REMARK SMILES IDX 14 14 15 15 16 16 17 17 18 18 19 19 20 20 21 21
REMARK H PARENT
REMARK Flexibility Score: inf
ROOT
ATOM      1  C   UNL     1      71.314  51.940  22.835  1.00  0.00     0.027 C 
ENDROOT
BRANCH   1   2
ATOM      2  C   UNL     1      70.305  50.861  23.148  1.00  0.00    -0.031 C 
ATOM      3  C   UNL     1      69.578  50.195  22.232  1.00  0.00    -0.027 C 
BRANCH   3   4
ATOM      4  C   UNL     1      69.629  50.447  20.745  1.00  0.00     0.054 C 
BRANCH   4   5
ATOM      5  C   UNL     1      68.257  50.777  20.220  1.00  0.00    -0.027 C 
ATOM      6  C   UNL     1      67.987  51.080  18.935  1.00  0.00    -0.031 C 
BRANCH   6   7
ATOM      7  C   UNL     1      69.025  51.188  17.844  1.00  0.00     0.027 C 
BRANCH   7   8
ATOM      8  C   UNL     1      69.484  52.636  17.624  1.00  0.00     0.004 C 
BRANCH   8   9
ATOM      9  C   UNL     1      70.987  52.814  17.901  1.00  0.00     0.000 C 
BRANCH   9  10
ATOM     10  C   UNL     1      71.267  53.322  19.323  1.00  0.00    -0.003 C 
ATOM     11  C   UNL     1      70.092  54.096  19.921  1.00  0.00     0.004 C 
ENDBRANCH   9  10
ENDBRANCH   8   9
ENDBRANCH   7   8
ENDBRANCH   6   7
ENDBRANCH   4   5
ENDBRANCH   3   4
ENDBRANCH   1   2
BRANCH   1  12
ATOM     12  C   UNL     1      72.455  51.998  23.863  1.00  0.00     0.004 C 
BRANCH  12  13
ATOM     13  C   UNL     1      72.258  50.987  25.003  1.00  0.00     0.000 C 
BRANCH  13  14
ATOM     14  C   UNL     1      72.018  51.701  26.337  1.00  0.00     0.000 C 
BRANCH  14  15
ATOM     15  C   UNL     1      72.356  53.195  26.227  1.00  0.00     0.001 C 
BRANCH  15  16
ATOM     16  C   UNL     1      71.334  54.094  26.948  1.00  0.00     0.012 C 
BRANCH  16  17
ATOM     17  C   UNL     1      70.148  54.529  26.072  1.00  0.00     0.123 C 
BRANCH  17  18
ATOM     18  C   UNL     1      69.019  55.076  26.890  1.00  0.00     0.305 C 
ATOM     19  O   UNL     1      68.618  54.443  27.907  1.00  0.00    -0.252 OA
BRANCH  18  20
ATOM     20  O   UNL     1      68.439  56.296  26.531  1.00  0.00    -0.469 OA
ATOM     21  C   UNL     1      67.210  56.379  25.819  1.00  0.00     0.282 C 
ENDBRANCH  18  20
ENDBRANCH  17  18
ENDBRANCH  16  17
ENDBRANCH  15  16
ENDBRANCH  14  15
ENDBRANCH  13  14
ENDBRANCH  12  13
ENDBRANCH   1  12
TORSDOF 15
ENDMDL
MODEL 7
REMARK VINA RESULT:    -4.344      2.897      7.069
REMARK INTER + INTRA:         -10.171
REMARK INTER:                  -8.329
REMARK INTRA:                  -1.842
REMARK UNBOUND:                -2.019
REMARK SMILES CCCCCC=CCC=CCCCCCCCC(=O)OC
REMARK SMILES IDX 11 1 10 2 9 3 8 4 7 5 6 6 5 7 4 8 3 9 2 10 1 11 12 12 13 13
REMARK SMILES IDX 14 14 15 15 16 16 17 17 18 18 19 19 20 20 21 21
REMARK H PARENT
REMARK Flexibility Score: inf
ROOT
ATOM      1  C   UNL     1      70.881  51.632  23.510  1.00  0.00     0.027 C 
ENDROOT
BRANCH   1   2
ATOM      2  C   UNL     1      72.290  51.800  24.026  1.00  0.00    -0.031 C 
ATOM      3  C   UNL     1      72.616  52.087  25.300  1.00  0.00    -0.027 C 
BRANCH   3   4
ATOM      4  C   UNL     1      71.621  52.324  26.409  1.00  0.00     0.054 C 
BRANCH   4   5
ATOM      5  C   UNL     1      71.870  53.657  27.065  1.00  0.00    -0.027 C 
ATOM      6  C   UNL     1      70.901  54.507  27.454  1.00  0.00    -0.031 C 
BRANCH   6   7
ATOM      7  C   UNL     1      69.424  54.277  27.240  1.00  0.00     0.027 C 
BRANCH   7   8
ATOM      8  C   UNL     1      68.709  55.539  26.736  1.00  0.00     0.004 C 
BRANCH   8   9
ATOM      9  C   UNL     1      69.519  56.265  25.648  1.00  0.00     0.000 C 
BRANCH   9  10
ATOM     10  C   UNL     1      69.607  55.460  24.343  1.00  0.00    -0.003 C 
ATOM     11  C   UNL     1      71.015  55.448  23.745  1.00  0.00     0.004 C 
ENDBRANCH   9  10
ENDBRANCH   8   9
ENDBRANCH   7   8
ENDBRANCH   6   7
ENDBRANCH   4   5
ENDBRANCH   3   4
ENDBRANCH   1   2
BRANCH   1  12
ATOM     12  C   UNL     1      70.447  50.159  23.448  1.00  0.00     0.004 C 
BRANCH  12  13
ATOM     13  C   UNL     1      69.315  49.932  22.434  1.00  0.00     0.000 C 
BRANCH  13  14
ATOM     14  C   UNL     1      69.678  50.511  21.063  1.00  0.00     0.000 C 
BRANCH  14  15
ATOM     15  C   UNL     1      68.449  50.549  20.142  1.00  0.00     0.001 C 
BRANCH  15  16
ATOM     16  C   UNL     1      68.819  50.737  18.659  1.00  0.00     0.012 C 
BRANCH  16  17
ATOM     17  C   UNL     1      70.094  51.564  18.427  1.00  0.00     0.123 C 
BRANCH  17  18
ATOM     18  C   UNL     1      69.783  52.961  17.987  1.00  0.00     0.305 C 
ATOM     19  O   UNL     1      70.235  53.388  16.888  1.00  0.00    -0.252 OA
BRANCH  18  20
ATOM     20  O   UNL     1      68.972  53.768  18.789  1.00  0.00    -0.469 OA
ATOM     21  C   UNL     1      69.406  54.284  20.042  1.00  0.00     0.282 C 
ENDBRANCH  18  20
ENDBRANCH  17  18
ENDBRANCH  16  17
ENDBRANCH  15  16
ENDBRANCH  14  15
ENDBRANCH  13  14
ENDBRANCH  12  13
ENDBRANCH   1  12
TORSDOF 15
ENDMDL
MODEL 8
REMARK VINA RESULT:    -4.322      3.030      7.531
REMARK INTER + INTRA:         -10.130
REMARK INTER:                  -8.557
REMARK INTRA:                  -1.573
REMARK UNBOUND:                -2.019
REMARK SMILES CCCCCC=CCC=CCCCCCCCC(=O)OC
REMARK SMILES IDX 11 1 10 2 9 3 8 4 7 5 6 6 5 7 4 8 3 9 2 10 1 11 12 12 13 13
REMARK SMILES IDX 14 14 15 15 16 16 17 17 18 18 19 19 20 20 21 21
REMARK H PARENT
REMARK Flexibility Score: inf
ROOT
ATOM      1  C   UNL     1      69.790  50.521  20.911  1.00  0.00     0.027 C 
ENDROOT
BRANCH   1   2
ATOM      2  C   UNL     1      69.696  49.891  22.280  1.00  0.00    -0.031 C 
ATOM      3  C   UNL     1      70.055  50.490  23.431  1.00  0.00    -0.027 C 
BRANCH   3   4
ATOM      4  C   UNL     1      70.644  51.875  23.532  1.00  0.00     0.054 C 
BRANCH   4   5
ATOM      5  C   UNL     1      72.104  51.801  23.899  1.00  0.00    -0.027 C 
ATOM      6  C   UNL     1      72.589  52.015  25.137  1.00  0.00    -0.031 C 
BRANCH   6   7
ATOM      7  C   UNL     1      71.751  52.415  26.328  1.00  0.00     0.027 C 
BRANCH   7   8
ATOM      8  C   UNL     1      72.178  53.773  26.905  1.00  0.00     0.004 C 
BRANCH   8   9
ATOM      9  C   UNL     1      70.988  54.548  27.496  1.00  0.00     0.000 C 
BRANCH   9  10
ATOM     10  C   UNL     1      69.662  54.215  26.796  1.00  0.00    -0.003 C 
ATOM     11  C   UNL     1      68.892  55.460  26.356  1.00  0.00     0.004 C 
ENDBRANCH   9  10
ENDBRANCH   8   9
ENDBRANCH   7   8
ENDBRANCH   6   7
ENDBRANCH   4   5
ENDBRANCH   3   4
ENDBRANCH   1   2
BRANCH   1  12
ATOM     12  C   UNL     1      68.478  51.193  20.478  1.00  0.00     0.004 C 
BRANCH  12  13
ATOM     13  C   UNL     1      67.855  50.510  19.251  1.00  0.00     0.000 C 
BRANCH  13  14
ATOM     14  C   UNL     1      67.642  51.511  18.111  1.00  0.00     0.000 C 
BRANCH  14  15
ATOM     15  C   UNL     1      68.556  52.734  18.279  1.00  0.00     0.001 C 
BRANCH  15  16
ATOM     16  C   UNL     1      69.708  52.763  17.256  1.00  0.00     0.012 C 
BRANCH  16  17
ATOM     17  C   UNL     1      71.094  52.483  17.860  1.00  0.00     0.123 C 
BRANCH  17  18
ATOM     18  C   UNL     1      71.937  53.720  17.922  1.00  0.00     0.305 C 
ATOM     19  O   UNL     1      72.504  54.146  16.878  1.00  0.00    -0.252 OA
BRANCH  18  20
ATOM     20  O   UNL     1      72.064  54.404  19.135  1.00  0.00    -0.469 OA
ATOM     21  C   UNL     1      71.713  53.818  20.384  1.00  0.00     0.282 C 
ENDBRANCH  18  20
ENDBRANCH  17  18
ENDBRANCH  16  17
ENDBRANCH  15  16
ENDBRANCH  14  15
ENDBRANCH  13  14
ENDBRANCH  12  13
ENDBRANCH   1  12
TORSDOF 15
ENDMDL
MODEL 9
REMARK VINA RESULT:    -4.302      1.479      3.084
REMARK INTER + INTRA:         -10.092
REMARK INTER:                  -7.916
REMARK INTRA:                  -2.177
REMARK UNBOUND:                -2.019
REMARK SMILES CCCCCC=CCC=CCCCCCCCC(=O)OC
REMARK SMILES IDX 11 1 10 2 9 3 8 4 7 5 6 6 5 7 4 8 3 9 2 10 1 11 12 12 13 13
REMARK SMILES IDX 14 14 15 15 16 16 17 17 18 18 19 19 20 20 21 21
REMARK H PARENT
REMARK Flexibility Score: inf
ROOT
ATOM      1  C   UNL     1      69.667  50.439  21.254  1.00  0.00     0.027 C 
ENDROOT
BRANCH   1   2
ATOM      2  C   UNL     1      68.274  50.537  20.679  1.00  0.00    -0.031 C 
ATOM      3  C   UNL     1      67.987  50.677  19.372  1.00  0.00    -0.027 C 
BRANCH   3   4
ATOM      4  C   UNL     1      69.015  50.795  18.274  1.00  0.00     0.054 C 
BRANCH   4   5
ATOM      5  C   UNL     1      68.890  52.124  17.575  1.00  0.00    -0.027 C 
ATOM      6  C   UNL     1      69.883  53.027  17.474  1.00  0.00    -0.031 C 
BRANCH   6   7
ATOM      7  C   UNL     1      71.252  52.868  18.092  1.00  0.00     0.027 C 
BRANCH   7   8
ATOM      8  C   UNL     1      71.266  53.262  19.576  1.00  0.00     0.004 C 
BRANCH   8   9
ATOM      9  C   UNL     1      71.239  54.788  19.769  1.00  0.00     0.000 C 
BRANCH   9  10
ATOM     10  C   UNL     1      69.891  55.289  20.311  1.00  0.00    -0.003 C 
ATOM     11  C   UNL     1      69.018  54.164  20.867  1.00  0.00     0.004 C 
ENDBRANCH   9  10
ENDBRANCH   8   9
ENDBRANCH   7   8
ENDBRANCH   6   7
ENDBRANCH   4   5
ENDBRANCH   3   4
ENDBRANCH   1   2
BRANCH   1  12
ATOM     12  C   UNL     1      69.670  49.977  22.720  1.00  0.00     0.004 C 
BRANCH  12  13
ATOM     13  C   UNL     1      70.801  50.630  23.529  1.00  0.00     0.000 C 
BRANCH  13  14
ATOM     14  C   UNL     1      70.808  52.150  23.340  1.00  0.00     0.000 C 
BRANCH  14  15
ATOM     15  C   UNL     1      71.767  52.821  24.335  1.00  0.00     0.001 C 
BRANCH  15  16
ATOM     16  C   UNL     1      71.763  52.142  25.718  1.00  0.00     0.012 C 
BRANCH  16  17
ATOM     17  C   UNL     1      72.028  53.100  26.891  1.00  0.00     0.123 C 
BRANCH  17  18
ATOM     18  C   UNL     1      71.012  54.198  26.957  1.00  0.00     0.305 C 
ATOM     19  O   UNL     1      71.382  55.401  26.857  1.00  0.00    -0.252 OA
BRANCH  18  20
ATOM     20  O   UNL     1      69.660  53.874  27.104  1.00  0.00    -0.469 OA
ATOM     21  C   UNL     1      68.642  54.864  27.195  1.00  0.00     0.282 C 
ENDBRANCH  18  20
ENDBRANCH  17  18
ENDBRANCH  16  17
ENDBRANCH  15  16
ENDBRANCH  14  15
ENDBRANCH  13  14
ENDBRANCH  12  13
ENDBRANCH   1  12
TORSDOF 15
ENDMDL
