MODEL 1
REMARK VINA RESULT:    -3.913      0.000      0.000
REMARK INTER + INTRA:          -3.913
REMARK INTER:                  -3.913
REMARK INTRA:                   0.000
REMARK UNBOUND:                 0.000
REMARK SMILES O=C1CCCCC1
REMARK SMILES IDX 5 1 4 2 3 3 2 4 1 5 7 6 6 7
REMARK H PARENT
REMARK Flexibility Score: inf
ROOT
ATOM      1  C   UNL     1      13.967  43.287 -13.043  1.00  0.00     0.001 C 
ATOM      2  C   UNL     1      15.237  42.586 -12.539  1.00  0.00     0.008 C 
ATOM      3  C   UNL     1      15.974  41.873 -13.680  1.00  0.00     0.075 C 
ATOM      4  C   UNL     1      16.176  42.811 -14.839  1.00  0.00     0.132 C 
ATOM      5  O   UNL     1      17.246  42.844 -15.427  1.00  0.00    -0.300 OA
ATOM      6  C   UNL     1      15.016  43.636 -15.325  1.00  0.00     0.075 C 
ATOM      7  C   UNL     1      14.303  44.304 -14.144  1.00  0.00     0.008 C 
ENDROOT
TORSDOF 0
ENDMDL
MODEL 2
REMARK VINA RESULT:    -3.904      1.627      2.888
REMARK INTER + INTRA:          -3.904
REMARK INTER:                  -3.904
REMARK INTRA:                   0.000
REMARK UNBOUND:                 0.000
REMARK SMILES O=C1CCCCC1
REMARK SMILES IDX 5 1 4 2 3 3 2 4 1 5 7 6 6 7
REMARK H PARENT
REMARK Flexibility Score: inf
ROOT
ATOM      1  C   UNL     1      16.034  41.725 -13.871  1.00  0.00     0.001 C 
ATOM      2  C   UNL     1      16.352  42.778 -14.943  1.00  0.00     0.008 C 
ATOM      3  C   UNL     1      15.105  43.590 -15.317  1.00  0.00     0.075 C 
ATOM      4  C   UNL     1      14.433  44.117 -14.079  1.00  0.00     0.132 C 
ATOM      5  O   UNL     1      14.019  45.266 -14.043  1.00  0.00    -0.300 OA
ATOM      6  C   UNL     1      14.192  43.186 -12.923  1.00  0.00     0.075 C 
ATOM      7  C   UNL     1      15.460  42.385 -12.608  1.00  0.00     0.008 C 
ENDROOT
TORSDOF 0
ENDMDL
MODEL 3
REMARK VINA RESULT:    -3.694      1.175      2.273
REMARK INTER + INTRA:          -3.694
REMARK INTER:                  -3.694
REMARK INTRA:                   0.000
REMARK UNBOUND:                 0.000
REMARK SMILES O=C1CCCCC1
REMARK SMILES IDX 5 1 4 2 3 3 2 4 1 5 7 6 6 7
REMARK H PARENT
REMARK Flexibility Score: inf
ROOT
ATOM      1  C   UNL     1      14.549  44.341 -14.575  1.00  0.00     0.001 C 
ATOM      2  C   UNL     1      15.309  43.449 -15.568  1.00  0.00     0.008 C 
ATOM      3  C   UNL     1      16.465  42.708 -14.882  1.00  0.00     0.075 C 
ATOM      4  C   UNL     1      15.978  42.015 -13.638  1.00  0.00     0.132 C 
ATOM      5  O   UNL     1      16.339  40.876 -13.385  1.00  0.00    -0.300 OA
ATOM      6  C   UNL     1      15.118  42.774 -12.665  1.00  0.00     0.075 C 
ATOM      7  C   UNL     1      13.997  43.513 -13.405  1.00  0.00     0.008 C 
ENDROOT
TORSDOF 0
ENDMDL
MODEL 4
REMARK VINA RESULT:    -3.534      1.498      2.665
REMARK INTER + INTRA:          -3.534
REMARK INTER:                  -3.534
REMARK INTRA:                   0.000
REMARK UNBOUND:                 0.000
REMARK SMILES O=C1CCCCC1
REMARK SMILES IDX 5 1 4 2 3 3 2 4 1 5 7 6 6 7
REMARK H PARENT
REMARK Flexibility Score: inf
ROOT
ATOM      1  C   UNL     1      15.102  43.759 -15.600  1.00  0.00     0.001 C 
ATOM      2  C   UNL     1      14.484  44.293 -14.299  1.00  0.00     0.008 C 
ATOM      3  C   UNL     1      14.333  43.180 -13.253  1.00  0.00     0.075 C 
ATOM      4  C   UNL     1      15.629  42.435 -13.090  1.00  0.00     0.132 C 
ATOM      5  O   UNL     1      16.033  42.136 -11.977  1.00  0.00    -0.300 OA
ATOM      6  C   UNL     1      16.373  41.980 -14.316  1.00  0.00     0.075 C 
ATOM      7  C   UNL     1      16.474  43.122 -15.334  1.00  0.00     0.008 C 
ENDROOT
TORSDOF 0
ENDMDL
MODEL 5
REMARK VINA RESULT:    -3.369     16.435     16.879
REMARK INTER + INTRA:          -3.369
REMARK INTER:                  -3.369
REMARK INTRA:                   0.000
REMARK UNBOUND:                 0.000
REMARK SMILES O=C1CCCCC1
REMARK SMILES IDX 5 1 4 2 3 3 2 4 1 5 7 6 6 7
REMARK H PARENT
REMARK Flexibility Score: inf
ROOT
ATOM      1  C   UNL     1      25.757  56.926  -9.284  1.00  0.00     0.001 C 
ATOM      2  C   UNL     1      24.365  57.563  -9.157  1.00  0.00     0.008 C 
ATOM      3  C   UNL     1      23.254  56.521  -9.348  1.00  0.00     0.075 C 
ATOM      4  C   UNL     1      23.497  55.328  -8.464  1.00  0.00     0.132 C 
ATOM      5  O   UNL     1      22.575  54.821  -7.845  1.00  0.00    -0.300 OA
ATOM      6  C   UNL     1      24.868  54.712  -8.425  1.00  0.00     0.075 C 
ATOM      7  C   UNL     1      25.938  55.797  -8.258  1.00  0.00     0.008 C 
ENDROOT
TORSDOF 0
ENDMDL
MODEL 6
REMARK VINA RESULT:    -3.244     13.950     14.647
REMARK INTER + INTRA:          -3.244
REMARK INTER:                  -3.244
REMARK INTRA:                   0.000
REMARK UNBOUND:                 0.000
REMARK SMILES O=C1CCCCC1
REMARK SMILES IDX 5 1 4 2 3 3 2 4 1 5 7 6 6 7
REMARK H PARENT
REMARK Flexibility Score: inf
ROOT
ATOM      1  C   UNL     1      19.645  44.236   0.863  1.00  0.00     0.001 C 
ATOM      2  C   UNL     1      19.395  42.721   0.841  1.00  0.00     0.008 C 
ATOM      3  C   UNL     1      17.894  42.402   0.816  1.00  0.00     0.075 C 
ATOM      4  C   UNL     1      17.211  43.182  -0.274  1.00  0.00     0.132 C 
ATOM      5  O   UNL     1      16.381  42.643  -0.990  1.00  0.00    -0.300 OA
ATOM      6  C   UNL     1      17.493  44.653  -0.411  1.00  0.00     0.075 C 
ATOM      7  C   UNL     1      19.002  44.915  -0.355  1.00  0.00     0.008 C 
ENDROOT
TORSDOF 0
ENDMDL
MODEL 7
REMARK VINA RESULT:    -3.216     13.960     14.757
REMARK INTER + INTRA:          -3.216
REMARK INTER:                  -3.216
REMARK INTRA:                   0.000
REMARK UNBOUND:                 0.000
REMARK SMILES O=C1CCCCC1
REMARK SMILES IDX 5 1 4 2 3 3 2 4 1 5 7 6 6 7
REMARK H PARENT
REMARK Flexibility Score: inf
ROOT
ATOM      1  C   UNL     1      19.291  42.731   0.881  1.00  0.00     0.001 C 
ATOM      2  C   UNL     1      19.571  44.241   0.867  1.00  0.00     0.008 C 
ATOM      3  C   UNL     1      18.930  44.918  -0.352  1.00  0.00     0.075 C 
ATOM      4  C   UNL     1      17.479  44.533  -0.462  1.00  0.00     0.132 C 
ATOM      5  O   UNL     1      16.636  45.375  -0.728  1.00  0.00    -0.300 OA
ATOM      6  C   UNL     1      17.093  43.085  -0.334  1.00  0.00     0.075 C 
ATOM      7  C   UNL     1      17.780  42.454   0.883  1.00  0.00     0.008 C 
ENDROOT
TORSDOF 0
ENDMDL
MODEL 8
REMARK VINA RESULT:    -3.169     14.239     14.789
REMARK INTER + INTRA:          -3.169
REMARK INTER:                  -3.169
REMARK INTRA:                   0.000
REMARK UNBOUND:                 0.000
REMARK SMILES O=C1CCCCC1
REMARK SMILES IDX 5 1 4 2 3 3 2 4 1 5 7 6 6 7
REMARK H PARENT
REMARK Flexibility Score: inf
ROOT
ATOM      1  C   UNL     1      17.056  44.326  -0.168  1.00  0.00     0.001 C 
ATOM      2  C   UNL     1      18.345  45.028  -0.624  1.00  0.00     0.008 C 
ATOM      3  C   UNL     1      19.533  44.651   0.271  1.00  0.00     0.075 C 
ATOM      4  C   UNL     1      19.631  43.156   0.409  1.00  0.00     0.132 C 
ATOM      5  O   UNL     1      20.716  42.599   0.338  1.00  0.00    -0.300 OA
ATOM      6  C   UNL     1      18.391  42.367   0.731  1.00  0.00     0.075 C 
ATOM      7  C   UNL     1      17.232  42.800  -0.174  1.00  0.00     0.008 C 
ENDROOT
TORSDOF 0
ENDMDL
MODEL 9
REMARK VINA RESULT:    -3.150     14.056     15.044
REMARK INTER + INTRA:          -3.150
REMARK INTER:                  -3.150
REMARK INTRA:                   0.000
REMARK UNBOUND:                 0.000
REMARK SMILES O=C1CCCCC1
REMARK SMILES IDX 5 1 4 2 3 3 2 4 1 5 7 6 6 7
REMARK H PARENT
REMARK Flexibility Score: inf
ROOT
ATOM      1  C   UNL     1      19.451  44.101   1.512  1.00  0.00     0.001 C 
ATOM      2  C   UNL     1      17.936  43.855   1.456  1.00  0.00     0.008 C 
ATOM      3  C   UNL     1      17.490  43.418   0.055  1.00  0.00     0.075 C 
ATOM      4  C   UNL     1      18.343  42.279  -0.434  1.00  0.00     0.132 C 
ATOM      5  O   UNL     1      17.832  41.323  -0.997  1.00  0.00    -0.300 OA
ATOM      6  C   UNL     1      19.839  42.375  -0.305  1.00  0.00     0.075 C 
ATOM      7  C   UNL     1      20.225  42.838   1.104  1.00  0.00     0.008 C 
ENDROOT
TORSDOF 0
ENDMDL
