MODEL 1
REMARK VINA RESULT:    -5.928      0.000      0.000
REMARK INTER + INTRA:         -18.596
REMARK INTER:                 -15.632
REMARK INTRA:                  -2.964
REMARK UNBOUND:                -2.964
REMARK SMILES CCCCCCCCCCCCCCCCCCCCCCCCCCCCCC(=O)[O-]
REMARK SMILES IDX 16 1 17 2 18 3 19 4 20 5 21 6 22 7 23 8 24 9 25 10 26 11
REMARK SMILES IDX 27 12 28 13 29 14 30 15 31 16 32 17 15 18 14 19 13 20 12 21
REMARK SMILES IDX 11 22 10 23 9 24 8 25 7 26 6 27 5 28 4 29 3 30 2 31 1 32
REMARK H PARENT
REMARK Flexibility Score: inf
ROOT
ATOM      1  C   UNL     1      -7.131 -14.865  26.813  1.00  0.00     0.000 C 
ENDROOT
BRANCH   1   2
ATOM      2  C   UNL     1      -6.876 -14.379  28.249  1.00  0.00     0.000 C 
BRANCH   2   3
ATOM      3  C   UNL     1      -5.484 -13.747  28.429  1.00  0.00     0.000 C 
BRANCH   3   4
ATOM      4  C   UNL     1      -5.203 -13.342  29.886  1.00  0.00     0.000 C 
BRANCH   4   5
ATOM      5  C   UNL     1      -5.164 -11.815  30.079  1.00  0.00     0.000 C 
BRANCH   5   6
ATOM      6  C   UNL     1      -5.588 -11.389  31.492  1.00  0.00     0.000 C 
BRANCH   6   7
ATOM      7  C   UNL     1      -4.619 -11.878  32.579  1.00  0.00     0.000 C 
BRANCH   7   8
ATOM      8  C   UNL     1      -3.682 -10.743  33.020  1.00  0.00     0.000 C 
BRANCH   8   9
ATOM      9  C   UNL     1      -2.208 -11.007  32.670  1.00  0.00     0.000 C 
BRANCH   9  10
ATOM     10  C   UNL     1      -1.970 -12.125  31.635  1.00  0.00     0.000 C 
BRANCH  10  11
ATOM     11  C   UNL     1      -0.620 -12.855  31.763  1.00  0.00     0.000 C 
BRANCH  11  12
ATOM     12  C   UNL     1      -0.002 -12.728  33.166  1.00  0.00     0.000 C 
BRANCH  12  13
ATOM     13  C   UNL     1       0.988 -13.860  33.482  1.00  0.00     0.006 C 
BRANCH  13  14
ATOM     14  C   UNL     1       1.088 -14.156  34.985  1.00  0.00     0.053 C 
BRANCH  14  15
ATOM     15  C   UNL     1       1.158 -15.632  35.231  1.00  0.00     0.041 C 
ATOM     16  O   UNL     1       1.068 -16.085  36.403  1.00  0.00    -0.550 OA
ATOM     17  O   UNL     1       1.321 -16.508  34.164  1.00  0.00    -0.550 OA
ENDBRANCH  14  15
ENDBRANCH  13  14
ENDBRANCH  12  13
ENDBRANCH  11  12
ENDBRANCH  10  11
ENDBRANCH   9  10
ENDBRANCH   8   9
ENDBRANCH   7   8
ENDBRANCH   6   7
ENDBRANCH   5   6
ENDBRANCH   4   5
ENDBRANCH   3   4
ENDBRANCH   2   3
ENDBRANCH   1   2
BRANCH   1  18
ATOM     18  C   UNL     1      -7.992 -13.884  26.003  1.00  0.00     0.000 C 
BRANCH  18  19
ATOM     19  C   UNL     1      -9.444 -14.365  25.821  1.00  0.00     0.000 C 
BRANCH  19  20
ATOM     20  C   UNL     1      -9.930 -15.397  26.857  1.00  0.00     0.000 C 
BRANCH  20  21
ATOM     21  C   UNL     1     -11.401 -15.800  26.655  1.00  0.00     0.000 C 
BRANCH  21  22
ATOM     22  C   UNL     1     -11.881 -16.824  27.698  1.00  0.00     0.000 C 
BRANCH  22  23
ATOM     23  C   UNL     1     -13.202 -16.409  28.371  1.00  0.00     0.000 C 
BRANCH  23  24
ATOM     24  C   UNL     1     -13.432 -17.105  29.725  1.00  0.00    -0.000 C 
BRANCH  24  25
ATOM     25  C   UNL     1     -12.508 -18.305  30.013  1.00  0.00    -0.000 C 
BRANCH  25  26
ATOM     26  C   UNL     1     -12.389 -18.625  31.512  1.00  0.00    -0.000 C 
BRANCH  26  27
ATOM     27  C   UNL     1     -11.101 -18.063  32.136  1.00  0.00    -0.000 C 
BRANCH  27  28
ATOM     28  C   UNL     1     -11.270 -16.623  32.651  1.00  0.00    -0.000 C 
BRANCH  28  29
ATOM     29  C   UNL     1     -10.673 -15.576  31.693  1.00  0.00    -0.000 C 
BRANCH  29  30
ATOM     30  C   UNL     1      -9.410 -16.025  30.929  1.00  0.00    -0.000 C 
BRANCH  30  31
ATOM     31  C   UNL     1      -8.080 -15.518  31.514  1.00  0.00    -0.003 C 
ATOM     32  C   UNL     1      -8.128 -14.043  31.914  1.00  0.00     0.004 C 
ENDBRANCH  30  31
ENDBRANCH  29  30
ENDBRANCH  28  29
ENDBRANCH  27  28
ENDBRANCH  26  27
ENDBRANCH  25  26
ENDBRANCH  24  25
ENDBRANCH  23  24
ENDBRANCH  22  23
ENDBRANCH  21  22
ENDBRANCH  20  21
ENDBRANCH  19  20
ENDBRANCH  18  19
ENDBRANCH   1  18
TORSDOF 28
ENDMDL
MODEL 2
REMARK VINA RESULT:    -5.861      3.282      9.510
REMARK INTER + INTRA:         -18.419
REMARK INTER:                 -13.907
REMARK INTRA:                  -4.512
REMARK UNBOUND:                -2.964
REMARK SMILES CCCCCCCCCCCCCCCCCCCCCCCCCCCCCC(=O)[O-]
REMARK SMILES IDX 16 1 17 2 18 3 19 4 20 5 21 6 22 7 23 8 24 9 25 10 26 11
REMARK SMILES IDX 27 12 28 13 29 14 30 15 31 16 32 17 15 18 14 19 13 20 12 21
REMARK SMILES IDX 11 22 10 23 9 24 8 25 7 26 6 27 5 28 4 29 3 30 2 31 1 32
REMARK H PARENT
REMARK Flexibility Score: inf
ROOT
ATOM      1  C   UNL     1      -7.318 -15.073  26.227  1.00  0.00     0.000 C 
ENDROOT
BRANCH   1   2
ATOM      2  C   UNL     1      -8.582 -14.222  26.429  1.00  0.00     0.000 C 
BRANCH   2   3
ATOM      3  C   UNL     1      -9.878 -14.989  26.110  1.00  0.00     0.000 C 
BRANCH   3   4
ATOM      4  C   UNL     1     -10.463 -15.699  27.343  1.00  0.00     0.000 C 
BRANCH   4   5
ATOM      5  C   UNL     1     -11.745 -16.487  27.020  1.00  0.00     0.000 C 
BRANCH   5   6
ATOM      6  C   UNL     1     -12.938 -16.053  27.885  1.00  0.00     0.000 C 
BRANCH   6   7
ATOM      7  C   UNL     1     -12.638 -16.116  29.390  1.00  0.00     0.000 C 
BRANCH   7   8
ATOM      8  C   UNL     1     -13.397 -17.280  30.045  1.00  0.00     0.000 C 
BRANCH   8   9
ATOM      9  C   UNL     1     -12.470 -18.283  30.754  1.00  0.00     0.000 C 
BRANCH   9  10
ATOM     10  C   UNL     1     -11.170 -18.622  29.997  1.00  0.00     0.000 C 
BRANCH  10  11
ATOM     11  C   UNL     1      -9.919 -18.768  30.883  1.00  0.00     0.000 C 
BRANCH  11  12
ATOM     12  C   UNL     1      -9.642 -17.517  31.736  1.00  0.00     0.000 C 
BRANCH  12  13
ATOM     13  C   UNL     1      -9.211 -16.308  30.893  1.00  0.00     0.006 C 
BRANCH  13  14
ATOM     14  C   UNL     1      -9.207 -14.998  31.694  1.00  0.00     0.053 C 
BRANCH  14  15
ATOM     15  C   UNL     1      -7.808 -14.595  32.044  1.00  0.00     0.041 C 
ATOM     16  O   UNL     1      -7.532 -13.385  32.262  1.00  0.00    -0.550 OA
ATOM     17  O   UNL     1      -6.808 -15.557  32.132  1.00  0.00    -0.550 OA
ENDBRANCH  14  15
ENDBRANCH  13  14
ENDBRANCH  12  13
ENDBRANCH  11  12
ENDBRANCH  10  11
ENDBRANCH   9  10
ENDBRANCH   8   9
ENDBRANCH   7   8
ENDBRANCH   6   7
ENDBRANCH   5   6
ENDBRANCH   4   5
ENDBRANCH   3   4
ENDBRANCH   2   3
ENDBRANCH   1   2
BRANCH   1  18
ATOM     18  C   UNL     1      -6.128 -14.567  27.059  1.00  0.00     0.000 C 
BRANCH  18  19
ATOM     19  C   UNL     1      -6.430 -14.510  28.568  1.00  0.00     0.000 C 
BRANCH  19  20
ATOM     20  C   UNL     1      -5.308 -13.916  29.441  1.00  0.00     0.000 C 
BRANCH  20  21
ATOM     21  C   UNL     1      -4.931 -12.481  29.037  1.00  0.00     0.000 C 
BRANCH  21  22
ATOM     22  C   UNL     1      -3.814 -11.894  29.917  1.00  0.00     0.000 C 
BRANCH  22  23
ATOM     23  C   UNL     1      -2.653 -11.311  29.091  1.00  0.00     0.000 C 
BRANCH  23  24
ATOM     24  C   UNL     1      -1.324 -12.055  29.315  1.00  0.00    -0.000 C 
BRANCH  24  25
ATOM     25  C   UNL     1      -1.441 -13.406  30.047  1.00  0.00    -0.000 C 
BRANCH  25  26
ATOM     26  C   UNL     1      -1.008 -14.600  29.178  1.00  0.00    -0.000 C 
BRANCH  26  27
ATOM     27  C   UNL     1      -2.125 -15.643  29.010  1.00  0.00    -0.000 C 
BRANCH  27  28
ATOM     28  C   UNL     1      -2.515 -15.865  27.538  1.00  0.00    -0.000 C 
BRANCH  28  29
ATOM     29  C   UNL     1      -2.582 -14.551  26.737  1.00  0.00    -0.000 C 
BRANCH  29  30
ATOM     30  C   UNL     1      -1.869 -14.577  25.369  1.00  0.00    -0.000 C 
BRANCH  30  31
ATOM     31  C   UNL     1      -0.372 -14.223  25.407  1.00  0.00    -0.003 C 
ATOM     32  C   UNL     1      -0.104 -12.827  25.970  1.00  0.00     0.004 C 
ENDBRANCH  30  31
ENDBRANCH  29  30
ENDBRANCH  28  29
ENDBRANCH  27  28
ENDBRANCH  26  27
ENDBRANCH  25  26
ENDBRANCH  24  25
ENDBRANCH  23  24
ENDBRANCH  22  23
ENDBRANCH  21  22
ENDBRANCH  20  21
ENDBRANCH  19  20
ENDBRANCH  18  19
ENDBRANCH   1  18
TORSDOF 28
ENDMDL
MODEL 3
REMARK VINA RESULT:    -5.828      2.982      3.863
REMARK INTER + INTRA:         -18.332
REMARK INTER:                 -14.364
REMARK INTRA:                  -3.968
REMARK UNBOUND:                -2.964
REMARK SMILES CCCCCCCCCCCCCCCCCCCCCCCCCCCCCC(=O)[O-]
REMARK SMILES IDX 16 1 17 2 18 3 19 4 20 5 21 6 22 7 23 8 24 9 25 10 26 11
REMARK SMILES IDX 27 12 28 13 29 14 30 15 31 16 32 17 15 18 14 19 13 20 12 21
REMARK SMILES IDX 11 22 10 23 9 24 8 25 7 26 6 27 5 28 4 29 3 30 2 31 1 32
REMARK H PARENT
REMARK Flexibility Score: inf
ROOT
ATOM      1  C   UNL     1      -6.563 -14.347  28.288  1.00  0.00     0.000 C 
ENDROOT
BRANCH   1   2
ATOM      2  C   UNL     1      -5.120 -14.064  28.734  1.00  0.00     0.000 C 
BRANCH   2   3
ATOM      3  C   UNL     1      -5.044 -13.312  30.076  1.00  0.00     0.000 C 
BRANCH   3   4
ATOM      4  C   UNL     1      -5.502 -11.848  29.960  1.00  0.00     0.000 C 
BRANCH   4   5
ATOM      5  C   UNL     1      -5.886 -11.238  31.320  1.00  0.00     0.000 C 
BRANCH   5   6
ATOM      6  C   UNL     1      -5.068 -11.824  32.481  1.00  0.00     0.000 C 
BRANCH   6   7
ATOM      7  C   UNL     1      -3.866 -10.948  32.866  1.00  0.00     0.000 C 
BRANCH   7   8
ATOM      8  C   UNL     1      -2.556 -11.739  32.732  1.00  0.00     0.000 C 
BRANCH   8   9
ATOM      9  C   UNL     1      -1.592 -11.140  31.693  1.00  0.00     0.000 C 
BRANCH   9  10
ATOM     10  C   UNL     1      -2.255 -10.257  30.616  1.00  0.00     0.000 C 
BRANCH  10  11
ATOM     11  C   UNL     1      -2.035 -10.723  29.165  1.00  0.00     0.000 C 
BRANCH  11  12
ATOM     12  C   UNL     1      -1.468 -12.151  29.075  1.00  0.00     0.000 C 
BRANCH  12  13
ATOM     13  C   UNL     1      -1.950 -12.902  27.824  1.00  0.00     0.006 C 
BRANCH  13  14
ATOM     14  C   UNL     1      -1.208 -14.229  27.608  1.00  0.00     0.053 C 
BRANCH  14  15
ATOM     15  C   UNL     1      -0.555 -14.257  26.260  1.00  0.00     0.041 C 
ATOM     16  O   UNL     1      -1.077 -13.647  25.289  1.00  0.00    -0.550 OA
ATOM     17  O   UNL     1       0.631 -14.958  26.076  1.00  0.00    -0.550 OA
ENDBRANCH  14  15
ENDBRANCH  13  14
ENDBRANCH  12  13
ENDBRANCH  11  12
ENDBRANCH  10  11
ENDBRANCH   9  10
ENDBRANCH   8   9
ENDBRANCH   7   8
ENDBRANCH   6   7
ENDBRANCH   5   6
ENDBRANCH   4   5
ENDBRANCH   3   4
ENDBRANCH   2   3
ENDBRANCH   1   2
BRANCH   1  18
ATOM     18  C   UNL     1      -6.685 -14.528  26.767  1.00  0.00     0.000 C 
BRANCH  18  19
ATOM     19  C   UNL     1      -8.133 -14.399  26.258  1.00  0.00     0.000 C 
BRANCH  19  20
ATOM     20  C   UNL     1      -9.166 -15.284  26.981  1.00  0.00     0.000 C 
BRANCH  20  21
ATOM     21  C   UNL     1     -10.537 -15.294  26.284  1.00  0.00     0.000 C 
BRANCH  21  22
ATOM     22  C   UNL     1     -11.604 -16.053  27.092  1.00  0.00     0.000 C 
BRANCH  22  23
ATOM     23  C   UNL     1     -11.063 -16.593  28.428  1.00  0.00     0.000 C 
BRANCH  23  24
ATOM     24  C   UNL     1     -11.530 -18.028  28.731  1.00  0.00    -0.000 C 
BRANCH  24  25
ATOM     25  C   UNL     1     -12.787 -18.137  29.615  1.00  0.00    -0.000 C 
BRANCH  25  26
ATOM     26  C   UNL     1     -12.743 -17.209  30.840  1.00  0.00    -0.000 C 
BRANCH  26  27
ATOM     27  C   UNL     1     -11.937 -17.808  32.006  1.00  0.00    -0.000 C 
BRANCH  27  28
ATOM     28  C   UNL     1     -10.687 -16.981  32.350  1.00  0.00    -0.000 C 
BRANCH  28  29
ATOM     29  C   UNL     1      -9.387 -17.630  31.841  1.00  0.00    -0.000 C 
BRANCH  29  30
ATOM     30  C   UNL     1      -8.132 -16.735  31.914  1.00  0.00    -0.000 C 
BRANCH  30  31
ATOM     31  C   UNL     1      -8.194 -15.454  31.063  1.00  0.00    -0.003 C 
ATOM     32  C   UNL     1      -8.207 -14.179  31.907  1.00  0.00     0.004 C 
ENDBRANCH  30  31
ENDBRANCH  29  30
ENDBRANCH  28  29
ENDBRANCH  27  28
ENDBRANCH  26  27
ENDBRANCH  25  26
ENDBRANCH  24  25
ENDBRANCH  23  24
ENDBRANCH  22  23
ENDBRANCH  21  22
ENDBRANCH  20  21
ENDBRANCH  19  20
ENDBRANCH  18  19
ENDBRANCH   1  18
TORSDOF 28
ENDMDL
MODEL 4
REMARK VINA RESULT:    -5.769      2.706      5.024
REMARK INTER + INTRA:         -18.177
REMARK INTER:                 -14.810
REMARK INTRA:                  -3.367
REMARK UNBOUND:                -2.964
REMARK SMILES CCCCCCCCCCCCCCCCCCCCCCCCCCCCCC(=O)[O-]
REMARK SMILES IDX 16 1 17 2 18 3 19 4 20 5 21 6 22 7 23 8 24 9 25 10 26 11
REMARK SMILES IDX 27 12 28 13 29 14 30 15 31 16 32 17 15 18 14 19 13 20 12 21
REMARK SMILES IDX 11 22 10 23 9 24 8 25 7 26 6 27 5 28 4 29 3 30 2 31 1 32
REMARK H PARENT
REMARK Flexibility Score: inf
ROOT
ATOM      1  C   UNL     1      -7.826 -16.411  31.849  1.00  0.00     0.000 C 
ENDROOT
BRANCH   1   2
ATOM      2  C   UNL     1      -6.850 -15.270  31.517  1.00  0.00     0.000 C 
BRANCH   2   3
ATOM      3  C   UNL     1      -6.779 -14.203  32.625  1.00  0.00     0.000 C 
BRANCH   3   4
ATOM      4  C   UNL     1      -6.958 -12.775  32.083  1.00  0.00     0.000 C 
BRANCH   4   5
ATOM      5  C   UNL     1      -5.938 -12.426  30.984  1.00  0.00     0.000 C 
BRANCH   5   6
ATOM      6  C   UNL     1      -5.128 -11.162  31.310  1.00  0.00     0.000 C 
BRANCH   6   7
ATOM      7  C   UNL     1      -4.321 -11.289  32.611  1.00  0.00     0.000 C 
BRANCH   7   8
ATOM      8  C   UNL     1      -2.889 -10.771  32.412  1.00  0.00     0.000 C 
BRANCH   8   9
ATOM      9  C   UNL     1      -1.822 -11.866  32.581  1.00  0.00     0.000 C 
BRANCH   9  10
ATOM     10  C   UNL     1      -1.356 -12.535  31.272  1.00  0.00     0.000 C 
BRANCH  10  11
ATOM     11  C   UNL     1      -1.810 -11.829  29.981  1.00  0.00     0.000 C 
BRANCH  11  12
ATOM     12  C   UNL     1      -2.164 -12.814  28.854  1.00  0.00     0.000 C 
BRANCH  12  13
ATOM     13  C   UNL     1      -2.835 -14.095  29.375  1.00  0.00     0.006 C 
BRANCH  13  14
ATOM     14  C   UNL     1      -2.486 -15.330  28.533  1.00  0.00     0.053 C 
BRANCH  14  15
ATOM     15  C   UNL     1      -1.871 -14.926  27.229  1.00  0.00     0.041 C 
ATOM     16  O   UNL     1      -0.617 -14.877  27.108  1.00  0.00    -0.550 OA
ATOM     17  O   UNL     1      -2.681 -14.605  26.146  1.00  0.00    -0.550 OA
ENDBRANCH  14  15
ENDBRANCH  13  14
ENDBRANCH  12  13
ENDBRANCH  11  12
ENDBRANCH  10  11
ENDBRANCH   9  10
ENDBRANCH   8   9
ENDBRANCH   7   8
ENDBRANCH   6   7
ENDBRANCH   5   6
ENDBRANCH   4   5
ENDBRANCH   3   4
ENDBRANCH   2   3
ENDBRANCH   1   2
BRANCH   1  18
ATOM     18  C   UNL     1      -9.163 -16.278  31.103  1.00  0.00     0.000 C 
BRANCH  18  19
ATOM     19  C   UNL     1     -10.227 -15.504  31.905  1.00  0.00     0.000 C 
BRANCH  19  20
ATOM     20  C   UNL     1     -11.272 -16.378  32.624  1.00  0.00     0.000 C 
BRANCH  20  21
ATOM     21  C   UNL     1     -11.051 -17.883  32.399  1.00  0.00     0.000 C 
BRANCH  21  22
ATOM     22  C   UNL     1     -11.901 -18.438  31.243  1.00  0.00     0.000 C 
BRANCH  22  23
ATOM     23  C   UNL     1     -13.192 -17.632  31.017  1.00  0.00     0.000 C 
BRANCH  23  24
ATOM     24  C   UNL     1     -13.349 -17.141  29.566  1.00  0.00    -0.000 C 
BRANCH  24  25
ATOM     25  C   UNL     1     -12.361 -16.040  29.134  1.00  0.00    -0.000 C 
BRANCH  25  26
ATOM     26  C   UNL     1     -11.345 -16.522  28.085  1.00  0.00    -0.000 C 
BRANCH  26  27
ATOM     27  C   UNL     1     -11.675 -16.021  26.669  1.00  0.00    -0.000 C 
BRANCH  27  28
ATOM     28  C   UNL     1     -10.522 -15.221  26.038  1.00  0.00    -0.000 C 
BRANCH  28  29
ATOM     29  C   UNL     1      -9.234 -15.269  26.881  1.00  0.00    -0.000 C 
BRANCH  29  30
ATOM     30  C   UNL     1      -8.112 -14.314  26.424  1.00  0.00    -0.000 C 
BRANCH  30  31
ATOM     31  C   UNL     1      -6.683 -14.863  26.585  1.00  0.00    -0.003 C 
ATOM     32  C   UNL     1      -6.043 -14.476  27.918  1.00  0.00     0.004 C 
ENDBRANCH  30  31
ENDBRANCH  29  30
ENDBRANCH  28  29
ENDBRANCH  27  28
ENDBRANCH  26  27
ENDBRANCH  25  26
ENDBRANCH  24  25
ENDBRANCH  23  24
ENDBRANCH  22  23
ENDBRANCH  21  22
ENDBRANCH  20  21
ENDBRANCH  19  20
ENDBRANCH  18  19
ENDBRANCH   1  18
TORSDOF 28
ENDMDL
MODEL 5
REMARK VINA RESULT:    -5.746      1.075      2.099
REMARK INTER + INTRA:         -18.116
REMARK INTER:                 -15.207
REMARK INTRA:                  -2.909
REMARK UNBOUND:                -2.964
REMARK SMILES CCCCCCCCCCCCCCCCCCCCCCCCCCCCCC(=O)[O-]
REMARK SMILES IDX 16 1 17 2 18 3 19 4 20 5 21 6 22 7 23 8 24 9 25 10 26 11
REMARK SMILES IDX 27 12 28 13 29 14 30 15 31 16 32 17 15 18 14 19 13 20 12 21
REMARK SMILES IDX 11 22 10 23 9 24 8 25 7 26 6 27 5 28 4 29 3 30 2 31 1 32
REMARK H PARENT
REMARK Flexibility Score: inf
ROOT
ATOM      1  C   UNL     1      -6.941 -14.307  28.939  1.00  0.00     0.000 C 
ENDROOT
BRANCH   1   2
ATOM      2  C   UNL     1      -6.330 -14.756  30.276  1.00  0.00     0.000 C 
BRANCH   2   3
ATOM      3  C   UNL     1      -5.968 -13.575  31.195  1.00  0.00     0.000 C 
BRANCH   3   4
ATOM      4  C   UNL     1      -6.214 -12.211  30.529  1.00  0.00     0.000 C 
BRANCH   4   5
ATOM      5  C   UNL     1      -5.445 -11.068  31.217  1.00  0.00     0.000 C 
BRANCH   5   6
ATOM      6  C   UNL     1      -4.959 -11.448  32.624  1.00  0.00     0.000 C 
BRANCH   6   7
ATOM      7  C   UNL     1      -3.477 -11.116  32.854  1.00  0.00     0.000 C 
BRANCH   7   8
ATOM      8  C   UNL     1      -2.736 -10.989  31.514  1.00  0.00     0.000 C 
BRANCH   8   9
ATOM      9  C   UNL     1      -1.317 -11.580  31.551  1.00  0.00     0.000 C 
BRANCH   9  10
ATOM     10  C   UNL     1      -0.777 -11.903  32.959  1.00  0.00     0.000 C 
BRANCH  10  11
ATOM     11  C   UNL     1       0.657 -12.463  32.994  1.00  0.00     0.000 C 
BRANCH  11  12
ATOM     12  C   UNL     1       0.706 -13.992  32.834  1.00  0.00     0.000 C 
BRANCH  12  13
ATOM     13  C   UNL     1       1.728 -14.654  33.772  1.00  0.00     0.006 C 
BRANCH  13  14
ATOM     14  C   UNL     1       1.686 -14.076  35.194  1.00  0.00     0.053 C 
BRANCH  14  15
ATOM     15  C   UNL     1       1.073 -15.056  36.146  1.00  0.00     0.041 C 
ATOM     16  O   UNL     1       0.474 -14.650  37.178  1.00  0.00    -0.550 OA
ATOM     17  O   UNL     1       1.162 -16.421  35.894  1.00  0.00    -0.550 OA
ENDBRANCH  14  15
ENDBRANCH  13  14
ENDBRANCH  12  13
ENDBRANCH  11  12
ENDBRANCH  10  11
ENDBRANCH   9  10
ENDBRANCH   8   9
ENDBRANCH   7   8
ENDBRANCH   6   7
ENDBRANCH   5   6
ENDBRANCH   4   5
ENDBRANCH   3   4
ENDBRANCH   2   3
ENDBRANCH   1   2
BRANCH   1  18
ATOM     18  C   UNL     1      -5.969 -14.479  27.760  1.00  0.00     0.000 C 
BRANCH  18  19
ATOM     19  C   UNL     1      -6.681 -14.527  26.395  1.00  0.00     0.000 C 
BRANCH  19  20
ATOM     20  C   UNL     1      -8.037 -15.260  26.385  1.00  0.00     0.000 C 
BRANCH  20  21
ATOM     21  C   UNL     1      -9.186 -14.383  25.861  1.00  0.00     0.000 C 
BRANCH  21  22
ATOM     22  C   UNL     1     -10.566 -15.028  26.077  1.00  0.00     0.000 C 
BRANCH  22  23
ATOM     23  C   UNL     1     -10.672 -15.762  27.426  1.00  0.00     0.000 C 
BRANCH  23  24
ATOM     24  C   UNL     1     -12.080 -16.324  27.696  1.00  0.00    -0.000 C 
BRANCH  24  25
ATOM     25  C   UNL     1     -12.603 -16.127  29.131  1.00  0.00    -0.000 C 
BRANCH  25  26
ATOM     26  C   UNL     1     -13.461 -17.304  29.625  1.00  0.00    -0.000 C 
BRANCH  26  27
ATOM     27  C   UNL     1     -12.622 -18.552  29.950  1.00  0.00    -0.000 C 
BRANCH  27  28
ATOM     28  C   UNL     1     -11.840 -18.415  31.268  1.00  0.00    -0.000 C 
BRANCH  28  29
ATOM     29  C   UNL     1     -10.327 -18.632  31.086  1.00  0.00    -0.000 C 
BRANCH  29  30
ATOM     30  C   UNL     1      -9.427 -17.531  31.684  1.00  0.00    -0.000 C 
BRANCH  30  31
ATOM     31  C   UNL     1      -9.465 -16.183  30.942  1.00  0.00    -0.003 C 
ATOM     32  C   UNL     1      -9.679 -14.993  31.877  1.00  0.00     0.004 C 
ENDBRANCH  30  31
ENDBRANCH  29  30
ENDBRANCH  28  29
ENDBRANCH  27  28
ENDBRANCH  26  27
ENDBRANCH  25  26
ENDBRANCH  24  25
ENDBRANCH  23  24
ENDBRANCH  22  23
ENDBRANCH  21  22
ENDBRANCH  20  21
ENDBRANCH  19  20
ENDBRANCH  18  19
ENDBRANCH   1  18
TORSDOF 28
ENDMDL
MODEL 6
REMARK VINA RESULT:    -5.746      1.170      2.195
REMARK INTER + INTRA:         -18.114
REMARK INTER:                 -14.632
REMARK INTRA:                  -3.482
REMARK UNBOUND:                -2.964
REMARK SMILES CCCCCCCCCCCCCCCCCCCCCCCCCCCCCC(=O)[O-]
REMARK SMILES IDX 16 1 17 2 18 3 19 4 20 5 21 6 22 7 23 8 24 9 25 10 26 11
REMARK SMILES IDX 27 12 28 13 29 14 30 15 31 16 32 17 15 18 14 19 13 20 12 21
REMARK SMILES IDX 11 22 10 23 9 24 8 25 7 26 6 27 5 28 4 29 3 30 2 31 1 32
REMARK H PARENT
REMARK Flexibility Score: inf
ROOT
ATOM      1  C   UNL     1      -8.348 -15.236  26.907  1.00  0.00     0.000 C 
ENDROOT
BRANCH   1   2
ATOM      2  C   UNL     1      -7.126 -14.416  26.462  1.00  0.00     0.000 C 
BRANCH   2   3
ATOM      3  C   UNL     1      -5.940 -14.532  27.437  1.00  0.00     0.000 C 
BRANCH   3   4
ATOM      4  C   UNL     1      -6.349 -14.277  28.898  1.00  0.00     0.000 C 
BRANCH   4   5
ATOM      5  C   UNL     1      -5.238 -13.591  29.713  1.00  0.00     0.000 C 
BRANCH   5   6
ATOM      6  C   UNL     1      -5.036 -12.121  29.314  1.00  0.00     0.000 C 
BRANCH   6   7
ATOM      7  C   UNL     1      -4.870 -11.191  30.525  1.00  0.00     0.000 C 
BRANCH   7   8
ATOM      8  C   UNL     1      -4.620 -12.006  31.803  1.00  0.00     0.000 C 
BRANCH   8   9
ATOM      9  C   UNL     1      -3.545 -11.388  32.712  1.00  0.00     0.000 C 
BRANCH   9  10
ATOM     10  C   UNL     1      -2.447 -10.589  31.981  1.00  0.00     0.000 C 
BRANCH  10  11
ATOM     11  C   UNL     1      -1.138 -11.360  31.729  1.00  0.00     0.000 C 
BRANCH  11  12
ATOM     12  C   UNL     1      -0.500 -11.893  33.024  1.00  0.00     0.000 C 
BRANCH  12  13
ATOM     13  C   UNL     1       0.103 -13.296  32.853  1.00  0.00     0.006 C 
BRANCH  13  14
ATOM     14  C   UNL     1       1.296 -13.546  33.787  1.00  0.00     0.053 C 
BRANCH  14  15
ATOM     15  C   UNL     1       1.762 -14.965  33.683  1.00  0.00     0.041 C 
ATOM     16  O   UNL     1       1.065 -15.899  34.162  1.00  0.00    -0.550 OA
ATOM     17  O   UNL     1       2.968 -15.257  33.055  1.00  0.00    -0.550 OA
ENDBRANCH  14  15
ENDBRANCH  13  14
ENDBRANCH  12  13
ENDBRANCH  11  12
ENDBRANCH  10  11
ENDBRANCH   9  10
ENDBRANCH   8   9
ENDBRANCH   7   8
ENDBRANCH   6   7
ENDBRANCH   5   6
ENDBRANCH   4   5
ENDBRANCH   3   4
ENDBRANCH   2   3
ENDBRANCH   1   2
BRANCH   1  18
ATOM     18  C   UNL     1      -9.623 -14.858  26.137  1.00  0.00     0.000 C 
BRANCH  18  19
ATOM     19  C   UNL     1     -10.871 -15.615  26.630  1.00  0.00     0.000 C 
BRANCH  19  20
ATOM     20  C   UNL     1     -10.702 -16.364  27.965  1.00  0.00     0.000 C 
BRANCH  20  21
ATOM     21  C   UNL     1     -11.924 -17.226  28.327  1.00  0.00     0.000 C 
BRANCH  21  22
ATOM     22  C   UNL     1     -11.530 -18.591  28.915  1.00  0.00     0.000 C 
BRANCH  22  23
ATOM     23  C   UNL     1     -10.180 -18.551  29.653  1.00  0.00     0.000 C 
BRANCH  23  24
ATOM     24  C   UNL     1     -10.290 -18.966  31.132  1.00  0.00    -0.000 C 
BRANCH  24  25
ATOM     25  C   UNL     1     -10.145 -17.818  32.149  1.00  0.00    -0.000 C 
BRANCH  25  26
ATOM     26  C   UNL     1     -11.405 -16.942  32.252  1.00  0.00    -0.000 C 
BRANCH  26  27
ATOM     27  C   UNL     1     -11.251 -15.597  31.523  1.00  0.00    -0.000 C 
BRANCH  27  28
ATOM     28  C   UNL     1     -10.269 -14.647  32.229  1.00  0.00    -0.000 C 
BRANCH  28  29
ATOM     29  C   UNL     1      -8.935 -14.502  31.473  1.00  0.00    -0.000 C 
BRANCH  29  30
ATOM     30  C   UNL     1      -7.812 -13.785  32.250  1.00  0.00    -0.000 C 
BRANCH  30  31
ATOM     31  C   UNL     1      -6.708 -14.706  32.797  1.00  0.00    -0.003 C 
ATOM     32  C   UNL     1      -6.766 -16.118  32.215  1.00  0.00     0.004 C 
ENDBRANCH  30  31
ENDBRANCH  29  30
ENDBRANCH  28  29
ENDBRANCH  27  28
ENDBRANCH  26  27
ENDBRANCH  25  26
ENDBRANCH  24  25
ENDBRANCH  23  24
ENDBRANCH  22  23
ENDBRANCH  21  22
ENDBRANCH  20  21
ENDBRANCH  19  20
ENDBRANCH  18  19
ENDBRANCH   1  18
TORSDOF 28
ENDMDL
MODEL 7
REMARK VINA RESULT:    -5.724      3.317      6.607
REMARK INTER + INTRA:         -18.057
REMARK INTER:                 -14.320
REMARK INTRA:                  -3.737
REMARK UNBOUND:                -2.964
REMARK SMILES CCCCCCCCCCCCCCCCCCCCCCCCCCCCCC(=O)[O-]
REMARK SMILES IDX 16 1 17 2 18 3 19 4 20 5 21 6 22 7 23 8 24 9 25 10 26 11
REMARK SMILES IDX 27 12 28 13 29 14 30 15 31 16 32 17 15 18 14 19 13 20 12 21
REMARK SMILES IDX 11 22 10 23 9 24 8 25 7 26 6 27 5 28 4 29 3 30 2 31 1 32
REMARK H PARENT
REMARK Flexibility Score: inf
ROOT
ATOM      1  C   UNL     1     -11.636 -16.386  28.716  1.00  0.00     0.000 C 
ENDROOT
BRANCH   1   2
ATOM      2  C   UNL     1     -12.273 -16.400  27.317  1.00  0.00     0.000 C 
BRANCH   2   3
ATOM      3  C   UNL     1     -11.505 -15.534  26.301  1.00  0.00     0.000 C 
BRANCH   3   4
ATOM      4  C   UNL     1     -10.054 -15.264  26.732  1.00  0.00     0.000 C 
BRANCH   4   5
ATOM      5  C   UNL     1      -9.162 -14.814  25.561  1.00  0.00     0.000 C 
BRANCH   5   6
ATOM      6  C   UNL     1      -8.057 -13.842  26.001  1.00  0.00     0.000 C 
BRANCH   6   7
ATOM      7  C   UNL     1      -6.797 -14.560  26.509  1.00  0.00     0.000 C 
BRANCH   7   8
ATOM      8  C   UNL     1      -6.688 -14.447  28.036  1.00  0.00     0.000 C 
BRANCH   8   9
ATOM      9  C   UNL     1      -5.381 -13.784  28.501  1.00  0.00     0.000 C 
BRANCH   9  10
ATOM     10  C   UNL     1      -4.459 -14.679  29.355  1.00  0.00     0.000 C 
BRANCH  10  11
ATOM     11  C   UNL     1      -2.969 -14.635  28.971  1.00  0.00     0.000 C 
BRANCH  11  12
ATOM     12  C   UNL     1      -2.627 -13.461  28.036  1.00  0.00     0.000 C 
BRANCH  12  13
ATOM     13  C   UNL     1      -1.419 -13.756  27.133  1.00  0.00     0.006 C 
BRANCH  13  14
ATOM     14  C   UNL     1      -1.815 -14.453  25.823  1.00  0.00     0.053 C 
BRANCH  14  15
ATOM     15  C   UNL     1      -0.779 -15.458  25.424  1.00  0.00     0.041 C 
ATOM     16  O   UNL     1       0.325 -15.077  24.950  1.00  0.00    -0.550 OA
ATOM     17  O   UNL     1      -1.032 -16.816  25.576  1.00  0.00    -0.550 OA
ENDBRANCH  14  15
ENDBRANCH  13  14
ENDBRANCH  12  13
ENDBRANCH  11  12
ENDBRANCH  10  11
ENDBRANCH   9  10
ENDBRANCH   8   9
ENDBRANCH   7   8
ENDBRANCH   6   7
ENDBRANCH   5   6
ENDBRANCH   4   5
ENDBRANCH   3   4
ENDBRANCH   2   3
ENDBRANCH   1   2
BRANCH   1  18
ATOM     18  C   UNL     1     -12.684 -16.342  29.840  1.00  0.00     0.000 C 
BRANCH  18  19
ATOM     19  C   UNL     1     -13.408 -17.687  30.041  1.00  0.00     0.000 C 
BRANCH  19  20
ATOM     20  C   UNL     1     -12.778 -18.623  31.090  1.00  0.00     0.000 C 
BRANCH  20  21
ATOM     21  C   UNL     1     -11.677 -17.938  31.918  1.00  0.00     0.000 C 
BRANCH  21  22
ATOM     22  C   UNL     1     -10.289 -18.555  31.679  1.00  0.00     0.000 C 
BRANCH  22  23
ATOM     23  C   UNL     1      -9.148 -17.539  31.869  1.00  0.00     0.000 C 
BRANCH  23  24
ATOM     24  C   UNL     1      -9.619 -16.077  31.750  1.00  0.00    -0.000 C 
BRANCH  24  25
ATOM     25  C   UNL     1      -8.526 -15.065  31.359  1.00  0.00    -0.000 C 
BRANCH  25  26
ATOM     26  C   UNL     1      -7.160 -15.379  31.993  1.00  0.00    -0.000 C 
BRANCH  26  27
ATOM     27  C   UNL     1      -6.477 -14.129  32.573  1.00  0.00    -0.000 C 
BRANCH  27  28
ATOM     28  C   UNL     1      -6.924 -12.831  31.880  1.00  0.00    -0.000 C 
BRANCH  28  29
ATOM     29  C   UNL     1      -5.897 -11.693  32.029  1.00  0.00    -0.000 C 
BRANCH  29  30
ATOM     30  C   UNL     1      -5.297 -11.171  30.707  1.00  0.00    -0.000 C 
BRANCH  30  31
ATOM     31  C   UNL     1      -3.836 -10.696  30.797  1.00  0.00    -0.003 C 
ATOM     32  C   UNL     1      -2.892 -11.771  31.335  1.00  0.00     0.004 C 
ENDBRANCH  30  31
ENDBRANCH  29  30
ENDBRANCH  28  29
ENDBRANCH  27  28
ENDBRANCH  26  27
ENDBRANCH  25  26
ENDBRANCH  24  25
ENDBRANCH  23  24
ENDBRANCH  22  23
ENDBRANCH  21  22
ENDBRANCH  20  21
ENDBRANCH  19  20
ENDBRANCH  18  19
ENDBRANCH   1  18
TORSDOF 28
ENDMDL
MODEL 8
REMARK VINA RESULT:    -5.694      2.949      7.866
REMARK INTER + INTRA:         -17.978
REMARK INTER:                 -14.153
REMARK INTRA:                  -3.826
REMARK UNBOUND:                -2.964
REMARK SMILES CCCCCCCCCCCCCCCCCCCCCCCCCCCCCC(=O)[O-]
REMARK SMILES IDX 16 1 17 2 18 3 19 4 20 5 21 6 22 7 23 8 24 9 25 10 26 11
REMARK SMILES IDX 27 12 28 13 29 14 30 15 31 16 32 17 15 18 14 19 13 20 12 21
REMARK SMILES IDX 11 22 10 23 9 24 8 25 7 26 6 27 5 28 4 29 3 30 2 31 1 32
REMARK H PARENT
REMARK Flexibility Score: inf
ROOT
ATOM      1  C   UNL     1     -11.639 -17.386  28.472  1.00  0.00     0.000 C 
ENDROOT
BRANCH   1   2
ATOM      2  C   UNL     1     -12.940 -16.707  28.929  1.00  0.00     0.000 C 
BRANCH   2   3
ATOM      3  C   UNL     1     -13.333 -17.078  30.371  1.00  0.00     0.000 C 
BRANCH   3   4
ATOM      4  C   UNL     1     -12.446 -18.188  30.959  1.00  0.00     0.000 C 
BRANCH   4   5
ATOM      5  C   UNL     1     -11.732 -17.754  32.252  1.00  0.00     0.000 C 
BRANCH   5   6
ATOM      6  C   UNL     1     -10.525 -16.843  31.981  1.00  0.00     0.000 C 
BRANCH   6   7
ATOM      7  C   UNL     1      -9.200 -17.617  31.903  1.00  0.00     0.000 C 
BRANCH   7   8
ATOM      8  C   UNL     1      -8.006 -16.659  32.025  1.00  0.00     0.000 C 
BRANCH   8   9
ATOM      9  C   UNL     1      -8.008 -15.552  30.957  1.00  0.00     0.000 C 
BRANCH   9  10
ATOM     10  C   UNL     1      -6.679 -14.784  30.806  1.00  0.00     0.000 C 
BRANCH  10  11
ATOM     11  C   UNL     1      -6.821 -13.258  30.655  1.00  0.00     0.000 C 
BRANCH  11  12
ATOM     12  C   UNL     1      -6.046 -12.476  31.731  1.00  0.00     0.000 C 
BRANCH  12  13
ATOM     13  C   UNL     1      -5.375 -11.211  31.174  1.00  0.00     0.006 C 
BRANCH  13  14
ATOM     14  C   UNL     1      -3.937 -11.463  30.699  1.00  0.00     0.053 C 
BRANCH  14  15
ATOM     15  C   UNL     1      -2.950 -10.982  31.717  1.00  0.00     0.041 C 
ATOM     16  O   UNL     1      -2.232  -9.974  31.479  1.00  0.00    -0.550 OA
ATOM     17  O   UNL     1      -2.824 -11.647  32.932  1.00  0.00    -0.550 OA
ENDBRANCH  14  15
ENDBRANCH  13  14
ENDBRANCH  12  13
ENDBRANCH  11  12
ENDBRANCH  10  11
ENDBRANCH   9  10
ENDBRANCH   8   9
ENDBRANCH   7   8
ENDBRANCH   6   7
ENDBRANCH   5   6
ENDBRANCH   4   5
ENDBRANCH   3   4
ENDBRANCH   2   3
ENDBRANCH   1   2
BRANCH   1  18
ATOM     18  C   UNL     1     -10.574 -16.374  28.020  1.00  0.00     0.000 C 
BRANCH  18  19
ATOM     19  C   UNL     1     -10.887 -15.740  26.652  1.00  0.00     0.000 C 
BRANCH  19  20
ATOM     20  C   UNL     1      -9.701 -15.038  25.964  1.00  0.00     0.000 C 
BRANCH  20  21
ATOM     21  C   UNL     1      -8.619 -14.582  26.958  1.00  0.00     0.000 C 
BRANCH  21  22
ATOM     22  C   UNL     1      -7.201 -14.977  26.507  1.00  0.00     0.000 C 
BRANCH  22  23
ATOM     23  C   UNL     1      -6.106 -14.152  27.208  1.00  0.00     0.000 C 
BRANCH  23  24
ATOM     24  C   UNL     1      -4.812 -14.951  27.448  1.00  0.00    -0.000 C 
BRANCH  24  25
ATOM     25  C   UNL     1      -3.808 -14.301  28.419  1.00  0.00    -0.000 C 
BRANCH  25  26
ATOM     26  C   UNL     1      -2.702 -15.267  28.876  1.00  0.00    -0.000 C 
BRANCH  26  27
ATOM     27  C   UNL     1      -1.388 -14.542  29.215  1.00  0.00    -0.000 C 
BRANCH  27  28
ATOM     28  C   UNL     1      -1.180 -13.267  28.380  1.00  0.00    -0.000 C 
BRANCH  28  29
ATOM     29  C   UNL     1      -0.168 -13.465  27.236  1.00  0.00    -0.000 C 
BRANCH  29  30
ATOM     30  C   UNL     1      -0.743 -13.308  25.813  1.00  0.00    -0.000 C 
BRANCH  30  31
ATOM     31  C   UNL     1      -1.723 -14.413  25.381  1.00  0.00    -0.003 C 
ATOM     32  C   UNL     1      -1.057 -15.783  25.250  1.00  0.00     0.004 C 
ENDBRANCH  30  31
ENDBRANCH  29  30
ENDBRANCH  28  29
ENDBRANCH  27  28
ENDBRANCH  26  27
ENDBRANCH  25  26
ENDBRANCH  24  25
ENDBRANCH  23  24
ENDBRANCH  22  23
ENDBRANCH  21  22
ENDBRANCH  20  21
ENDBRANCH  19  20
ENDBRANCH  18  19
ENDBRANCH   1  18
TORSDOF 28
ENDMDL
MODEL 9
REMARK VINA RESULT:    -5.686      3.699     10.027
REMARK INTER + INTRA:         -17.959
REMARK INTER:                 -14.307
REMARK INTRA:                  -3.652
REMARK UNBOUND:                -2.964
REMARK SMILES CCCCCCCCCCCCCCCCCCCCCCCCCCCCCC(=O)[O-]
REMARK SMILES IDX 16 1 17 2 18 3 19 4 20 5 21 6 22 7 23 8 24 9 25 10 26 11
REMARK SMILES IDX 27 12 28 13 29 14 30 15 31 16 32 17 15 18 14 19 13 20 12 21
REMARK SMILES IDX 11 22 10 23 9 24 8 25 7 26 6 27 5 28 4 29 3 30 2 31 1 32
REMARK H PARENT
REMARK Flexibility Score: inf
ROOT
ATOM      1  C   UNL     1      -6.648 -14.874  30.589  1.00  0.00     0.000 C 
ENDROOT
BRANCH   1   2
ATOM      2  C   UNL     1      -7.034 -14.356  29.194  1.00  0.00     0.000 C 
BRANCH   2   3
ATOM      3  C   UNL     1      -5.981 -14.684  28.121  1.00  0.00     0.000 C 
BRANCH   3   4
ATOM      4  C   UNL     1      -6.483 -14.404  26.695  1.00  0.00     0.000 C 
BRANCH   4   5
ATOM      5  C   UNL     1      -7.854 -15.045  26.413  1.00  0.00     0.000 C 
BRANCH   5   6
ATOM      6  C   UNL     1      -8.872 -14.038  25.858  1.00  0.00     0.000 C 
BRANCH   6   7
ATOM      7  C   UNL     1     -10.303 -14.598  25.815  1.00  0.00     0.000 C 
BRANCH   7   8
ATOM      8  C   UNL     1     -10.493 -15.679  26.890  1.00  0.00     0.000 C 
BRANCH   8   9
ATOM      9  C   UNL     1     -11.960 -16.112  27.057  1.00  0.00     0.000 C 
BRANCH   9  10
ATOM     10  C   UNL     1     -12.225 -17.097  28.214  1.00  0.00     0.000 C 
BRANCH  10  11
ATOM     11  C   UNL     1     -13.008 -16.511  29.402  1.00  0.00     0.000 C 
BRANCH  11  12
ATOM     12  C   UNL     1     -12.719 -17.239  30.727  1.00  0.00     0.000 C 
BRANCH  12  13
ATOM     13  C   UNL     1     -11.769 -18.434  30.551  1.00  0.00     0.006 C 
BRANCH  13  14
ATOM     14  C   UNL     1     -10.730 -18.535  31.677  1.00  0.00     0.053 C 
BRANCH  14  15
ATOM     15  C   UNL     1      -9.557 -17.647  31.396  1.00  0.00     0.041 C 
ATOM     16  O   UNL     1      -9.536 -16.932  30.359  1.00  0.00    -0.550 OA
ATOM     17  O   UNL     1      -8.486 -17.608  32.282  1.00  0.00    -0.550 OA
ENDBRANCH  14  15
ENDBRANCH  13  14
ENDBRANCH  12  13
ENDBRANCH  11  12
ENDBRANCH  10  11
ENDBRANCH   9  10
ENDBRANCH   8   9
ENDBRANCH   7   8
ENDBRANCH   6   7
ENDBRANCH   5   6
ENDBRANCH   4   5
ENDBRANCH   3   4
ENDBRANCH   2   3
ENDBRANCH   1   2
BRANCH   1  18
ATOM     18  C   UNL     1      -7.574 -14.339  31.694  1.00  0.00     0.000 C 
BRANCH  18  19
ATOM     19  C   UNL     1      -7.285 -12.872  32.063  1.00  0.00     0.000 C 
BRANCH  19  20
ATOM     20  C   UNL     1      -5.794 -12.490  32.126  1.00  0.00     0.000 C 
BRANCH  20  21
ATOM     21  C   UNL     1      -5.484 -11.170  31.400  1.00  0.00     0.000 C 
BRANCH  21  22
ATOM     22  C   UNL     1      -4.075 -11.154  30.781  1.00  0.00     0.000 C 
BRANCH  22  23
ATOM     23  C   UNL     1      -4.017 -11.873  29.422  1.00  0.00     0.000 C 
BRANCH  23  24
ATOM     24  C   UNL     1      -2.688 -12.615  29.190  1.00  0.00    -0.000 C 
BRANCH  24  25
ATOM     25  C   UNL     1      -2.780 -14.153  29.220  1.00  0.00    -0.000 C 
BRANCH  25  26
ATOM     26  C   UNL     1      -1.913 -14.828  28.144  1.00  0.00    -0.000 C 
BRANCH  26  27
ATOM     27  C   UNL     1      -2.567 -14.797  26.753  1.00  0.00    -0.000 C 
BRANCH  27  28
ATOM     28  C   UNL     1      -1.796 -13.919  25.753  1.00  0.00    -0.000 C 
BRANCH  28  29
ATOM     29  C   UNL     1      -0.358 -13.617  26.213  1.00  0.00    -0.000 C 
BRANCH  29  30
ATOM     30  C   UNL     1      -0.081 -12.147  26.588  1.00  0.00    -0.000 C 
BRANCH  30  31
ATOM     31  C   UNL     1      -1.094 -11.130  26.031  1.00  0.00    -0.003 C 
ATOM     32  C   UNL     1      -1.138  -9.832  26.837  1.00  0.00     0.004 C 
ENDBRANCH  30  31
ENDBRANCH  29  30
ENDBRANCH  28  29
ENDBRANCH  27  28
ENDBRANCH  26  27
ENDBRANCH  25  26
ENDBRANCH  24  25
ENDBRANCH  23  24
ENDBRANCH  22  23
ENDBRANCH  21  22
ENDBRANCH  20  21
ENDBRANCH  19  20
ENDBRANCH  18  19
ENDBRANCH   1  18
TORSDOF 28
ENDMDL
