MODEL 1
REMARK VINA RESULT:    -4.383      0.000      0.000
REMARK INTER + INTRA:          -5.515
REMARK INTER:                  -5.152
REMARK INTRA:                  -0.363
REMARK UNBOUND:                -0.363
REMARK SMILES CCCC[C@H]1OC(=O)C2=C1CCC=C2
REMARK SMILES IDX 3 1 2 2 1 3 4 4 5 5 10 6 6 7 9 8 11 9 7 10 14 11 12 12 8 13
REMARK SMILES IDX 13 14
REMARK H PARENT
REMARK Flexibility Score: inf
ROOT
ATOM      1  C   UNL     1      27.635 -41.315  -3.075  1.00  0.00     0.004 C 
ENDROOT
BRANCH   1   2
ATOM      2  C   UNL     1      27.388 -39.863  -3.503  1.00  0.00    -0.003 C 
ATOM      3  C   UNL     1      25.931 -39.646  -3.900  1.00  0.00     0.004 C 
ENDBRANCH   1   2
BRANCH   1   4
ATOM      4  C   UNL     1      27.754 -41.424  -1.545  1.00  0.00     0.050 C 
BRANCH   4   5
ATOM      5  C   UNL     1      26.401 -41.322  -0.820  1.00  0.00     0.204 C 
ATOM      6  C   UNL     1      26.298 -40.110   0.077  1.00  0.00    -0.015 C 
ATOM      7  O   UNL     1      26.218 -42.414   0.085  1.00  0.00    -0.454 OA
ATOM      8  C   UNL     1      26.107 -40.475   1.334  1.00  0.00     0.062 C 
ATOM      9  C   UNL     1      26.536 -38.672  -0.298  1.00  0.00     0.040 C 
ATOM     10  C   UNL     1      26.048 -41.914   1.366  1.00  0.00     0.338 C 
ATOM     11  C   UNL     1      26.038 -39.512   2.439  1.00  0.00     0.011 C 
ATOM     12  C   UNL     1      25.876 -37.717   0.724  1.00  0.00     0.032 C 
ATOM     13  O   UNL     1      25.879 -42.627   2.391  1.00  0.00    -0.246 OA
ATOM     14  C   UNL     1      26.005 -38.204   2.155  1.00  0.00    -0.026 C 
ENDBRANCH   4   5
ENDBRANCH   1   4
TORSDOF 3
ENDMDL
MODEL 2
REMARK VINA RESULT:    -4.021      2.461      3.444
REMARK INTER + INTRA:          -5.089
REMARK INTER:                  -5.098
REMARK INTRA:                   0.008
REMARK UNBOUND:                -0.363
REMARK SMILES CCCC[C@H]1OC(=O)C2=C1CCC=C2
REMARK SMILES IDX 3 1 2 2 1 3 4 4 5 5 10 6 6 7 9 8 11 9 7 10 14 11 12 12 8 13
REMARK SMILES IDX 13 14
REMARK H PARENT
REMARK Flexibility Score: inf
ROOT
ATOM      1  C   UNL     1      26.670 -39.658  -3.810  1.00  0.00     0.004 C 
ENDROOT
BRANCH   1   2
ATOM      2  C   UNL     1      26.625 -41.190  -3.776  1.00  0.00    -0.003 C 
ATOM      3  C   UNL     1      27.377 -41.737  -2.566  1.00  0.00     0.004 C 
ENDBRANCH   1   2
BRANCH   1   4
ATOM      4  C   UNL     1      26.054 -39.062  -2.532  1.00  0.00     0.050 C 
BRANCH   4   5
ATOM      5  C   UNL     1      27.095 -38.749  -1.444  1.00  0.00     0.204 C 
ATOM      6  C   UNL     1      26.641 -39.141  -0.057  1.00  0.00    -0.015 C 
ATOM      7  O   UNL     1      27.311 -37.339  -1.329  1.00  0.00    -0.454 OA
ATOM      8  C   UNL     1      26.584 -38.082   0.732  1.00  0.00     0.062 C 
ATOM      9  C   UNL     1      26.146 -40.489   0.396  1.00  0.00     0.040 C 
ATOM     10  C   UNL     1      27.003 -36.940  -0.038  1.00  0.00     0.338 C 
ATOM     11  C   UNL     1      26.109 -38.150   2.119  1.00  0.00     0.011 C 
ATOM     12  C   UNL     1      26.244 -40.627   1.933  1.00  0.00     0.032 C 
ATOM     13  O   UNL     1      27.076 -35.752   0.375  1.00  0.00    -0.246 OA
ATOM     14  C   UNL     1      25.875 -39.350   2.664  1.00  0.00    -0.026 C 
ENDBRANCH   4   5
ENDBRANCH   1   4
TORSDOF 3
ENDMDL
MODEL 3
REMARK VINA RESULT:    -3.897     21.638     22.884
REMARK INTER + INTRA:          -4.944
REMARK INTER:                  -4.567
REMARK INTRA:                  -0.377
REMARK UNBOUND:                -0.363
REMARK SMILES CCCC[C@H]1OC(=O)C2=C1CCC=C2
REMARK SMILES IDX 3 1 2 2 1 3 4 4 5 5 10 6 6 7 9 8 11 9 7 10 14 11 12 12 8 13
REMARK SMILES IDX 13 14
REMARK H PARENT
REMARK Flexibility Score: inf
ROOT
ATOM      1  C   UNL     1      44.688 -29.646   8.770  1.00  0.00     0.004 C 
ENDROOT
BRANCH   1   2
ATOM      2  C   UNL     1      46.019 -30.283   8.351  1.00  0.00    -0.003 C 
ATOM      3  C   UNL     1      46.124 -30.389   6.833  1.00  0.00     0.004 C 
ENDBRANCH   1   2
BRANCH   1   4
ATOM      4  C   UNL     1      44.741 -29.176  10.234  1.00  0.00     0.050 C 
BRANCH   4   5
ATOM      5  C   UNL     1      43.821 -29.983  11.166  1.00  0.00     0.204 C 
ATOM      6  C   UNL     1      44.377 -31.343  11.519  1.00  0.00    -0.015 C 
ATOM      7  O   UNL     1      42.582 -30.294  10.522  1.00  0.00    -0.454 OA
ATOM      8  C   UNL     1      43.566 -32.300  11.103  1.00  0.00     0.062 C 
ATOM      9  C   UNL     1      45.727 -31.653  12.106  1.00  0.00     0.040 C 
ATOM     10  C   UNL     1      42.430 -31.671  10.479  1.00  0.00     0.338 C 
ATOM     11  C   UNL     1      43.881 -33.726  11.247  1.00  0.00     0.011 C 
ATOM     12  C   UNL     1      45.737 -33.054  12.762  1.00  0.00     0.032 C 
ATOM     13  O   UNL     1      41.447 -32.262   9.960  1.00  0.00    -0.246 OA
ATOM     14  C   UNL     1      44.952 -34.081  11.969  1.00  0.00    -0.026 C 
ENDBRANCH   4   5
ENDBRANCH   1   4
TORSDOF 3
ENDMDL
MODEL 4
REMARK VINA RESULT:    -3.809     21.685     23.130
REMARK INTER + INTRA:          -4.841
REMARK INTER:                  -4.359
REMARK INTRA:                  -0.481
REMARK UNBOUND:                -0.363
REMARK SMILES CCCC[C@H]1OC(=O)C2=C1CCC=C2
REMARK SMILES IDX 3 1 2 2 1 3 4 4 5 5 10 6 6 7 9 8 11 9 7 10 14 11 12 12 8 13
REMARK SMILES IDX 13 14
REMARK H PARENT
REMARK Flexibility Score: inf
ROOT
ATOM      1  C   UNL     1      45.716 -33.624  12.215  1.00  0.00     0.004 C 
ENDROOT
BRANCH   1   2
ATOM      2  C   UNL     1      45.427 -34.889  13.031  1.00  0.00    -0.003 C 
ATOM      3  C   UNL     1      43.928 -35.154  13.125  1.00  0.00     0.004 C 
ENDBRANCH   1   2
BRANCH   1   4
ATOM      4  C   UNL     1      45.720 -32.377  13.117  1.00  0.00     0.050 C 
BRANCH   4   5
ATOM      5  C   UNL     1      45.116 -31.134  12.441  1.00  0.00     0.204 C 
ATOM      6  C   UNL     1      43.656 -31.301  12.087  1.00  0.00    -0.015 C 
ATOM      7  O   UNL     1      45.732 -30.888  11.173  1.00  0.00    -0.454 OA
ATOM      8  C   UNL     1      43.477 -31.188  10.782  1.00  0.00     0.062 C 
ATOM      9  C   UNL     1      42.534 -31.705  13.005  1.00  0.00     0.040 C 
ATOM     10  C   UNL     1      44.761 -30.924  10.186  1.00  0.00     0.338 C 
ATOM     11  C   UNL     1      42.169 -31.372  10.142  1.00  0.00     0.011 C 
ATOM     12  C   UNL     1      41.163 -31.298  12.415  1.00  0.00     0.032 C 
ATOM     13  O   UNL     1      44.989 -30.758   8.959  1.00  0.00    -0.246 OA
ATOM     14  C   UNL     1      41.084 -31.500  10.914  1.00  0.00    -0.026 C 
ENDBRANCH   4   5
ENDBRANCH   1   4
TORSDOF 3
ENDMDL
MODEL 5
REMARK VINA RESULT:    -3.689     21.125     22.563
REMARK INTER + INTRA:          -4.699
REMARK INTER:                  -4.386
REMARK INTRA:                  -0.313
REMARK UNBOUND:                -0.363
REMARK SMILES CCCC[C@H]1OC(=O)C2=C1CCC=C2
REMARK SMILES IDX 3 1 2 2 1 3 4 4 5 5 10 6 6 7 9 8 11 9 7 10 14 11 12 12 8 13
REMARK SMILES IDX 13 14
REMARK H PARENT
REMARK Flexibility Score: inf
ROOT
ATOM      1  C   UNL     1      43.594 -34.139  13.018  1.00  0.00     0.004 C 
ENDROOT
BRANCH   1   2
ATOM      2  C   UNL     1      44.954 -34.843  13.096  1.00  0.00    -0.003 C 
ATOM      3  C   UNL     1      46.089 -33.891  12.733  1.00  0.00     0.004 C 
ENDBRANCH   1   2
BRANCH   1   4
ATOM      4  C   UNL     1      43.744 -32.716  12.454  1.00  0.00     0.050 C 
BRANCH   4   5
ATOM      5  C   UNL     1      43.190 -32.565  11.027  1.00  0.00     0.204 C 
ATOM      6  C   UNL     1      43.812 -31.417  10.266  1.00  0.00    -0.015 C 
ATOM      7  O   UNL     1      41.800 -32.226  11.048  1.00  0.00    -0.454 OA
ATOM      8  C   UNL     1      42.892 -30.531   9.924  1.00  0.00     0.062 C 
ATOM      9  C   UNL     1      45.277 -31.160  10.037  1.00  0.00     0.040 C 
ATOM     10  C   UNL     1      41.621 -31.016  10.397  1.00  0.00     0.338 C 
ATOM     11  C   UNL     1      43.215 -29.276   9.235  1.00  0.00     0.011 C 
ATOM     12  C   UNL     1      45.490 -30.202   8.841  1.00  0.00     0.032 C 
ATOM     13  O   UNL     1      40.509 -30.441  10.260  1.00  0.00    -0.246 OA
ATOM     14  C   UNL     1      44.463 -29.087   8.789  1.00  0.00    -0.026 C 
ENDBRANCH   4   5
ENDBRANCH   1   4
TORSDOF 3
ENDMDL
MODEL 6
REMARK VINA RESULT:    -3.638     21.289     22.768
REMARK INTER + INTRA:          -4.639
REMARK INTER:                  -4.110
REMARK INTRA:                  -0.529
REMARK UNBOUND:                -0.363
REMARK SMILES CCCC[C@H]1OC(=O)C2=C1CCC=C2
REMARK SMILES IDX 3 1 2 2 1 3 4 4 5 5 10 6 6 7 9 8 11 9 7 10 14 11 12 12 8 13
REMARK SMILES IDX 13 14
REMARK H PARENT
REMARK Flexibility Score: inf
ROOT
ATOM      1  C   UNL     1      40.644 -30.616  10.471  1.00  0.00     0.004 C 
ENDROOT
BRANCH   1   2
ATOM      2  C   UNL     1      39.891 -30.827  11.790  1.00  0.00    -0.003 C 
ATOM      3  C   UNL     1      40.627 -31.813  12.692  1.00  0.00     0.004 C 
ENDBRANCH   1   2
BRANCH   1   4
ATOM      4  C   UNL     1      41.604 -31.786  10.193  1.00  0.00     0.050 C 
BRANCH   4   5
ATOM      5  C   UNL     1      43.083 -31.365  10.155  1.00  0.00     0.204 C 
ATOM      6  C   UNL     1      43.957 -32.183  11.076  1.00  0.00    -0.015 C 
ATOM      7  O   UNL     1      43.251 -30.031  10.646  1.00  0.00    -0.454 OA
ATOM      8  C   UNL     1      44.526 -31.412  11.987  1.00  0.00     0.062 C 
ATOM      9  C   UNL     1      44.084 -33.682  11.123  1.00  0.00     0.040 C 
ATOM     10  C   UNL     1      44.103 -30.057  11.737  1.00  0.00     0.338 C 
ATOM     11  C   UNL     1      45.376 -31.942  13.059  1.00  0.00     0.011 C 
ATOM     12  C   UNL     1      45.394 -34.105  11.829  1.00  0.00     0.032 C 
ATOM     13  O   UNL     1      44.438 -29.041  12.401  1.00  0.00    -0.246 OA
ATOM     14  C   UNL     1      45.725 -33.235  13.026  1.00  0.00    -0.026 C 
ENDBRANCH   4   5
ENDBRANCH   1   4
TORSDOF 3
ENDMDL
MODEL 7
REMARK VINA RESULT:    -3.549     20.981     22.467
REMARK INTER + INTRA:          -4.534
REMARK INTER:                  -4.104
REMARK INTRA:                  -0.430
REMARK UNBOUND:                -0.363
REMARK SMILES CCCC[C@H]1OC(=O)C2=C1CCC=C2
REMARK SMILES IDX 3 1 2 2 1 3 4 4 5 5 10 6 6 7 9 8 11 9 7 10 14 11 12 12 8 13
REMARK SMILES IDX 13 14
REMARK H PARENT
REMARK Flexibility Score: inf
ROOT
ATOM      1  C   UNL     1      40.448 -30.328  10.751  1.00  0.00     0.004 C 
ENDROOT
BRANCH   1   2
ATOM      2  C   UNL     1      39.699 -31.653  10.564  1.00  0.00    -0.003 C 
ATOM      3  C   UNL     1      39.323 -32.268  11.909  1.00  0.00     0.004 C 
ENDBRANCH   1   2
BRANCH   1   4
ATOM      4  C   UNL     1      41.788 -30.552  11.472  1.00  0.00     0.050 C 
BRANCH   4   5
ATOM      5  C   UNL     1      42.734 -31.503  10.718  1.00  0.00     0.204 C 
ATOM      6  C   UNL     1      43.473 -32.452  11.631  1.00  0.00    -0.015 C 
ATOM      7  O   UNL     1      43.789 -30.778  10.078  1.00  0.00    -0.454 OA
ATOM      8  C   UNL     1      44.779 -32.269  11.537  1.00  0.00     0.062 C 
ATOM      9  C   UNL     1      42.881 -33.384  12.654  1.00  0.00     0.040 C 
ATOM     10  C   UNL     1      45.005 -31.228  10.567  1.00  0.00     0.338 C 
ATOM     11  C   UNL     1      45.746 -33.004  12.361  1.00  0.00     0.011 C 
ATOM     12  C   UNL     1      43.878 -34.507  13.024  1.00  0.00     0.032 C 
ATOM     13  O   UNL     1      46.125 -30.776  10.210  1.00  0.00    -0.246 OA
ATOM     14  C   UNL     1      45.309 -34.015  13.123  1.00  0.00    -0.026 C 
ENDBRANCH   4   5
ENDBRANCH   1   4
TORSDOF 3
ENDMDL
MODEL 8
REMARK VINA RESULT:    -3.534      2.025      4.287
REMARK INTER + INTRA:          -4.517
REMARK INTER:                  -4.211
REMARK INTRA:                  -0.307
REMARK UNBOUND:                -0.363
REMARK SMILES CCCC[C@H]1OC(=O)C2=C1CCC=C2
REMARK SMILES IDX 3 1 2 2 1 3 4 4 5 5 10 6 6 7 9 8 11 9 7 10 14 11 12 12 8 13
REMARK SMILES IDX 13 14
REMARK H PARENT
REMARK Flexibility Score: inf
ROOT
ATOM      1  C   UNL     1      26.550 -42.985   0.742  1.00  0.00     0.004 C 
ENDROOT
BRANCH   1   2
ATOM      2  C   UNL     1      25.875 -42.624   2.070  1.00  0.00    -0.003 C 
ATOM      3  C   UNL     1      25.912 -43.797   3.044  1.00  0.00     0.004 C 
ENDBRANCH   1   2
BRANCH   1   4
ATOM      4  C   UNL     1      26.161 -41.988  -0.362  1.00  0.00     0.050 C 
BRANCH   4   5
ATOM      5  C   UNL     1      27.306 -41.040  -0.759  1.00  0.00     0.204 C 
ATOM      6  C   UNL     1      27.021 -39.593  -0.428  1.00  0.00    -0.015 C 
ATOM      7  O   UNL     1      27.489 -41.019  -2.178  1.00  0.00    -0.454 OA
ATOM      8  C   UNL     1      27.019 -38.855  -1.525  1.00  0.00     0.062 C 
ATOM      9  C   UNL     1      26.622 -39.023   0.906  1.00  0.00     0.040 C 
ATOM     10  C   UNL     1      27.314 -39.724  -2.636  1.00  0.00     0.338 C 
ATOM     11  C   UNL     1      26.703 -37.422  -1.517  1.00  0.00     0.011 C 
ATOM     12  C   UNL     1      26.895 -37.501   0.962  1.00  0.00     0.032 C 
ATOM     13  O   UNL     1      27.395 -39.380  -3.845  1.00  0.00    -0.246 OA
ATOM     14  C   UNL     1      26.569 -36.797  -0.341  1.00  0.00    -0.026 C 
ENDBRANCH   4   5
ENDBRANCH   1   4
TORSDOF 3
ENDMDL
MODEL 9
REMARK VINA RESULT:    -3.394     19.941     21.445
REMARK INTER + INTRA:          -4.353
REMARK INTER:                  -3.975
REMARK INTRA:                  -0.379
REMARK UNBOUND:                -0.363
REMARK SMILES CCCC[C@H]1OC(=O)C2=C1CCC=C2
REMARK SMILES IDX 3 1 2 2 1 3 4 4 5 5 10 6 6 7 9 8 11 9 7 10 14 11 12 12 8 13
REMARK SMILES IDX 13 14
REMARK H PARENT
REMARK Flexibility Score: inf
ROOT
ATOM      1  C   UNL     1      39.238 -32.166  11.627  1.00  0.00     0.004 C 
ENDROOT
BRANCH   1   2
ATOM      2  C   UNL     1      38.375 -30.953  11.257  1.00  0.00    -0.003 C 
ATOM      3  C   UNL     1      38.472 -30.642   9.766  1.00  0.00     0.004 C 
ENDBRANCH   1   2
BRANCH   1   4
ATOM      4  C   UNL     1      40.484 -32.248  10.729  1.00  0.00     0.050 C 
BRANCH   4   5
ATOM      5  C   UNL     1      41.776 -31.806  11.438  1.00  0.00     0.204 C 
ATOM      6  C   UNL     1      42.694 -30.998  10.551  1.00  0.00    -0.015 C 
ATOM      7  O   UNL     1      42.578 -32.936  11.795  1.00  0.00    -0.454 OA
ATOM      8  C   UNL     1      43.858 -31.608  10.405  1.00  0.00     0.062 C 
ATOM      9  C   UNL     1      42.352 -29.757   9.771  1.00  0.00     0.040 C 
ATOM     10  C   UNL     1      43.814 -32.823  11.179  1.00  0.00     0.338 C 
ATOM     11  C   UNL     1      44.924 -31.089   9.541  1.00  0.00     0.011 C 
ATOM     12  C   UNL     1      43.630 -28.970   9.396  1.00  0.00     0.032 C 
ATOM     13  O   UNL     1      44.741 -33.669  11.285  1.00  0.00    -0.246 OA
ATOM     14  C   UNL     1      44.783 -29.872   9.001  1.00  0.00    -0.026 C 
ENDBRANCH   4   5
ENDBRANCH   1   4
TORSDOF 3
ENDMDL
