MODEL 1
REMARK VINA RESULT:    -2.534      0.000      0.000
REMARK INTER + INTRA:          -2.756
REMARK INTER:                  -2.756
REMARK INTRA:                   0.000
REMARK UNBOUND:                 0.000
REMARK SMILES [NH3+]CC(=O)[O-]
REMARK SMILES IDX 2 1 1 2 3 6 4 7 5 8
REMARK H PARENT 1 3 1 4 1 5
REMARK Flexibility Score: inf
ROOT
ATOM      1  C   UNL     1      -1.107  13.449  -9.359  1.00  0.00     0.312 C 
ENDROOT
BRANCH   1   2
ATOM      2  N   UNL     1      -1.899  12.837 -10.424  1.00  0.00    -0.353 N 
ATOM      3  H   UNL     1      -1.470  11.927 -10.713  1.00  0.00     0.344 HD
ATOM      4  H   UNL     1      -2.867  12.658 -10.070  1.00  0.00     0.344 HD
ATOM      5  H   UNL     1      -1.952  13.481 -11.247  1.00  0.00     0.344 HD
ENDBRANCH   1   2
BRANCH   1   6
ATOM      6  C   UNL     1      -0.039  12.510  -8.889  1.00  0.00     0.096 C 
ATOM      7  O   UNL     1      -0.348  11.385  -8.416  1.00  0.00    -0.544 OA
ATOM      8  O   UNL     1       1.294  12.900  -8.926  1.00  0.00    -0.544 OA
ENDBRANCH   1   6
TORSDOF 2
ENDMDL
MODEL 2
REMARK VINA RESULT:    -2.532      0.094      1.451
REMARK INTER + INTRA:          -2.754
REMARK INTER:                  -2.754
REMARK INTRA:                   0.000
REMARK UNBOUND:                 0.000
REMARK SMILES [NH3+]CC(=O)[O-]
REMARK SMILES IDX 2 1 1 2 3 6 4 7 5 8
REMARK H PARENT 1 3 1 4 1 5
REMARK Flexibility Score: inf
ROOT
ATOM      1  C   UNL     1      -1.023  13.540  -9.437  1.00  0.00     0.312 C 
ENDROOT
BRANCH   1   2
ATOM      2  N   UNL     1      -1.881  12.844 -10.393  1.00  0.00    -0.353 N 
ATOM      3  H   UNL     1      -1.779  11.808 -10.280  1.00  0.00     0.344 HD
ATOM      4  H   UNL     1      -2.877  13.107 -10.213  1.00  0.00     0.344 HD
ATOM      5  H   UNL     1      -1.629  13.121 -11.370  1.00  0.00     0.344 HD
ENDBRANCH   1   2
BRANCH   1   6
ATOM      6  C   UNL     1       0.016  12.613  -8.886  1.00  0.00     0.096 C 
ATOM      7  O   UNL     1       1.229  12.947  -8.890  1.00  0.00    -0.544 OA
ATOM      8  O   UNL     1      -0.352  11.359  -8.415  1.00  0.00    -0.544 OA
ENDBRANCH   1   6
TORSDOF 2
ENDMDL
MODEL 3
REMARK VINA RESULT:    -2.415      3.610      3.929
REMARK INTER + INTRA:          -2.627
REMARK INTER:                  -2.627
REMARK INTRA:                   0.000
REMARK UNBOUND:                 0.000
REMARK SMILES [NH3+]CC(=O)[O-]
REMARK SMILES IDX 2 1 1 2 3 6 4 7 5 8
REMARK H PARENT 1 3 1 4 1 5
REMARK Flexibility Score: inf
ROOT
ATOM      1  C   UNL     1       3.453  14.812  -9.627  1.00  0.00     0.312 C 
ENDROOT
BRANCH   1   2
ATOM      2  N   UNL     1       2.195  15.551  -9.692  1.00  0.00    -0.353 N 
ATOM      3  H   UNL     1       1.389  14.886  -9.740  1.00  0.00     0.344 HD
ATOM      4  H   UNL     1       2.098  16.138  -8.831  1.00  0.00     0.344 HD
ATOM      5  H   UNL     1       2.189  16.176 -10.531  1.00  0.00     0.344 HD
ENDBRANCH   1   2
BRANCH   1   6
ATOM      6  C   UNL     1       3.242  13.462  -9.012  1.00  0.00     0.096 C 
ATOM      7  O   UNL     1       2.150  12.858  -9.174  1.00  0.00    -0.544 OA
ATOM      8  O   UNL     1       4.233  12.897  -8.220  1.00  0.00    -0.544 OA
ENDBRANCH   1   6
TORSDOF 2
ENDMDL
MODEL 4
REMARK VINA RESULT:    -2.396      3.396      3.613
REMARK INTER + INTRA:          -2.606
REMARK INTER:                  -2.606
REMARK INTRA:                   0.000
REMARK UNBOUND:                 0.000
REMARK SMILES [NH3+]CC(=O)[O-]
REMARK SMILES IDX 2 1 1 2 3 6 4 7 5 8
REMARK H PARENT 1 3 1 4 1 5
REMARK Flexibility Score: inf
ROOT
ATOM      1  C   UNL     1       1.994  13.897  -8.562  1.00  0.00     0.312 C 
ENDROOT
BRANCH   1   2
ATOM      2  N   UNL     1       1.023  12.969  -9.138  1.00  0.00    -0.353 N 
ATOM      3  H   UNL     1       1.403  11.994  -9.121  1.00  0.00     0.344 HD
ATOM      4  H   UNL     1       0.144  12.998  -8.571  1.00  0.00     0.344 HD
ATOM      5  H   UNL     1       0.801  13.246 -10.122  1.00  0.00     0.344 HD
ENDBRANCH   1   2
BRANCH   1   6
ATOM      6  C   UNL     1       3.383  13.544  -8.996  1.00  0.00     0.096 C 
ATOM      7  O   UNL     1       4.132  12.873  -8.237  1.00  0.00    -0.544 OA
ATOM      8  O   UNL     1       3.868  13.999 -10.215  1.00  0.00    -0.544 OA
ENDBRANCH   1   6
TORSDOF 2
ENDMDL
MODEL 5
REMARK VINA RESULT:    -2.301     11.363     11.734
REMARK INTER + INTRA:          -2.503
REMARK INTER:                  -2.503
REMARK INTRA:                   0.000
REMARK UNBOUND:                 0.000
REMARK SMILES [NH3+]CC(=O)[O-]
REMARK SMILES IDX 2 1 1 2 3 6 4 7 5 8
REMARK H PARENT 1 3 1 4 1 5
REMARK Flexibility Score: inf
ROOT
ATOM      1  C   UNL     1       9.798   6.887 -11.288  1.00  0.00     0.312 C 
ENDROOT
BRANCH   1   2
ATOM      2  N   UNL     1      10.893   7.656 -11.874  1.00  0.00    -0.353 N 
ATOM      3  H   UNL     1      10.878   8.637 -11.511  1.00  0.00     0.344 HD
ATOM      4  H   UNL     1      11.802   7.212 -11.611  1.00  0.00     0.344 HD
ATOM      5  H   UNL     1      10.809   7.664 -12.917  1.00  0.00     0.344 HD
ENDBRANCH   1   2
BRANCH   1   6
ATOM      6  C   UNL     1       8.654   6.780 -12.249  1.00  0.00     0.096 C 
ATOM      7  O   UNL     1       8.499   5.736 -12.935  1.00  0.00    -0.544 OA
ATOM      8  O   UNL     1       7.790   7.854 -12.423  1.00  0.00    -0.544 OA
ENDBRANCH   1   6
TORSDOF 2
ENDMDL
MODEL 6
REMARK VINA RESULT:    -2.285      8.408      8.805
REMARK INTER + INTRA:          -2.485
REMARK INTER:                  -2.485
REMARK INTRA:                   0.000
REMARK UNBOUND:                 0.000
REMARK SMILES [NH3+]CC(=O)[O-]
REMARK SMILES IDX 2 1 1 2 3 6 4 7 5 8
REMARK H PARENT 1 3 1 4 1 5
REMARK Flexibility Score: inf
ROOT
ATOM      1  C   UNL     1       0.991   4.085 -10.156  1.00  0.00     0.312 C 
ENDROOT
BRANCH   1   2
ATOM      2  N   UNL     1       0.303   4.426 -11.400  1.00  0.00    -0.353 N 
ATOM      3  H   UNL     1      -0.721   4.553 -11.221  1.00  0.00     0.344 HD
ATOM      4  H   UNL     1       0.695   5.321 -11.773  1.00  0.00     0.344 HD
ATOM      5  H   UNL     1       0.448   3.671 -12.109  1.00  0.00     0.344 HD
ENDBRANCH   1   2
BRANCH   1   6
ATOM      6  C   UNL     1       2.453   4.393 -10.260  1.00  0.00     0.096 C 
ATOM      7  O   UNL     1       2.865   5.571 -10.095  1.00  0.00    -0.544 OA
ATOM      8  O   UNL     1       3.353   3.387 -10.589  1.00  0.00    -0.544 OA
ENDBRANCH   1   6
TORSDOF 2
ENDMDL
MODEL 7
REMARK VINA RESULT:    -2.237      1.494      1.494
REMARK INTER + INTRA:          -2.433
REMARK INTER:                  -2.433
REMARK INTRA:                   0.000
REMARK UNBOUND:                 0.000
REMARK SMILES [NH3+]CC(=O)[O-]
REMARK SMILES IDX 2 1 1 2 3 6 4 7 5 8
REMARK H PARENT 1 3 1 4 1 5
REMARK Flexibility Score: inf
ROOT
ATOM      1  C   UNL     1      -0.658  13.832  -8.464  1.00  0.00     0.312 C 
ENDROOT
BRANCH   1   2
ATOM      2  N   UNL     1      -0.072  15.007  -9.104  1.00  0.00    -0.353 N 
ATOM      3  H   UNL     1      -0.827  15.620  -9.491  1.00  0.00     0.344 HD
ATOM      4  H   UNL     1       0.472  15.549  -8.393  1.00  0.00     0.344 HD
ATOM      5  H   UNL     1       0.574  14.713  -9.873  1.00  0.00     0.344 HD
ENDBRANCH   1   2
BRANCH   1   6
ATOM      6  C   UNL     1       0.203  12.626  -8.684  1.00  0.00     0.096 C 
ATOM      7  O   UNL     1      -0.272  11.472  -8.519  1.00  0.00    -0.544 OA
ATOM      8  O   UNL     1       1.541  12.780  -9.022  1.00  0.00    -0.544 OA
ENDBRANCH   1   6
TORSDOF 2
ENDMDL
MODEL 8
REMARK VINA RESULT:    -2.159      5.114      5.408
REMARK INTER + INTRA:          -2.348
REMARK INTER:                  -2.348
REMARK INTRA:                   0.000
REMARK UNBOUND:                 0.000
REMARK SMILES [NH3+]CC(=O)[O-]
REMARK SMILES IDX 2 1 1 2 3 6 4 7 5 8
REMARK H PARENT 1 3 1 4 1 5
REMARK Flexibility Score: inf
ROOT
ATOM      1  C   UNL     1       2.942  14.661  -9.195  1.00  0.00     0.312 C 
ENDROOT
BRANCH   1   2
ATOM      2  N   UNL     1       3.834  13.540  -8.908  1.00  0.00    -0.353 N 
ATOM      3  H   UNL     1       3.481  13.001  -8.083  1.00  0.00     0.344 HD
ATOM      4  H   UNL     1       3.863  12.905  -9.739  1.00  0.00     0.344 HD
ATOM      5  H   UNL     1       4.801  13.891  -8.715  1.00  0.00     0.344 HD
ENDBRANCH   1   2
BRANCH   1   6
ATOM      6  C   UNL     1       3.635  15.686 -10.038  1.00  0.00     0.096 C 
ATOM      7  O   UNL     1       3.709  16.880  -9.648  1.00  0.00    -0.544 OA
ATOM      8  O   UNL     1       4.155  15.331 -11.276  1.00  0.00    -0.544 OA
ENDBRANCH   1   6
TORSDOF 2
ENDMDL
MODEL 9
REMARK VINA RESULT:    -2.135     12.911     13.279
REMARK INTER + INTRA:          -2.322
REMARK INTER:                  -2.322
REMARK INTRA:                   0.000
REMARK UNBOUND:                 0.000
REMARK SMILES [NH3+]CC(=O)[O-]
REMARK SMILES IDX 2 1 1 2 3 6 4 7 5 8
REMARK H PARENT 1 3 1 4 1 5
REMARK Flexibility Score: inf
ROOT
ATOM      1  C   UNL     1      12.088  13.924 -15.063  1.00  0.00     0.312 C 
ENDROOT
BRANCH   1   2
ATOM      2  N   UNL     1      10.862  14.659 -15.366  1.00  0.00    -0.353 N 
ATOM      3  H   UNL     1      11.090  15.648 -15.623  1.00  0.00     0.344 HD
ATOM      4  H   UNL     1      10.380  14.202 -16.174  1.00  0.00     0.344 HD
ATOM      5  H   UNL     1      10.222  14.647 -14.538  1.00  0.00     0.344 HD
ENDBRANCH   1   2
BRANCH   1   6
ATOM      6  C   UNL     1      12.020  13.325 -13.692  1.00  0.00     0.096 C 
ATOM      7  O   UNL     1      12.663  13.843 -12.742  1.00  0.00    -0.544 OA
ATOM      8  O   UNL     1      11.286  12.165 -13.476  1.00  0.00    -0.544 OA
ENDBRANCH   1   6
TORSDOF 2
ENDMDL
