MODEL 1
REMARK VINA RESULT:    -4.866      0.000      0.000
REMARK INTER + INTRA:          -6.649
REMARK INTER:                  -6.289
REMARK INTRA:                  -0.360
REMARK UNBOUND:                -0.360
REMARK SMILES CCO[C@@H]1O[C@@H](CO)[C@@H](O)[C@H](O)[C@@H]1O
REMARK SMILES IDX 4 1 13 2 11 3 9 4 6 5 5 6 3 7 2 8 1 9 14 10 12 12 7 14 8 15
REMARK SMILES IDX 10 17
REMARK H PARENT 14 11 12 13 8 16 10 18
REMARK Flexibility Score: inf
ROOT
ATOM      1  C   UNL     1     -22.209 -27.016  16.652  1.00  0.00     0.281 C 
ATOM      2  C   UNL     1     -21.956 -27.137  18.175  1.00  0.00     0.202 C 
ATOM      3  C   UNL     1     -22.544 -28.446  18.736  1.00  0.00     0.179 C 
ATOM      4  C   UNL     1     -22.078 -29.637  17.881  1.00  0.00     0.177 C 
ATOM      5  C   UNL     1     -22.373 -29.348  16.390  1.00  0.00     0.178 C 
ATOM      6  O   UNL     1     -21.725 -28.160  15.963  1.00  0.00    -0.341 OA
ENDROOT
BRANCH   1   7
ATOM      7  O   UNL     1     -23.595 -26.830  16.384  1.00  0.00    -0.350 OA
BRANCH   7   8
ATOM      8  C   UNL     1     -23.850 -25.615  15.705  1.00  0.00     0.160 C 
ATOM      9  C   UNL     1     -25.261 -25.117  16.004  1.00  0.00     0.035 C 
ENDBRANCH   7   8
ENDBRANCH   1   7
BRANCH   2  10
ATOM     10  O   UNL     1     -22.502 -26.037  18.856  1.00  0.00    -0.385 OA
ATOM     11  H   UNL     1     -22.505 -25.277  18.217  1.00  0.00     0.211 HD
ENDBRANCH   2  10
BRANCH   3  12
ATOM     12  O   UNL     1     -23.950 -28.399  18.742  1.00  0.00    -0.387 OA
ATOM     13  H   UNL     1     -24.236 -28.120  17.835  1.00  0.00     0.211 HD
ENDBRANCH   3  12
BRANCH   5  14
ATOM     14  C   UNL     1     -21.940 -30.512  15.488  1.00  0.00     0.191 C 
BRANCH  14  15
ATOM     15  O   UNL     1     -22.187 -31.743  16.111  1.00  0.00    -0.394 OA
ATOM     16  H   UNL     1     -23.124 -31.705  16.434  1.00  0.00     0.210 HD
ENDBRANCH  14  15
ENDBRANCH   5  14
BRANCH   4  17
ATOM     17  O   UNL     1     -20.700 -29.848  18.069  1.00  0.00    -0.387 OA
ATOM     18  H   UNL     1     -20.610 -30.642  18.657  1.00  0.00     0.211 HD
ENDBRANCH   4  17
TORSDOF 7
ENDMDL
MODEL 2
REMARK VINA RESULT:    -4.847     14.576     16.036
REMARK INTER + INTRA:          -6.623
REMARK INTER:                  -6.232
REMARK INTRA:                  -0.391
REMARK UNBOUND:                -0.360
REMARK SMILES CCO[C@@H]1O[C@@H](CO)[C@@H](O)[C@H](O)[C@@H]1O
REMARK SMILES IDX 4 1 13 2 11 3 9 4 6 5 5 6 3 7 2 8 1 9 14 10 12 12 7 14 8 15
REMARK SMILES IDX 10 17
REMARK H PARENT 14 11 12 13 8 16 10 18
REMARK Flexibility Score: inf
ROOT
ATOM      1  C   UNL     1     -21.225 -27.377   2.045  1.00  0.00     0.281 C 
ATOM      2  C   UNL     1     -21.206 -27.246   0.503  1.00  0.00     0.202 C 
ATOM      3  C   UNL     1     -20.079 -26.304   0.036  1.00  0.00     0.179 C 
ATOM      4  C   UNL     1     -18.750 -26.715   0.691  1.00  0.00     0.177 C 
ATOM      5  C   UNL     1     -18.943 -26.831   2.221  1.00  0.00     0.178 C 
ATOM      6  O   UNL     1     -19.954 -27.776   2.538  1.00  0.00    -0.341 OA
ENDROOT
BRANCH   1   7
ATOM      7  O   UNL     1     -21.624 -26.151   2.651  1.00  0.00    -0.350 OA
BRANCH   7   8
ATOM      8  C   UNL     1     -22.812 -26.291   3.407  1.00  0.00     0.160 C 
ATOM      9  C   UNL     1     -23.191 -27.762   3.548  1.00  0.00     0.035 C 
ENDBRANCH   7   8
ENDBRANCH   1   7
BRANCH   2  10
ATOM     10  O   UNL     1     -22.444 -26.781   0.031  1.00  0.00    -0.385 OA
ATOM     11  H   UNL     1     -22.396 -26.796  -0.961  1.00  0.00     0.211 HD
ENDBRANCH   2  10
BRANCH   3  12
ATOM     12  O   UNL     1     -20.372 -24.971   0.373  1.00  0.00    -0.387 OA
ATOM     13  H   UNL     1     -20.209 -24.874   1.346  1.00  0.00     0.211 HD
ENDBRANCH   3  12
BRANCH   5  14
ATOM     14  C   UNL     1     -17.641 -27.226   2.932  1.00  0.00     0.191 C 
BRANCH  14  15
ATOM     15  O   UNL     1     -16.530 -26.696   2.264  1.00  0.00    -0.394 OA
ATOM     16  H   UNL     1     -16.838 -26.480   1.346  1.00  0.00     0.210 HD
ENDBRANCH  14  15
ENDBRANCH   5  14
BRANCH   4  17
ATOM     17  O   UNL     1     -18.320 -27.947   0.164  1.00  0.00    -0.387 OA
ATOM     18  H   UNL     1     -19.070 -28.304  -0.379  1.00  0.00     0.211 HD
ENDBRANCH   4  17
TORSDOF 7
ENDMDL
MODEL 3
REMARK VINA RESULT:    -4.630     14.987     16.733
REMARK INTER + INTRA:          -6.343
REMARK INTER:                  -5.903
REMARK INTRA:                  -0.440
REMARK UNBOUND:                -0.360
REMARK SMILES CCO[C@@H]1O[C@@H](CO)[C@@H](O)[C@H](O)[C@@H]1O
REMARK SMILES IDX 4 1 13 2 11 3 9 4 6 5 5 6 3 7 2 8 1 9 14 10 12 12 7 14 8 15
REMARK SMILES IDX 10 17
REMARK H PARENT 14 11 12 13 8 16 10 18
REMARK Flexibility Score: inf
ROOT
ATOM      1  C   UNL     1     -20.888 -26.629   1.843  1.00  0.00     0.281 C 
ATOM      2  C   UNL     1     -19.988 -26.285   0.631  1.00  0.00     0.202 C 
ATOM      3  C   UNL     1     -20.827 -25.813  -0.571  1.00  0.00     0.179 C 
ATOM      4  C   UNL     1     -21.804 -24.711  -0.126  1.00  0.00     0.177 C 
ATOM      5  C   UNL     1     -22.603 -25.197   1.106  1.00  0.00     0.178 C 
ATOM      6  O   UNL     1     -21.734 -25.538   2.176  1.00  0.00    -0.341 OA
ENDROOT
BRANCH   1   7
ATOM      7  O   UNL     1     -21.666 -27.792   1.580  1.00  0.00    -0.350 OA
BRANCH   7   8
ATOM      8  C   UNL     1     -21.754 -28.643   2.706  1.00  0.00     0.160 C 
ATOM      9  C   UNL     1     -23.190 -28.712   3.219  1.00  0.00     0.035 C 
ENDBRANCH   7   8
ENDBRANCH   1   7
BRANCH   2  10
ATOM     10  O   UNL     1     -19.207 -27.394   0.264  1.00  0.00    -0.385 OA
ATOM     11  H   UNL     1     -19.200 -27.422  -0.728  1.00  0.00     0.211 HD
ENDBRANCH   2  10
BRANCH   3  12
ATOM     12  O   UNL     1     -21.552 -26.884  -1.124  1.00  0.00    -0.387 OA
ATOM     13  H   UNL     1     -21.230 -27.003  -2.055  1.00  0.00     0.211 HD
ENDBRANCH   3  12
BRANCH   5  14
ATOM     14  C   UNL     1     -23.607 -24.140   1.587  1.00  0.00     0.191 C 
BRANCH  14  15
ATOM     15  O   UNL     1     -22.969 -23.169   2.369  1.00  0.00    -0.394 OA
ATOM     16  H   UNL     1     -21.995 -23.326   2.263  1.00  0.00     0.210 HD
ENDBRANCH  14  15
ENDBRANCH   5  14
BRANCH   4  17
ATOM     17  O   UNL     1     -21.090 -23.541   0.191  1.00  0.00    -0.387 OA
ATOM     18  H   UNL     1     -20.166 -23.669  -0.148  1.00  0.00     0.211 HD
ENDBRANCH   4  17
TORSDOF 7
ENDMDL
MODEL 4
REMARK VINA RESULT:    -4.613     14.929     16.236
REMARK INTER + INTRA:          -6.321
REMARK INTER:                  -5.912
REMARK INTRA:                  -0.409
REMARK UNBOUND:                -0.360
REMARK SMILES CCO[C@@H]1O[C@@H](CO)[C@@H](O)[C@H](O)[C@@H]1O
REMARK SMILES IDX 4 1 13 2 11 3 9 4 6 5 5 6 3 7 2 8 1 9 14 10 12 12 7 14 8 15
REMARK SMILES IDX 10 17
REMARK H PARENT 14 11 12 13 8 16 10 18
REMARK Flexibility Score: inf
ROOT
ATOM      1  C   UNL     1     -20.517 -25.929   1.071  1.00  0.00     0.281 C 
ATOM      2  C   UNL     1     -21.321 -26.653   2.178  1.00  0.00     0.202 C 
ATOM      3  C   UNL     1     -21.147 -28.181   2.086  1.00  0.00     0.179 C 
ATOM      4  C   UNL     1     -19.652 -28.532   2.005  1.00  0.00     0.177 C 
ATOM      5  C   UNL     1     -18.989 -27.708   0.876  1.00  0.00     0.178 C 
ATOM      6  O   UNL     1     -19.150 -26.315   1.099  1.00  0.00    -0.341 OA
ENDROOT
BRANCH   1   7
ATOM      7  O   UNL     1     -21.075 -26.192  -0.213  1.00  0.00    -0.350 OA
BRANCH   7   8
ATOM      8  C   UNL     1     -21.351 -25.004  -0.929  1.00  0.00     0.160 C 
ATOM      9  C   UNL     1     -21.503 -23.822   0.025  1.00  0.00     0.035 C 
ENDBRANCH   7   8
ENDBRANCH   1   7
BRANCH   2  10
ATOM     10  O   UNL     1     -22.684 -26.321   2.096  1.00  0.00    -0.385 OA
ATOM     11  H   UNL     1     -22.730 -25.372   1.806  1.00  0.00     0.211 HD
ENDBRANCH   2  10
BRANCH   3  12
ATOM     12  O   UNL     1     -21.808 -28.691   0.955  1.00  0.00    -0.387 OA
ATOM     13  H   UNL     1     -22.730 -28.325   0.967  1.00  0.00     0.211 HD
ENDBRANCH   3  12
BRANCH   5  14
ATOM     14  C   UNL     1     -17.494 -28.028   0.738  1.00  0.00     0.191 C 
BRANCH  14  15
ATOM     15  O   UNL     1     -16.753 -27.374   1.731  1.00  0.00    -0.394 OA
ATOM     16  H   UNL     1     -16.573 -28.053   2.432  1.00  0.00     0.210 HD
ENDBRANCH  14  15
ENDBRANCH   5  14
BRANCH   4  17
ATOM     17  O   UNL     1     -19.029 -28.254   3.235  1.00  0.00    -0.387 OA
ATOM     18  H   UNL     1     -18.399 -27.504   3.075  1.00  0.00     0.211 HD
ENDBRANCH   4  17
TORSDOF 7
ENDMDL
MODEL 5
REMARK VINA RESULT:    -4.604      1.395      4.264
REMARK INTER + INTRA:          -6.310
REMARK INTER:                  -5.838
REMARK INTRA:                  -0.472
REMARK UNBOUND:                -0.360
REMARK SMILES CCO[C@@H]1O[C@@H](CO)[C@@H](O)[C@H](O)[C@@H]1O
REMARK SMILES IDX 4 1 13 2 11 3 9 4 6 5 5 6 3 7 2 8 1 9 14 10 12 12 7 14 8 15
REMARK SMILES IDX 10 17
REMARK H PARENT 14 11 12 13 8 16 10 18
REMARK Flexibility Score: inf
ROOT
ATOM      1  C   UNL     1     -21.970 -29.301  15.444  1.00  0.00     0.281 C 
ATOM      2  C   UNL     1     -22.283 -30.390  16.498  1.00  0.00     0.202 C 
ATOM      3  C   UNL     1     -21.732 -30.001  17.883  1.00  0.00     0.179 C 
ATOM      4  C   UNL     1     -22.176 -28.573  18.241  1.00  0.00     0.177 C 
ATOM      5  C   UNL     1     -21.819 -27.616  17.078  1.00  0.00     0.178 C 
ATOM      6  O   UNL     1     -22.438 -28.029  15.869  1.00  0.00    -0.341 OA
ENDROOT
BRANCH   1   7
ATOM      7  O   UNL     1     -20.572 -29.246  15.175  1.00  0.00    -0.350 OA
BRANCH   7   8
ATOM      8  C   UNL     1     -20.299 -29.016  13.806  1.00  0.00     0.160 C 
ATOM      9  C   UNL     1     -21.020 -30.040  12.934  1.00  0.00     0.035 C 
ENDBRANCH   7   8
ENDBRANCH   1   7
BRANCH   2  10
ATOM     10  O   UNL     1     -21.753 -31.629  16.103  1.00  0.00    -0.385 OA
ATOM     11  H   UNL     1     -20.784 -31.607  16.318  1.00  0.00     0.211 HD
ENDBRANCH   2  10
BRANCH   3  12
ATOM     12  O   UNL     1     -20.327 -30.070  17.898  1.00  0.00    -0.387 OA
ATOM     13  H   UNL     1     -20.079 -31.006  17.680  1.00  0.00     0.211 HD
ENDBRANCH   3  12
BRANCH   5  14
ATOM     14  C   UNL     1     -22.228 -26.168  17.386  1.00  0.00     0.191 C 
BRANCH  14  15
ATOM     15  O   UNL     1     -22.357 -25.971  18.767  1.00  0.00    -0.394 OA
ATOM     16  H   UNL     1     -21.450 -25.742  19.098  1.00  0.00     0.210 HD
ENDBRANCH  14  15
ENDBRANCH   5  14
BRANCH   4  17
ATOM     17  O   UNL     1     -23.562 -28.550  18.477  1.00  0.00    -0.387 OA
ATOM     18  H   UNL     1     -23.924 -27.766  17.987  1.00  0.00     0.211 HD
ENDBRANCH   4  17
TORSDOF 7
ENDMDL
MODEL 6
REMARK VINA RESULT:    -4.483      1.784      4.085
REMARK INTER + INTRA:          -6.153
REMARK INTER:                  -5.927
REMARK INTRA:                  -0.226
REMARK UNBOUND:                -0.360
REMARK SMILES CCO[C@@H]1O[C@@H](CO)[C@@H](O)[C@H](O)[C@@H]1O
REMARK SMILES IDX 4 1 13 2 11 3 9 4 6 5 5 6 3 7 2 8 1 9 14 10 12 12 7 14 8 15
REMARK SMILES IDX 10 17
REMARK H PARENT 14 11 12 13 8 16 10 18
REMARK Flexibility Score: inf
ROOT
ATOM      1  C   UNL     1     -22.269 -27.684  16.319  1.00  0.00     0.281 C 
ATOM      2  C   UNL     1     -22.788 -28.300  17.641  1.00  0.00     0.202 C 
ATOM      3  C   UNL     1     -23.248 -27.206  18.624  1.00  0.00     0.179 C 
ATOM      4  C   UNL     1     -24.205 -26.234  17.914  1.00  0.00     0.177 C 
ATOM      5  C   UNL     1     -23.554 -25.735  16.602  1.00  0.00     0.178 C 
ATOM      6  O   UNL     1     -23.238 -26.820  15.744  1.00  0.00    -0.341 OA
ENDROOT
BRANCH   1   7
ATOM      7  O   UNL     1     -21.049 -26.981  16.535  1.00  0.00    -0.350 OA
BRANCH   7   8
ATOM      8  C   UNL     1     -20.288 -26.855  15.349  1.00  0.00     0.160 C 
ATOM      9  C   UNL     1     -20.054 -25.385  15.013  1.00  0.00     0.035 C 
ENDBRANCH   7   8
ENDBRANCH   1   7
BRANCH   2  10
ATOM     10  O   UNL     1     -21.797 -29.095  18.240  1.00  0.00    -0.385 OA
ATOM     11  H   UNL     1     -20.965 -28.957  17.717  1.00  0.00     0.211 HD
ENDBRANCH   2  10
BRANCH   3  12
ATOM     12  O   UNL     1     -22.145 -26.491  19.125  1.00  0.00    -0.387 OA
ATOM     13  H   UNL     1     -21.699 -26.063  18.349  1.00  0.00     0.211 HD
ENDBRANCH   3  12
BRANCH   5  14
ATOM     14  C   UNL     1     -24.462 -24.748  15.855  1.00  0.00     0.191 C 
BRANCH  14  15
ATOM     15  O   UNL     1     -24.075 -24.634  14.513  1.00  0.00    -0.394 OA
ATOM     16  H   UNL     1     -24.908 -24.708  13.980  1.00  0.00     0.210 HD
ENDBRANCH  14  15
ENDBRANCH   5  14
BRANCH   4  17
ATOM     17  O   UNL     1     -25.421 -26.884  17.632  1.00  0.00    -0.387 OA
ATOM     18  H   UNL     1     -25.191 -27.791  17.300  1.00  0.00     0.211 HD
ENDBRANCH   4  17
TORSDOF 7
ENDMDL
MODEL 7
REMARK VINA RESULT:    -4.439      4.497      6.817
REMARK INTER + INTRA:          -6.096
REMARK INTER:                  -5.654
REMARK INTRA:                  -0.442
REMARK UNBOUND:                -0.360
REMARK SMILES CCO[C@@H]1O[C@@H](CO)[C@@H](O)[C@H](O)[C@@H]1O
REMARK SMILES IDX 4 1 13 2 11 3 9 4 6 5 5 6 3 7 2 8 1 9 14 10 12 12 7 14 8 15
REMARK SMILES IDX 10 17
REMARK H PARENT 14 11 12 13 8 16 10 18
REMARK Flexibility Score: inf
ROOT
ATOM      1  C   UNL     1     -21.847 -30.498  12.829  1.00  0.00     0.281 C 
ATOM      2  C   UNL     1     -20.684 -29.789  12.094  1.00  0.00     0.202 C 
ATOM      3  C   UNL     1     -19.812 -30.799  11.324  1.00  0.00     0.179 C 
ATOM      4  C   UNL     1     -20.702 -31.704  10.456  1.00  0.00     0.177 C 
ATOM      5  C   UNL     1     -21.827 -32.310  11.328  1.00  0.00     0.178 C 
ATOM      6  O   UNL     1     -22.611 -31.291  11.931  1.00  0.00    -0.341 OA
ENDROOT
BRANCH   1   7
ATOM      7  O   UNL     1     -21.354 -31.302  13.896  1.00  0.00    -0.350 OA
BRANCH   7   8
ATOM      8  C   UNL     1     -22.166 -31.215  15.051  1.00  0.00     0.160 C 
ATOM      9  C   UNL     1     -21.817 -29.971  15.863  1.00  0.00     0.035 C 
ENDBRANCH   7   8
ENDBRANCH   1   7
BRANCH   2  10
ATOM     10  O   UNL     1     -19.892 -29.067  13.002  1.00  0.00    -0.385 OA
ATOM     11  H   UNL     1     -19.747 -29.657  13.787  1.00  0.00     0.211 HD
ENDBRANCH   2  10
BRANCH   3  12
ATOM     12  O   UNL     1     -19.066 -31.593  12.214  1.00  0.00    -0.387 OA
ATOM     13  H   UNL     1     -19.714 -32.131  12.737  1.00  0.00     0.211 HD
ENDBRANCH   3  12
BRANCH   5  14
ATOM     14  C   UNL     1     -22.742 -33.236  10.515  1.00  0.00     0.191 C 
BRANCH  14  15
ATOM     15  O   UNL     1     -22.120 -33.626   9.322  1.00  0.00    -0.394 OA
ATOM     16  H   UNL     1     -21.360 -34.208   9.585  1.00  0.00     0.210 HD
ENDBRANCH  14  15
ENDBRANCH   5  14
BRANCH   4  17
ATOM     17  O   UNL     1     -21.257 -30.956   9.402  1.00  0.00    -0.387 OA
ATOM     18  H   UNL     1     -22.076 -31.435   9.111  1.00  0.00     0.211 HD
ENDBRANCH   4  17
TORSDOF 7
ENDMDL
MODEL 8
REMARK VINA RESULT:    -4.413      2.110      3.852
REMARK INTER + INTRA:          -6.063
REMARK INTER:                  -5.682
REMARK INTRA:                  -0.381
REMARK UNBOUND:                -0.360
REMARK SMILES CCO[C@@H]1O[C@@H](CO)[C@@H](O)[C@H](O)[C@@H]1O
REMARK SMILES IDX 4 1 13 2 11 3 9 4 6 5 5 6 3 7 2 8 1 9 14 10 12 12 7 14 8 15
REMARK SMILES IDX 10 17
REMARK H PARENT 14 11 12 13 8 16 10 18
REMARK Flexibility Score: inf
ROOT
ATOM      1  C   UNL     1     -22.098 -26.762  15.326  1.00  0.00     0.281 C 
ATOM      2  C   UNL     1     -21.644 -28.232  15.164  1.00  0.00     0.202 C 
ATOM      3  C   UNL     1     -21.118 -28.804  16.495  1.00  0.00     0.179 C 
ATOM      4  C   UNL     1     -22.134 -28.534  17.617  1.00  0.00     0.177 C 
ATOM      5  C   UNL     1     -22.506 -27.033  17.627  1.00  0.00     0.178 C 
ATOM      6  O   UNL     1     -23.046 -26.633  16.376  1.00  0.00    -0.341 OA
ENDROOT
BRANCH   1   7
ATOM      7  O   UNL     1     -20.981 -25.912  15.565  1.00  0.00    -0.350 OA
BRANCH   7   8
ATOM      8  C   UNL     1     -20.856 -24.903  14.581  1.00  0.00     0.160 C 
ATOM      9  C   UNL     1     -19.484 -24.239  14.660  1.00  0.00     0.035 C 
ENDBRANCH   7   8
ENDBRANCH   1   7
BRANCH   2  10
ATOM     10  O   UNL     1     -20.655 -28.339  14.173  1.00  0.00    -0.385 OA
ATOM     11  H   UNL     1     -20.967 -29.027  13.529  1.00  0.00     0.211 HD
ENDBRANCH   2  10
BRANCH   3  12
ATOM     12  O   UNL     1     -19.883 -28.222  16.833  1.00  0.00    -0.387 OA
ATOM     13  H   UNL     1     -19.792 -28.285  17.819  1.00  0.00     0.211 HD
ENDBRANCH   3  12
BRANCH   5  14
ATOM     14  C   UNL     1     -23.510 -26.701  18.740  1.00  0.00     0.191 C 
BRANCH  14  15
ATOM     15  O   UNL     1     -24.823 -26.919  18.305  1.00  0.00    -0.394 OA
ATOM     16  H   UNL     1     -24.805 -26.827  17.317  1.00  0.00     0.210 HD
ENDBRANCH  14  15
ENDBRANCH   5  14
BRANCH   4  17
ATOM     17  O   UNL     1     -23.286 -29.316  17.415  1.00  0.00    -0.387 OA
ATOM     18  H   UNL     1     -24.065 -28.733  17.609  1.00  0.00     0.211 HD
ENDBRANCH   4  17
TORSDOF 7
ENDMDL
MODEL 9
REMARK VINA RESULT:    -4.411      1.802      3.817
REMARK INTER + INTRA:          -6.060
REMARK INTER:                  -5.641
REMARK INTRA:                  -0.419
REMARK UNBOUND:                -0.360
REMARK SMILES CCO[C@@H]1O[C@@H](CO)[C@@H](O)[C@H](O)[C@@H]1O
REMARK SMILES IDX 4 1 13 2 11 3 9 4 6 5 5 6 3 7 2 8 1 9 14 10 12 12 7 14 8 15
REMARK SMILES IDX 10 17
REMARK H PARENT 14 11 12 13 8 16 10 18
REMARK Flexibility Score: inf
ROOT
ATOM      1  C   UNL     1     -20.581 -27.400  15.813  1.00  0.00     0.281 C 
ATOM      2  C   UNL     1     -20.841 -25.898  16.083  1.00  0.00     0.202 C 
ATOM      3  C   UNL     1     -22.323 -25.637  16.412  1.00  0.00     0.179 C 
ATOM      4  C   UNL     1     -22.792 -26.607  17.510  1.00  0.00     0.177 C 
ATOM      5  C   UNL     1     -22.435 -28.057  17.105  1.00  0.00     0.178 C 
ATOM      6  O   UNL     1     -21.038 -28.198  16.896  1.00  0.00    -0.341 OA
ENDROOT
BRANCH   1   7
ATOM      7  O   UNL     1     -21.207 -27.810  14.601  1.00  0.00    -0.350 OA
BRANCH   7   8
ATOM      8  C   UNL     1     -20.456 -28.796  13.920  1.00  0.00     0.160 C 
ATOM      9  C   UNL     1     -21.306 -30.036  13.659  1.00  0.00     0.035 C 
ENDBRANCH   7   8
ENDBRANCH   1   7
BRANCH   2  10
ATOM     10  O   UNL     1     -20.453 -25.123  14.978  1.00  0.00    -0.385 OA
ATOM     11  H   UNL     1     -19.524 -25.391  14.752  1.00  0.00     0.211 HD
ENDBRANCH   2  10
BRANCH   3  12
ATOM     12  O   UNL     1     -23.125 -25.804  15.269  1.00  0.00    -0.387 OA
ATOM     13  H   UNL     1     -24.066 -25.669  15.551  1.00  0.00     0.211 HD
ENDBRANCH   3  12
BRANCH   5  14
ATOM     14  C   UNL     1     -22.894 -29.073  18.160  1.00  0.00     0.191 C 
BRANCH  14  15
ATOM     15  O   UNL     1     -23.854 -28.508  19.009  1.00  0.00    -0.394 OA
ATOM     16  H   UNL     1     -24.011 -27.587  18.673  1.00  0.00     0.210 HD
ENDBRANCH  14  15
ENDBRANCH   5  14
BRANCH   4  17
ATOM     17  O   UNL     1     -22.174 -26.280  18.731  1.00  0.00    -0.387 OA
ATOM     18  H   UNL     1     -22.883 -26.301  19.425  1.00  0.00     0.211 HD
ENDBRANCH   4  17
TORSDOF 7
ENDMDL
