MODEL 1
REMARK VINA RESULT:    -6.076      0.000      0.000
REMARK INTER + INTRA:          -6.432
REMARK INTER:                  -6.432
REMARK INTRA:                   0.000
REMARK UNBOUND:                 0.000
REMARK SMILES O=c1ccc2cc(O)c(O)cc2o1
REMARK SMILES IDX 4 1 3 2 2 3 1 4 13 5 12 6 11 7 9 8 7 9 6 10 5 11 8 12 10 14
REMARK H PARENT 8 13 10 15
REMARK Flexibility Score: inf
ROOT
ATOM      1  C   UNL     1      10.376  38.750  24.669  1.00  0.00     0.019 A 
ATOM      2  C   UNL     1      11.419  38.485  25.554  1.00  0.00     0.094 A 
ATOM      3  C   UNL     1      12.713  38.317  25.047  1.00  0.00     0.336 A 
ATOM      4  O   UNL     1      13.669  38.078  25.831  1.00  0.00    -0.246 OA
ATOM      5  O   UNL     1      12.940  38.410  23.739  1.00  0.00    -0.423 OA
ATOM      6  C   UNL     1      11.972  38.662  22.862  1.00  0.00     0.142 A 
ATOM      7  C   UNL     1      12.271  38.749  21.499  1.00  0.00     0.098 A 
ATOM      8  C   UNL     1      11.264  39.013  20.562  1.00  0.00     0.161 A 
ATOM      9  C   UNL     1       9.929  39.194  21.002  1.00  0.00     0.158 A 
ATOM     10  C   UNL     1       9.633  39.107  22.369  1.00  0.00     0.062 A 
ATOM     11  C   UNL     1      10.645  38.842  23.300  1.00  0.00     0.022 A 
ENDROOT
BRANCH   9  12
ATOM     12  O   UNL     1       8.875  39.460  20.124  1.00  0.00    -0.504 OA
ATOM     13  H   UNL     1       7.928  39.142  20.267  1.00  0.00     0.293 HD
ENDBRANCH   9  12
BRANCH   8  14
ATOM     14  O   UNL     1      11.630  39.087  19.217  1.00  0.00    -0.504 OA
ATOM     15  H   UNL     1      10.998  38.913  18.449  1.00  0.00     0.293 HD
ENDBRANCH   8  14
TORSDOF 2
ENDMDL
MODEL 2
REMARK VINA RESULT:    -6.056      2.379      5.564
REMARK INTER + INTRA:          -6.410
REMARK INTER:                  -6.410
REMARK INTRA:                   0.000
REMARK UNBOUND:                 0.000
REMARK SMILES O=c1ccc2cc(O)c(O)cc2o1
REMARK SMILES IDX 4 1 3 2 2 3 1 4 13 5 12 6 11 7 9 8 7 9 6 10 5 11 8 12 10 14
REMARK H PARENT 8 13 10 15
REMARK Flexibility Score: inf
ROOT
ATOM      1  C   UNL     1      11.743  40.428  18.351  1.00  0.00     0.019 A 
ATOM      2  C   UNL     1      10.861  41.414  17.911  1.00  0.00     0.094 A 
ATOM      3  C   UNL     1       9.749  41.729  18.700  1.00  0.00     0.336 A 
ATOM      4  O   UNL     1       8.941  42.617  18.320  1.00  0.00    -0.246 OA
ATOM      5  O   UNL     1       9.538  41.094  19.851  1.00  0.00    -0.423 OA
ATOM      6  C   UNL     1      10.355  40.147  20.305  1.00  0.00     0.142 A 
ATOM      7  C   UNL     1      10.083  39.515  21.521  1.00  0.00     0.098 A 
ATOM      8  C   UNL     1      10.934  38.516  22.013  1.00  0.00     0.161 A 
ATOM      9  C   UNL     1      12.081  38.145  21.269  1.00  0.00     0.158 A 
ATOM     10  C   UNL     1      12.351  38.780  20.050  1.00  0.00     0.062 A 
ATOM     11  C   UNL     1      11.496  39.778  19.564  1.00  0.00     0.022 A 
ENDROOT
BRANCH   9  12
ATOM     12  O   UNL     1      12.971  37.158  21.699  1.00  0.00    -0.504 OA
ATOM     13  H   UNL     1      12.689  36.303  22.154  1.00  0.00     0.293 HD
ENDBRANCH   9  12
BRANCH   8  14
ATOM     14  O   UNL     1      10.604  37.926  23.234  1.00  0.00    -0.504 OA
ATOM     15  H   UNL     1       9.694  37.546  23.451  1.00  0.00     0.293 HD
ENDBRANCH   8  14
TORSDOF 2
ENDMDL
MODEL 3
REMARK VINA RESULT:    -5.919      5.254      6.591
REMARK INTER + INTRA:          -6.265
REMARK INTER:                  -6.265
REMARK INTRA:                   0.000
REMARK UNBOUND:                 0.000
REMARK SMILES O=c1ccc2cc(O)c(O)cc2o1
REMARK SMILES IDX 4 1 3 2 2 3 1 4 13 5 12 6 11 7 9 8 7 9 6 10 5 11 8 12 10 14
REMARK H PARENT 8 13 10 15
REMARK Flexibility Score: inf
ROOT
ATOM      1  C   UNL     1      12.838  41.404  19.217  1.00  0.00     0.019 A 
ATOM      2  C   UNL     1      12.233  40.526  18.319  1.00  0.00     0.094 A 
ATOM      3  C   UNL     1      10.872  40.678  18.035  1.00  0.00     0.336 A 
ATOM      4  O   UNL     1      10.307  39.896  17.227  1.00  0.00    -0.246 OA
ATOM      5  O   UNL     1      10.167  41.647  18.615  1.00  0.00    -0.423 OA
ATOM      6  C   UNL     1      10.707  42.506  19.477  1.00  0.00     0.142 A 
ATOM      7  C   UNL     1       9.917  43.504  20.056  1.00  0.00     0.098 A 
ATOM      8  C   UNL     1      10.470  44.414  20.965  1.00  0.00     0.161 A 
ATOM      9  C   UNL     1      11.844  44.322  21.301  1.00  0.00     0.158 A 
ATOM     10  C   UNL     1      12.633  43.320  20.720  1.00  0.00     0.062 A 
ATOM     11  C   UNL     1      12.073  42.413  19.811  1.00  0.00     0.022 A 
ENDROOT
BRANCH   9  12
ATOM     12  O   UNL     1      12.461  45.196  22.200  1.00  0.00    -0.504 OA
ATOM     13  H   UNL     1      12.536  45.025  23.191  1.00  0.00     0.293 HD
ENDBRANCH   9  12
BRANCH   8  14
ATOM     14  O   UNL     1       9.627  45.387  21.505  1.00  0.00    -0.504 OA
ATOM     15  H   UNL     1       9.051  46.005  20.953  1.00  0.00     0.293 HD
ENDBRANCH   8  14
TORSDOF 2
ENDMDL
MODEL 4
REMARK VINA RESULT:    -5.918      1.100      1.384
REMARK INTER + INTRA:          -6.264
REMARK INTER:                  -6.264
REMARK INTRA:                   0.000
REMARK UNBOUND:                 0.000
REMARK SMILES O=c1ccc2cc(O)c(O)cc2o1
REMARK SMILES IDX 4 1 3 2 2 3 1 4 13 5 12 6 11 7 9 8 7 9 6 10 5 11 8 12 10 14
REMARK H PARENT 8 13 10 15
REMARK Flexibility Score: inf
ROOT
ATOM      1  C   UNL     1      10.026  38.927  23.274  1.00  0.00     0.019 A 
ATOM      2  C   UNL     1      10.974  38.538  24.220  1.00  0.00     0.094 A 
ATOM      3  C   UNL     1      12.309  38.402  23.825  1.00  0.00     0.336 A 
ATOM      4  O   UNL     1      13.180  38.051  24.664  1.00  0.00    -0.246 OA
ATOM      5  O   UNL     1      12.666  38.640  22.565  1.00  0.00    -0.423 OA
ATOM      6  C   UNL     1      11.793  39.014  21.633  1.00  0.00     0.142 A 
ATOM      7  C   UNL     1      12.226  39.251  20.325  1.00  0.00     0.098 A 
ATOM      8  C   UNL     1      11.320  39.644  19.332  1.00  0.00     0.161 A 
ATOM      9  C   UNL     1       9.950  39.803  19.659  1.00  0.00     0.158 A 
ATOM     10  C   UNL     1       9.519  39.564  20.971  1.00  0.00     0.062 A 
ATOM     11  C   UNL     1      10.431  39.172  21.958  1.00  0.00     0.022 A 
ENDROOT
BRANCH   9  12
ATOM     12  O   UNL     1       8.992  40.192  18.720  1.00  0.00    -0.504 OA
ATOM     13  H   UNL     1       8.009  39.974  18.793  1.00  0.00     0.293 HD
ENDBRANCH   9  12
BRANCH   8  14
ATOM     14  O   UNL     1      11.818  39.865  18.048  1.00  0.00    -0.504 OA
ATOM     15  H   UNL     1      11.821  39.170  17.316  1.00  0.00     0.293 HD
ENDBRANCH   8  14
TORSDOF 2
ENDMDL
MODEL 5
REMARK VINA RESULT:    -5.832      1.403      2.398
REMARK INTER + INTRA:          -6.173
REMARK INTER:                  -6.173
REMARK INTRA:                   0.000
REMARK UNBOUND:                 0.000
REMARK SMILES O=c1ccc2cc(O)c(O)cc2o1
REMARK SMILES IDX 4 1 3 2 2 3 1 4 13 5 12 6 11 7 9 8 7 9 6 10 5 11 8 12 10 14
REMARK H PARENT 8 13 10 15
REMARK Flexibility Score: inf
ROOT
ATOM      1  C   UNL     1      12.720  38.378  24.380  1.00  0.00     0.019 A 
ATOM      2  C   UNL     1      12.233  38.377  25.686  1.00  0.00     0.094 A 
ATOM      3  C   UNL     1      10.867  38.594  25.900  1.00  0.00     0.336 A 
ATOM      4  O   UNL     1      10.407  38.596  27.072  1.00  0.00    -0.246 OA
ATOM      5  O   UNL     1      10.048  38.797  24.870  1.00  0.00    -0.423 OA
ATOM      6  C   UNL     1      10.474  38.805  23.609  1.00  0.00     0.142 A 
ATOM      7  C   UNL     1       9.567  39.024  22.568  1.00  0.00     0.098 A 
ATOM      8  C   UNL     1       9.999  39.037  21.236  1.00  0.00     0.161 A 
ATOM      9  C   UNL     1      11.369  38.824  20.942  1.00  0.00     0.158 A 
ATOM     10  C   UNL     1      12.275  38.605  21.988  1.00  0.00     0.062 A 
ATOM     11  C   UNL     1      11.836  38.594  23.318  1.00  0.00     0.022 A 
ENDROOT
BRANCH   9  12
ATOM     12  O   UNL     1      11.869  38.824  19.637  1.00  0.00    -0.504 OA
ATOM     13  H   UNL     1      12.042  37.987  19.100  1.00  0.00     0.293 HD
ENDBRANCH   9  12
BRANCH   8  14
ATOM     14  O   UNL     1       9.042  39.260  20.244  1.00  0.00    -0.504 OA
ATOM     15  H   UNL     1       8.163  39.729  20.404  1.00  0.00     0.293 HD
ENDBRANCH   8  14
TORSDOF 2
ENDMDL
MODEL 6
REMARK VINA RESULT:    -5.802      4.576      5.073
REMARK INTER + INTRA:          -6.141
REMARK INTER:                  -6.141
REMARK INTRA:                   0.000
REMARK UNBOUND:                 0.000
REMARK SMILES O=c1ccc2cc(O)c(O)cc2o1
REMARK SMILES IDX 4 1 3 2 2 3 1 4 13 5 12 6 11 7 9 8 7 9 6 10 5 11 8 12 10 14
REMARK H PARENT 8 13 10 15
REMARK Flexibility Score: inf
ROOT
ATOM      1  C   UNL     1      14.155  41.300  20.775  1.00  0.00     0.019 A 
ATOM      2  C   UNL     1      14.606  42.441  21.436  1.00  0.00     0.094 A 
ATOM      3  C   UNL     1      13.809  43.591  21.423  1.00  0.00     0.336 A 
ATOM      4  O   UNL     1      14.198  44.632  22.015  1.00  0.00    -0.246 OA
ATOM      5  O   UNL     1      12.639  43.592  20.789  1.00  0.00    -0.423 OA
ATOM      6  C   UNL     1      12.173  42.524  20.147  1.00  0.00     0.142 A 
ATOM      7  C   UNL     1      10.936  42.584  19.498  1.00  0.00     0.098 A 
ATOM      8  C   UNL     1      10.432  41.469  18.817  1.00  0.00     0.161 A 
ATOM      9  C   UNL     1      11.184  40.268  18.787  1.00  0.00     0.158 A 
ATOM     10  C   UNL     1      12.424  40.211  19.438  1.00  0.00     0.062 A 
ATOM     11  C   UNL     1      12.921  41.330  20.117  1.00  0.00     0.022 A 
ENDROOT
BRANCH   9  12
ATOM     12  O   UNL     1      10.743  39.119  18.127  1.00  0.00    -0.504 OA
ATOM     13  H   UNL     1      10.840  38.184  18.495  1.00  0.00     0.293 HD
ENDBRANCH   9  12
BRANCH   8  14
ATOM     14  O   UNL     1       9.191  41.596  18.191  1.00  0.00    -0.504 OA
ATOM     15  H   UNL     1       8.580  40.819  17.984  1.00  0.00     0.293 HD
ENDBRANCH   8  14
TORSDOF 2
ENDMDL
MODEL 7
REMARK VINA RESULT:    -5.763      2.056      4.913
REMARK INTER + INTRA:          -6.100
REMARK INTER:                  -6.100
REMARK INTRA:                   0.000
REMARK UNBOUND:                 0.000
REMARK SMILES O=c1ccc2cc(O)c(O)cc2o1
REMARK SMILES IDX 4 1 3 2 2 3 1 4 13 5 12 6 11 7 9 8 7 9 6 10 5 11 8 12 10 14
REMARK H PARENT 8 13 10 15
REMARK Flexibility Score: inf
ROOT
ATOM      1  C   UNL     1       9.184  41.300  21.150  1.00  0.00     0.019 A 
ATOM      2  C   UNL     1       9.056  41.943  19.920  1.00  0.00     0.094 A 
ATOM      3  C   UNL     1       9.850  41.520  18.848  1.00  0.00     0.336 A 
ATOM      4  O   UNL     1       9.749  42.088  17.729  1.00  0.00    -0.246 OA
ATOM      5  O   UNL     1      10.713  40.519  19.004  1.00  0.00    -0.423 OA
ATOM      6  C   UNL     1      10.864  39.879  20.161  1.00  0.00     0.142 A 
ATOM      7  C   UNL     1      11.787  38.834  20.265  1.00  0.00     0.098 A 
ATOM      8  C   UNL     1      11.959  38.151  21.476  1.00  0.00     0.161 A 
ATOM      9  C   UNL     1      11.189  38.524  22.605  1.00  0.00     0.158 A 
ATOM     10  C   UNL     1      10.265  39.572  22.498  1.00  0.00     0.062 A 
ATOM     11  C   UNL     1      10.099  40.251  21.284  1.00  0.00     0.022 A 
ENDROOT
BRANCH   9  12
ATOM     12  O   UNL     1      11.309  37.887  23.843  1.00  0.00    -0.504 OA
ATOM     13  H   UNL     1      11.837  37.041  23.993  1.00  0.00     0.293 HD
ENDBRANCH   9  12
BRANCH   8  14
ATOM     14  O   UNL     1      12.896  37.117  21.511  1.00  0.00    -0.504 OA
ATOM     15  H   UNL     1      13.712  37.073  20.918  1.00  0.00     0.293 HD
ENDBRANCH   8  14
TORSDOF 2
ENDMDL
MODEL 8
REMARK VINA RESULT:    -5.705      1.955      3.298
REMARK INTER + INTRA:          -6.038
REMARK INTER:                  -6.038
REMARK INTRA:                   0.000
REMARK UNBOUND:                 0.000
REMARK SMILES O=c1ccc2cc(O)c(O)cc2o1
REMARK SMILES IDX 4 1 3 2 2 3 1 4 13 5 12 6 11 7 9 8 7 9 6 10 5 11 8 12 10 14
REMARK H PARENT 8 13 10 15
REMARK Flexibility Score: inf
ROOT
ATOM      1  C   UNL     1      12.232  38.257  21.084  1.00  0.00     0.019 A 
ATOM      2  C   UNL     1      12.092  38.011  22.449  1.00  0.00     0.094 A 
ATOM      3  C   UNL     1      11.133  38.729  23.171  1.00  0.00     0.336 A 
ATOM      4  O   UNL     1      10.990  38.521  24.405  1.00  0.00    -0.246 OA
ATOM      5  O   UNL     1      10.367  39.632  22.563  1.00  0.00    -0.423 OA
ATOM      6  C   UNL     1      10.470  39.896  21.262  1.00  0.00     0.142 A 
ATOM      7  C   UNL     1       9.639  40.855  20.677  1.00  0.00     0.098 A 
ATOM      8  C   UNL     1       9.735  41.145  19.310  1.00  0.00     0.161 A 
ATOM      9  C   UNL     1      10.684  40.456  18.513  1.00  0.00     0.158 A 
ATOM     10  C   UNL     1      11.515  39.495  19.103  1.00  0.00     0.062 A 
ATOM     11  C   UNL     1      11.414  39.211  20.470  1.00  0.00     0.022 A 
ENDROOT
BRANCH   9  12
ATOM     12  O   UNL     1      10.834  40.694  17.145  1.00  0.00    -0.504 OA
ATOM     13  H   UNL     1      11.248  41.530  16.759  1.00  0.00     0.293 HD
ENDBRANCH   9  12
BRANCH   8  14
ATOM     14  O   UNL     1       8.875  42.113  18.788  1.00  0.00    -0.504 OA
ATOM     15  H   UNL     1       8.086  42.496  19.288  1.00  0.00     0.293 HD
ENDBRANCH   8  14
TORSDOF 2
ENDMDL
MODEL 9
REMARK VINA RESULT:    -5.679      4.047      4.721
REMARK INTER + INTRA:          -6.011
REMARK INTER:                  -6.011
REMARK INTRA:                   0.000
REMARK UNBOUND:                 0.000
REMARK SMILES O=c1ccc2cc(O)c(O)cc2o1
REMARK SMILES IDX 4 1 3 2 2 3 1 4 13 5 12 6 11 7 9 8 7 9 6 10 5 11 8 12 10 14
REMARK H PARENT 8 13 10 15
REMARK Flexibility Score: inf
ROOT
ATOM      1  C   UNL     1      11.762  44.048  20.733  1.00  0.00     0.019 A 
ATOM      2  C   UNL     1      12.996  44.384  21.286  1.00  0.00     0.094 A 
ATOM      3  C   UNL     1      13.981  43.396  21.394  1.00  0.00     0.336 A 
ATOM      4  O   UNL     1      15.103  43.679  21.891  1.00  0.00    -0.246 OA
ATOM      5  O   UNL     1      13.741  42.156  20.974  1.00  0.00    -0.423 OA
ATOM      6  C   UNL     1      12.577  41.796  20.440  1.00  0.00     0.142 A 
ATOM      7  C   UNL     1      12.381  40.478  20.016  1.00  0.00     0.098 A 
ATOM      8  C   UNL     1      11.161  40.083  19.453  1.00  0.00     0.161 A 
ATOM      9  C   UNL     1      10.116  41.029  19.311  1.00  0.00     0.158 A 
ATOM     10  C   UNL     1      10.315  42.349  19.737  1.00  0.00     0.062 A 
ATOM     11  C   UNL     1      11.537  42.737  20.300  1.00  0.00     0.022 A 
ENDROOT
BRANCH   9  12
ATOM     12  O   UNL     1       8.875  40.705  18.758  1.00  0.00    -0.504 OA
ATOM     13  H   UNL     1       8.714  39.907  18.162  1.00  0.00     0.293 HD
ENDBRANCH   9  12
BRANCH   8  14
ATOM     14  O   UNL     1      11.032  38.753  19.050  1.00  0.00    -0.504 OA
ATOM     15  H   UNL     1      10.909  38.462  18.091  1.00  0.00     0.293 HD
ENDBRANCH   8  14
TORSDOF 2
ENDMDL
