MODEL 1
REMARK VINA RESULT:    -2.662      0.000      0.000
REMARK INTER + INTRA:          -2.662
REMARK INTER:                  -2.662
REMARK INTRA:                   0.000
REMARK UNBOUND:                 0.000
REMARK SMILES CC(=O)[O-]
REMARK SMILES IDX 1 1 2 2 3 3 4 4
REMARK H PARENT
REMARK Flexibility Score: inf
ROOT
ATOM      1  C   UNL     1       8.931  -7.761  -1.881  1.00  0.00     0.063 C 
ATOM      2  C   UNL     1       8.117  -6.579  -1.475  1.00  0.00     0.038 C 
ATOM      3  O   UNL     1       7.289  -6.676  -0.532  1.00  0.00    -0.550 OA
ATOM      4  O   UNL     1       8.308  -5.354  -2.103  1.00  0.00    -0.550 OA
ENDROOT
TORSDOF 0
ENDMDL
MODEL 2
REMARK VINA RESULT:    -2.621      9.106      9.548
REMARK INTER + INTRA:          -2.621
REMARK INTER:                  -2.621
REMARK INTRA:                   0.000
REMARK UNBOUND:                 0.000
REMARK SMILES CC(=O)[O-]
REMARK SMILES IDX 1 1 2 2 3 3 4 4
REMARK H PARENT
REMARK Flexibility Score: inf
ROOT
ATOM      1  C   UNL     1       6.916   3.525   0.428  1.00  0.00     0.063 C 
ATOM      2  C   UNL     1       6.150   2.352  -0.083  1.00  0.00     0.038 C 
ATOM      3  O   UNL     1       6.122   2.104  -1.317  1.00  0.00    -0.550 OA
ATOM      4  O   UNL     1       5.508   1.500   0.807  1.00  0.00    -0.550 OA
ENDROOT
TORSDOF 0
ENDMDL
MODEL 3
REMARK VINA RESULT:    -2.550     18.612     19.281
REMARK INTER + INTRA:          -2.550
REMARK INTER:                  -2.550
REMARK INTRA:                   0.000
REMARK UNBOUND:                 0.000
REMARK SMILES CC(=O)[O-]
REMARK SMILES IDX 1 1 2 2 3 3 4 4
REMARK H PARENT
REMARK Flexibility Score: inf
ROOT
ATOM      1  C   UNL     1     -10.155  -4.676   6.224  1.00  0.00     0.063 C 
ATOM      2  C   UNL     1      -9.001  -5.427   6.797  1.00  0.00     0.038 C 
ATOM      3  O   UNL     1      -7.830  -4.985   6.661  1.00  0.00    -0.550 OA
ATOM      4  O   UNL     1      -9.220  -6.588   7.529  1.00  0.00    -0.550 OA
ENDROOT
TORSDOF 0
ENDMDL
MODEL 4
REMARK VINA RESULT:    -2.508      8.263      8.660
REMARK INTER + INTRA:          -2.508
REMARK INTER:                  -2.508
REMARK INTRA:                   0.000
REMARK UNBOUND:                 0.000
REMARK SMILES CC(=O)[O-]
REMARK SMILES IDX 1 1 2 2 3 3 4 4
REMARK H PARENT
REMARK Flexibility Score: inf
ROOT
ATOM      1  C   UNL     1       6.083   0.716  -0.555  1.00  0.00     0.063 C 
ATOM      2  C   UNL     1       6.515   1.819  -1.461  1.00  0.00     0.038 C 
ATOM      3  O   UNL     1       7.194   2.779  -1.009  1.00  0.00    -0.550 OA
ATOM      4  O   UNL     1       6.215   1.764  -2.816  1.00  0.00    -0.550 OA
ENDROOT
TORSDOF 0
ENDMDL
MODEL 5
REMARK VINA RESULT:    -2.500     18.703     19.332
REMARK INTER + INTRA:          -2.500
REMARK INTER:                  -2.500
REMARK INTRA:                   0.000
REMARK UNBOUND:                 0.000
REMARK SMILES CC(=O)[O-]
REMARK SMILES IDX 1 1 2 2 3 3 4 4
REMARK H PARENT
REMARK Flexibility Score: inf
ROOT
ATOM      1  C   UNL     1     -10.251  -4.701   6.068  1.00  0.00     0.063 C 
ATOM      2  C   UNL     1      -9.155  -5.313   6.873  1.00  0.00     0.038 C 
ATOM      3  O   UNL     1      -9.420  -6.187   7.741  1.00  0.00    -0.550 OA
ATOM      4  O   UNL     1      -7.833  -4.959   6.632  1.00  0.00    -0.550 OA
ENDROOT
TORSDOF 0
ENDMDL
MODEL 6
REMARK VINA RESULT:    -2.468     17.880     18.535
REMARK INTER + INTRA:          -2.468
REMARK INTER:                  -2.468
REMARK INTRA:                   0.000
REMARK UNBOUND:                 0.000
REMARK SMILES CC(=O)[O-]
REMARK SMILES IDX 1 1 2 2 3 3 4 4
REMARK H PARENT
REMARK Flexibility Score: inf
ROOT
ATOM      1  C   UNL     1      -8.212  -6.494   4.935  1.00  0.00     0.063 C 
ATOM      2  C   UNL     1      -8.612  -5.788   6.187  1.00  0.00     0.038 C 
ATOM      3  O   UNL     1      -7.826  -4.966   6.728  1.00  0.00    -0.550 OA
ATOM      4  O   UNL     1      -9.874  -5.996   6.730  1.00  0.00    -0.550 OA
ENDROOT
TORSDOF 0
ENDMDL
MODEL 7
REMARK VINA RESULT:    -2.438      7.112      7.573
REMARK INTER + INTRA:          -2.438
REMARK INTER:                  -2.438
REMARK INTRA:                   0.000
REMARK UNBOUND:                 0.000
REMARK SMILES CC(=O)[O-]
REMARK SMILES IDX 1 1 2 2 3 3 4 4
REMARK H PARENT
REMARK Flexibility Score: inf
ROOT
ATOM      1  C   UNL     1       7.838   0.597  -1.944  1.00  0.00     0.063 C 
ATOM      2  C   UNL     1       7.079   0.517  -3.225  1.00  0.00     0.038 C 
ATOM      3  O   UNL     1       6.235   1.405  -3.516  1.00  0.00    -0.550 OA
ATOM      4  O   UNL     1       7.339  -0.509  -4.126  1.00  0.00    -0.550 OA
ENDROOT
TORSDOF 0
ENDMDL
MODEL 8
REMARK VINA RESULT:    -2.397     11.626     11.961
REMARK INTER + INTRA:          -2.397
REMARK INTER:                  -2.397
REMARK INTRA:                   0.000
REMARK UNBOUND:                 0.000
REMARK SMILES CC(=O)[O-]
REMARK SMILES IDX 1 1 2 2 3 3 4 4
REMARK H PARENT
REMARK Flexibility Score: inf
ROOT
ATOM      1  C   UNL     1      -1.997  -5.992  -5.337  1.00  0.00     0.063 C 
ATOM      2  C   UNL     1      -3.074  -7.019  -5.241  1.00  0.00     0.038 C 
ATOM      3  O   UNL     1      -2.783  -8.244  -5.262  1.00  0.00    -0.550 OA
ATOM      4  O   UNL     1      -4.397  -6.627  -5.077  1.00  0.00    -0.550 OA
ENDROOT
TORSDOF 0
ENDMDL
MODEL 9
REMARK VINA RESULT:    -2.274      8.025      8.431
REMARK INTER + INTRA:          -2.274
REMARK INTER:                  -2.274
REMARK INTRA:                   0.000
REMARK UNBOUND:                 0.000
REMARK SMILES CC(=O)[O-]
REMARK SMILES IDX 1 1 2 2 3 3 4 4
REMARK H PARENT
REMARK Flexibility Score: inf
ROOT
ATOM      1  C   UNL     1       6.464   1.375  -2.825  1.00  0.00     0.063 C 
ATOM      2  C   UNL     1       6.412   1.568  -1.347  1.00  0.00     0.038 C 
ATOM      3  O   UNL     1       5.960   0.655  -0.606  1.00  0.00    -0.550 OA
ATOM      4  O   UNL     1       6.912   2.734  -0.780  1.00  0.00    -0.550 OA
ENDROOT
TORSDOF 0
ENDMDL
