MODEL 1
REMARK VINA RESULT:    -4.846      0.000      0.000
REMARK INTER + INTRA:          -8.935
REMARK INTER:                  -8.246
REMARK INTRA:                  -0.689
REMARK UNBOUND:                -0.689
REMARK SMILES CCCCCCCCCCCCCC(=O)[O-]
REMARK SMILES IDX 8 1 9 2 10 3 11 4 12 5 13 6 14 7 15 8 16 9 7 10 6 11 5 12
REMARK SMILES IDX 4 13 3 14 2 15 1 16
REMARK H PARENT
REMARK Flexibility Score: inf
ROOT
ATOM      1  C   UNL     1      42.355  55.668  17.618  1.00  0.00     0.000 C 
ENDROOT
BRANCH   1   2
ATOM      2  C   UNL     1      42.773  54.240  17.246  1.00  0.00     0.000 C 
BRANCH   2   3
ATOM      3  C   UNL     1      42.742  54.036  15.724  1.00  0.00     0.000 C 
BRANCH   3   4
ATOM      4  C   UNL     1      44.038  53.411  15.182  1.00  0.00     0.000 C 
BRANCH   4   5
ATOM      5  C   UNL     1      44.970  54.450  14.536  1.00  0.00     0.006 C 
BRANCH   5   6
ATOM      6  C   UNL     1      46.285  54.608  15.309  1.00  0.00     0.053 C 
BRANCH   6   7
ATOM      7  C   UNL     1      46.213  55.717  16.314  1.00  0.00     0.041 C 
ATOM      8  O   UNL     1      46.975  55.714  17.316  1.00  0.00    -0.550 OA
ATOM      9  O   UNL     1      45.283  56.737  16.159  1.00  0.00    -0.550 OA
ENDBRANCH   6   7
ENDBRANCH   5   6
ENDBRANCH   4   5
ENDBRANCH   3   4
ENDBRANCH   2   3
ENDBRANCH   1   2
BRANCH   1  10
ATOM     10  C   UNL     1      40.915  55.955  17.166  1.00  0.00     0.000 C 
BRANCH  10  11
ATOM     11  C   UNL     1      39.948  56.128  18.348  1.00  0.00    -0.000 C 
BRANCH  11  12
ATOM     12  C   UNL     1      38.817  57.127  18.046  1.00  0.00    -0.000 C 
BRANCH  12  13
ATOM     13  C   UNL     1      37.945  56.692  16.857  1.00  0.00    -0.000 C 
BRANCH  13  14
ATOM     14  C   UNL     1      36.491  57.179  16.984  1.00  0.00    -0.000 C 
BRANCH  14  15
ATOM     15  C   UNL     1      36.028  57.978  15.754  1.00  0.00    -0.003 C 
ATOM     16  C   UNL     1      35.038  57.205  14.883  1.00  0.00     0.004 C 
ENDBRANCH  14  15
ENDBRANCH  13  14
ENDBRANCH  12  13
ENDBRANCH  11  12
ENDBRANCH  10  11
ENDBRANCH   1  10
TORSDOF 12
ENDMDL
MODEL 2
REMARK VINA RESULT:    -4.845      4.216      8.745
REMARK INTER + INTRA:          -8.933
REMARK INTER:                  -8.474
REMARK INTRA:                  -0.459
REMARK UNBOUND:                -0.689
REMARK SMILES CCCCCCCCCCCCCC(=O)[O-]
REMARK SMILES IDX 8 1 9 2 10 3 11 4 12 5 13 6 14 7 15 8 16 9 7 10 6 11 5 12
REMARK SMILES IDX 4 13 3 14 2 15 1 16
REMARK H PARENT
REMARK Flexibility Score: inf
ROOT
ATOM      1  C   UNL     1      41.102  55.938  17.223  1.00  0.00     0.000 C 
ENDROOT
BRANCH   1   2
ATOM      2  C   UNL     1      40.020  56.030  18.305  1.00  0.00     0.000 C 
BRANCH   2   3
ATOM      3  C   UNL     1      38.997  57.124  17.967  1.00  0.00     0.000 C 
BRANCH   3   4
ATOM      4  C   UNL     1      37.946  56.660  16.945  1.00  0.00     0.000 C 
BRANCH   4   5
ATOM      5  C   UNL     1      36.610  57.409  17.089  1.00  0.00     0.006 C 
BRANCH   5   6
ATOM      6  C   UNL     1      35.961  57.703  15.730  1.00  0.00     0.053 C 
BRANCH   6   7
ATOM      7  C   UNL     1      34.836  56.759  15.432  1.00  0.00     0.041 C 
ATOM      8  O   UNL     1      34.742  56.225  14.296  1.00  0.00    -0.550 OA
ATOM      9  O   UNL     1      33.875  56.494  16.400  1.00  0.00    -0.550 OA
ENDBRANCH   6   7
ENDBRANCH   5   6
ENDBRANCH   4   5
ENDBRANCH   3   4
ENDBRANCH   2   3
ENDBRANCH   1   2
BRANCH   1  10
ATOM     10  C   UNL     1      42.372  55.269  17.770  1.00  0.00     0.000 C 
BRANCH  10  11
ATOM     11  C   UNL     1      42.925  54.188  16.826  1.00  0.00    -0.000 C 
BRANCH  11  12
ATOM     12  C   UNL     1      44.148  54.671  16.027  1.00  0.00    -0.000 C 
BRANCH  12  13
ATOM     13  C   UNL     1      44.808  55.914  16.645  1.00  0.00    -0.000 C 
BRANCH  13  14
ATOM     14  C   UNL     1      46.111  56.307  15.929  1.00  0.00    -0.000 C 
BRANCH  14  15
ATOM     15  C   UNL     1      47.263  55.334  16.228  1.00  0.00    -0.003 C 
ATOM     16  C   UNL     1      47.955  55.625  17.559  1.00  0.00     0.004 C 
ENDBRANCH  14  15
ENDBRANCH  13  14
ENDBRANCH  12  13
ENDBRANCH  11  12
ENDBRANCH  10  11
ENDBRANCH   1  10
TORSDOF 12
ENDMDL
MODEL 3
REMARK VINA RESULT:    -4.829      3.729      8.122
REMARK INTER + INTRA:          -8.906
REMARK INTER:                  -7.963
REMARK INTRA:                  -0.942
REMARK UNBOUND:                -0.689
REMARK SMILES CCCCCCCCCCCCCC(=O)[O-]
REMARK SMILES IDX 8 1 9 2 10 3 11 4 12 5 13 6 14 7 15 8 16 9 7 10 6 11 5 12
REMARK SMILES IDX 4 13 3 14 2 15 1 16
REMARK H PARENT
REMARK Flexibility Score: inf
ROOT
ATOM      1  C   UNL     1      42.490  55.364  17.711  1.00  0.00     0.000 C 
ENDROOT
BRANCH   1   2
ATOM      2  C   UNL     1      41.164  55.900  17.159  1.00  0.00     0.000 C 
BRANCH   2   3
ATOM      3  C   UNL     1      40.106  55.998  18.268  1.00  0.00     0.000 C 
BRANCH   3   4
ATOM      4  C   UNL     1      39.088  57.124  18.021  1.00  0.00     0.000 C 
BRANCH   4   5
ATOM      5  C   UNL     1      38.010  56.731  16.996  1.00  0.00     0.006 C 
BRANCH   5   6
ATOM      6  C   UNL     1      36.675  57.440  17.259  1.00  0.00     0.053 C 
BRANCH   6   7
ATOM      7  C   UNL     1      35.769  57.383  16.068  1.00  0.00     0.041 C 
ATOM      8  O   UNL     1      34.696  56.725  16.119  1.00  0.00    -0.550 OA
ATOM      9  O   UNL     1      36.123  58.031  14.891  1.00  0.00    -0.550 OA
ENDBRANCH   6   7
ENDBRANCH   5   6
ENDBRANCH   4   5
ENDBRANCH   3   4
ENDBRANCH   2   3
ENDBRANCH   1   2
BRANCH   1  10
ATOM     10  C   UNL     1      42.901  54.069  16.994  1.00  0.00     0.000 C 
BRANCH  10  11
ATOM     11  C   UNL     1      42.382  54.003  15.549  1.00  0.00    -0.000 C 
BRANCH  11  12
ATOM     12  C   UNL     1      43.509  54.130  14.509  1.00  0.00    -0.000 C 
BRANCH  12  13
ATOM     13  C   UNL     1      44.678  53.170  14.782  1.00  0.00    -0.000 C 
BRANCH  13  14
ATOM     14  C   UNL     1      46.025  53.902  14.906  1.00  0.00    -0.000 C 
BRANCH  14  15
ATOM     15  C   UNL     1      45.855  55.406  15.177  1.00  0.00    -0.003 C 
ATOM     16  C   UNL     1      46.193  55.793  16.616  1.00  0.00     0.004 C 
ENDBRANCH  14  15
ENDBRANCH  13  14
ENDBRANCH  12  13
ENDBRANCH  11  12
ENDBRANCH  10  11
ENDBRANCH   1  10
TORSDOF 12
ENDMDL
MODEL 4
REMARK VINA RESULT:    -4.824      2.454      5.105
REMARK INTER + INTRA:          -8.897
REMARK INTER:                  -8.458
REMARK INTRA:                  -0.439
REMARK UNBOUND:                -0.689
REMARK SMILES CCCCCCCCCCCCCC(=O)[O-]
REMARK SMILES IDX 8 1 9 2 10 3 11 4 12 5 13 6 14 7 15 8 16 9 7 10 6 11 5 12
REMARK SMILES IDX 4 13 3 14 2 15 1 16
REMARK H PARENT
REMARK Flexibility Score: inf
ROOT
ATOM      1  C   UNL     1      36.629  57.108  17.174  1.00  0.00     0.000 C 
ENDROOT
BRANCH   1   2
ATOM      2  C   UNL     1      38.077  56.711  16.868  1.00  0.00     0.000 C 
BRANCH   2   3
ATOM      3  C   UNL     1      39.007  57.080  18.033  1.00  0.00     0.000 C 
BRANCH   3   4
ATOM      4  C   UNL     1      40.083  56.014  18.296  1.00  0.00     0.000 C 
BRANCH   4   5
ATOM      5  C   UNL     1      41.049  55.845  17.110  1.00  0.00     0.006 C 
BRANCH   5   6
ATOM      6  C   UNL     1      42.483  55.552  17.569  1.00  0.00     0.053 C 
BRANCH   6   7
ATOM      7  C   UNL     1      43.247  54.767  16.547  1.00  0.00     0.041 C 
ATOM      8  O   UNL     1      44.355  55.188  16.124  1.00  0.00    -0.550 OA
ATOM      9  O   UNL     1      42.720  53.585  16.040  1.00  0.00    -0.550 OA
ENDBRANCH   6   7
ENDBRANCH   5   6
ENDBRANCH   4   5
ENDBRANCH   3   4
ENDBRANCH   2   3
ENDBRANCH   1   2
BRANCH   1  10
ATOM     10  C   UNL     1      35.956  57.731  15.941  1.00  0.00     0.000 C 
BRANCH  10  11
ATOM     11  C   UNL     1      35.081  56.726  15.174  1.00  0.00    -0.000 C 
BRANCH  11  12
ATOM     12  C   UNL     1      33.729  56.472  15.864  1.00  0.00    -0.000 C 
BRANCH  12  13
ATOM     13  C   UNL     1      32.562  56.388  14.868  1.00  0.00    -0.000 C 
BRANCH  13  14
ATOM     14  C   UNL     1      31.191  56.499  15.557  1.00  0.00    -0.000 C 
BRANCH  14  15
ATOM     15  C   UNL     1      31.309  56.800  17.060  1.00  0.00    -0.003 C 
ATOM     16  C   UNL     1      30.699  55.705  17.934  1.00  0.00     0.004 C 
ENDBRANCH  14  15
ENDBRANCH  13  14
ENDBRANCH  12  13
ENDBRANCH  11  12
ENDBRANCH  10  11
ENDBRANCH   1  10
TORSDOF 12
ENDMDL
MODEL 5
REMARK VINA RESULT:    -4.818      2.238      4.440
REMARK INTER + INTRA:          -8.887
REMARK INTER:                  -8.422
REMARK INTRA:                  -0.465
REMARK UNBOUND:                -0.689
REMARK SMILES CCCCCCCCCCCCCC(=O)[O-]
REMARK SMILES IDX 8 1 9 2 10 3 11 4 12 5 13 6 14 7 15 8 16 9 7 10 6 11 5 12
REMARK SMILES IDX 4 13 3 14 2 15 1 16
REMARK H PARENT
REMARK Flexibility Score: inf
ROOT
ATOM      1  C   UNL     1      38.024  56.545  16.856  1.00  0.00     0.000 C 
ENDROOT
BRANCH   1   2
ATOM      2  C   UNL     1      38.833  57.127  18.020  1.00  0.00     0.000 C 
BRANCH   2   3
ATOM      3  C   UNL     1      40.033  56.231  18.359  1.00  0.00     0.000 C 
BRANCH   3   4
ATOM      4  C   UNL     1      40.919  55.937  17.137  1.00  0.00     0.000 C 
BRANCH   4   5
ATOM      5  C   UNL     1      42.375  55.625  17.524  1.00  0.00     0.006 C 
BRANCH   5   6
ATOM      6  C   UNL     1      42.787  54.202  17.127  1.00  0.00     0.053 C 
BRANCH   6   7
ATOM      7  C   UNL     1      43.220  54.125  15.695  1.00  0.00     0.041 C 
ATOM      8  O   UNL     1      42.821  53.182  14.963  1.00  0.00    -0.550 OA
ATOM      9  O   UNL     1      44.090  55.077  15.178  1.00  0.00    -0.550 OA
ENDBRANCH   6   7
ENDBRANCH   5   6
ENDBRANCH   4   5
ENDBRANCH   3   4
ENDBRANCH   2   3
ENDBRANCH   1   2
BRANCH   1  10
ATOM     10  C   UNL     1      36.654  57.230  16.739  1.00  0.00     0.000 C 
BRANCH  10  11
ATOM     11  C   UNL     1      36.253  57.507  15.281  1.00  0.00    -0.000 C 
BRANCH  11  12
ATOM     12  C   UNL     1      34.753  57.278  15.027  1.00  0.00    -0.000 C 
BRANCH  12  13
ATOM     13  C   UNL     1      34.068  56.510  16.169  1.00  0.00    -0.000 C 
BRANCH  13  14
ATOM     14  C   UNL     1      32.610  56.144  15.842  1.00  0.00    -0.000 C 
BRANCH  14  15
ATOM     15  C   UNL     1      31.616  56.717  16.865  1.00  0.00    -0.003 C 
ATOM     16  C   UNL     1      31.013  55.644  17.771  1.00  0.00     0.004 C 
ENDBRANCH  14  15
ENDBRANCH  13  14
ENDBRANCH  12  13
ENDBRANCH  11  12
ENDBRANCH  10  11
ENDBRANCH   1  10
TORSDOF 12
ENDMDL
MODEL 6
REMARK VINA RESULT:    -4.779      1.530      2.219
REMARK INTER + INTRA:          -8.820
REMARK INTER:                  -8.268
REMARK INTRA:                  -0.552
REMARK UNBOUND:                -0.689
REMARK SMILES CCCCCCCCCCCCCC(=O)[O-]
REMARK SMILES IDX 8 1 9 2 10 3 11 4 12 5 13 6 14 7 15 8 16 9 7 10 6 11 5 12
REMARK SMILES IDX 4 13 3 14 2 15 1 16
REMARK H PARENT
REMARK Flexibility Score: inf
ROOT
ATOM      1  C   UNL     1      40.814  55.966  17.306  1.00  0.00     0.000 C 
ENDROOT
BRANCH   1   2
ATOM      2  C   UNL     1      42.147  55.568  17.951  1.00  0.00     0.000 C 
BRANCH   2   3
ATOM      3  C   UNL     1      43.159  55.115  16.889  1.00  0.00     0.000 C 
BRANCH   3   4
ATOM      4  C   UNL     1      43.050  53.615  16.566  1.00  0.00     0.000 C 
BRANCH   4   5
ATOM      5  C   UNL     1      43.041  53.335  15.053  1.00  0.00     0.006 C 
BRANCH   5   6
ATOM      6  C   UNL     1      44.187  54.050  14.326  1.00  0.00     0.053 C 
BRANCH   6   7
ATOM      7  C   UNL     1      45.512  53.411  14.608  1.00  0.00     0.041 C 
ATOM      8  O   UNL     1      45.629  52.157  14.585  1.00  0.00    -0.550 OA
ATOM      9  O   UNL     1      46.611  54.198  14.928  1.00  0.00    -0.550 OA
ENDBRANCH   6   7
ENDBRANCH   5   6
ENDBRANCH   4   5
ENDBRANCH   3   4
ENDBRANCH   2   3
ENDBRANCH   1   2
BRANCH   1  10
ATOM     10  C   UNL     1      39.747  56.246  18.374  1.00  0.00     0.000 C 
BRANCH  10  11
ATOM     11  C   UNL     1      38.670  57.231  17.891  1.00  0.00    -0.000 C 
BRANCH  11  12
ATOM     12  C   UNL     1      37.776  56.636  16.789  1.00  0.00    -0.000 C 
BRANCH  12  13
ATOM     13  C   UNL     1      36.322  57.125  16.877  1.00  0.00    -0.000 C 
BRANCH  13  14
ATOM     14  C   UNL     1      36.027  58.276  15.899  1.00  0.00    -0.000 C 
BRANCH  14  15
ATOM     15  C   UNL     1      35.793  57.782  14.462  1.00  0.00    -0.003 C 
ATOM     16  C   UNL     1      34.549  56.904  14.332  1.00  0.00     0.004 C 
ENDBRANCH  14  15
ENDBRANCH  13  14
ENDBRANCH  12  13
ENDBRANCH  11  12
ENDBRANCH  10  11
ENDBRANCH   1  10
TORSDOF 12
ENDMDL
MODEL 7
REMARK VINA RESULT:    -4.776      4.781      8.894
REMARK INTER + INTRA:          -8.816
REMARK INTER:                  -8.152
REMARK INTRA:                  -0.663
REMARK UNBOUND:                -0.689
REMARK SMILES CCCCCCCCCCCCCC(=O)[O-]
REMARK SMILES IDX 8 1 9 2 10 3 11 4 12 5 13 6 14 7 15 8 16 9 7 10 6 11 5 12
REMARK SMILES IDX 4 13 3 14 2 15 1 16
REMARK H PARENT
REMARK Flexibility Score: inf
ROOT
ATOM      1  C   UNL     1      37.883  56.699  16.790  1.00  0.00     0.000 C 
ENDROOT
BRANCH   1   2
ATOM      2  C   UNL     1      36.411  57.110  16.907  1.00  0.00     0.000 C 
BRANCH   2   3
ATOM      3  C   UNL     1      36.045  58.154  15.842  1.00  0.00     0.000 C 
BRANCH   3   4
ATOM      4  C   UNL     1      36.265  57.644  14.408  1.00  0.00     0.000 C 
BRANCH   4   5
ATOM      5  C   UNL     1      35.325  56.482  14.044  1.00  0.00     0.006 C 
BRANCH   5   6
ATOM      6  C   UNL     1      33.847  56.879  14.147  1.00  0.00     0.053 C 
BRANCH   6   7
ATOM      7  C   UNL     1      33.100  56.006  15.109  1.00  0.00     0.041 C 
ATOM      8  O   UNL     1      32.576  54.932  14.713  1.00  0.00    -0.550 OA
ATOM      9  O   UNL     1      32.956  56.395  16.435  1.00  0.00    -0.550 OA
ENDBRANCH   6   7
ENDBRANCH   5   6
ENDBRANCH   4   5
ENDBRANCH   3   4
ENDBRANCH   2   3
ENDBRANCH   1   2
BRANCH   1  10
ATOM     10  C   UNL     1      38.692  57.202  17.994  1.00  0.00     0.000 C 
BRANCH  10  11
ATOM     11  C   UNL     1      39.855  56.264  18.358  1.00  0.00    -0.000 C 
BRANCH  11  12
ATOM     12  C   UNL     1      40.806  56.015  17.175  1.00  0.00    -0.000 C 
BRANCH  12  13
ATOM     13  C   UNL     1      42.231  55.655  17.625  1.00  0.00    -0.000 C 
BRANCH  13  14
ATOM     14  C   UNL     1      42.745  54.359  16.974  1.00  0.00    -0.000 C 
BRANCH  14  15
ATOM     15  C   UNL     1      43.969  54.597  16.075  1.00  0.00    -0.003 C 
ATOM     16  C   UNL     1      44.824  55.777  16.537  1.00  0.00     0.004 C 
ENDBRANCH  14  15
ENDBRANCH  13  14
ENDBRANCH  12  13
ENDBRANCH  11  12
ENDBRANCH  10  11
ENDBRANCH   1  10
TORSDOF 12
ENDMDL
MODEL 8
REMARK VINA RESULT:    -4.715      1.551      3.348
REMARK INTER + INTRA:          -8.713
REMARK INTER:                  -8.049
REMARK INTRA:                  -0.664
REMARK UNBOUND:                -0.689
REMARK SMILES CCCCCCCCCCCCCC(=O)[O-]
REMARK SMILES IDX 8 1 9 2 10 3 11 4 12 5 13 6 14 7 15 8 16 9 7 10 6 11 5 12
REMARK SMILES IDX 4 13 3 14 2 15 1 16
REMARK H PARENT
REMARK Flexibility Score: inf
ROOT
ATOM      1  C   UNL     1      38.999  57.060  18.019  1.00  0.00     0.000 C 
ENDROOT
BRANCH   1   2
ATOM      2  C   UNL     1      40.107  56.035  18.289  1.00  0.00     0.000 C 
BRANCH   2   3
ATOM      3  C   UNL     1      41.064  55.931  17.091  1.00  0.00     0.000 C 
BRANCH   3   4
ATOM      4  C   UNL     1      42.477  55.483  17.497  1.00  0.00     0.000 C 
BRANCH   4   5
ATOM      5  C   UNL     1      42.756  54.012  17.141  1.00  0.00     0.006 C 
BRANCH   5   6
ATOM      6  C   UNL     1      42.713  53.764  15.628  1.00  0.00     0.053 C 
BRANCH   6   7
ATOM      7  C   UNL     1      44.078  53.824  15.013  1.00  0.00     0.041 C 
ATOM      8  O   UNL     1      44.546  54.923  14.616  1.00  0.00    -0.550 OA
ATOM      9  O   UNL     1      44.819  52.660  14.851  1.00  0.00    -0.550 OA
ENDBRANCH   6   7
ENDBRANCH   5   6
ENDBRANCH   4   5
ENDBRANCH   3   4
ENDBRANCH   2   3
ENDBRANCH   1   2
BRANCH   1  10
ATOM     10  C   UNL     1      38.080  56.591  16.881  1.00  0.00     0.000 C 
BRANCH  10  11
ATOM     11  C   UNL     1      36.627  57.055  17.065  1.00  0.00    -0.000 C 
BRANCH  11  12
ATOM     12  C   UNL     1      36.206  58.109  16.025  1.00  0.00    -0.000 C 
BRANCH  12  13
ATOM     13  C   UNL     1      36.047  57.519  14.615  1.00  0.00    -0.000 C 
BRANCH  13  14
ATOM     14  C   UNL     1      35.127  56.286  14.593  1.00  0.00    -0.000 C 
BRANCH  14  15
ATOM     15  C   UNL     1      33.676  56.627  14.971  1.00  0.00    -0.003 C 
ATOM     16  C   UNL     1      33.185  55.856  16.195  1.00  0.00     0.004 C 
ENDBRANCH  14  15
ENDBRANCH  13  14
ENDBRANCH  12  13
ENDBRANCH  11  12
ENDBRANCH  10  11
ENDBRANCH   1  10
TORSDOF 12
ENDMDL
MODEL 9
REMARK VINA RESULT:    -4.714      1.174      2.272
REMARK INTER + INTRA:          -8.710
REMARK INTER:                  -8.299
REMARK INTRA:                  -0.411
REMARK UNBOUND:                -0.689
REMARK SMILES CCCCCCCCCCCCCC(=O)[O-]
REMARK SMILES IDX 8 1 9 2 10 3 11 4 12 5 13 6 14 7 15 8 16 9 7 10 6 11 5 12
REMARK SMILES IDX 4 13 3 14 2 15 1 16
REMARK H PARENT
REMARK Flexibility Score: inf
ROOT
ATOM      1  C   UNL     1      40.050  56.008  18.306  1.00  0.00     0.000 C 
ENDROOT
BRANCH   1   2
ATOM      2  C   UNL     1      41.028  55.895  17.131  1.00  0.00     0.000 C 
BRANCH   2   3
ATOM      3  C   UNL     1      42.431  55.504  17.618  1.00  0.00     0.000 C 
BRANCH   3   4
ATOM      4  C   UNL     1      43.030  54.330  16.827  1.00  0.00     0.000 C 
BRANCH   4   5
ATOM      5  C   UNL     1      44.145  54.774  15.864  1.00  0.00     0.006 C 
BRANCH   5   6
ATOM      6  C   UNL     1      45.005  55.899  16.454  1.00  0.00     0.053 C 
BRANCH   6   7
ATOM      7  C   UNL     1      46.469  55.606  16.330  1.00  0.00     0.041 C 
ATOM      8  O   UNL     1      47.312  56.327  16.926  1.00  0.00    -0.550 OA
ATOM      9  O   UNL     1      46.905  54.557  15.531  1.00  0.00    -0.550 OA
ENDBRANCH   6   7
ENDBRANCH   5   6
ENDBRANCH   4   5
ENDBRANCH   3   4
ENDBRANCH   2   3
ENDBRANCH   1   2
BRANCH   1  10
ATOM     10  C   UNL     1      38.993  57.090  18.039  1.00  0.00     0.000 C 
BRANCH  10  11
ATOM     11  C   UNL     1      37.992  56.683  16.946  1.00  0.00    -0.000 C 
BRANCH  11  12
ATOM     12  C   UNL     1      36.586  57.259  17.187  1.00  0.00    -0.000 C 
BRANCH  12  13
ATOM     13  C   UNL     1      35.935  57.792  15.901  1.00  0.00    -0.000 C 
BRANCH  13  14
ATOM     14  C   UNL     1      34.935  56.796  15.290  1.00  0.00    -0.000 C 
BRANCH  14  15
ATOM     15  C   UNL     1      33.824  56.398  16.275  1.00  0.00    -0.003 C 
ATOM     16  C   UNL     1      32.447  56.315  15.616  1.00  0.00     0.004 C 
ENDBRANCH  14  15
ENDBRANCH  13  14
ENDBRANCH  12  13
ENDBRANCH  11  12
ENDBRANCH  10  11
ENDBRANCH   1  10
TORSDOF 12
ENDMDL
