MODEL 1
REMARK VINA RESULT:    -5.185      0.000      0.000
REMARK INTER + INTRA:          -5.882
REMARK INTER:                  -5.639
REMARK INTRA:                  -0.243
REMARK UNBOUND:                -0.243
REMARK SMILES O=C([O-])c1ccccc1O
REMARK SMILES IDX 4 1 9 2 5 3 8 4 6 5 7 6 2 7 1 8 3 9 10 10
REMARK H PARENT 10 11
REMARK Flexibility Score: inf
ROOT
ATOM      1  C   UNL     1      -3.829 -22.562  50.159  1.00  0.00     0.039 A 
ATOM      2  C   UNL     1      -3.465 -23.932  50.154  1.00  0.00     0.124 A 
ATOM      3  C   UNL     1      -4.952 -22.154  49.414  1.00  0.00     0.014 A 
ATOM      4  C   UNL     1      -4.183 -24.839  49.364  1.00  0.00     0.047 A 
ATOM      5  C   UNL     1      -5.671 -23.074  48.648  1.00  0.00     0.001 A 
ATOM      6  C   UNL     1      -5.282 -24.413  48.616  1.00  0.00     0.004 A 
ENDROOT
BRANCH   1   7
ATOM      7  C   UNL     1      -3.052 -21.537  50.889  1.00  0.00     0.075 C 
ATOM      8  O   UNL     1      -1.809 -21.671  51.037  1.00  0.00    -0.545 OA
ATOM      9  O   UNL     1      -3.688 -20.451  51.482  1.00  0.00    -0.545 OA
ENDBRANCH   1   7
BRANCH   2  10
ATOM     10  O   UNL     1      -2.427 -24.437  50.942  1.00  0.00    -0.507 OA
ATOM     11  H   UNL     1      -1.940 -23.889  51.638  1.00  0.00     0.293 HD
ENDBRANCH   2  10
TORSDOF 2
ENDMDL
MODEL 2
REMARK VINA RESULT:    -5.148      1.413      1.625
REMARK INTER + INTRA:          -5.842
REMARK INTER:                  -5.603
REMARK INTRA:                  -0.240
REMARK UNBOUND:                -0.243
REMARK SMILES O=C([O-])c1ccccc1O
REMARK SMILES IDX 4 1 9 2 5 3 8 4 6 5 7 6 2 7 1 8 3 9 10 10
REMARK H PARENT 10 11
REMARK Flexibility Score: inf
ROOT
ATOM      1  C   UNL     1      -3.074 -22.730  49.253  1.00  0.00     0.039 A 
ATOM      2  C   UNL     1      -3.396 -23.901  49.986  1.00  0.00     0.124 A 
ATOM      3  C   UNL     1      -4.013 -22.222  48.335  1.00  0.00     0.014 A 
ATOM      4  C   UNL     1      -4.606 -24.563  49.739  1.00  0.00     0.047 A 
ATOM      5  C   UNL     1      -5.224 -22.882  48.116  1.00  0.00     0.001 A 
ATOM      6  C   UNL     1      -5.516 -24.056  48.810  1.00  0.00     0.004 A 
ENDROOT
BRANCH   1   7
ATOM      7  C   UNL     1      -1.773 -22.041  49.391  1.00  0.00     0.075 C 
ATOM      8  O   UNL     1      -1.254 -21.465  48.398  1.00  0.00    -0.545 OA
ATOM      9  O   UNL     1      -1.072 -22.078  50.591  1.00  0.00    -0.545 OA
ENDBRANCH   1   7
BRANCH   2  10
ATOM     10  O   UNL     1      -2.566 -24.415  50.985  1.00  0.00    -0.507 OA
ATOM     11  H   UNL     1      -2.651 -25.353  51.352  1.00  0.00     0.293 HD
ENDBRANCH   2  10
TORSDOF 2
ENDMDL
MODEL 3
REMARK VINA RESULT:    -5.011      1.228      2.617
REMARK INTER + INTRA:          -5.693
REMARK INTER:                  -5.474
REMARK INTRA:                  -0.219
REMARK UNBOUND:                -0.243
REMARK SMILES O=C([O-])c1ccccc1O
REMARK SMILES IDX 4 1 9 2 5 3 8 4 6 5 7 6 2 7 1 8 3 9 10 10
REMARK H PARENT 10 11
REMARK Flexibility Score: inf
ROOT
ATOM      1  C   UNL     1      -3.104 -23.165  49.796  1.00  0.00     0.039 A 
ATOM      2  C   UNL     1      -3.631 -22.002  49.178  1.00  0.00     0.124 A 
ATOM      3  C   UNL     1      -3.849 -24.359  49.745  1.00  0.00     0.014 A 
ATOM      4  C   UNL     1      -4.900 -22.044  48.589  1.00  0.00     0.047 A 
ATOM      5  C   UNL     1      -5.104 -24.390  49.134  1.00  0.00     0.001 A 
ATOM      6  C   UNL     1      -5.633 -23.232  48.565  1.00  0.00     0.004 A 
ENDROOT
BRANCH   1   7
ATOM      7  C   UNL     1      -1.817 -23.163  50.525  1.00  0.00     0.075 C 
ATOM      8  O   UNL     1      -1.299 -22.075  50.891  1.00  0.00    -0.545 OA
ATOM      9  O   UNL     1      -1.128 -24.348  50.754  1.00  0.00    -0.545 OA
ENDBRANCH   1   7
BRANCH   2  10
ATOM     10  O   UNL     1      -2.916 -20.805  49.098  1.00  0.00    -0.507 OA
ATOM     11  H   UNL     1      -2.821 -20.270  48.246  1.00  0.00     0.293 HD
ENDBRANCH   2  10
TORSDOF 2
ENDMDL
MODEL 4
REMARK VINA RESULT:    -4.903      1.470      2.385
REMARK INTER + INTRA:          -5.576
REMARK INTER:                  -5.324
REMARK INTRA:                  -0.252
REMARK UNBOUND:                -0.243
REMARK SMILES O=C([O-])c1ccccc1O
REMARK SMILES IDX 4 1 9 2 5 3 8 4 6 5 7 6 2 7 1 8 3 9 10 10
REMARK H PARENT 10 11
REMARK Flexibility Score: inf
ROOT
ATOM      1  C   UNL     1      -4.760 -21.752  49.650  1.00  0.00     0.039 A 
ATOM      2  C   UNL     1      -3.570 -22.198  50.278  1.00  0.00     0.124 A 
ATOM      3  C   UNL     1      -5.589 -22.696  49.014  1.00  0.00     0.014 A 
ATOM      4  C   UNL     1      -3.208 -23.549  50.201  1.00  0.00     0.047 A 
ATOM      5  C   UNL     1      -5.225 -24.044  48.964  1.00  0.00     0.001 A 
ATOM      6  C   UNL     1      -4.032 -24.468  49.548  1.00  0.00     0.004 A 
ENDROOT
BRANCH   1   7
ATOM      7  C   UNL     1      -5.147 -20.325  49.606  1.00  0.00     0.075 C 
ATOM      8  O   UNL     1      -5.592 -19.823  48.540  1.00  0.00    -0.545 OA
ATOM      9  O   UNL     1      -4.962 -19.504  50.712  1.00  0.00    -0.545 OA
ENDBRANCH   1   7
BRANCH   2  10
ATOM     10  O   UNL     1      -2.743 -21.346  51.014  1.00  0.00    -0.507 OA
ATOM     11  H   UNL     1      -2.848 -21.188  52.007  1.00  0.00     0.293 HD
ENDBRANCH   2  10
TORSDOF 2
ENDMDL
MODEL 5
REMARK VINA RESULT:    -4.850      2.839      3.970
REMARK INTER + INTRA:          -5.518
REMARK INTER:                  -5.279
REMARK INTRA:                  -0.239
REMARK UNBOUND:                -0.243
REMARK SMILES O=C([O-])c1ccccc1O
REMARK SMILES IDX 4 1 9 2 5 3 8 4 6 5 7 6 2 7 1 8 3 9 10 10
REMARK H PARENT 10 11
REMARK Flexibility Score: inf
ROOT
ATOM      1  C   UNL     1      -1.938 -22.847  49.405  1.00  0.00     0.039 A 
ATOM      2  C   UNL     1      -1.320 -23.497  50.503  1.00  0.00     0.124 A 
ATOM      3  C   UNL     1      -1.177 -21.956  48.624  1.00  0.00     0.014 A 
ATOM      4  C   UNL     1       0.009 -23.195  50.829  1.00  0.00     0.047 A 
ATOM      5  C   UNL     1       0.153 -21.682  48.949  1.00  0.00     0.001 A 
ATOM      6  C   UNL     1       0.743 -22.294  50.055  1.00  0.00     0.004 A 
ENDROOT
BRANCH   1   7
ATOM      7  C   UNL     1      -3.365 -23.042  49.068  1.00  0.00     0.075 C 
ATOM      8  O   UNL     1      -3.787 -22.765  47.914  1.00  0.00    -0.545 OA
ATOM      9  O   UNL     1      -4.272 -23.463  50.034  1.00  0.00    -0.545 OA
ENDBRANCH   1   7
BRANCH   2  10
ATOM     10  O   UNL     1      -1.973 -24.467  51.267  1.00  0.00    -0.507 OA
ATOM     11  H   UNL     1      -2.899 -24.811  51.056  1.00  0.00     0.293 HD
ENDBRANCH   2  10
TORSDOF 2
ENDMDL
MODEL 6
REMARK VINA RESULT:    -4.812     12.145     13.212
REMARK INTER + INTRA:          -5.477
REMARK INTER:                  -5.255
REMARK INTRA:                  -0.222
REMARK UNBOUND:                -0.243
REMARK SMILES O=C([O-])c1ccccc1O
REMARK SMILES IDX 4 1 9 2 5 3 8 4 6 5 7 6 2 7 1 8 3 9 10 10
REMARK H PARENT 10 11
REMARK Flexibility Score: inf
ROOT
ATOM      1  C   UNL     1      -7.425 -10.733  52.916  1.00  0.00     0.039 A 
ATOM      2  C   UNL     1      -8.794 -10.628  52.563  1.00  0.00     0.124 A 
ATOM      3  C   UNL     1      -6.551 -11.427  52.058  1.00  0.00     0.014 A 
ATOM      4  C   UNL     1      -9.263 -11.266  51.407  1.00  0.00     0.047 A 
ATOM      5  C   UNL     1      -7.030 -12.040  50.898  1.00  0.00     0.001 A 
ATOM      6  C   UNL     1      -8.386 -11.967  50.578  1.00  0.00     0.004 A 
ENDROOT
BRANCH   1   7
ATOM      7  C   UNL     1      -6.884 -10.172  54.173  1.00  0.00     0.075 C 
ATOM      8  O   UNL     1      -7.659  -9.894  55.127  1.00  0.00    -0.545 OA
ATOM      9  O   UNL     1      -5.532  -9.876  54.297  1.00  0.00    -0.545 OA
ENDBRANCH   1   7
BRANCH   2  10
ATOM     10  O   UNL     1      -9.707  -9.876  53.306  1.00  0.00    -0.507 OA
ATOM     11  H   UNL     1     -10.320 -10.276  54.003  1.00  0.00     0.293 HD
ENDBRANCH   2  10
TORSDOF 2
ENDMDL
MODEL 7
REMARK VINA RESULT:    -4.736      1.664      2.694
REMARK INTER + INTRA:          -5.395
REMARK INTER:                  -5.220
REMARK INTRA:                  -0.175
REMARK UNBOUND:                -0.243
REMARK SMILES O=C([O-])c1ccccc1O
REMARK SMILES IDX 4 1 9 2 5 3 8 4 6 5 7 6 2 7 1 8 3 9 10 10
REMARK H PARENT 10 11
REMARK Flexibility Score: inf
ROOT
ATOM      1  C   UNL     1      -4.458 -21.966  50.086  1.00  0.00     0.039 A 
ATOM      2  C   UNL     1      -5.493 -22.333  49.188  1.00  0.00     0.124 A 
ATOM      3  C   UNL     1      -3.467 -22.914  50.405  1.00  0.00     0.014 A 
ATOM      4  C   UNL     1      -5.547 -23.640  48.689  1.00  0.00     0.047 A 
ATOM      5  C   UNL     1      -3.523 -24.207  49.881  1.00  0.00     0.001 A 
ATOM      6  C   UNL     1      -4.567 -24.573  49.032  1.00  0.00     0.004 A 
ENDROOT
BRANCH   1   7
ATOM      7  C   UNL     1      -4.400 -20.636  50.729  1.00  0.00     0.075 C 
ATOM      8  O   UNL     1      -5.182 -19.720  50.360  1.00  0.00    -0.545 OA
ATOM      9  O   UNL     1      -3.440 -20.354  51.694  1.00  0.00    -0.545 OA
ENDBRANCH   1   7
BRANCH   2  10
ATOM     10  O   UNL     1      -6.458 -21.426  48.743  1.00  0.00    -0.507 OA
ATOM     11  H   UNL     1      -7.104 -20.953  49.360  1.00  0.00     0.293 HD
ENDBRANCH   2  10
TORSDOF 2
ENDMDL
MODEL 8
REMARK VINA RESULT:    -4.700      2.037      2.575
REMARK INTER + INTRA:          -5.355
REMARK INTER:                  -5.107
REMARK INTRA:                  -0.248
REMARK UNBOUND:                -0.243
REMARK SMILES O=C([O-])c1ccccc1O
REMARK SMILES IDX 4 1 9 2 5 3 8 4 6 5 7 6 2 7 1 8 3 9 10 10
REMARK H PARENT 10 11
REMARK Flexibility Score: inf
ROOT
ATOM      1  C   UNL     1      -3.709 -23.596  48.967  1.00  0.00     0.039 A 
ATOM      2  C   UNL     1      -2.666 -24.305  49.616  1.00  0.00     0.124 A 
ATOM      3  C   UNL     1      -3.975 -23.866  47.611  1.00  0.00     0.014 A 
ATOM      4  C   UNL     1      -1.883 -25.208  48.886  1.00  0.00     0.047 A 
ATOM      5  C   UNL     1      -3.199 -24.785  46.903  1.00  0.00     0.001 A 
ATOM      6  C   UNL     1      -2.148 -25.449  47.537  1.00  0.00     0.004 A 
ENDROOT
BRANCH   1   7
ATOM      7  C   UNL     1      -4.506 -22.555  49.652  1.00  0.00     0.075 C 
ATOM      8  O   UNL     1      -5.678 -22.300  49.267  1.00  0.00    -0.545 OA
ATOM      9  O   UNL     1      -3.954 -21.797  50.678  1.00  0.00    -0.545 OA
ENDBRANCH   1   7
BRANCH   2  10
ATOM     10  O   UNL     1      -2.401 -24.170  50.981  1.00  0.00    -0.507 OA
ATOM     11  H   UNL     1      -1.816 -24.810  51.500  1.00  0.00     0.293 HD
ENDBRANCH   2  10
TORSDOF 2
ENDMDL
MODEL 9
REMARK VINA RESULT:    -4.694      1.645      2.264
REMARK INTER + INTRA:          -5.349
REMARK INTER:                  -5.113
REMARK INTRA:                  -0.236
REMARK UNBOUND:                -0.243
REMARK SMILES O=C([O-])c1ccccc1O
REMARK SMILES IDX 4 1 9 2 5 3 8 4 6 5 7 6 2 7 1 8 3 9 10 10
REMARK H PARENT 10 11
REMARK Flexibility Score: inf
ROOT
ATOM      1  C   UNL     1      -2.753 -23.978  49.596  1.00  0.00     0.039 A 
ATOM      2  C   UNL     1      -2.544 -24.655  48.367  1.00  0.00     0.124 A 
ATOM      3  C   UNL     1      -4.065 -23.616  49.959  1.00  0.00     0.014 A 
ATOM      4  C   UNL     1      -3.628 -24.892  47.512  1.00  0.00     0.047 A 
ATOM      5  C   UNL     1      -5.138 -23.879  49.105  1.00  0.00     0.001 A 
ATOM      6  C   UNL     1      -4.919 -24.508  47.880  1.00  0.00     0.004 A 
ENDROOT
BRANCH   1   7
ATOM      7  C   UNL     1      -1.641 -23.606  50.497  1.00  0.00     0.075 C 
ATOM      8  O   UNL     1      -0.864 -24.492  50.943  1.00  0.00    -0.545 OA
ATOM      9  O   UNL     1      -1.477 -22.292  50.919  1.00  0.00    -0.545 OA
ENDBRANCH   1   7
BRANCH   2  10
ATOM     10  O   UNL     1      -1.292 -25.135  47.978  1.00  0.00    -0.507 OA
ATOM     11  H   UNL     1      -0.800 -25.869  48.468  1.00  0.00     0.293 HD
ENDBRANCH   2  10
TORSDOF 2
ENDMDL
