MODEL 1
REMARK VINA RESULT:    -3.157      0.000      0.000
REMARK INTER + INTRA:          -3.544
REMARK INTER:                  -3.526
REMARK INTRA:                  -0.018
REMARK UNBOUND:                -0.018
REMARK SMILES CCCC(=O)[O-]
REMARK SMILES IDX 3 1 4 2 5 3 6 4 2 5 1 6
REMARK H PARENT
REMARK Flexibility Score: inf
ROOT
ATOM      1  C   UNL     1      60.623  29.393  11.069  1.00  0.00     0.052 C 
ENDROOT
BRANCH   1   2
ATOM      2  C   UNL     1      61.838  28.828  10.404  1.00  0.00     0.041 C 
ATOM      3  O   UNL     1      62.976  28.997  10.915  1.00  0.00    -0.550 OA
ATOM      4  O   UNL     1      61.709  28.071   9.247  1.00  0.00    -0.550 OA
ENDBRANCH   1   2
BRANCH   1   5
ATOM      5  C   UNL     1      60.699  29.189  12.585  1.00  0.00     0.003 C 
ATOM      6  C   UNL     1      59.560  28.300  13.078  1.00  0.00     0.004 C 
ENDBRANCH   1   5
TORSDOF 2
ENDMDL
MODEL 2
REMARK VINA RESULT:    -3.129      0.183      1.325
REMARK INTER + INTRA:          -3.513
REMARK INTER:                  -3.496
REMARK INTRA:                  -0.018
REMARK UNBOUND:                -0.018
REMARK SMILES CCCC(=O)[O-]
REMARK SMILES IDX 3 1 4 2 5 3 6 4 2 5 1 6
REMARK H PARENT
REMARK Flexibility Score: inf
ROOT
ATOM      1  C   UNL     1      60.778  29.530  11.196  1.00  0.00     0.052 C 
ENDROOT
BRANCH   1   2
ATOM      2  C   UNL     1      61.893  28.849  10.466  1.00  0.00     0.041 C 
ATOM      3  O   UNL     1      61.647  28.131   9.462  1.00  0.00    -0.550 OA
ATOM      4  O   UNL     1      63.208  29.049  10.865  1.00  0.00    -0.550 OA
ENDBRANCH   1   2
BRANCH   1   5
ATOM      5  C   UNL     1      60.803  29.156  12.680  1.00  0.00     0.003 C 
ATOM      6  C   UNL     1      59.575  28.332  13.061  1.00  0.00     0.004 C 
ENDBRANCH   1   5
TORSDOF 2
ENDMDL
MODEL 3
REMARK VINA RESULT:    -3.053      1.836      2.322
REMARK INTER + INTRA:          -3.428
REMARK INTER:                  -3.359
REMARK INTRA:                  -0.069
REMARK UNBOUND:                -0.018
REMARK SMILES CCCC(=O)[O-]
REMARK SMILES IDX 3 1 4 2 5 3 6 4 2 5 1 6
REMARK H PARENT
REMARK Flexibility Score: inf
ROOT
ATOM      1  C   UNL     1      60.971  28.643  12.806  1.00  0.00     0.052 C 
ENDROOT
BRANCH   1   2
ATOM      2  C   UNL     1      61.090  29.218  11.430  1.00  0.00     0.041 C 
ATOM      3  O   UNL     1      60.646  30.370  11.184  1.00  0.00    -0.550 OA
ATOM      4  O   UNL     1      61.737  28.502  10.430  1.00  0.00    -0.550 OA
ENDBRANCH   1   2
BRANCH   1   5
ATOM      5  C   UNL     1      61.804  29.456  13.800  1.00  0.00     0.003 C 
ATOM      6  C   UNL     1      63.298  29.277  13.542  1.00  0.00     0.004 C 
ENDBRANCH   1   5
TORSDOF 2
ENDMDL
MODEL 4
REMARK VINA RESULT:    -3.043      1.188      1.310
REMARK INTER + INTRA:          -3.418
REMARK INTER:                  -3.377
REMARK INTRA:                  -0.041
REMARK UNBOUND:                -0.018
REMARK SMILES CCCC(=O)[O-]
REMARK SMILES IDX 3 1 4 2 5 3 6 4 2 5 1 6
REMARK H PARENT
REMARK Flexibility Score: inf
ROOT
ATOM      1  C   UNL     1      60.696  30.032  11.673  1.00  0.00     0.052 C 
ENDROOT
BRANCH   1   2
ATOM      2  C   UNL     1      60.961  29.498  10.300  1.00  0.00     0.041 C 
ATOM      3  O   UNL     1      61.752  28.532  10.138  1.00  0.00    -0.550 OA
ATOM      4  O   UNL     1      60.296  30.034   9.205  1.00  0.00    -0.550 OA
ENDBRANCH   1   2
BRANCH   1   5
ATOM      5  C   UNL     1      60.868  28.927  12.718  1.00  0.00     0.003 C 
ATOM      6  C   UNL     1      59.523  28.306  13.090  1.00  0.00     0.004 C 
ENDBRANCH   1   5
TORSDOF 2
ENDMDL
MODEL 5
REMARK VINA RESULT:    -3.042      2.320      3.416
REMARK INTER + INTRA:          -3.416
REMARK INTER:                  -3.406
REMARK INTRA:                  -0.010
REMARK UNBOUND:                -0.018
REMARK SMILES CCCC(=O)[O-]
REMARK SMILES IDX 3 1 4 2 5 3 6 4 2 5 1 6
REMARK H PARENT
REMARK Flexibility Score: inf
ROOT
ATOM      1  C   UNL     1      60.613  29.489  11.419  1.00  0.00     0.052 C 
ENDROOT
BRANCH   1   2
ATOM      2  C   UNL     1      60.384  28.891  12.771  1.00  0.00     0.041 C 
ATOM      3  O   UNL     1      59.299  28.308  13.030  1.00  0.00    -0.550 OA
ATOM      4  O   UNL     1      61.389  28.932  13.729  1.00  0.00    -0.550 OA
ENDBRANCH   1   2
BRANCH   1   5
ATOM      5  C   UNL     1      61.927  28.979  10.823  1.00  0.00     0.003 C 
ATOM      6  C   UNL     1      61.717  28.434   9.413  1.00  0.00     0.004 C 
ENDBRANCH   1   5
TORSDOF 2
ENDMDL
MODEL 6
REMARK VINA RESULT:    -2.979      2.579      3.239
REMARK INTER + INTRA:          -3.345
REMARK INTER:                  -3.312
REMARK INTRA:                  -0.033
REMARK UNBOUND:                -0.018
REMARK SMILES CCCC(=O)[O-]
REMARK SMILES IDX 3 1 4 2 5 3 6 4 2 5 1 6
REMARK H PARENT
REMARK Flexibility Score: inf
ROOT
ATOM      1  C   UNL     1      61.980  28.378   9.471  1.00  0.00     0.052 C 
ENDROOT
BRANCH   1   2
ATOM      2  C   UNL     1      60.634  29.027   9.539  1.00  0.00     0.041 C 
ATOM      3  O   UNL     1      60.485  30.112  10.160  1.00  0.00    -0.550 OA
ATOM      4  O   UNL     1      59.554  28.460   8.875  1.00  0.00    -0.550 OA
ENDBRANCH   1   2
BRANCH   1   5
ATOM      5  C   UNL     1      62.915  28.971  10.528  1.00  0.00     0.003 C 
ATOM      6  C   UNL     1      64.224  29.446   9.902  1.00  0.00     0.004 C 
ENDBRANCH   1   5
TORSDOF 2
ENDMDL
MODEL 7
REMARK VINA RESULT:    -2.966     14.976     15.746
REMARK INTER + INTRA:          -3.331
REMARK INTER:                  -3.268
REMARK INTRA:                  -0.063
REMARK UNBOUND:                -0.018
REMARK SMILES CCCC(=O)[O-]
REMARK SMILES IDX 3 1 4 2 5 3 6 4 2 5 1 6
REMARK H PARENT
REMARK Flexibility Score: inf
ROOT
ATOM      1  C   UNL     1      61.156  28.262  26.050  1.00  0.00     0.052 C 
ENDROOT
BRANCH   1   2
ATOM      2  C   UNL     1      61.747  28.132  27.418  1.00  0.00     0.041 C 
ATOM      3  O   UNL     1      62.535  27.186  27.680  1.00  0.00    -0.550 OA
ATOM      4  O   UNL     1      61.468  29.085  28.389  1.00  0.00    -0.550 OA
ENDBRANCH   1   2
BRANCH   1   5
ATOM      5  C   UNL     1      62.242  28.611  25.029  1.00  0.00     0.003 C 
ATOM      6  C   UNL     1      62.795  30.014  25.271  1.00  0.00     0.004 C 
ENDBRANCH   1   5
TORSDOF 2
ENDMDL
MODEL 8
REMARK VINA RESULT:    -2.929      2.264      3.665
REMARK INTER + INTRA:          -3.290
REMARK INTER:                  -3.220
REMARK INTRA:                  -0.070
REMARK UNBOUND:                -0.018
REMARK SMILES CCCC(=O)[O-]
REMARK SMILES IDX 3 1 4 2 5 3 6 4 2 5 1 6
REMARK H PARENT
REMARK Flexibility Score: inf
ROOT
ATOM      1  C   UNL     1      63.321  29.287  10.753  1.00  0.00     0.052 C 
ENDROOT
BRANCH   1   2
ATOM      2  C   UNL     1      61.977  29.097  10.124  1.00  0.00     0.041 C 
ATOM      3  O   UNL     1      61.044  29.906  10.367  1.00  0.00    -0.550 OA
ATOM      4  O   UNL     1      61.769  28.056   9.228  1.00  0.00    -0.550 OA
ENDBRANCH   1   2
BRANCH   1   5
ATOM      5  C   UNL     1      64.409  29.361   9.679  1.00  0.00     0.003 C 
ATOM      6  C   UNL     1      64.359  30.693   8.935  1.00  0.00     0.004 C 
ENDBRANCH   1   5
TORSDOF 2
ENDMDL
MODEL 9
REMARK VINA RESULT:    -2.873     15.849     16.591
REMARK INTER + INTRA:          -3.227
REMARK INTER:                  -3.201
REMARK INTRA:                  -0.025
REMARK UNBOUND:                -0.018
REMARK SMILES CCCC(=O)[O-]
REMARK SMILES IDX 3 1 4 2 5 3 6 4 2 5 1 6
REMARK H PARENT
REMARK Flexibility Score: inf
ROOT
ATOM      1  C   UNL     1      62.075  27.539  27.371  1.00  0.00     0.052 C 
ENDROOT
BRANCH   1   2
ATOM      2  C   UNL     1      62.338  28.637  28.352  1.00  0.00     0.041 C 
ATOM      3  O   UNL     1      61.386  29.334  28.792  1.00  0.00    -0.550 OA
ATOM      4  O   UNL     1      63.627  28.859  28.819  1.00  0.00    -0.550 OA
ENDBRANCH   1   2
BRANCH   1   5
ATOM      5  C   UNL     1      61.307  28.076  26.160  1.00  0.00     0.003 C 
ATOM      6  C   UNL     1      60.186  27.124  25.752  1.00  0.00     0.004 C 
ENDBRANCH   1   5
TORSDOF 2
ENDMDL
