MODEL 1
REMARK VINA RESULT:    -6.328      0.000      0.000
REMARK INTER + INTRA:          -9.216
REMARK INTER:                  -7.992
REMARK INTRA:                  -1.224
REMARK UNBOUND:                -1.224
REMARK SMILES O=C(C=Cc1ccc(O)cc1)c1ccc(O)cc1O
REMARK SMILES IDX 4 1 3 2 5 3 6 4 7 5 8 6 11 7 10 8 9 9 2 11 1 12 12 13 18 14
REMARK SMILES IDX 13 15 17 16 14 17 15 18 19 19 16 21
REMARK H PARENT 9 10 19 20 16 22
REMARK Flexibility Score: inf
ROOT
ATOM      1  C   UNL     1      -7.591  -3.517  64.852  1.00  0.00     0.012 C 
ATOM      2  C   UNL     1      -8.355  -3.491  65.956  1.00  0.00     0.053 C 
ENDROOT
BRANCH   1   3
ATOM      3  C   UNL     1      -7.503  -4.643  63.900  1.00  0.00    -0.025 A 
ATOM      4  C   UNL     1      -8.458  -4.757  62.879  1.00  0.00     0.012 A 
ATOM      5  C   UNL     1      -8.422  -5.840  61.995  1.00  0.00     0.047 A 
ATOM      6  C   UNL     1      -7.442  -6.832  62.138  1.00  0.00     0.115 A 
ATOM      7  C   UNL     1      -6.541  -5.657  64.056  1.00  0.00     0.012 A 
ATOM      8  C   UNL     1      -6.506  -6.739  63.172  1.00  0.00     0.047 A 
BRANCH   6   9
ATOM      9  O   UNL     1      -7.395  -7.915  61.262  1.00  0.00    -0.508 OA
ATOM     10  H   UNL     1      -6.533  -8.415  61.083  1.00  0.00     0.293 HD
ENDBRANCH   6   9
ENDBRANCH   1   3
BRANCH   2  11
ATOM     11  C   UNL     1      -9.097  -4.649  66.513  1.00  0.00     0.189 C 
ATOM     12  O   UNL     1     -10.290  -4.861  66.163  1.00  0.00    -0.289 OA
BRANCH  11  13
ATOM     13  C   UNL     1      -8.449  -5.594  67.454  1.00  0.00     0.064 A 
ATOM     14  C   UNL     1      -8.305  -6.956  67.112  1.00  0.00     0.130 A 
ATOM     15  C   UNL     1      -7.949  -5.142  68.690  1.00  0.00     0.020 A 
ATOM     16  C   UNL     1      -7.677  -7.839  68.004  1.00  0.00     0.093 A 
ATOM     17  C   UNL     1      -7.328  -6.032  69.572  1.00  0.00     0.047 A 
ATOM     18  C   UNL     1      -7.191  -7.381  69.231  1.00  0.00     0.119 A 
BRANCH  14  19
ATOM     19  O   UNL     1      -8.798  -7.434  65.898  1.00  0.00    -0.507 OA
ATOM     20  H   UNL     1      -9.104  -6.806  65.165  1.00  0.00     0.293 HD
ENDBRANCH  14  19
BRANCH  18  21
ATOM     21  O   UNL     1      -6.573  -8.276  70.103  1.00  0.00    -0.508 OA
ATOM     22  H   UNL     1      -5.918  -7.960  70.808  1.00  0.00     0.293 HD
ENDBRANCH  18  21
ENDBRANCH  11  13
ENDBRANCH   2  11
TORSDOF 6
ENDMDL
MODEL 2
REMARK VINA RESULT:    -6.308      2.356      6.112
REMARK INTER + INTRA:          -9.190
REMARK INTER:                  -8.097
REMARK INTRA:                  -1.093
REMARK UNBOUND:                -1.224
REMARK SMILES O=C(C=Cc1ccc(O)cc1)c1ccc(O)cc1O
REMARK SMILES IDX 4 1 3 2 5 3 6 4 7 5 8 6 11 7 10 8 9 9 2 11 1 12 12 13 18 14
REMARK SMILES IDX 13 15 17 16 14 17 15 18 19 19 16 21
REMARK H PARENT 9 10 19 20 16 22
REMARK Flexibility Score: inf
ROOT
ATOM      1  C   UNL     1      -7.246  -7.992  67.782  1.00  0.00     0.012 C 
ATOM      2  C   UNL     1      -7.219  -7.915  66.442  1.00  0.00     0.053 C 
ENDROOT
BRANCH   1   3
ATOM      3  C   UNL     1      -8.328  -7.478  68.646  1.00  0.00    -0.025 A 
ATOM      4  C   UNL     1      -9.470  -8.264  68.861  1.00  0.00     0.012 A 
ATOM      5  C   UNL     1     -10.526  -7.778  69.637  1.00  0.00     0.047 A 
ATOM      6  C   UNL     1     -10.461  -6.490  70.187  1.00  0.00     0.115 A 
ATOM      7  C   UNL     1      -8.282  -6.175  69.176  1.00  0.00     0.012 A 
ATOM      8  C   UNL     1      -9.340  -5.691  69.951  1.00  0.00     0.047 A 
BRANCH   6   9
ATOM      9  O   UNL     1     -11.508  -5.997  70.963  1.00  0.00    -0.508 OA
ATOM     10  H   UNL     1     -11.338  -5.519  71.840  1.00  0.00     0.293 HD
ENDBRANCH   6   9
ENDBRANCH   1   3
BRANCH   2  11
ATOM     11  C   UNL     1      -8.171  -7.142  65.608  1.00  0.00     0.189 C 
ATOM     12  O   UNL     1      -9.315  -7.610  65.357  1.00  0.00    -0.289 OA
BRANCH  11  13
ATOM     13  C   UNL     1      -7.818  -5.799  65.086  1.00  0.00     0.064 A 
ATOM     14  C   UNL     1      -8.125  -5.447  63.755  1.00  0.00     0.130 A 
ATOM     15  C   UNL     1      -7.190  -4.851  65.917  1.00  0.00     0.020 A 
ATOM     16  C   UNL     1      -7.800  -4.169  63.275  1.00  0.00     0.093 A 
ATOM     17  C   UNL     1      -6.867  -3.583  65.427  1.00  0.00     0.047 A 
ATOM     18  C   UNL     1      -7.171  -3.239  64.106  1.00  0.00     0.119 A 
BRANCH  14  19
ATOM     19  O   UNL     1      -8.739  -6.368  62.906  1.00  0.00    -0.507 OA
ATOM     20  H   UNL     1      -9.440  -7.017  63.243  1.00  0.00     0.293 HD
ENDBRANCH  14  19
BRANCH  18  21
ATOM     21  O   UNL     1      -6.854  -1.976  63.609  1.00  0.00    -0.508 OA
ATOM     22  H   UNL     1      -7.564  -1.365  63.224  1.00  0.00     0.293 HD
ENDBRANCH  18  21
ENDBRANCH  11  13
ENDBRANCH   2  11
TORSDOF 6
ENDMDL
MODEL 3
REMARK VINA RESULT:    -6.291      2.251      4.380
REMARK INTER + INTRA:          -9.169
REMARK INTER:                  -8.095
REMARK INTRA:                  -1.074
REMARK UNBOUND:                -1.224
REMARK SMILES O=C(C=Cc1ccc(O)cc1)c1ccc(O)cc1O
REMARK SMILES IDX 4 1 3 2 5 3 6 4 7 5 8 6 11 7 10 8 9 9 2 11 1 12 12 13 18 14
REMARK SMILES IDX 13 15 17 16 14 17 15 18 19 19 16 21
REMARK H PARENT 9 10 19 20 16 22
REMARK Flexibility Score: inf
ROOT
ATOM      1  C   UNL     1      -8.697  -8.736  64.034  1.00  0.00     0.012 C 
ATOM      2  C   UNL     1      -8.762  -8.167  65.249  1.00  0.00     0.053 C 
ENDROOT
BRANCH   1   3
ATOM      3  C   UNL     1      -7.574  -8.601  63.085  1.00  0.00    -0.025 A 
ATOM      4  C   UNL     1      -6.463  -9.449  63.207  1.00  0.00     0.012 A 
ATOM      5  C   UNL     1      -5.368  -9.308  62.350  1.00  0.00     0.047 A 
ATOM      6  C   UNL     1      -5.363  -8.301  61.375  1.00  0.00     0.115 A 
ATOM      7  C   UNL     1      -7.550  -7.573  62.125  1.00  0.00     0.012 A 
ATOM      8  C   UNL     1      -6.454  -7.433  61.268  1.00  0.00     0.047 A 
BRANCH   6   9
ATOM      9  O   UNL     1      -4.278  -8.152  60.514  1.00  0.00    -0.508 OA
ATOM     10  H   UNL     1      -4.406  -7.968  59.526  1.00  0.00     0.293 HD
ENDBRANCH   6   9
ENDBRANCH   1   3
BRANCH   2  11
ATOM     11  C   UNL     1      -7.809  -7.159  65.775  1.00  0.00     0.189 C 
ATOM     12  O   UNL     1      -6.676  -7.521  66.197  1.00  0.00    -0.289 OA
BRANCH  11  13
ATOM     13  C   UNL     1      -8.147  -5.716  65.783  1.00  0.00     0.064 A 
ATOM     14  C   UNL     1      -7.795  -4.906  66.884  1.00  0.00     0.130 A 
ATOM     15  C   UNL     1      -8.804  -5.129  64.685  1.00  0.00     0.020 A 
ATOM     16  C   UNL     1      -8.107  -3.538  66.876  1.00  0.00     0.093 A 
ATOM     17  C   UNL     1      -9.113  -3.766  64.689  1.00  0.00     0.047 A 
ATOM     18  C   UNL     1      -8.766  -2.968  65.784  1.00  0.00     0.119 A 
BRANCH  14  19
ATOM     19  O   UNL     1      -7.152  -5.462  67.990  1.00  0.00    -0.507 OA
ATOM     20  H   UNL     1      -6.198  -5.799  67.936  1.00  0.00     0.293 HD
ENDBRANCH  14  19
BRANCH  18  21
ATOM     21  O   UNL     1      -9.068  -1.608  65.797  1.00  0.00    -0.508 OA
ATOM     22  H   UNL     1      -8.399  -0.919  66.120  1.00  0.00     0.293 HD
ENDBRANCH  18  21
ENDBRANCH  11  13
ENDBRANCH   2  11
TORSDOF 6
ENDMDL
MODEL 4
REMARK VINA RESULT:    -6.259      2.338      5.890
REMARK INTER + INTRA:          -9.129
REMARK INTER:                  -7.823
REMARK INTRA:                  -1.306
REMARK UNBOUND:                -1.224
REMARK SMILES O=C(C=Cc1ccc(O)cc1)c1ccc(O)cc1O
REMARK SMILES IDX 4 1 3 2 5 3 6 4 7 5 8 6 11 7 10 8 9 9 2 11 1 12 12 13 18 14
REMARK SMILES IDX 13 15 17 16 14 17 15 18 19 19 16 21
REMARK H PARENT 9 10 19 20 16 22
REMARK Flexibility Score: inf
ROOT
ATOM      1  C   UNL     1      -6.024  -7.869  66.072  1.00  0.00     0.012 C 
ATOM      2  C   UNL     1      -5.987  -9.062  65.456  1.00  0.00     0.053 C 
ENDROOT
BRANCH   1   3
ATOM      3  C   UNL     1      -7.069  -6.842  65.886  1.00  0.00    -0.025 A 
ATOM      4  C   UNL     1      -6.797  -5.720  65.090  1.00  0.00     0.012 A 
ATOM      5  C   UNL     1      -7.754  -4.712  64.938  1.00  0.00     0.047 A 
ATOM      6  C   UNL     1      -8.986  -4.806  65.600  1.00  0.00     0.115 A 
ATOM      7  C   UNL     1      -8.295  -6.916  66.572  1.00  0.00     0.012 A 
ATOM      8  C   UNL     1      -9.251  -5.908  66.419  1.00  0.00     0.047 A 
BRANCH   6   9
ATOM      9  O   UNL     1      -9.948  -3.809  65.455  1.00  0.00    -0.508 OA
ATOM     10  H   UNL     1      -9.689  -2.842  65.300  1.00  0.00     0.293 HD
ENDBRANCH   6   9
ENDBRANCH   1   3
BRANCH   2  11
ATOM     11  C   UNL     1      -6.880  -9.482  64.349  1.00  0.00     0.189 C 
ATOM     12  O   UNL     1      -7.516 -10.568  64.428  1.00  0.00    -0.289 OA
BRANCH  11  13
ATOM     13  C   UNL     1      -7.071  -8.628  63.152  1.00  0.00     0.064 A 
ATOM     14  C   UNL     1      -8.365  -8.214  62.769  1.00  0.00     0.130 A 
ATOM     15  C   UNL     1      -5.964  -8.200  62.394  1.00  0.00     0.020 A 
ATOM     16  C   UNL     1      -8.533  -7.393  61.643  1.00  0.00     0.093 A 
ATOM     17  C   UNL     1      -6.144  -7.386  61.272  1.00  0.00     0.047 A 
ATOM     18  C   UNL     1      -7.429  -6.981  60.895  1.00  0.00     0.119 A 
BRANCH  14  19
ATOM     19  O   UNL     1      -9.481  -8.629  63.496  1.00  0.00    -0.507 OA
ATOM     20  H   UNL     1     -10.083  -7.966  63.969  1.00  0.00     0.293 HD
ENDBRANCH  14  19
BRANCH  18  21
ATOM     21  O   UNL     1      -7.618  -6.169  59.779  1.00  0.00    -0.508 OA
ATOM     22  H   UNL     1      -6.956  -6.159  59.012  1.00  0.00     0.293 HD
ENDBRANCH  18  21
ENDBRANCH  11  13
ENDBRANCH   2  11
TORSDOF 6
ENDMDL
MODEL 5
REMARK VINA RESULT:    -6.179      2.051      5.867
REMARK INTER + INTRA:          -9.028
REMARK INTER:                  -7.993
REMARK INTRA:                  -1.035
REMARK UNBOUND:                -1.224
REMARK SMILES O=C(C=Cc1ccc(O)cc1)c1ccc(O)cc1O
REMARK SMILES IDX 4 1 3 2 5 3 6 4 7 5 8 6 11 7 10 8 9 9 2 11 1 12 12 13 18 14
REMARK SMILES IDX 13 15 17 16 14 17 15 18 19 19 16 21
REMARK H PARENT 9 10 19 20 16 22
REMARK Flexibility Score: inf
ROOT
ATOM      1  C   UNL     1     -10.274  -7.339  66.714  1.00  0.00     0.012 C 
ATOM      2  C   UNL     1     -10.019  -8.312  65.825  1.00  0.00     0.053 C 
ENDROOT
BRANCH   1   3
ATOM      3  C   UNL     1      -9.371  -6.215  67.036  1.00  0.00    -0.025 A 
ATOM      4  C   UNL     1      -9.430  -5.044  66.265  1.00  0.00     0.012 A 
ATOM      5  C   UNL     1      -8.552  -3.985  66.521  1.00  0.00     0.047 A 
ATOM      6  C   UNL     1      -7.592  -4.097  67.536  1.00  0.00     0.115 A 
ATOM      7  C   UNL     1      -8.386  -6.333  68.032  1.00  0.00     0.012 A 
ATOM      8  C   UNL     1      -7.509  -5.273  68.286  1.00  0.00     0.047 A 
BRANCH   6   9
ATOM      9  O   UNL     1      -6.714  -3.048  67.800  1.00  0.00    -0.508 OA
ATOM     10  H   UNL     1      -6.384  -2.858  68.739  1.00  0.00     0.293 HD
ENDBRANCH   6   9
ENDBRANCH   1   3
BRANCH   2  11
ATOM     11  C   UNL     1      -8.717  -8.534  65.148  1.00  0.00     0.189 C 
ATOM     12  O   UNL     1      -7.829  -9.237  65.703  1.00  0.00    -0.289 OA
BRANCH  11  13
ATOM     13  C   UNL     1      -8.447  -7.972  63.803  1.00  0.00     0.064 A 
ATOM     14  C   UNL     1      -8.500  -8.798  62.660  1.00  0.00     0.130 A 
ATOM     15  C   UNL     1      -8.156  -6.604  63.645  1.00  0.00     0.020 A 
ATOM     16  C   UNL     1      -8.257  -8.254  61.390  1.00  0.00     0.093 A 
ATOM     17  C   UNL     1      -7.912  -6.073  62.375  1.00  0.00     0.047 A 
ATOM     18  C   UNL     1      -7.962  -6.896  61.246  1.00  0.00     0.119 A 
BRANCH  14  19
ATOM     19  O   UNL     1      -8.778 -10.159  62.787  1.00  0.00    -0.507 OA
ATOM     20  H   UNL     1      -8.126 -10.796  63.229  1.00  0.00     0.293 HD
ENDBRANCH  14  19
BRANCH  18  21
ATOM     21  O   UNL     1      -7.722  -6.376  59.975  1.00  0.00    -0.508 OA
ATOM     22  H   UNL     1      -6.841  -5.934  59.743  1.00  0.00     0.293 HD
ENDBRANCH  18  21
ENDBRANCH  11  13
ENDBRANCH   2  11
TORSDOF 6
ENDMDL
MODEL 6
REMARK VINA RESULT:    -6.164      1.996      5.639
REMARK INTER + INTRA:          -9.009
REMARK INTER:                  -7.676
REMARK INTRA:                  -1.333
REMARK UNBOUND:                -1.224
REMARK SMILES O=C(C=Cc1ccc(O)cc1)c1ccc(O)cc1O
REMARK SMILES IDX 4 1 3 2 5 3 6 4 7 5 8 6 11 7 10 8 9 9 2 11 1 12 12 13 18 14
REMARK SMILES IDX 13 15 17 16 14 17 15 18 19 19 16 21
REMARK H PARENT 9 10 19 20 16 22
REMARK Flexibility Score: inf
ROOT
ATOM      1  C   UNL     1      -8.352  -7.162  67.425  1.00  0.00     0.012 C 
ATOM      2  C   UNL     1      -7.643  -8.168  66.889  1.00  0.00     0.053 C 
ENDROOT
BRANCH   1   3
ATOM      3  C   UNL     1      -8.440  -5.792  66.880  1.00  0.00    -0.025 A 
ATOM      4  C   UNL     1      -7.594  -4.794  67.386  1.00  0.00     0.012 A 
ATOM      5  C   UNL     1      -7.693  -3.480  66.918  1.00  0.00     0.047 A 
ATOM      6  C   UNL     1      -8.655  -3.146  65.955  1.00  0.00     0.115 A 
ATOM      7  C   UNL     1      -9.424  -5.445  65.936  1.00  0.00     0.012 A 
ATOM      8  C   UNL     1      -9.521  -4.130  65.470  1.00  0.00     0.047 A 
BRANCH   6   9
ATOM      9  O   UNL     1      -8.761  -1.841  65.481  1.00  0.00    -0.508 OA
ATOM     10  H   UNL     1      -9.643  -1.467  65.151  1.00  0.00     0.293 HD
ENDBRANCH   6   9
ENDBRANCH   1   3
BRANCH   2  11
ATOM     11  C   UNL     1      -6.680  -8.036  65.768  1.00  0.00     0.189 C 
ATOM     12  O   UNL     1      -5.449  -8.228  65.966  1.00  0.00    -0.289 OA
BRANCH  11  13
ATOM     13  C   UNL     1      -7.141  -7.714  64.396  1.00  0.00     0.064 A 
ATOM     14  C   UNL     1      -6.691  -6.545  63.747  1.00  0.00     0.130 A 
ATOM     15  C   UNL     1      -8.017  -8.580  63.714  1.00  0.00     0.020 A 
ATOM     16  C   UNL     1      -7.122  -6.256  62.443  1.00  0.00     0.093 A 
ATOM     17  C   UNL     1      -8.442  -8.282  62.416  1.00  0.00     0.047 A 
ATOM     18  C   UNL     1      -7.996  -7.119  61.779  1.00  0.00     0.119 A 
BRANCH  14  19
ATOM     19  O   UNL     1      -5.830  -5.663  64.401  1.00  0.00    -0.507 OA
ATOM     20  H   UNL     1      -6.131  -4.738  64.685  1.00  0.00     0.293 HD
ENDBRANCH  14  19
BRANCH  18  21
ATOM     21  O   UNL     1      -8.414  -6.813  60.485  1.00  0.00    -0.508 OA
ATOM     22  H   UNL     1      -7.893  -7.122  59.674  1.00  0.00     0.293 HD
ENDBRANCH  18  21
ENDBRANCH  11  13
ENDBRANCH   2  11
TORSDOF 6
ENDMDL
MODEL 7
REMARK VINA RESULT:    -6.152      1.889      5.557
REMARK INTER + INTRA:          -8.995
REMARK INTER:                  -7.858
REMARK INTRA:                  -1.136
REMARK UNBOUND:                -1.224
REMARK SMILES O=C(C=Cc1ccc(O)cc1)c1ccc(O)cc1O
REMARK SMILES IDX 4 1 3 2 5 3 6 4 7 5 8 6 11 7 10 8 9 9 2 11 1 12 12 13 18 14
REMARK SMILES IDX 13 15 17 16 14 17 15 18 19 19 16 21
REMARK H PARENT 9 10 19 20 16 22
REMARK Flexibility Score: inf
ROOT
ATOM      1  C   UNL     1      -8.299  -3.622  65.006  1.00  0.00     0.012 C 
ATOM      2  C   UNL     1      -7.575  -4.154  64.008  1.00  0.00     0.053 C 
ENDROOT
BRANCH   1   3
ATOM      3  C   UNL     1      -8.403  -4.169  66.374  1.00  0.00    -0.025 A 
ATOM      4  C   UNL     1      -7.423  -3.840  67.323  1.00  0.00     0.012 A 
ATOM      5  C   UNL     1      -7.476  -4.385  68.610  1.00  0.00     0.047 A 
ATOM      6  C   UNL     1      -8.496  -5.282  68.954  1.00  0.00     0.115 A 
ATOM      7  C   UNL     1      -9.407  -5.093  66.715  1.00  0.00     0.012 A 
ATOM      8  C   UNL     1      -9.457  -5.636  68.003  1.00  0.00     0.047 A 
BRANCH   6   9
ATOM      9  O   UNL     1      -8.559  -5.829  70.233  1.00  0.00    -0.508 OA
ATOM     10  H   UNL     1      -9.364  -5.686  70.832  1.00  0.00     0.293 HD
ENDBRANCH   6   9
ENDBRANCH   1   3
BRANCH   2  11
ATOM     11  C   UNL     1      -6.905  -5.477  64.047  1.00  0.00     0.189 C 
ATOM     12  O   UNL     1      -5.756  -5.588  64.555  1.00  0.00    -0.289 OA
BRANCH  11  13
ATOM     13  C   UNL     1      -7.578  -6.691  63.528  1.00  0.00     0.064 A 
ATOM     14  C   UNL     1      -7.855  -7.777  64.387  1.00  0.00     0.130 A 
ATOM     15  C   UNL     1      -7.970  -6.772  62.178  1.00  0.00     0.020 A 
ATOM     16  C   UNL     1      -8.506  -8.916  63.889  1.00  0.00     0.093 A 
ATOM     17  C   UNL     1      -8.614  -7.913  61.692  1.00  0.00     0.047 A 
ATOM     18  C   UNL     1      -8.883  -8.987  62.547  1.00  0.00     0.119 A 
BRANCH  14  19
ATOM     19  O   UNL     1      -7.472  -7.730  65.727  1.00  0.00    -0.507 OA
ATOM     20  H   UNL     1      -8.059  -8.105  66.462  1.00  0.00     0.293 HD
ENDBRANCH  14  19
BRANCH  18  21
ATOM     21  O   UNL     1      -9.526 -10.129  62.072  1.00  0.00    -0.508 OA
ATOM     22  H   UNL     1      -9.036 -11.010  61.973  1.00  0.00     0.293 HD
ENDBRANCH  18  21
ENDBRANCH  11  13
ENDBRANCH   2  11
TORSDOF 6
ENDMDL
MODEL 8
REMARK VINA RESULT:    -6.081      2.311      4.372
REMARK INTER + INTRA:          -8.904
REMARK INTER:                  -7.513
REMARK INTRA:                  -1.391
REMARK UNBOUND:                -1.224
REMARK SMILES O=C(C=Cc1ccc(O)cc1)c1ccc(O)cc1O
REMARK SMILES IDX 4 1 3 2 5 3 6 4 7 5 8 6 11 7 10 8 9 9 2 11 1 12 12 13 18 14
REMARK SMILES IDX 13 15 17 16 14 17 15 18 19 19 16 21
REMARK H PARENT 9 10 19 20 16 22
REMARK Flexibility Score: inf
ROOT
ATOM      1  C   UNL     1      -6.610  -8.932  65.987  1.00  0.00     0.012 C 
ATOM      2  C   UNL     1      -7.623  -8.261  66.560  1.00  0.00     0.053 C 
ENDROOT
BRANCH   1   3
ATOM      3  C   UNL     1      -6.141  -8.750  64.599  1.00  0.00    -0.025 A 
ATOM      4  C   UNL     1      -5.143  -7.802  64.328  1.00  0.00     0.012 A 
ATOM      5  C   UNL     1      -4.717  -7.580  63.015  1.00  0.00     0.047 A 
ATOM      6  C   UNL     1      -5.301  -8.288  61.956  1.00  0.00     0.115 A 
ATOM      7  C   UNL     1      -6.744  -9.436  63.529  1.00  0.00     0.012 A 
ATOM      8  C   UNL     1      -6.316  -9.212  62.217  1.00  0.00     0.047 A 
BRANCH   6   9
ATOM      9  O   UNL     1      -4.882  -8.076  60.645  1.00  0.00    -0.508 OA
ATOM     10  H   UNL     1      -5.223  -7.293  60.100  1.00  0.00     0.293 HD
ENDBRANCH   6   9
ENDBRANCH   1   3
BRANCH   2  11
ATOM     11  C   UNL     1      -8.564  -7.360  65.850  1.00  0.00     0.189 C 
ATOM     12  O   UNL     1      -9.773  -7.691  65.713  1.00  0.00    -0.289 OA
BRANCH  11  13
ATOM     13  C   UNL     1      -8.118  -6.049  65.322  1.00  0.00     0.064 A 
ATOM     14  C   UNL     1      -8.260  -5.745  63.951  1.00  0.00     0.130 A 
ATOM     15  C   UNL     1      -7.567  -5.080  66.183  1.00  0.00     0.020 A 
ATOM     16  C   UNL     1      -7.848  -4.495  63.464  1.00  0.00     0.093 A 
ATOM     17  C   UNL     1      -7.157  -3.840  65.687  1.00  0.00     0.047 A 
ATOM     18  C   UNL     1      -7.296  -3.545  64.326  1.00  0.00     0.119 A 
BRANCH  14  19
ATOM     19  O   UNL     1      -8.794  -6.687  63.072  1.00  0.00    -0.507 OA
ATOM     20  H   UNL     1      -9.750  -6.625  62.742  1.00  0.00     0.293 HD
ENDBRANCH  14  19
BRANCH  18  21
ATOM     21  O   UNL     1      -6.891  -2.311  63.822  1.00  0.00    -0.508 OA
ATOM     22  H   UNL     1      -7.082  -2.042  62.864  1.00  0.00     0.293 HD
ENDBRANCH  18  21
ENDBRANCH  11  13
ENDBRANCH   2  11
TORSDOF 6
ENDMDL
MODEL 9
REMARK VINA RESULT:    -6.073      1.994      3.683
REMARK INTER + INTRA:          -8.894
REMARK INTER:                  -7.511
REMARK INTRA:                  -1.383
REMARK UNBOUND:                -1.224
REMARK SMILES O=C(C=Cc1ccc(O)cc1)c1ccc(O)cc1O
REMARK SMILES IDX 4 1 3 2 5 3 6 4 7 5 8 6 11 7 10 8 9 9 2 11 1 12 12 13 18 14
REMARK SMILES IDX 13 15 17 16 14 17 15 18 19 19 16 21
REMARK H PARENT 9 10 19 20 16 22
REMARK Flexibility Score: inf
ROOT
ATOM      1  C   UNL     1      -5.355  -7.655  63.510  1.00  0.00     0.012 C 
ATOM      2  C   UNL     1      -5.462  -8.730  64.308  1.00  0.00     0.053 C 
ENDROOT
BRANCH   1   3
ATOM      3  C   UNL     1      -6.447  -6.711  63.195  1.00  0.00    -0.025 A 
ATOM      4  C   UNL     1      -6.681  -5.620  64.045  1.00  0.00     0.012 A 
ATOM      5  C   UNL     1      -7.738  -4.741  63.792  1.00  0.00     0.047 A 
ATOM      6  C   UNL     1      -8.587  -4.959  62.698  1.00  0.00     0.115 A 
ATOM      7  C   UNL     1      -7.321  -6.941  62.117  1.00  0.00     0.012 A 
ATOM      8  C   UNL     1      -8.377  -6.061  61.866  1.00  0.00     0.047 A 
BRANCH   6   9
ATOM      9  O   UNL     1      -9.643  -4.089  62.436  1.00  0.00    -0.508 OA
ATOM     10  H   UNL     1      -9.557  -3.340  61.759  1.00  0.00     0.293 HD
ENDBRANCH   6   9
ENDBRANCH   1   3
BRANCH   2  11
ATOM     11  C   UNL     1      -6.731  -9.264  64.860  1.00  0.00     0.189 C 
ATOM     12  O   UNL     1      -7.112 -10.427  64.555  1.00  0.00    -0.289 OA
BRANCH  11  13
ATOM     13  C   UNL     1      -7.553  -8.466  65.801  1.00  0.00     0.064 A 
ATOM     14  C   UNL     1      -8.908  -8.196  65.514  1.00  0.00     0.130 A 
ATOM     15  C   UNL     1      -7.000  -7.986  67.004  1.00  0.00     0.020 A 
ATOM     16  C   UNL     1      -9.681  -7.452  66.418  1.00  0.00     0.093 A 
ATOM     17  C   UNL     1      -7.779  -7.243  67.896  1.00  0.00     0.047 A 
ATOM     18  C   UNL     1      -9.120  -6.975  67.604  1.00  0.00     0.119 A 
BRANCH  14  19
ATOM     19  O   UNL     1      -9.481  -8.651  64.326  1.00  0.00    -0.507 OA
ATOM     20  H   UNL     1      -9.515  -9.637  64.096  1.00  0.00     0.293 HD
ENDBRANCH  14  19
BRANCH  18  21
ATOM     21  O   UNL     1      -9.905  -6.236  68.488  1.00  0.00    -0.508 OA
ATOM     22  H   UNL     1      -9.650  -6.132  69.462  1.00  0.00     0.293 HD
ENDBRANCH  18  21
ENDBRANCH  11  13
ENDBRANCH   2  11
TORSDOF 6
ENDMDL
