MODEL 1
REMARK VINA RESULT:    -6.589      0.000      0.000
REMARK INTER + INTRA:         -11.821
REMARK INTER:                 -10.055
REMARK INTRA:                  -1.766
REMARK UNBOUND:                -1.766
REMARK SMILES CC(=O)CCC=C(C)CCC=C(C)CCC=C(C)C
REMARK SMILES IDX 10 1 11 2 12 3 13 4 14 5 15 6 16 7 18 8 17 9 19 10 9 11 7 12
REMARK SMILES IDX 6 13 8 14 5 15 4 16 2 17 3 18 1 19
REMARK H PARENT
REMARK Flexibility Score: inf
ROOT
ATOM      1  C   UNL     1       3.629  10.501  28.952  1.00  0.00     0.032 C 
ENDROOT
BRANCH   1   2
ATOM      2  C   UNL     1       3.895  11.871  28.374  1.00  0.00    -0.028 C 
ATOM      3  C   UNL     1       3.598  12.243  27.109  1.00  0.00    -0.077 C 
ATOM      4  C   UNL     1       2.887  11.316  26.150  1.00  0.00     0.039 C 
BRANCH   3   5
ATOM      5  C   UNL     1       3.972  13.633  26.646  1.00  0.00     0.034 C 
BRANCH   5   6
ATOM      6  C   UNL     1       4.296  14.536  27.842  1.00  0.00     0.032 C 
BRANCH   6   7
ATOM      7  C   UNL     1       5.724  15.017  27.776  1.00  0.00    -0.028 C 
ATOM      8  C   UNL     1       7.870  15.858  28.630  1.00  0.00     0.039 C 
ATOM      9  C   UNL     1       6.467  15.356  28.853  1.00  0.00    -0.080 C 
ATOM     10  C   UNL     1       5.937  15.230  30.262  1.00  0.00     0.039 C 
ENDBRANCH   6   7
ENDBRANCH   5   6
ENDBRANCH   3   5
ENDBRANCH   1   2
BRANCH   1  11
ATOM     11  C   UNL     1       2.825  10.577  30.258  1.00  0.00     0.034 C 
BRANCH  11  12
ATOM     12  C   UNL     1       3.678  11.049  31.422  1.00  0.00    -0.077 C 
ATOM     13  C   UNL     1       3.753  12.346  31.802  1.00  0.00    -0.028 C 
ATOM     14  C   UNL     1       4.511  10.038  32.169  1.00  0.00     0.039 C 
BRANCH  13  15
ATOM     15  C   UNL     1       2.946  13.470  31.201  1.00  0.00     0.035 C 
BRANCH  15  16
ATOM     16  C   UNL     1       1.580  13.585  31.895  1.00  0.00     0.079 C 
BRANCH  16  17
ATOM     17  C   UNL     1       0.399  13.266  31.007  1.00  0.00     0.130 C 
ATOM     18  O   UNL     1      -0.630  12.867  31.531  1.00  0.00    -0.300 OA
ATOM     19  C   UNL     1       0.436  13.408  29.510  1.00  0.00     0.087 C 
ENDBRANCH  16  17
ENDBRANCH  15  16
ENDBRANCH  13  15
ENDBRANCH  11  12
ENDBRANCH   1  11
TORSDOF 9
ENDMDL
MODEL 2
REMARK VINA RESULT:    -6.217      1.453      3.573
REMARK INTER + INTRA:         -11.253
REMARK INTER:                  -9.277
REMARK INTRA:                  -1.976
REMARK UNBOUND:                -1.766
REMARK SMILES CC(=O)CCC=C(C)CCC=C(C)CCC=C(C)C
REMARK SMILES IDX 10 1 11 2 12 3 13 4 14 5 15 6 16 7 18 8 17 9 19 10 9 11 7 12
REMARK SMILES IDX 6 13 8 14 5 15 4 16 2 17 3 18 1 19
REMARK H PARENT
REMARK Flexibility Score: inf
ROOT
ATOM      1  C   UNL     1       2.720  11.251  31.742  1.00  0.00     0.032 C 
ENDROOT
BRANCH   1   2
ATOM      2  C   UNL     1       3.112  12.709  31.768  1.00  0.00    -0.028 C 
ATOM      3  C   UNL     1       4.140  13.216  32.485  1.00  0.00    -0.077 C 
ATOM      4  C   UNL     1       5.061  12.333  33.294  1.00  0.00     0.039 C 
BRANCH   3   5
ATOM      5  C   UNL     1       4.385  14.709  32.461  1.00  0.00     0.034 C 
BRANCH   5   6
ATOM      6  C   UNL     1       5.570  15.051  31.551  1.00  0.00     0.032 C 
BRANCH   6   7
ATOM      7  C   UNL     1       5.275  14.666  30.123  1.00  0.00    -0.028 C 
ATOM      8  C   UNL     1       5.514  14.692  27.677  1.00  0.00     0.039 C 
ATOM      9  C   UNL     1       5.947  15.138  29.050  1.00  0.00    -0.080 C 
ATOM     10  C   UNL     1       7.122  16.077  29.191  1.00  0.00     0.039 C 
ENDBRANCH   6   7
ENDBRANCH   5   6
ENDBRANCH   3   5
ENDBRANCH   1   2
BRANCH   1  11
ATOM     11  C   UNL     1       2.466  10.752  30.311  1.00  0.00     0.034 C 
BRANCH  11  12
ATOM     12  C   UNL     1       3.655  11.011  29.401  1.00  0.00    -0.077 C 
ATOM     13  C   UNL     1       3.571  11.755  28.274  1.00  0.00    -0.028 C 
ATOM     14  C   UNL     1       4.982  10.384  29.745  1.00  0.00     0.039 C 
BRANCH  13  15
ATOM     15  C   UNL     1       2.339  12.496  27.818  1.00  0.00     0.035 C 
BRANCH  15  16
ATOM     16  C   UNL     1       2.119  13.754  28.671  1.00  0.00     0.079 C 
BRANCH  16  17
ATOM     17  C   UNL     1       0.684  13.982  29.090  1.00  0.00     0.130 C 
ATOM     18  O   UNL     1      -0.105  14.395  28.253  1.00  0.00    -0.300 OA
ATOM     19  C   UNL     1       0.187  13.732  30.487  1.00  0.00     0.087 C 
ENDBRANCH  16  17
ENDBRANCH  15  16
ENDBRANCH  13  15
ENDBRANCH  11  12
ENDBRANCH   1  11
TORSDOF 9
ENDMDL
MODEL 3
REMARK VINA RESULT:    -6.035      1.133      4.563
REMARK INTER + INTRA:         -10.975
REMARK INTER:                  -9.203
REMARK INTRA:                  -1.773
REMARK UNBOUND:                -1.766
REMARK SMILES CC(=O)CCC=C(C)CCC=C(C)CCC=C(C)C
REMARK SMILES IDX 10 1 11 2 12 3 13 4 14 5 15 6 16 7 18 8 17 9 19 10 9 11 7 12
REMARK SMILES IDX 6 13 8 14 5 15 4 16 2 17 3 18 1 19
REMARK H PARENT
REMARK Flexibility Score: inf
ROOT
ATOM      1  C   UNL     1       5.085  14.369  27.418  1.00  0.00     0.032 C 
ENDROOT
BRANCH   1   2
ATOM      2  C   UNL     1       4.882  14.317  28.914  1.00  0.00    -0.028 C 
ATOM      3  C   UNL     1       5.646  14.973  29.817  1.00  0.00    -0.077 C 
ATOM      4  C   UNL     1       6.762  15.901  29.395  1.00  0.00     0.039 C 
BRANCH   3   5
ATOM      5  C   UNL     1       5.363  14.786  31.291  1.00  0.00     0.034 C 
BRANCH   5   6
ATOM      6  C   UNL     1       4.058  14.010  31.500  1.00  0.00     0.032 C 
BRANCH   6   7
ATOM      7  C   UNL     1       4.289  12.802  32.375  1.00  0.00    -0.028 C 
ATOM      8  C   UNL     1       4.510  10.418  32.928  1.00  0.00     0.039 C 
ATOM      9  C   UNL     1       4.306  11.527  31.928  1.00  0.00    -0.080 C 
ATOM     10  C   UNL     1       4.144  11.189  30.464  1.00  0.00     0.039 C 
ENDBRANCH   6   7
ENDBRANCH   5   6
ENDBRANCH   3   5
ENDBRANCH   1   2
BRANCH   1  11
ATOM     11  C   UNL     1       3.765  14.186  26.655  1.00  0.00     0.034 C 
BRANCH  11  12
ATOM     12  C   UNL     1       3.048  12.909  27.061  1.00  0.00    -0.077 C 
ATOM     13  C   UNL     1       2.091  12.875  28.018  1.00  0.00    -0.028 C 
ATOM     14  C   UNL     1       3.442  11.614  26.399  1.00  0.00     0.039 C 
BRANCH  13  15
ATOM     15  C   UNL     1       1.543  14.084  28.735  1.00  0.00     0.035 C 
BRANCH  15  16
ATOM     16  C   UNL     1       0.303  13.705  29.559  1.00  0.00     0.079 C 
BRANCH  16  17
ATOM     17  C   UNL     1       0.610  13.215  30.957  1.00  0.00     0.130 C 
ATOM     18  O   UNL     1       0.743  14.042  31.845  1.00  0.00    -0.300 OA
ATOM     19  C   UNL     1       0.765  11.759  31.300  1.00  0.00     0.087 C 
ENDBRANCH  16  17
ENDBRANCH  15  16
ENDBRANCH  13  15
ENDBRANCH  11  12
ENDBRANCH   1  11
TORSDOF 9
ENDMDL
MODEL 4
REMARK VINA RESULT:    -5.898      1.392      3.734
REMARK INTER + INTRA:         -10.767
REMARK INTER:                  -9.296
REMARK INTRA:                  -1.472
REMARK UNBOUND:                -1.766
REMARK SMILES CC(=O)CCC=C(C)CCC=C(C)CCC=C(C)C
REMARK SMILES IDX 10 1 11 2 12 3 13 4 14 5 15 6 16 7 18 8 17 9 19 10 9 11 7 12
REMARK SMILES IDX 6 13 8 14 5 15 4 16 2 17 3 18 1 19
REMARK H PARENT
REMARK Flexibility Score: inf
ROOT
ATOM      1  C   UNL     1       5.280  14.780  31.527  1.00  0.00     0.032 C 
ENDROOT
BRANCH   1   2
ATOM      2  C   UNL     1       4.909  14.379  30.119  1.00  0.00    -0.028 C 
ATOM      3  C   UNL     1       5.531  14.824  29.004  1.00  0.00    -0.077 C 
ATOM      4  C   UNL     1       6.735  15.735  29.071  1.00  0.00     0.039 C 
BRANCH   3   5
ATOM      5  C   UNL     1       5.018  14.382  27.651  1.00  0.00     0.034 C 
BRANCH   5   6
ATOM      6  C   UNL     1       4.083  13.175  27.792  1.00  0.00     0.032 C 
BRANCH   6   7
ATOM      7  C   UNL     1       4.804  12.013  28.429  1.00  0.00    -0.028 C 
ATOM      8  C   UNL     1       5.043   9.877  29.621  1.00  0.00     0.039 C 
ATOM      9  C   UNL     1       4.191  10.945  28.985  1.00  0.00    -0.080 C 
ATOM     10  C   UNL     1       2.688  10.788  28.972  1.00  0.00     0.039 C 
ENDBRANCH   6   7
ENDBRANCH   5   6
ENDBRANCH   3   5
ENDBRANCH   1   2
BRANCH   1  11
ATOM     11  C   UNL     1       4.191  14.391  32.538  1.00  0.00     0.034 C 
BRANCH  11  12
ATOM     12  C   UNL     1       3.637  13.002  32.268  1.00  0.00    -0.077 C 
ATOM     13  C   UNL     1       2.378  12.786  31.820  1.00  0.00    -0.028 C 
ATOM     14  C   UNL     1       4.510  11.806  32.546  1.00  0.00     0.039 C 
BRANCH  13  15
ATOM     15  C   UNL     1       1.399  13.869  31.440  1.00  0.00     0.035 C 
BRANCH  15  16
ATOM     16  C   UNL     1       0.251  13.287  30.601  1.00  0.00     0.079 C 
BRANCH  16  17
ATOM     17  C   UNL     1       0.196  13.798  29.179  1.00  0.00     0.130 C 
ATOM     18  O   UNL     1      -0.837  13.640  28.546  1.00  0.00    -0.300 OA
ATOM     19  C   UNL     1       1.354  14.483  28.508  1.00  0.00     0.087 C 
ENDBRANCH  16  17
ENDBRANCH  15  16
ENDBRANCH  13  15
ENDBRANCH  11  12
ENDBRANCH   1  11
TORSDOF 9
ENDMDL
MODEL 5
REMARK VINA RESULT:    -5.836      2.094      4.100
REMARK INTER + INTRA:         -10.673
REMARK INTER:                  -8.373
REMARK INTRA:                  -2.299
REMARK UNBOUND:                -1.766
REMARK SMILES CC(=O)CCC=C(C)CCC=C(C)CCC=C(C)C
REMARK SMILES IDX 10 1 11 2 12 3 13 4 14 5 15 6 16 7 18 8 17 9 19 10 9 11 7 12
REMARK SMILES IDX 6 13 8 14 5 15 4 16 2 17 3 18 1 19
REMARK H PARENT
REMARK Flexibility Score: inf
ROOT
ATOM      1  C   UNL     1       1.599  10.311  30.988  1.00  0.00     0.032 C 
ENDROOT
BRANCH   1   2
ATOM      2  C   UNL     1       1.449  11.670  30.347  1.00  0.00    -0.028 C 
ATOM      3  C   UNL     1       0.671  12.666  30.828  1.00  0.00    -0.077 C 
ATOM      4  C   UNL     1      -0.088  12.529  32.127  1.00  0.00     0.039 C 
BRANCH   3   5
ATOM      5  C   UNL     1       0.572  13.960  30.051  1.00  0.00     0.034 C 
BRANCH   5   6
ATOM      6  C   UNL     1       1.090  13.776  28.620  1.00  0.00     0.032 C 
BRANCH   6   7
ATOM      7  C   UNL     1       2.529  14.218  28.512  1.00  0.00    -0.028 C 
ATOM      8  C   UNL     1       4.885  14.105  27.822  1.00  0.00     0.039 C 
ATOM      9  C   UNL     1       3.477  13.566  27.806  1.00  0.00    -0.080 C 
ATOM     10  C   UNL     1       3.164  12.331  26.993  1.00  0.00     0.039 C 
ENDBRANCH   6   7
ENDBRANCH   5   6
ENDBRANCH   3   5
ENDBRANCH   1   2
BRANCH   1  11
ATOM     11  C   UNL     1       3.020  10.085  31.525  1.00  0.00     0.034 C 
BRANCH  11  12
ATOM     12  C   UNL     1       4.057  10.854  30.724  1.00  0.00    -0.077 C 
ATOM     13  C   UNL     1       4.471  12.098  31.060  1.00  0.00    -0.028 C 
ATOM     14  C   UNL     1       4.627  10.225  29.479  1.00  0.00     0.039 C 
BRANCH  13  15
ATOM     15  C   UNL     1       4.045  12.845  32.299  1.00  0.00     0.035 C 
BRANCH  15  16
ATOM     16  C   UNL     1       3.920  14.348  32.007  1.00  0.00     0.079 C 
BRANCH  16  17
ATOM     17  C   UNL     1       5.226  15.108  32.073  1.00  0.00     0.130 C 
ATOM     18  O   UNL     1       5.618  15.493  33.165  1.00  0.00    -0.300 OA
ATOM     19  C   UNL     1       6.058  15.417  30.859  1.00  0.00     0.087 C 
ENDBRANCH  16  17
ENDBRANCH  15  16
ENDBRANCH  13  15
ENDBRANCH  11  12
ENDBRANCH   1  11
TORSDOF 9
ENDMDL
MODEL 6
REMARK VINA RESULT:    -5.792      1.243      3.969
REMARK INTER + INTRA:         -10.605
REMARK INTER:                  -9.293
REMARK INTRA:                  -1.312
REMARK UNBOUND:                -1.766
REMARK SMILES CC(=O)CCC=C(C)CCC=C(C)CCC=C(C)C
REMARK SMILES IDX 10 1 11 2 12 3 13 4 14 5 15 6 16 7 18 8 17 9 19 10 9 11 7 12
REMARK SMILES IDX 6 13 8 14 5 15 4 16 2 17 3 18 1 19
REMARK H PARENT
REMARK Flexibility Score: inf
ROOT
ATOM      1  C   UNL     1       5.990  15.500  31.508  1.00  0.00     0.032 C 
ENDROOT
BRANCH   1   2
ATOM      2  C   UNL     1       5.576  14.972  30.155  1.00  0.00    -0.028 C 
ATOM      3  C   UNL     1       6.202  15.263  28.992  1.00  0.00    -0.077 C 
ATOM      4  C   UNL     1       7.450  16.114  28.948  1.00  0.00     0.039 C 
BRANCH   3   5
ATOM      5  C   UNL     1       5.645  14.707  27.700  1.00  0.00     0.034 C 
BRANCH   5   6
ATOM      6  C   UNL     1       4.143  14.428  27.831  1.00  0.00     0.032 C 
BRANCH   6   7
ATOM      7  C   UNL     1       3.680  13.483  26.750  1.00  0.00    -0.028 C 
ATOM      8  C   UNL     1       3.035  11.334  25.748  1.00  0.00     0.039 C 
ATOM      9  C   UNL     1       3.458  12.163  26.933  1.00  0.00    -0.080 C 
ATOM     10  C   UNL     1       3.607  11.506  28.286  1.00  0.00     0.039 C 
ENDBRANCH   6   7
ENDBRANCH   5   6
ENDBRANCH   3   5
ENDBRANCH   1   2
BRANCH   1  11
ATOM     11  C   UNL     1       4.906  15.263  32.570  1.00  0.00     0.034 C 
BRANCH  11  12
ATOM     12  C   UNL     1       4.884  13.821  33.046  1.00  0.00    -0.077 C 
ATOM     13  C   UNL     1       4.041  12.892  32.538  1.00  0.00    -0.028 C 
ATOM     14  C   UNL     1       5.814  13.409  34.158  1.00  0.00     0.039 C 
BRANCH  13  15
ATOM     15  C   UNL     1       3.091  13.122  31.389  1.00  0.00     0.035 C 
BRANCH  15  16
ATOM     16  C   UNL     1       1.831  12.258  31.549  1.00  0.00     0.079 C 
BRANCH  16  17
ATOM     17  C   UNL     1       0.537  12.981  31.252  1.00  0.00     0.130 C 
ATOM     18  O   UNL     1      -0.415  12.793  31.994  1.00  0.00    -0.300 OA
ATOM     19  C   UNL     1       0.366  13.912  30.083  1.00  0.00     0.087 C 
ENDBRANCH  16  17
ENDBRANCH  15  16
ENDBRANCH  13  15
ENDBRANCH  11  12
ENDBRANCH   1  11
TORSDOF 9
ENDMDL
MODEL 7
REMARK VINA RESULT:    -5.742      2.174      4.252
REMARK INTER + INTRA:         -10.528
REMARK INTER:                  -8.415
REMARK INTRA:                  -2.113
REMARK UNBOUND:                -1.766
REMARK SMILES CC(=O)CCC=C(C)CCC=C(C)CCC=C(C)C
REMARK SMILES IDX 10 1 11 2 12 3 13 4 14 5 15 6 16 7 18 8 17 9 19 10 9 11 7 12
REMARK SMILES IDX 6 13 8 14 5 15 4 16 2 17 3 18 1 19
REMARK H PARENT
REMARK Flexibility Score: inf
ROOT
ATOM      1  C   UNL     1       1.130  11.263  31.751  1.00  0.00     0.032 C 
ENDROOT
BRANCH   1   2
ATOM      2  C   UNL     1       2.067  10.946  30.610  1.00  0.00    -0.028 C 
ATOM      3  C   UNL     1       3.346  10.531  30.758  1.00  0.00    -0.077 C 
ATOM      4  C   UNL     1       3.949  10.272  32.119  1.00  0.00     0.039 C 
BRANCH   3   5
ATOM      5  C   UNL     1       4.191  10.303  29.524  1.00  0.00     0.034 C 
BRANCH   5   6
ATOM      6  C   UNL     1       3.968  11.421  28.498  1.00  0.00     0.032 C 
BRANCH   6   7
ATOM      7  C   UNL     1       4.889  12.585  28.768  1.00  0.00    -0.028 C 
ATOM      8  C   UNL     1       5.828  14.839  28.490  1.00  0.00     0.039 C 
ATOM      9  C   UNL     1       4.813  13.780  28.144  1.00  0.00    -0.080 C 
ATOM     10  C   UNL     1       3.735  14.087  27.130  1.00  0.00     0.039 C 
ENDBRANCH   6   7
ENDBRANCH   5   6
ENDBRANCH   3   5
ENDBRANCH   1   2
BRANCH   1  11
ATOM     11  C   UNL     1       0.293  12.520  31.472  1.00  0.00     0.034 C 
BRANCH  11  12
ATOM     12  C   UNL     1       0.999  13.470  30.518  1.00  0.00    -0.077 C 
ATOM     13  C   UNL     1       2.124  14.144  30.850  1.00  0.00    -0.028 C 
ATOM     14  C   UNL     1       0.402  13.705  29.154  1.00  0.00     0.039 C 
BRANCH  13  15
ATOM     15  C   UNL     1       2.878  13.982  32.147  1.00  0.00     0.035 C 
BRANCH  15  16
ATOM     16  C   UNL     1       4.393  14.018  31.898  1.00  0.00     0.079 C 
BRANCH  16  17
ATOM     17  C   UNL     1       5.072  15.289  32.358  1.00  0.00     0.130 C 
ATOM     18  O   UNL     1       6.158  15.572  31.877  1.00  0.00    -0.300 OA
ATOM     19  C   UNL     1       4.475  16.212  33.383  1.00  0.00     0.087 C 
ENDBRANCH  16  17
ENDBRANCH  15  16
ENDBRANCH  13  15
ENDBRANCH  11  12
ENDBRANCH   1  11
TORSDOF 9
ENDMDL
MODEL 8
REMARK VINA RESULT:    -5.625      2.131      5.257
REMARK INTER + INTRA:         -10.350
REMARK INTER:                  -8.944
REMARK INTRA:                  -1.406
REMARK UNBOUND:                -1.766
REMARK SMILES CC(=O)CCC=C(C)CCC=C(C)CCC=C(C)C
REMARK SMILES IDX 10 1 11 2 12 3 13 4 14 5 15 6 16 7 18 8 17 9 19 10 9 11 7 12
REMARK SMILES IDX 6 13 8 14 5 15 4 16 2 17 3 18 1 19
REMARK H PARENT
REMARK Flexibility Score: inf
ROOT
ATOM      1  C   UNL     1       3.338  10.109  29.362  1.00  0.00     0.032 C 
ENDROOT
BRANCH   1   2
ATOM      2  C   UNL     1       2.313  10.910  30.129  1.00  0.00    -0.028 C 
ATOM      3  C   UNL     1       2.463  11.331  31.405  1.00  0.00    -0.077 C 
ATOM      4  C   UNL     1       3.738  11.091  32.180  1.00  0.00     0.039 C 
BRANCH   3   5
ATOM      5  C   UNL     1       1.329  12.079  32.069  1.00  0.00     0.034 C 
BRANCH   5   6
ATOM      6  C   UNL     1       1.185  13.486  31.479  1.00  0.00     0.032 C 
BRANCH   6   7
ATOM      7  C   UNL     1       0.032  13.543  30.508  1.00  0.00    -0.028 C 
ATOM      8  C   UNL     1      -1.118  14.002  28.385  1.00  0.00     0.039 C 
ATOM      9  C   UNL     1       0.131  13.963  29.228  1.00  0.00    -0.080 C 
ATOM     10  C   UNL     1       1.452  14.375  28.620  1.00  0.00     0.039 C 
ENDBRANCH   6   7
ENDBRANCH   5   6
ENDBRANCH   3   5
ENDBRANCH   1   2
BRANCH   1  11
ATOM     11  C   UNL     1       4.444  11.002  28.782  1.00  0.00     0.034 C 
BRANCH  11  12
ATOM     12  C   UNL     1       3.904  11.973  27.745  1.00  0.00    -0.077 C 
ATOM     13  C   UNL     1       4.170  13.299  27.771  1.00  0.00    -0.028 C 
ATOM     14  C   UNL     1       3.000  11.447  26.660  1.00  0.00     0.039 C 
BRANCH  13  15
ATOM     15  C   UNL     1       5.096  13.976  28.750  1.00  0.00     0.035 C 
BRANCH  15  16
ATOM     16  C   UNL     1       4.473  14.001  30.154  1.00  0.00     0.079 C 
BRANCH  16  17
ATOM     17  C   UNL     1       5.251  14.810  31.168  1.00  0.00     0.130 C 
ATOM     18  O   UNL     1       6.177  15.500  30.771  1.00  0.00    -0.300 OA
ATOM     19  C   UNL     1       4.941  14.797  32.639  1.00  0.00     0.087 C 
ENDBRANCH  16  17
ENDBRANCH  15  16
ENDBRANCH  13  15
ENDBRANCH  11  12
ENDBRANCH   1  11
TORSDOF 9
ENDMDL
MODEL 9
REMARK VINA RESULT:    -5.576      2.344      4.310
REMARK INTER + INTRA:         -10.276
REMARK INTER:                  -8.513
REMARK INTRA:                  -1.763
REMARK UNBOUND:                -1.766
REMARK SMILES CC(=O)CCC=C(C)CCC=C(C)CCC=C(C)C
REMARK SMILES IDX 10 1 11 2 12 3 13 4 14 5 15 6 16 7 18 8 17 9 19 10 9 11 7 12
REMARK SMILES IDX 6 13 8 14 5 15 4 16 2 17 3 18 1 19
REMARK H PARENT
REMARK Flexibility Score: inf
ROOT
ATOM      1  C   UNL     1       5.105  10.335  29.724  1.00  0.00     0.032 C 
ENDROOT
BRANCH   1   2
ATOM      2  C   UNL     1       4.089  10.980  28.812  1.00  0.00    -0.028 C 
ATOM      3  C   UNL     1       4.145  12.260  28.381  1.00  0.00    -0.077 C 
ATOM      4  C   UNL     1       5.301  13.169  28.727  1.00  0.00     0.039 C 
BRANCH   3   5
ATOM      5  C   UNL     1       3.026  12.792  27.513  1.00  0.00     0.034 C 
BRANCH   5   6
ATOM      6  C   UNL     1       2.385  14.031  28.149  1.00  0.00     0.032 C 
BRANCH   6   7
ATOM      7  C   UNL     1       1.756  13.685  29.476  1.00  0.00    -0.028 C 
ATOM      8  C   UNL     1      -0.051  13.404  31.118  1.00  0.00     0.039 C 
ATOM      9  C   UNL     1       0.430  13.743  29.731  1.00  0.00    -0.080 C 
ATOM     10  C   UNL     1      -0.574  14.118  28.666  1.00  0.00     0.039 C 
ENDBRANCH   6   7
ENDBRANCH   5   6
ENDBRANCH   3   5
ENDBRANCH   1   2
BRANCH   1  11
ATOM     11  C   UNL     1       4.549  10.122  31.140  1.00  0.00     0.034 C 
BRANCH  11  12
ATOM     12  C   UNL     1       3.239  10.861  31.352  1.00  0.00    -0.077 C 
ATOM     13  C   UNL     1       3.168  12.081  31.933  1.00  0.00    -0.028 C 
ATOM     14  C   UNL     1       1.954  10.195  30.931  1.00  0.00     0.039 C 
BRANCH  13  15
ATOM     15  C   UNL     1       4.357  12.906  32.358  1.00  0.00     0.035 C 
BRANCH  15  16
ATOM     16  C   UNL     1       4.128  14.390  32.033  1.00  0.00     0.079 C 
BRANCH  16  17
ATOM     17  C   UNL     1       4.832  15.350  32.966  1.00  0.00     0.130 C 
ATOM     18  O   UNL     1       6.000  15.132  33.247  1.00  0.00    -0.300 OA
ATOM     19  C   UNL     1       4.158  16.552  33.568  1.00  0.00     0.087 C 
ENDBRANCH  16  17
ENDBRANCH  15  16
ENDBRANCH  13  15
ENDBRANCH  11  12
ENDBRANCH   1  11
TORSDOF 9
ENDMDL
