MODEL 1
REMARK VINA RESULT:    -5.102      0.000      0.000
REMARK INTER + INTRA:          -5.948
REMARK INTER:                  -5.847
REMARK INTRA:                  -0.101
REMARK UNBOUND:                -0.101
REMARK SMILES COc1cc(C(=O)[O-])ccc1O
REMARK SMILES IDX 5 1 9 2 4 3 10 4 3 5 11 6 6 7 7 8 8 9 2 10 1 11 12 12
REMARK H PARENT 12 13
REMARK Flexibility Score: inf
ROOT
ATOM      1  C   UNL     1      19.209  -8.481 -29.954  1.00  0.00     0.001 A 
ATOM      2  C   UNL     1      18.189  -8.673 -29.007  1.00  0.00     0.014 A 
ATOM      3  C   UNL     1      20.236  -7.562 -29.676  1.00  0.00     0.060 A 
ATOM      4  C   UNL     1      18.196  -7.960 -27.807  1.00  0.00     0.051 A 
ATOM      5  C   UNL     1      20.248  -6.839 -28.465  1.00  0.00     0.161 A 
ATOM      6  C   UNL     1      19.218  -7.047 -27.531  1.00  0.00     0.157 A 
ENDROOT
BRANCH   1   7
ATOM      7  C   UNL     1      19.203  -9.235 -31.228  1.00  0.00     0.072 C 
ATOM      8  O   UNL     1      20.285  -9.616 -31.751  1.00  0.00    -0.545 OA
ATOM      9  O   UNL     1      18.005  -9.532 -31.866  1.00  0.00    -0.545 OA
ENDBRANCH   1   7
BRANCH   5  10
ATOM     10  O   UNL     1      21.261  -5.916 -28.161  1.00  0.00    -0.493 OA
ATOM     11  C   UNL     1      21.294  -4.569 -28.622  1.00  0.00     0.278 C 
ENDBRANCH   5  10
BRANCH   6  12
ATOM     12  O   UNL     1      19.191  -6.353 -26.321  1.00  0.00    -0.504 OA
ATOM     13  H   UNL     1      18.331  -5.990 -25.926  1.00  0.00     0.293 HD
ENDBRANCH   6  12
TORSDOF 3
ENDMDL
MODEL 2
REMARK VINA RESULT:    -5.068      5.322      6.437
REMARK INTER + INTRA:          -5.909
REMARK INTER:                  -5.834
REMARK INTRA:                  -0.075
REMARK UNBOUND:                -0.101
REMARK SMILES COc1cc(C(=O)[O-])ccc1O
REMARK SMILES IDX 5 1 9 2 4 3 10 4 3 5 11 6 6 7 7 8 8 9 2 10 1 11 12 12
REMARK H PARENT 12 13
REMARK Flexibility Score: inf
ROOT
ATOM      1  C   UNL     1      23.507  -4.840 -26.456  1.00  0.00     0.001 A 
ATOM      2  C   UNL     1      22.124  -4.976 -26.246  1.00  0.00     0.014 A 
ATOM      3  C   UNL     1      24.067  -3.551 -26.505  1.00  0.00     0.060 A 
ATOM      4  C   UNL     1      21.319  -3.848 -26.088  1.00  0.00     0.051 A 
ATOM      5  C   UNL     1      23.257  -2.407 -26.346  1.00  0.00     0.161 A 
ATOM      6  C   UNL     1      21.876  -2.567 -26.136  1.00  0.00     0.157 A 
ENDROOT
BRANCH   1   7
ATOM      7  C   UNL     1      24.364  -6.035 -26.625  1.00  0.00     0.072 C 
ATOM      8  O   UNL     1      25.360  -6.220 -25.875  1.00  0.00    -0.545 OA
ATOM      9  O   UNL     1      24.083  -6.969 -27.615  1.00  0.00    -0.545 OA
ENDBRANCH   1   7
BRANCH   5  10
ATOM     10  O   UNL     1      23.789  -1.108 -26.389  1.00  0.00    -0.493 OA
ATOM     11  C   UNL     1      25.117  -0.790 -26.795  1.00  0.00     0.278 C 
ENDBRANCH   5  10
BRANCH   6  12
ATOM     12  O   UNL     1      21.039  -1.463 -25.974  1.00  0.00    -0.504 OA
ATOM     13  H   UNL     1      21.191  -0.593 -26.469  1.00  0.00     0.293 HD
ENDBRANCH   6  12
TORSDOF 3
ENDMDL
MODEL 3
REMARK VINA RESULT:    -4.924      6.605      9.220
REMARK INTER + INTRA:          -5.745
REMARK INTER:                  -5.670
REMARK INTRA:                  -0.075
REMARK UNBOUND:                -0.101
REMARK SMILES COc1cc(C(=O)[O-])ccc1O
REMARK SMILES IDX 5 1 9 2 4 3 10 4 3 5 11 6 6 7 7 8 8 9 2 10 1 11 12 12
REMARK H PARENT 12 13
REMARK Flexibility Score: inf
ROOT
ATOM      1  C   UNL     1      25.034  -0.482 -26.884  1.00  0.00     0.001 A 
ATOM      2  C   UNL     1      24.080   0.528 -26.673  1.00  0.00     0.014 A 
ATOM      3  C   UNL     1      24.646  -1.827 -26.754  1.00  0.00     0.060 A 
ATOM      4  C   UNL     1      22.766   0.200 -26.340  1.00  0.00     0.051 A 
ATOM      5  C   UNL     1      23.318  -2.164 -26.417  1.00  0.00     0.161 A 
ATOM      6  C   UNL     1      22.380  -1.138 -26.211  1.00  0.00     0.157 A 
ENDROOT
BRANCH   1   7
ATOM      7  C   UNL     1      26.430  -0.137 -27.237  1.00  0.00     0.072 C 
ATOM      8  O   UNL     1      27.374  -0.397 -26.445  1.00  0.00    -0.545 OA
ATOM      9  O   UNL     1      26.718   0.482 -28.448  1.00  0.00    -0.545 OA
ENDBRANCH   1   7
BRANCH   5  10
ATOM     10  O   UNL     1      22.902  -3.498 -26.282  1.00  0.00    -0.493 OA
ATOM     11  C   UNL     1      23.771  -4.594 -26.012  1.00  0.00     0.278 C 
ENDBRANCH   5  10
BRANCH   6  12
ATOM     12  O   UNL     1      21.057  -1.426 -25.876  1.00  0.00    -0.504 OA
ATOM     13  H   UNL     1      20.380  -1.730 -26.565  1.00  0.00     0.293 HD
ENDBRANCH   6  12
TORSDOF 3
ENDMDL
MODEL 4
REMARK VINA RESULT:    -4.662      1.501      1.939
REMARK INTER + INTRA:          -5.444
REMARK INTER:                  -5.347
REMARK INTRA:                  -0.097
REMARK UNBOUND:                -0.101
REMARK SMILES COc1cc(C(=O)[O-])ccc1O
REMARK SMILES IDX 5 1 9 2 4 3 10 4 3 5 11 6 6 7 7 8 8 9 2 10 1 11 12 12
REMARK H PARENT 12 13
REMARK Flexibility Score: inf
ROOT
ATOM      1  C   UNL     1      19.992  -7.240 -28.902  1.00  0.00     0.001 A 
ATOM      2  C   UNL     1      19.199  -7.273 -27.742  1.00  0.00     0.014 A 
ATOM      3  C   UNL     1      20.973  -6.241 -29.031  1.00  0.00     0.060 A 
ATOM      4  C   UNL     1      19.385  -6.328 -26.733  1.00  0.00     0.051 A 
ATOM      5  C   UNL     1      21.164  -5.283 -28.014  1.00  0.00     0.161 A 
ATOM      6  C   UNL     1      20.361  -5.335 -26.861  1.00  0.00     0.157 A 
ENDROOT
BRANCH   1   7
ATOM      7  C   UNL     1      19.797  -8.241 -29.975  1.00  0.00     0.072 C 
ATOM      8  O   UNL     1      20.728  -8.503 -30.783  1.00  0.00    -0.545 OA
ATOM      9  O   UNL     1      18.583  -8.905 -30.107  1.00  0.00    -0.545 OA
ENDBRANCH   1   7
BRANCH   5  10
ATOM     10  O   UNL     1      22.136  -4.275 -28.116  1.00  0.00    -0.493 OA
ATOM     11  C   UNL     1      21.932  -3.013 -28.743  1.00  0.00     0.278 C 
ENDBRANCH   5  10
BRANCH   6  12
ATOM     12  O   UNL     1      20.516  -4.407 -25.831  1.00  0.00    -0.504 OA
ATOM     13  H   UNL     1      19.950  -3.569 -25.770  1.00  0.00     0.293 HD
ENDBRANCH   6  12
TORSDOF 3
ENDMDL
MODEL 5
REMARK VINA RESULT:    -4.647      1.557      4.091
REMARK INTER + INTRA:          -5.427
REMARK INTER:                  -5.331
REMARK INTRA:                  -0.096
REMARK UNBOUND:                -0.101
REMARK SMILES COc1cc(C(=O)[O-])ccc1O
REMARK SMILES IDX 5 1 9 2 4 3 10 4 3 5 11 6 6 7 7 8 8 9 2 10 1 11 12 12
REMARK H PARENT 12 13
REMARK Flexibility Score: inf
ROOT
ATOM      1  C   UNL     1      20.473  -6.304 -28.711  1.00  0.00     0.001 A 
ATOM      2  C   UNL     1      19.841  -6.261 -27.457  1.00  0.00     0.014 A 
ATOM      3  C   UNL     1      20.133  -7.328 -29.613  1.00  0.00     0.060 A 
ATOM      4  C   UNL     1      18.890  -7.221 -27.112  1.00  0.00     0.051 A 
ATOM      5  C   UNL     1      19.171  -8.301 -29.268  1.00  0.00     0.161 A 
ATOM      6  C   UNL     1      18.551  -8.238 -28.008  1.00  0.00     0.157 A 
ENDROOT
BRANCH   1   7
ATOM      7  C   UNL     1      21.483  -5.287 -29.080  1.00  0.00     0.072 C 
ATOM      8  O   UNL     1      22.666  -5.628 -29.352  1.00  0.00    -0.545 OA
ATOM      9  O   UNL     1      21.143  -3.940 -29.130  1.00  0.00    -0.545 OA
ENDBRANCH   1   7
BRANCH   5  10
ATOM     10  O   UNL     1      18.811  -9.334 -30.149  1.00  0.00    -0.493 OA
ATOM     11  C   UNL     1      18.002  -9.164 -31.308  1.00  0.00     0.278 C 
ENDBRANCH   5  10
BRANCH   6  12
ATOM     12  O   UNL     1      17.596  -9.180 -27.627  1.00  0.00    -0.504 OA
ATOM     13  H   UNL     1      17.075  -9.726 -28.303  1.00  0.00     0.293 HD
ENDBRANCH   6  12
TORSDOF 3
ENDMDL
MODEL 6
REMARK VINA RESULT:    -4.528      6.307      8.443
REMARK INTER + INTRA:          -5.291
REMARK INTER:                  -5.205
REMARK INTRA:                  -0.086
REMARK UNBOUND:                -0.101
REMARK SMILES COc1cc(C(=O)[O-])ccc1O
REMARK SMILES IDX 5 1 9 2 4 3 10 4 3 5 11 6 6 7 7 8 8 9 2 10 1 11 12 12
REMARK H PARENT 12 13
REMARK Flexibility Score: inf
ROOT
ATOM      1  C   UNL     1      24.390  -1.314 -26.591  1.00  0.00     0.001 A 
ATOM      2  C   UNL     1      23.144  -0.678 -26.461  1.00  0.00     0.014 A 
ATOM      3  C   UNL     1      24.449  -2.719 -26.548  1.00  0.00     0.060 A 
ATOM      4  C   UNL     1      21.982  -1.431 -26.291  1.00  0.00     0.051 A 
ATOM      5  C   UNL     1      23.277  -3.484 -26.376  1.00  0.00     0.161 A 
ATOM      6  C   UNL     1      22.040  -2.827 -26.249  1.00  0.00     0.157 A 
ENDROOT
BRANCH   1   7
ATOM      7  C   UNL     1      25.626  -0.519 -26.771  1.00  0.00     0.072 C 
ATOM      8  O   UNL     1      25.571   0.736 -26.871  1.00  0.00    -0.545 OA
ATOM      9  O   UNL     1      26.865  -1.146 -26.833  1.00  0.00    -0.545 OA
ENDBRANCH   1   7
BRANCH   5  10
ATOM     10  O   UNL     1      23.306  -4.887 -26.330  1.00  0.00    -0.493 OA
ATOM     11  C   UNL     1      24.282  -5.654 -25.633  1.00  0.00     0.278 C 
ENDBRANCH   5  10
BRANCH   6  12
ATOM     12  O   UNL     1      20.857  -3.545 -26.077  1.00  0.00    -0.504 OA
ATOM     13  H   UNL     1      20.670  -4.086 -25.241  1.00  0.00     0.293 HD
ENDBRANCH   6  12
TORSDOF 3
ENDMDL
MODEL 7
REMARK VINA RESULT:    -4.515      6.672      9.242
REMARK INTER + INTRA:          -5.276
REMARK INTER:                  -5.173
REMARK INTRA:                  -0.102
REMARK UNBOUND:                -0.101
REMARK SMILES COc1cc(C(=O)[O-])ccc1O
REMARK SMILES IDX 5 1 9 2 4 3 10 4 3 5 11 6 6 7 7 8 8 9 2 10 1 11 12 12
REMARK H PARENT 12 13
REMARK Flexibility Score: inf
ROOT
ATOM      1  C   UNL     1      23.997  -1.939 -26.509  1.00  0.00     0.001 A 
ATOM      2  C   UNL     1      25.234  -2.507 -26.860  1.00  0.00     0.014 A 
ATOM      3  C   UNL     1      23.924  -0.556 -26.268  1.00  0.00     0.060 A 
ATOM      4  C   UNL     1      26.372  -1.708 -26.967  1.00  0.00     0.051 A 
ATOM      5  C   UNL     1      25.072   0.256 -26.375  1.00  0.00     0.161 A 
ATOM      6  C   UNL     1      26.299  -0.332 -26.728  1.00  0.00     0.157 A 
ENDROOT
BRANCH   1   7
ATOM      7  C   UNL     1      22.787  -2.784 -26.394  1.00  0.00     0.072 C 
ATOM      8  O   UNL     1      21.644  -2.259 -26.321  1.00  0.00    -0.545 OA
ATOM      9  O   UNL     1      22.895  -4.169 -26.362  1.00  0.00    -0.545 OA
ENDBRANCH   1   7
BRANCH   5  10
ATOM     10  O   UNL     1      25.028   1.640 -26.140  1.00  0.00    -0.493 OA
ATOM     11  C   UNL     1      24.489   2.598 -27.046  1.00  0.00     0.278 C 
ENDBRANCH   5  10
BRANCH   6  12
ATOM     12  O   UNL     1      27.459   0.433 -26.844  1.00  0.00    -0.504 OA
ATOM     13  H   UNL     1      27.584   1.305 -26.343  1.00  0.00     0.293 HD
ENDBRANCH   6  12
TORSDOF 3
ENDMDL
MODEL 8
REMARK VINA RESULT:    -4.514      1.323      4.461
REMARK INTER + INTRA:          -5.275
REMARK INTER:                  -5.183
REMARK INTRA:                  -0.092
REMARK UNBOUND:                -0.101
REMARK SMILES COc1cc(C(=O)[O-])ccc1O
REMARK SMILES IDX 5 1 9 2 4 3 10 4 3 5 11 6 6 7 7 8 8 9 2 10 1 11 12 12
REMARK H PARENT 12 13
REMARK Flexibility Score: inf
ROOT
ATOM      1  C   UNL     1      19.533  -7.674 -29.371  1.00  0.00     0.001 A 
ATOM      2  C   UNL     1      18.141  -7.750 -29.554  1.00  0.00     0.014 A 
ATOM      3  C   UNL     1      20.382  -8.216 -30.352  1.00  0.00     0.060 A 
ATOM      4  C   UNL     1      17.612  -8.354 -30.695  1.00  0.00     0.051 A 
ATOM      5  C   UNL     1      19.851  -8.828 -31.507  1.00  0.00     0.161 A 
ATOM      6  C   UNL     1      18.456  -8.892 -31.670  1.00  0.00     0.157 A 
ENDROOT
BRANCH   1   7
ATOM      7  C   UNL     1      20.099  -7.035 -28.162  1.00  0.00     0.072 C 
ATOM      8  O   UNL     1      21.331  -6.785 -28.087  1.00  0.00    -0.545 OA
ATOM      9  O   UNL     1      19.277  -6.702 -27.091  1.00  0.00    -0.545 OA
ENDBRANCH   1   7
BRANCH   5  10
ATOM     10  O   UNL     1      20.675  -9.376 -32.503  1.00  0.00    -0.493 OA
ATOM     11  C   UNL     1      21.713  -8.670 -33.174  1.00  0.00     0.278 C 
ENDBRANCH   5  10
BRANCH   6  12
ATOM     12  O   UNL     1      17.888  -9.489 -32.796  1.00  0.00    -0.504 OA
ATOM     13  H   UNL     1      17.760  -8.986 -33.666  1.00  0.00     0.293 HD
ENDBRANCH   6  12
TORSDOF 3
ENDMDL
MODEL 9
REMARK VINA RESULT:    -4.432      3.478      5.718
REMARK INTER + INTRA:          -5.180
REMARK INTER:                  -5.083
REMARK INTRA:                  -0.097
REMARK UNBOUND:                -0.101
REMARK SMILES COc1cc(C(=O)[O-])ccc1O
REMARK SMILES IDX 5 1 9 2 4 3 10 4 3 5 11 6 6 7 7 8 8 9 2 10 1 11 12 12
REMARK H PARENT 12 13
REMARK Flexibility Score: inf
ROOT
ATOM      1  C   UNL     1      22.133  -5.282 -27.294  1.00  0.00     0.001 A 
ATOM      2  C   UNL     1      23.166  -6.200 -27.548  1.00  0.00     0.014 A 
ATOM      3  C   UNL     1      22.454  -4.026 -26.748  1.00  0.00     0.060 A 
ATOM      4  C   UNL     1      24.491  -5.869 -27.263  1.00  0.00     0.051 A 
ATOM      5  C   UNL     1      23.793  -3.688 -26.457  1.00  0.00     0.161 A 
ATOM      6  C   UNL     1      24.810  -4.621 -26.721  1.00  0.00     0.157 A 
ENDROOT
BRANCH   1   7
ATOM      7  C   UNL     1      20.726  -5.629 -27.594  1.00  0.00     0.072 C 
ATOM      8  O   UNL     1      19.897  -5.807 -26.662  1.00  0.00    -0.545 OA
ATOM      9  O   UNL     1      20.300  -5.766 -28.910  1.00  0.00    -0.545 OA
ENDBRANCH   1   7
BRANCH   5  10
ATOM     10  O   UNL     1      24.142  -2.441 -25.913  1.00  0.00    -0.493 OA
ATOM     11  C   UNL     1      24.237  -1.231 -26.657  1.00  0.00     0.278 C 
ENDBRANCH   5  10
BRANCH   6  12
ATOM     12  O   UNL     1      26.146  -4.328 -26.449  1.00  0.00    -0.504 OA
ATOM     13  H   UNL     1      26.759  -3.912 -27.140  1.00  0.00     0.293 HD
ENDBRANCH   6  12
TORSDOF 3
ENDMDL
