MODEL 1
REMARK VINA RESULT:    -6.855      0.000      0.000
REMARK INTER + INTRA:          -8.140
REMARK INTER:                  -8.257
REMARK INTRA:                   0.117
REMARK UNBOUND:                 0.117
REMARK SMILES Oc1cc(O)c2cc(O)c(-c3ccc(O)c(O)c3)[o+]c2c1
REMARK SMILES IDX 10 1 19 2 20 3 21 4 2 5 3 6 4 7 6 8 7 9 8 10 11 11 12 12
REMARK SMILES IDX 13 13 14 14 18 15 16 16 15 17 17 19 9 21 1 23 5 25
REMARK H PARENT 15 18 17 20 9 22 1 24 5 26
REMARK Flexibility Score: inf
ROOT
ATOM      1  C   UNL     1       1.980  24.118  48.404  1.00  0.00     0.402 A 
ATOM      2  O   UNL     1       2.224  23.252  47.423  1.00  0.00    -0.202 OA
ATOM      3  C   UNL     1       2.383  23.612  46.154  1.00  0.00     0.368 A 
ATOM      4  C   UNL     1       2.635  22.629  45.194  1.00  0.00     0.162 A 
ATOM      5  C   UNL     1       2.803  22.981  43.851  1.00  0.00     0.128 A 
ATOM      6  C   UNL     1       2.718  24.321  43.468  1.00  0.00     0.093 A 
ATOM      7  C   UNL     1       2.467  25.325  44.410  1.00  0.00     0.136 A 
ATOM      8  C   UNL     1       2.299  24.974  45.775  1.00  0.00     0.125 A 
ATOM      9  C   UNL     1       2.057  25.914  46.789  1.00  0.00     0.078 A 
ATOM     10  C   UNL     1       1.906  25.493  48.114  1.00  0.00     0.223 A 
ENDROOT
BRANCH   1  11
ATOM     11  C   UNL     1       1.813  23.590  49.777  1.00  0.00     0.087 A 
ATOM     12  C   UNL     1       0.904  24.172  50.679  1.00  0.00     0.022 A 
ATOM     13  C   UNL     1       0.746  23.642  51.963  1.00  0.00     0.051 A 
ATOM     14  C   UNL     1       1.480  22.521  52.361  1.00  0.00     0.157 A 
ATOM     15  C   UNL     1       2.532  22.451  50.172  1.00  0.00     0.068 A 
ATOM     16  C   UNL     1       2.375  21.919  51.461  1.00  0.00     0.158 A 
BRANCH  14  17
ATOM     17  O   UNL     1       1.302  22.017  53.648  1.00  0.00    -0.504 OA
ATOM     18  H   UNL     1       0.950  21.081  53.816  1.00  0.00     0.293 HD
ENDBRANCH  14  17
BRANCH  16  19
ATOM     19  O   UNL     1       3.106  20.796  51.849  1.00  0.00    -0.504 OA
ATOM     20  H   UNL     1       3.226  20.002  51.231  1.00  0.00     0.293 HD
ENDBRANCH  16  19
ENDBRANCH   1  11
BRANCH  10  21
ATOM     21  O   UNL     1       1.716  26.430  49.130  1.00  0.00    -0.500 OA
ATOM     22  H   UNL     1       0.790  26.743  49.399  1.00  0.00     0.294 HD
ENDBRANCH  10  21
BRANCH   5  23
ATOM     23  O   UNL     1       3.053  22.005  42.888  1.00  0.00    -0.507 OA
ATOM     24  H   UNL     1       2.738  22.112  41.930  1.00  0.00     0.293 HD
ENDBRANCH   5  23
BRANCH   7  25
ATOM     25  O   UNL     1       2.395  26.642  43.944  1.00  0.00    -0.507 OA
ATOM     26  H   UNL     1       3.062  27.364  44.171  1.00  0.00     0.293 HD
ENDBRANCH   7  25
TORSDOF 6
ENDMDL
MODEL 2
REMARK VINA RESULT:    -6.457      8.800     11.193
REMARK INTER + INTRA:          -7.661
REMARK INTER:                  -7.836
REMARK INTRA:                   0.174
REMARK UNBOUND:                 0.117
REMARK SMILES Oc1cc(O)c2cc(O)c(-c3ccc(O)c(O)c3)[o+]c2c1
REMARK SMILES IDX 10 1 19 2 20 3 21 4 2 5 3 6 4 7 6 8 7 9 8 10 11 11 12 12
REMARK SMILES IDX 13 13 14 14 18 15 16 16 15 17 17 19 9 21 1 23 5 25
REMARK H PARENT 15 18 17 20 9 22 1 24 5 26
REMARK Flexibility Score: inf
ROOT
ATOM      1  C   UNL     1       3.173  21.818  57.275  1.00  0.00     0.402 A 
ATOM      2  O   UNL     1       3.469  20.808  58.088  1.00  0.00    -0.202 OA
ATOM      3  C   UNL     1       4.675  20.254  58.155  1.00  0.00     0.368 A 
ATOM      4  C   UNL     1       4.889  19.194  59.040  1.00  0.00     0.162 A 
ATOM      5  C   UNL     1       6.148  18.592  59.128  1.00  0.00     0.128 A 
ATOM      6  C   UNL     1       7.195  19.051  58.327  1.00  0.00     0.093 A 
ATOM      7  C   UNL     1       7.007  20.110  57.432  1.00  0.00     0.136 A 
ATOM      8  C   UNL     1       5.732  20.728  57.341  1.00  0.00     0.125 A 
ATOM      9  C   UNL     1       5.456  21.804  56.482  1.00  0.00     0.078 A 
ATOM     10  C   UNL     1       4.175  22.364  56.451  1.00  0.00     0.223 A 
ENDROOT
BRANCH   1  11
ATOM     11  C   UNL     1       1.788  22.343  57.286  1.00  0.00     0.087 A 
ATOM     12  C   UNL     1       1.057  22.453  58.482  1.00  0.00     0.022 A 
ATOM     13  C   UNL     1      -0.240  22.974  58.471  1.00  0.00     0.051 A 
ATOM     14  C   UNL     1      -0.821  23.403  57.274  1.00  0.00     0.157 A 
ATOM     15  C   UNL     1       1.211  22.795  56.089  1.00  0.00     0.068 A 
ATOM     16  C   UNL     1      -0.092  23.317  56.076  1.00  0.00     0.158 A 
BRANCH  14  17
ATOM     17  O   UNL     1      -2.117  23.916  57.295  1.00  0.00    -0.504 OA
ATOM     18  H   UNL     1      -2.492  24.464  56.529  1.00  0.00     0.293 HD
ENDBRANCH  14  17
BRANCH  16  19
ATOM     19  O   UNL     1      -0.662  23.750  54.879  1.00  0.00    -0.504 OA
ATOM     20  H   UNL     1      -0.831  23.112  54.110  1.00  0.00     0.293 HD
ENDBRANCH  16  19
ENDBRANCH   1  11
BRANCH  10  21
ATOM     21  O   UNL     1       3.912  23.465  55.636  1.00  0.00    -0.500 OA
ATOM     22  H   UNL     1       4.220  23.499  54.671  1.00  0.00     0.294 HD
ENDBRANCH  10  21
BRANCH   5  23
ATOM     23  O   UNL     1       6.368  17.535  60.008  1.00  0.00    -0.507 OA
ATOM     24  H   UNL     1       7.131  17.550  60.676  1.00  0.00     0.293 HD
ENDBRANCH   5  23
BRANCH   7  25
ATOM     25  O   UNL     1       8.106  20.508  56.664  1.00  0.00    -0.507 OA
ATOM     26  H   UNL     1       8.623  19.896  56.049  1.00  0.00     0.293 HD
ENDBRANCH   7  25
TORSDOF 6
ENDMDL
MODEL 3
REMARK VINA RESULT:    -6.440      3.757      6.970
REMARK INTER + INTRA:          -7.641
REMARK INTER:                  -7.290
REMARK INTRA:                  -0.351
REMARK UNBOUND:                 0.117
REMARK SMILES Oc1cc(O)c2cc(O)c(-c3ccc(O)c(O)c3)[o+]c2c1
REMARK SMILES IDX 10 1 19 2 20 3 21 4 2 5 3 6 4 7 6 8 7 9 8 10 11 11 12 12
REMARK SMILES IDX 13 13 14 14 18 15 16 16 15 17 17 19 9 21 1 23 5 25
REMARK H PARENT 15 18 17 20 9 22 1 24 5 26
REMARK Flexibility Score: inf
ROOT
ATOM      1  C   UNL     1       0.703  24.092  54.308  1.00  0.00     0.402 A 
ATOM      2  O   UNL     1       0.753  24.689  53.120  1.00  0.00    -0.202 OA
ATOM      3  C   UNL     1       1.300  24.131  52.045  1.00  0.00     0.368 A 
ATOM      4  C   UNL     1       1.308  24.838  50.840  1.00  0.00     0.162 A 
ATOM      5  C   UNL     1       1.880  24.276  49.695  1.00  0.00     0.128 A 
ATOM      6  C   UNL     1       2.447  23.002  49.757  1.00  0.00     0.093 A 
ATOM      7  C   UNL     1       2.453  22.273  50.952  1.00  0.00     0.136 A 
ATOM      8  C   UNL     1       1.871  22.837  52.116  1.00  0.00     0.125 A 
ATOM      9  C   UNL     1       1.820  22.174  53.353  1.00  0.00     0.078 A 
ATOM     10  C   UNL     1       1.225  22.794  54.456  1.00  0.00     0.223 A 
ENDROOT
BRANCH   1  11
ATOM     11  C   UNL     1       0.074  24.822  55.432  1.00  0.00     0.087 A 
ATOM     12  C   UNL     1       0.844  25.560  56.348  1.00  0.00     0.022 A 
ATOM     13  C   UNL     1       0.226  26.262  57.387  1.00  0.00     0.051 A 
ATOM     14  C   UNL     1      -1.165  26.247  57.521  1.00  0.00     0.157 A 
ATOM     15  C   UNL     1      -1.325  24.827  55.557  1.00  0.00     0.068 A 
ATOM     16  C   UNL     1      -1.946  25.529  56.601  1.00  0.00     0.158 A 
BRANCH  14  17
ATOM     17  O   UNL     1      -1.753  26.954  58.570  1.00  0.00    -0.504 OA
ATOM     18  H   UNL     1      -1.718  27.966  58.622  1.00  0.00     0.293 HD
ENDBRANCH  14  17
BRANCH  16  19
ATOM     19  O   UNL     1      -3.336  25.516  56.723  1.00  0.00    -0.504 OA
ATOM     20  H   UNL     1      -3.791  25.656  57.618  1.00  0.00     0.293 HD
ENDBRANCH  16  19
ENDBRANCH   1  11
BRANCH  10  21
ATOM     21  O   UNL     1       1.129  22.116  55.672  1.00  0.00    -0.500 OA
ATOM     22  H   UNL     1       1.289  21.117  55.739  1.00  0.00     0.294 HD
ENDBRANCH  10  21
BRANCH   5  23
ATOM     23  O   UNL     1       1.891  24.976  48.491  1.00  0.00    -0.507 OA
ATOM     24  H   UNL     1       1.669  24.522  47.612  1.00  0.00     0.293 HD
ENDBRANCH   5  23
BRANCH   7  25
ATOM     25  O   UNL     1       3.044  21.005  50.929  1.00  0.00    -0.507 OA
ATOM     26  H   UNL     1       3.865  20.749  51.458  1.00  0.00     0.293 HD
ENDBRANCH   7  25
TORSDOF 6
ENDMDL
MODEL 4
REMARK VINA RESULT:    -6.401      1.282      6.814
REMARK INTER + INTRA:          -7.593
REMARK INTER:                  -7.510
REMARK INTRA:                  -0.084
REMARK UNBOUND:                 0.117
REMARK SMILES Oc1cc(O)c2cc(O)c(-c3ccc(O)c(O)c3)[o+]c2c1
REMARK SMILES IDX 10 1 19 2 20 3 21 4 2 5 3 6 4 7 6 8 7 9 8 10 11 11 12 12
REMARK SMILES IDX 13 13 14 14 18 15 16 16 15 17 17 19 9 21 1 23 5 25
REMARK H PARENT 15 18 17 20 9 22 1 24 5 26
REMARK Flexibility Score: inf
ROOT
ATOM      1  C   UNL     1       1.782  24.533  48.813  1.00  0.00     0.402 A 
ATOM      2  O   UNL     1       2.338  23.435  49.320  1.00  0.00    -0.202 OA
ATOM      3  C   UNL     1       2.227  23.084  50.597  1.00  0.00     0.368 A 
ATOM      4  C   UNL     1       2.849  21.912  51.037  1.00  0.00     0.162 A 
ATOM      5  C   UNL     1       2.751  21.522  52.376  1.00  0.00     0.128 A 
ATOM      6  C   UNL     1       2.029  22.306  53.277  1.00  0.00     0.093 A 
ATOM      7  C   UNL     1       1.397  23.484  52.862  1.00  0.00     0.136 A 
ATOM      8  C   UNL     1       1.490  23.884  51.504  1.00  0.00     0.125 A 
ATOM      9  C   UNL     1       0.879  25.041  50.996  1.00  0.00     0.078 A 
ATOM     10  C   UNL     1       1.012  25.368  49.643  1.00  0.00     0.223 A 
ENDROOT
BRANCH   1  11
ATOM     11  C   UNL     1       1.986  24.820  47.375  1.00  0.00     0.087 A 
ATOM     12  C   UNL     1       2.440  26.077  46.937  1.00  0.00     0.022 A 
ATOM     13  C   UNL     1       2.648  26.317  45.575  1.00  0.00     0.051 A 
ATOM     14  C   UNL     1       2.419  25.308  44.636  1.00  0.00     0.157 A 
ATOM     15  C   UNL     1       1.778  23.802  46.431  1.00  0.00     0.068 A 
ATOM     16  C   UNL     1       1.985  24.043  45.064  1.00  0.00     0.158 A 
BRANCH  14  17
ATOM     17  O   UNL     1       2.633  25.579  43.285  1.00  0.00    -0.504 OA
ATOM     18  H   UNL     1       2.173  25.052  42.551  1.00  0.00     0.293 HD
ENDBRANCH  14  17
BRANCH  16  19
ATOM     19  O   UNL     1       1.761  23.029  44.133  1.00  0.00    -0.504 OA
ATOM     20  H   UNL     1       2.336  22.932  43.304  1.00  0.00     0.293 HD
ENDBRANCH  16  19
ENDBRANCH   1  11
BRANCH  10  21
ATOM     21  O   UNL     1       0.363  26.490  49.127  1.00  0.00    -0.500 OA
ATOM     22  H   UNL     1       0.226  27.328  49.681  1.00  0.00     0.294 HD
ENDBRANCH  10  21
BRANCH   5  23
ATOM     23  O   UNL     1       3.370  20.355  52.821  1.00  0.00    -0.507 OA
ATOM     24  H   UNL     1       3.872  20.324  53.701  1.00  0.00     0.293 HD
ENDBRANCH   5  23
BRANCH   7  25
ATOM     25  O   UNL     1       0.696  24.213  53.828  1.00  0.00    -0.507 OA
ATOM     26  H   UNL     1       0.311  25.134  53.678  1.00  0.00     0.293 HD
ENDBRANCH   7  25
TORSDOF 6
ENDMDL
MODEL 5
REMARK VINA RESULT:    -6.332      5.258      9.404
REMARK INTER + INTRA:          -7.510
REMARK INTER:                  -7.398
REMARK INTRA:                  -0.112
REMARK UNBOUND:                 0.117
REMARK SMILES Oc1cc(O)c2cc(O)c(-c3ccc(O)c(O)c3)[o+]c2c1
REMARK SMILES IDX 10 1 19 2 20 3 21 4 2 5 3 6 4 7 6 8 7 9 8 10 11 11 12 12
REMARK SMILES IDX 13 13 14 14 18 15 16 16 15 17 17 19 9 21 1 23 5 25
REMARK H PARENT 15 18 17 20 9 22 1 24 5 26
REMARK Flexibility Score: inf
ROOT
ATOM      1  C   UNL     1       2.520  22.996  54.571  1.00  0.00     0.402 A 
ATOM      2  O   UNL     1       1.372  23.655  54.432  1.00  0.00    -0.202 OA
ATOM      3  C   UNL     1       0.450  23.723  55.387  1.00  0.00     0.368 A 
ATOM      4  C   UNL     1      -0.726  24.439  55.147  1.00  0.00     0.162 A 
ATOM      5  C   UNL     1      -1.714  24.524  56.133  1.00  0.00     0.128 A 
ATOM      6  C   UNL     1      -1.524  23.890  57.363  1.00  0.00     0.093 A 
ATOM      7  C   UNL     1      -0.355  23.167  57.628  1.00  0.00     0.136 A 
ATOM      8  C   UNL     1       0.652  23.080  56.632  1.00  0.00     0.125 A 
ATOM      9  C   UNL     1       1.860  22.389  56.815  1.00  0.00     0.078 A 
ATOM     10  C   UNL     1       2.808  22.351  55.788  1.00  0.00     0.223 A 
ENDROOT
BRANCH   1  11
ATOM     11  C   UNL     1       3.463  22.986  53.429  1.00  0.00     0.087 A 
ATOM     12  C   UNL     1       3.082  22.493  52.169  1.00  0.00     0.022 A 
ATOM     13  C   UNL     1       3.982  22.516  51.100  1.00  0.00     0.051 A 
ATOM     14  C   UNL     1       5.267  23.040  51.268  1.00  0.00     0.157 A 
ATOM     15  C   UNL     1       4.747  23.532  53.589  1.00  0.00     0.068 A 
ATOM     16  C   UNL     1       5.652  23.554  52.517  1.00  0.00     0.158 A 
BRANCH  14  17
ATOM     17  O   UNL     1       6.143  23.048  50.183  1.00  0.00    -0.504 OA
ATOM     18  H   UNL     1       6.148  23.797  49.501  1.00  0.00     0.293 HD
ENDBRANCH  14  17
BRANCH  16  19
ATOM     19  O   UNL     1       6.929  24.086  52.691  1.00  0.00    -0.504 OA
ATOM     20  H   UNL     1       7.738  23.492  52.832  1.00  0.00     0.293 HD
ENDBRANCH  16  19
ENDBRANCH   1  11
BRANCH  10  21
ATOM     21  O   UNL     1       4.030  21.707  55.986  1.00  0.00    -0.500 OA
ATOM     22  H   UNL     1       4.080  20.731  56.256  1.00  0.00     0.294 HD
ENDBRANCH  10  21
BRANCH   5  23
ATOM     23  O   UNL     1      -2.889  25.235  55.900  1.00  0.00    -0.507 OA
ATOM     24  H   UNL     1      -3.044  25.732  55.030  1.00  0.00     0.293 HD
ENDBRANCH   5  23
BRANCH   7  25
ATOM     25  O   UNL     1      -0.245  22.560  58.883  1.00  0.00    -0.507 OA
ATOM     26  H   UNL     1      -0.886  21.865  59.238  1.00  0.00     0.293 HD
ENDBRANCH   7  25
TORSDOF 6
ENDMDL
MODEL 6
REMARK VINA RESULT:    -6.265      5.449      8.317
REMARK INTER + INTRA:          -7.429
REMARK INTER:                  -7.076
REMARK INTRA:                  -0.353
REMARK UNBOUND:                 0.117
REMARK SMILES Oc1cc(O)c2cc(O)c(-c3ccc(O)c(O)c3)[o+]c2c1
REMARK SMILES IDX 10 1 19 2 20 3 21 4 2 5 3 6 4 7 6 8 7 9 8 10 11 11 12 12
REMARK SMILES IDX 13 13 14 14 18 15 16 16 15 17 17 19 9 21 1 23 5 25
REMARK H PARENT 15 18 17 20 9 22 1 24 5 26
REMARK Flexibility Score: inf
ROOT
ATOM      1  C   UNL     1       4.807  22.010  55.734  1.00  0.00     0.402 A 
ATOM      2  O   UNL     1       4.483  21.626  54.502  1.00  0.00    -0.202 OA
ATOM      3  C   UNL     1       3.912  22.432  53.613  1.00  0.00     0.368 A 
ATOM      4  C   UNL     1       3.606  21.936  52.343  1.00  0.00     0.162 A 
ATOM      5  C   UNL     1       3.002  22.762  51.390  1.00  0.00     0.128 A 
ATOM      6  C   UNL     1       2.702  24.088  51.710  1.00  0.00     0.093 A 
ATOM      7  C   UNL     1       2.998  24.608  52.975  1.00  0.00     0.136 A 
ATOM      8  C   UNL     1       3.614  23.776  53.945  1.00  0.00     0.125 A 
ATOM      9  C   UNL     1       3.958  24.216  55.233  1.00  0.00     0.078 A 
ATOM     10  C   UNL     1       4.567  23.338  56.134  1.00  0.00     0.223 A 
ENDROOT
BRANCH   1  11
ATOM     11  C   UNL     1       5.432  21.015  56.636  1.00  0.00     0.087 A 
ATOM     12  C   UNL     1       4.654  20.208  57.485  1.00  0.00     0.022 A 
ATOM     13  C   UNL     1       5.265  19.258  58.310  1.00  0.00     0.051 A 
ATOM     14  C   UNL     1       6.652  19.092  58.291  1.00  0.00     0.157 A 
ATOM     15  C   UNL     1       6.823  20.830  56.603  1.00  0.00     0.068 A 
ATOM     16  C   UNL     1       7.437  19.879  57.432  1.00  0.00     0.158 A 
BRANCH  14  17
ATOM     17  O   UNL     1       7.232  18.138  59.127  1.00  0.00    -0.504 OA
ATOM     18  H   UNL     1       8.213  17.891  59.063  1.00  0.00     0.293 HD
ENDBRANCH  14  17
BRANCH  16  19
ATOM     19  O   UNL     1       8.821  19.713  57.402  1.00  0.00    -0.504 OA
ATOM     20  H   UNL     1       9.445  20.491  57.225  1.00  0.00     0.293 HD
ENDBRANCH  16  19
ENDBRANCH   1  11
BRANCH  10  21
ATOM     21  O   UNL     1       4.956  23.788  57.396  1.00  0.00    -0.500 OA
ATOM     22  H   UNL     1       4.501  23.461  58.241  1.00  0.00     0.294 HD
ENDBRANCH  10  21
BRANCH   5  23
ATOM     23  O   UNL     1       2.694  22.274  50.122  1.00  0.00    -0.507 OA
ATOM     24  H   UNL     1       3.391  22.228  49.388  1.00  0.00     0.293 HD
ENDBRANCH   5  23
BRANCH   7  25
ATOM     25  O   UNL     1       2.663  25.945  53.215  1.00  0.00    -0.507 OA
ATOM     26  H   UNL     1       2.395  26.603  52.498  1.00  0.00     0.293 HD
ENDBRANCH   7  25
TORSDOF 6
ENDMDL
MODEL 7
REMARK VINA RESULT:    -6.253     10.007     12.086
REMARK INTER + INTRA:          -7.416
REMARK INTER:                  -7.063
REMARK INTRA:                  -0.353
REMARK UNBOUND:                 0.117
REMARK SMILES Oc1cc(O)c2cc(O)c(-c3ccc(O)c(O)c3)[o+]c2c1
REMARK SMILES IDX 10 1 19 2 20 3 21 4 2 5 3 6 4 7 6 8 7 9 8 10 11 11 12 12
REMARK SMILES IDX 13 13 14 14 18 15 16 16 15 17 17 19 9 21 1 23 5 25
REMARK H PARENT 15 18 17 20 9 22 1 24 5 26
REMARK Flexibility Score: inf
ROOT
ATOM      1  C   UNL     1       3.009  21.627  58.772  1.00  0.00     0.402 A 
ATOM      2  O   UNL     1       4.104  21.611  58.016  1.00  0.00    -0.202 OA
ATOM      3  C   UNL     1       5.081  20.723  58.165  1.00  0.00     0.368 A 
ATOM      4  C   UNL     1       6.194  20.787  57.324  1.00  0.00     0.162 A 
ATOM      5  C   UNL     1       7.237  19.867  57.462  1.00  0.00     0.128 A 
ATOM      6  C   UNL     1       7.166  18.878  58.446  1.00  0.00     0.093 A 
ATOM      7  C   UNL     1       6.062  18.792  59.302  1.00  0.00     0.136 A 
ATOM      8  C   UNL     1       4.999  19.722  59.164  1.00  0.00     0.125 A 
ATOM      9  C   UNL     1       3.848  19.703  59.968  1.00  0.00     0.078 A 
ATOM     10  C   UNL     1       2.839  20.651  59.770  1.00  0.00     0.223 A 
ENDROOT
BRANCH   1  11
ATOM     11  C   UNL     1       1.995  22.675  58.512  1.00  0.00     0.087 A 
ATOM     12  C   UNL     1       2.019  23.903  59.198  1.00  0.00     0.022 A 
ATOM     13  C   UNL     1       1.066  24.886  58.919  1.00  0.00     0.051 A 
ATOM     14  C   UNL     1       0.086  24.666  57.947  1.00  0.00     0.157 A 
ATOM     15  C   UNL     1       1.023  22.466  57.521  1.00  0.00     0.068 A 
ATOM     16  C   UNL     1       0.064  23.452  57.241  1.00  0.00     0.158 A 
BRANCH  14  17
ATOM     17  O   UNL     1      -0.853  25.666  57.693  1.00  0.00    -0.504 OA
ATOM     18  H   UNL     1      -1.850  25.481  57.695  1.00  0.00     0.293 HD
ENDBRANCH  14  17
BRANCH  16  19
ATOM     19  O   UNL     1      -0.906  23.228  56.265  1.00  0.00    -0.504 OA
ATOM     20  H   UNL     1      -1.762  22.726  56.472  1.00  0.00     0.293 HD
ENDBRANCH  16  19
ENDBRANCH   1  11
BRANCH  10  21
ATOM     21  O   UNL     1       1.673  20.602  60.534  1.00  0.00    -0.500 OA
ATOM     22  H   UNL     1       1.695  20.677  61.545  1.00  0.00     0.294 HD
ENDBRANCH  10  21
BRANCH   5  23
ATOM     23  O   UNL     1       8.351  19.926  56.627  1.00  0.00    -0.507 OA
ATOM     24  H   UNL     1       9.216  19.452  56.862  1.00  0.00     0.293 HD
ENDBRANCH   5  23
BRANCH   7  25
ATOM     25  O   UNL     1       6.070  17.775  60.262  1.00  0.00    -0.507 OA
ATOM     26  H   UNL     1       5.310  17.127  60.411  1.00  0.00     0.293 HD
ENDBRANCH   7  25
TORSDOF 6
ENDMDL
MODEL 8
REMARK VINA RESULT:    -6.139      5.974     11.022
REMARK INTER + INTRA:          -7.277
REMARK INTER:                  -7.001
REMARK INTRA:                  -0.276
REMARK UNBOUND:                 0.117
REMARK SMILES Oc1cc(O)c2cc(O)c(-c3ccc(O)c(O)c3)[o+]c2c1
REMARK SMILES IDX 10 1 19 2 20 3 21 4 2 5 3 6 4 7 6 8 7 9 8 10 11 11 12 12
REMARK SMILES IDX 13 13 14 14 18 15 16 16 15 17 17 19 9 21 1 23 5 25
REMARK H PARENT 15 18 17 20 9 22 1 24 5 26
REMARK Flexibility Score: inf
ROOT
ATOM      1  C   UNL     1       4.767  22.107  55.830  1.00  0.00     0.402 A 
ATOM      2  O   UNL     1       5.330  20.963  56.212  1.00  0.00    -0.202 OA
ATOM      3  C   UNL     1       5.527  20.636  57.485  1.00  0.00     0.368 A 
ATOM      4  C   UNL     1       6.129  19.412  57.788  1.00  0.00     0.162 A 
ATOM      5  C   UNL     1       6.350  19.045  59.119  1.00  0.00     0.128 A 
ATOM      6  C   UNL     1       5.967  19.906  60.150  1.00  0.00     0.093 A 
ATOM      7  C   UNL     1       5.362  21.138  59.873  1.00  0.00     0.136 A 
ATOM      8  C   UNL     1       5.133  21.514  58.524  1.00  0.00     0.125 A 
ATOM      9  C   UNL     1       4.521  22.722  58.153  1.00  0.00     0.078 A 
ATOM     10  C   UNL     1       4.325  23.022  56.802  1.00  0.00     0.223 A 
ENDROOT
BRANCH   1  11
ATOM     11  C   UNL     1       4.612  22.359  54.379  1.00  0.00     0.087 A 
ATOM     12  C   UNL     1       5.374  23.342  53.722  1.00  0.00     0.022 A 
ATOM     13  C   UNL     1       5.227  23.546  52.346  1.00  0.00     0.051 A 
ATOM     14  C   UNL     1       4.331  22.768  51.607  1.00  0.00     0.157 A 
ATOM     15  C   UNL     1       3.729  21.565  53.630  1.00  0.00     0.068 A 
ATOM     16  C   UNL     1       3.580  21.770  52.249  1.00  0.00     0.158 A 
BRANCH  14  17
ATOM     17  O   UNL     1       4.206  22.997  50.237  1.00  0.00    -0.504 OA
ATOM     18  H   UNL     1       3.660  23.768  49.868  1.00  0.00     0.293 HD
ENDBRANCH  14  17
BRANCH  16  19
ATOM     19  O   UNL     1       2.690  20.985  51.517  1.00  0.00    -0.504 OA
ATOM     20  H   UNL     1       2.675  21.003  50.504  1.00  0.00     0.293 HD
ENDBRANCH  16  19
ENDBRANCH   1  11
BRANCH  10  21
ATOM     21  O   UNL     1       3.672  24.199  56.434  1.00  0.00    -0.500 OA
ATOM     22  H   UNL     1       3.235  24.803  57.121  1.00  0.00     0.294 HD
ENDBRANCH  10  21
BRANCH   5  23
ATOM     23  O   UNL     1       6.950  17.827  59.429  1.00  0.00    -0.507 OA
ATOM     24  H   UNL     1       6.459  16.948  59.308  1.00  0.00     0.293 HD
ENDBRANCH   5  23
BRANCH   7  25
ATOM     25  O   UNL     1       5.012  21.942  60.962  1.00  0.00    -0.507 OA
ATOM     26  H   UNL     1       5.402  22.855  61.145  1.00  0.00     0.293 HD
ENDBRANCH   7  25
TORSDOF 6
ENDMDL
MODEL 9
REMARK VINA RESULT:    -6.015      7.527      9.986
REMARK INTER + INTRA:          -7.129
REMARK INTER:                  -6.850
REMARK INTRA:                  -0.279
REMARK UNBOUND:                 0.117
REMARK SMILES Oc1cc(O)c2cc(O)c(-c3ccc(O)c(O)c3)[o+]c2c1
REMARK SMILES IDX 10 1 19 2 20 3 21 4 2 5 3 6 4 7 6 8 7 9 8 10 11 11 12 12
REMARK SMILES IDX 13 13 14 14 18 15 16 16 15 17 17 19 9 21 1 23 5 25
REMARK H PARENT 15 18 17 20 9 22 1 24 5 26
REMARK Flexibility Score: inf
ROOT
ATOM      1  C   UNL     1       4.635  22.386  57.189  1.00  0.00     0.402 A 
ATOM      2  O   UNL     1       3.619  22.226  56.346  1.00  0.00    -0.202 OA
ATOM      3  C   UNL     1       2.847  23.226  55.935  1.00  0.00     0.368 A 
ATOM      4  C   UNL     1       1.800  22.958  55.048  1.00  0.00     0.162 A 
ATOM      5  C   UNL     1       0.971  23.992  54.602  1.00  0.00     0.128 A 
ATOM      6  C   UNL     1       1.189  25.298  55.046  1.00  0.00     0.093 A 
ATOM      7  C   UNL     1       2.230  25.592  55.934  1.00  0.00     0.136 A 
ATOM      8  C   UNL     1       3.077  24.548  56.387  1.00  0.00     0.125 A 
ATOM      9  C   UNL     1       4.152  24.752  57.267  1.00  0.00     0.078 A 
ATOM     10  C   UNL     1       4.946  23.673  57.666  1.00  0.00     0.223 A 
ENDROOT
BRANCH   1  11
ATOM     11  C   UNL     1       5.416  21.190  57.580  1.00  0.00     0.087 A 
ATOM     12  C   UNL     1       4.894  20.233  58.468  1.00  0.00     0.022 A 
ATOM     13  C   UNL     1       5.640  19.099  58.803  1.00  0.00     0.051 A 
ATOM     14  C   UNL     1       6.908  18.898  58.250  1.00  0.00     0.157 A 
ATOM     15  C   UNL     1       6.680  20.974  57.009  1.00  0.00     0.068 A 
ATOM     16  C   UNL     1       7.431  19.837  57.346  1.00  0.00     0.158 A 
BRANCH  14  17
ATOM     17  O   UNL     1       7.629  17.758  58.605  1.00  0.00    -0.504 OA
ATOM     18  H   UNL     1       7.410  16.843  58.227  1.00  0.00     0.293 HD
ENDBRANCH  14  17
BRANCH  16  19
ATOM     19  O   UNL     1       8.692  19.639  56.784  1.00  0.00    -0.504 OA
ATOM     20  H   UNL     1       9.343  18.962  57.165  1.00  0.00     0.293 HD
ENDBRANCH  16  19
ENDBRANCH   1  11
BRANCH  10  21
ATOM     21  O   UNL     1       6.045  23.882  58.500  1.00  0.00    -0.500 OA
ATOM     22  H   UNL     1       6.913  24.271  58.149  1.00  0.00     0.294 HD
ENDBRANCH  10  21
BRANCH   5  23
ATOM     23  O   UNL     1      -0.074  23.732  53.719  1.00  0.00    -0.507 OA
ATOM     24  H   UNL     1      -0.279  24.351  52.942  1.00  0.00     0.293 HD
ENDBRANCH   5  23
BRANCH   7  25
ATOM     25  O   UNL     1       2.379  26.925  56.332  1.00  0.00    -0.507 OA
ATOM     26  H   UNL     1       3.049  27.567  55.935  1.00  0.00     0.293 HD
ENDBRANCH   7  25
TORSDOF 6
ENDMDL
