MODEL 1
REMARK VINA RESULT:    43.221      0.000      0.000
REMARK INTER + INTRA:          46.945
REMARK INTER:                  47.011
REMARK INTRA:                  -0.065
REMARK UNBOUND:                -0.065
REMARK SMILES CC(=O)[C@H]1CC[C@H]2[C@@H]3CC=C4C[C@@H](O)CC[C@@]4(C)[C@@H]3CC[C@@]12C
REMARK SMILES IDX 4 1 5 2 6 3 7 4 22 5 21 6 20 7 19 8 8 9 9 10 10 11 11 12
REMARK SMILES IDX 17 13 16 14 15 15 13 16 12 17 18 18 23 19 2 20 1 21 3 22
REMARK SMILES IDX 14 23
REMARK H PARENT 14 24
REMARK Flexibility Score: inf
ROOT
ATOM      1  C   UNL     1      35.982  15.875  43.923  1.00  0.00     0.062 C 
ATOM      2  C   UNL     1      37.058  14.806  44.145  1.00  0.00     0.012 C 
ATOM      3  C   UNL     1      36.938  13.840  42.967  1.00  0.00     0.005 C 
ATOM      4  C   UNL     1      35.755  14.313  42.102  1.00  0.00    -0.001 C 
ATOM      5  C   UNL     1      34.896  15.226  43.021  1.00  0.00    -0.020 C 
ATOM      6  C   UNL     1      33.879  14.393  43.851  1.00  0.00     0.008 C 
ATOM      7  C   UNL     1      33.087  13.379  43.016  1.00  0.00     0.005 C 
ATOM      8  C   UNL     1      34.044  12.366  42.335  1.00  0.00     0.003 C 
ATOM      9  C   UNL     1      35.026  13.122  41.403  1.00  0.00     0.000 C 
ATOM     10  C   UNL     1      34.313  13.572  40.118  1.00  0.00     0.031 C 
ATOM     11  C   UNL     1      33.656  12.420  39.430  1.00  0.00    -0.027 C 
ATOM     12  C   UNL     1      33.161  11.351  40.086  1.00  0.00    -0.065 C 
ATOM     13  C   UNL     1      33.355  11.133  41.596  1.00  0.00    -0.008 C 
ATOM     14  C   UNL     1      34.290   9.888  41.750  1.00  0.00     0.014 C 
ATOM     15  C   UNL     1      33.853   8.658  40.924  1.00  0.00     0.033 C 
ATOM     16  C   UNL     1      33.643   8.991  39.438  1.00  0.00     0.118 C 
ATOM     17  C   UNL     1      32.674  10.171  39.267  1.00  0.00     0.063 C 
ATOM     18  C   UNL     1      31.983  10.801  42.242  1.00  0.00     0.016 C 
ATOM     19  C   UNL     1      34.159  16.343  42.239  1.00  0.00     0.012 C 
ENDROOT
BRANCH   1  20
ATOM     20  C   UNL     1      35.477  16.584  45.177  1.00  0.00     0.133 C 
ATOM     21  C   UNL     1      35.236  15.906  46.500  1.00  0.00     0.088 C 
ATOM     22  O   UNL     1      35.226  17.777  45.103  1.00  0.00    -0.300 OA
ENDBRANCH   1  20
BRANCH  16  23
ATOM     23  O   UNL     1      34.884   9.288  38.846  1.00  0.00    -0.393 OA
ATOM     24  H   UNL     1      35.113   8.521  38.258  1.00  0.00     0.210 HD
ENDBRANCH  16  23
TORSDOF 2
ENDMDL
MODEL 2
REMARK VINA RESULT:    45.111      1.376      6.736
REMARK INTER + INTRA:          49.002
REMARK INTER:                  48.383
REMARK INTRA:                   0.618
REMARK UNBOUND:                -0.065
REMARK SMILES CC(=O)[C@H]1CC[C@H]2[C@@H]3CC=C4C[C@@H](O)CC[C@@]4(C)[C@@H]3CC[C@@]12C
REMARK SMILES IDX 4 1 5 2 6 3 7 4 22 5 21 6 20 7 19 8 8 9 9 10 10 11 11 12
REMARK SMILES IDX 17 13 16 14 15 15 13 16 12 17 18 18 23 19 2 20 1 21 3 22
REMARK SMILES IDX 14 23
REMARK H PARENT 14 24
REMARK Flexibility Score: inf
ROOT
ATOM      1  C   UNL     1      33.789  10.808  40.528  1.00  0.00     0.062 C 
ATOM      2  C   UNL     1      33.798  11.830  39.386  1.00  0.00     0.012 C 
ATOM      3  C   UNL     1      34.636  13.007  39.884  1.00  0.00     0.005 C 
ATOM      4  C   UNL     1      35.055  12.693  41.333  1.00  0.00    -0.001 C 
ATOM      5  C   UNL     1      34.066  11.602  41.833  1.00  0.00    -0.020 C 
ATOM      6  C   UNL     1      32.770  12.238  42.408  1.00  0.00     0.008 C 
ATOM      7  C   UNL     1      33.031  13.383  43.396  1.00  0.00     0.005 C 
ATOM      8  C   UNL     1      33.823  14.526  42.709  1.00  0.00     0.003 C 
ATOM      9  C   UNL     1      35.183  13.986  42.200  1.00  0.00     0.000 C 
ATOM     10  C   UNL     1      36.158  13.786  43.372  1.00  0.00     0.031 C 
ATOM     11  C   UNL     1      36.312  15.039  44.170  1.00  0.00    -0.027 C 
ATOM     12  C   UNL     1      35.328  15.949  44.315  1.00  0.00    -0.065 C 
ATOM     13  C   UNL     1      33.995  15.869  43.551  1.00  0.00    -0.008 C 
ATOM     14  C   UNL     1      33.980  17.075  42.556  1.00  0.00     0.014 C 
ATOM     15  C   UNL     1      34.328  18.436  43.197  1.00  0.00     0.033 C 
ATOM     16  C   UNL     1      35.655  18.399  43.974  1.00  0.00     0.118 C 
ATOM     17  C   UNL     1      35.660  17.258  45.004  1.00  0.00     0.063 C 
ATOM     18  C   UNL     1      32.823  16.044  44.555  1.00  0.00     0.016 C 
ATOM     19  C   UNL     1      34.702  10.649  42.877  1.00  0.00     0.012 C 
ENDROOT
BRANCH   1  20
ATOM     20  C   UNL     1      32.595   9.858  40.562  1.00  0.00     0.133 C 
ATOM     21  C   UNL     1      31.413  10.008  41.483  1.00  0.00     0.088 C 
ATOM     22  O   UNL     1      32.603   8.893  39.812  1.00  0.00    -0.300 OA
ENDBRANCH   1  20
BRANCH  16  23
ATOM     23  O   UNL     1      36.721  18.245  43.070  1.00  0.00    -0.393 OA
ATOM     24  H   UNL     1      36.335  17.886  42.229  1.00  0.00     0.210 HD
ENDBRANCH  16  23
TORSDOF 2
ENDMDL
