MODEL 1
REMARK VINA RESULT:    -3.381      0.000      0.000
REMARK INTER + INTRA:          -4.343
REMARK INTER:                  -4.271
REMARK INTRA:                  -0.072
REMARK UNBOUND:                -0.072
REMARK SMILES CSCC[C@@H]([NH3+])C(=O)[O-]
REMARK SMILES IDX 4 1 5 2 6 3 7 7 8 8 9 9 3 10 2 11 1 12
REMARK H PARENT 6 4 6 5 6 6
REMARK Flexibility Score: inf
ROOT
ATOM      1  C   UNL     1      -0.924  33.237  28.092  1.00  0.00     0.082 C 
ENDROOT
BRANCH   1   2
ATOM      2  C   UNL     1      -1.009  34.288  29.224  1.00  0.00     0.228 C 
BRANCH   2   3
ATOM      3  N   UNL     1       0.058  35.285  29.076  1.00  0.00    -0.350 N 
ATOM      4  H   UNL     1       0.992  34.819  28.999  1.00  0.00     0.345 HD
ATOM      5  H   UNL     1      -0.110  35.862  28.219  1.00  0.00     0.345 HD
ATOM      6  H   UNL     1       0.062  35.924  29.903  1.00  0.00     0.345 HD
ENDBRANCH   2   3
BRANCH   2   7
ATOM      7  C   UNL     1      -2.355  34.967  29.238  1.00  0.00     0.099 C 
ATOM      8  O   UNL     1      -3.364  34.376  29.707  1.00  0.00    -0.544 OA
ATOM      9  O   UNL     1      -2.486  36.257  28.741  1.00  0.00    -0.544 OA
ENDBRANCH   2   7
ENDBRANCH   1   2
BRANCH   1  10
ATOM     10  C   UNL     1      -1.112  31.795  28.583  1.00  0.00     0.076 C 
BRANCH  10  11
ATOM     11  S   UNL     1      -1.388  30.652  27.182  1.00  0.00    -0.165 SA
ATOM     12  C   UNL     1       0.231  30.968  26.413  1.00  0.00     0.085 C 
ENDBRANCH  10  11
ENDBRANCH   1  10
TORSDOF 5
ENDMDL
MODEL 2
REMARK VINA RESULT:    -3.301     10.063     10.427
REMARK INTER + INTRA:          -4.242
REMARK INTER:                  -4.056
REMARK INTRA:                  -0.185
REMARK UNBOUND:                -0.072
REMARK SMILES CSCC[C@@H]([NH3+])C(=O)[O-]
REMARK SMILES IDX 4 1 5 2 6 3 7 7 8 8 9 9 3 10 2 11 1 12
REMARK H PARENT 6 4 6 5 6 6
REMARK Flexibility Score: inf
ROOT
ATOM      1  C   UNL     1       6.949  35.418  22.274  1.00  0.00     0.082 C 
ENDROOT
BRANCH   1   2
ATOM      2  C   UNL     1       5.512  35.399  21.703  1.00  0.00     0.228 C 
BRANCH   2   3
ATOM      3  N   UNL     1       4.925  36.744  21.754  1.00  0.00    -0.350 N 
ATOM      4  H   UNL     1       5.613  37.434  22.136  1.00  0.00     0.345 HD
ATOM      5  H   UNL     1       4.635  37.042  20.793  1.00  0.00     0.345 HD
ATOM      6  H   UNL     1       4.075  36.736  22.362  1.00  0.00     0.345 HD
ENDBRANCH   2   3
BRANCH   2   7
ATOM      7  C   UNL     1       5.493  34.878  20.289  1.00  0.00     0.099 C 
ATOM      8  O   UNL     1       5.232  35.649  19.327  1.00  0.00    -0.544 OA
ATOM      9  O   UNL     1       5.776  33.542  20.039  1.00  0.00    -0.544 OA
ENDBRANCH   2   7
ENDBRANCH   1   2
BRANCH   1  10
ATOM     10  C   UNL     1       7.077  34.709  23.630  1.00  0.00     0.076 C 
BRANCH  10  11
ATOM     11  S   UNL     1       5.728  33.498  23.870  1.00  0.00    -0.165 SA
ATOM     12  C   UNL     1       6.789  32.042  23.606  1.00  0.00     0.085 C 
ENDBRANCH  10  11
ENDBRANCH   1  10
TORSDOF 5
ENDMDL
MODEL 3
REMARK VINA RESULT:    -3.288      1.163      1.783
REMARK INTER + INTRA:          -4.226
REMARK INTER:                  -4.161
REMARK INTRA:                  -0.065
REMARK UNBOUND:                -0.072
REMARK SMILES CSCC[C@@H]([NH3+])C(=O)[O-]
REMARK SMILES IDX 4 1 5 2 6 3 7 7 8 8 9 9 3 10 2 11 1 12
REMARK H PARENT 6 4 6 5 6 6
REMARK Flexibility Score: inf
ROOT
ATOM      1  C   UNL     1      -0.903  33.275  28.137  1.00  0.00     0.082 C 
ENDROOT
BRANCH   1   2
ATOM      2  C   UNL     1      -0.976  34.317  29.278  1.00  0.00     0.228 C 
BRANCH   2   3
ATOM      3  N   UNL     1       0.167  35.234  29.206  1.00  0.00    -0.350 N 
ATOM      4  H   UNL     1      -0.089  36.105  28.683  1.00  0.00     0.345 HD
ATOM      5  H   UNL     1       0.477  35.493  30.172  1.00  0.00     0.345 HD
ATOM      6  H   UNL     1       0.966  34.767  28.721  1.00  0.00     0.345 HD
ENDBRANCH   2   3
BRANCH   2   7
ATOM      7  C   UNL     1      -2.268  35.093  29.227  1.00  0.00     0.099 C 
ATOM      8  O   UNL     1      -2.294  36.260  28.754  1.00  0.00    -0.544 OA
ATOM      9  O   UNL     1      -3.442  34.515  29.692  1.00  0.00    -0.544 OA
ENDBRANCH   2   7
ENDBRANCH   1   2
BRANCH   1  10
ATOM     10  C   UNL     1      -0.252  31.951  28.559  1.00  0.00     0.076 C 
BRANCH  10  11
ATOM     11  S   UNL     1      -1.498  30.785  29.218  1.00  0.00    -0.165 SA
ATOM     12  C   UNL     1      -0.277  29.525  29.703  1.00  0.00     0.085 C 
ENDBRANCH  10  11
ENDBRANCH   1  10
TORSDOF 5
ENDMDL
MODEL 4
REMARK VINA RESULT:    -3.286      6.169      7.129
REMARK INTER + INTRA:          -4.223
REMARK INTER:                  -4.116
REMARK INTRA:                  -0.107
REMARK UNBOUND:                -0.072
REMARK SMILES CSCC[C@@H]([NH3+])C(=O)[O-]
REMARK SMILES IDX 4 1 5 2 6 3 7 7 8 8 9 9 3 10 2 11 1 12
REMARK H PARENT 6 4 6 5 6 6
REMARK Flexibility Score: inf
ROOT
ATOM      1  C   UNL     1      -1.086  29.945  23.876  1.00  0.00     0.082 C 
ENDROOT
BRANCH   1   2
ATOM      2  C   UNL     1      -1.504  30.804  22.659  1.00  0.00     0.228 C 
BRANCH   2   3
ATOM      3  N   UNL     1      -0.398  31.677  22.247  1.00  0.00    -0.350 N 
ATOM      4  H   UNL     1      -0.407  31.822  21.210  1.00  0.00     0.345 HD
ATOM      5  H   UNL     1      -0.481  32.605  22.724  1.00  0.00     0.345 HD
ATOM      6  H   UNL     1       0.514  31.248  22.523  1.00  0.00     0.345 HD
ENDBRANCH   2   3
BRANCH   2   7
ATOM      7  C   UNL     1      -1.940  29.938  21.504  1.00  0.00     0.099 C 
ATOM      8  O   UNL     1      -2.985  30.215  20.858  1.00  0.00    -0.544 OA
ATOM      9  O   UNL     1      -1.181  28.834  21.141  1.00  0.00    -0.544 OA
ENDBRANCH   2   7
ENDBRANCH   1   2
BRANCH   1  10
ATOM     10  C   UNL     1      -2.110  29.967  25.019  1.00  0.00     0.076 C 
BRANCH  10  11
ATOM     11  S   UNL     1      -1.314  30.396  26.609  1.00  0.00    -0.165 SA
ATOM     12  C   UNL     1       0.336  30.651  25.884  1.00  0.00     0.085 C 
ENDBRANCH  10  11
ENDBRANCH   1  10
TORSDOF 5
ENDMDL
MODEL 5
REMARK VINA RESULT:    -3.257     10.220     11.196
REMARK INTER + INTRA:          -4.186
REMARK INTER:                  -4.138
REMARK INTRA:                  -0.048
REMARK UNBOUND:                -0.072
REMARK SMILES CSCC[C@@H]([NH3+])C(=O)[O-]
REMARK SMILES IDX 4 1 5 2 6 3 7 7 8 8 9 9 3 10 2 11 1 12
REMARK H PARENT 6 4 6 5 6 6
REMARK Flexibility Score: inf
ROOT
ATOM      1  C   UNL     1      -2.073  23.931  31.304  1.00  0.00     0.082 C 
ENDROOT
BRANCH   1   2
ATOM      2  C   UNL     1      -1.954  22.483  30.772  1.00  0.00     0.228 C 
BRANCH   2   3
ATOM      3  N   UNL     1      -3.244  22.026  30.243  1.00  0.00    -0.350 N 
ATOM      4  H   UNL     1      -3.887  21.750  31.023  1.00  0.00     0.345 HD
ATOM      5  H   UNL     1      -3.690  22.790  29.683  1.00  0.00     0.345 HD
ATOM      6  H   UNL     1      -3.098  21.204  29.614  1.00  0.00     0.345 HD
ENDBRANCH   2   3
BRANCH   2   7
ATOM      7  C   UNL     1      -0.891  22.379  29.708  1.00  0.00     0.099 C 
ATOM      8  O   UNL     1       0.329  22.422  30.017  1.00  0.00    -0.544 OA
ATOM      9  O   UNL     1      -1.256  22.222  28.377  1.00  0.00    -0.544 OA
ENDBRANCH   2   7
ENDBRANCH   1   2
BRANCH   1  10
ATOM     10  C   UNL     1      -3.523  24.388  31.511  1.00  0.00     0.076 C 
BRANCH  10  11
ATOM     11  S   UNL     1      -3.640  26.212  31.551  1.00  0.00    -0.165 SA
ATOM     12  C   UNL     1      -2.430  26.408  32.897  1.00  0.00     0.085 C 
ENDBRANCH  10  11
ENDBRANCH   1  10
TORSDOF 5
ENDMDL
MODEL 6
REMARK VINA RESULT:    -3.205      9.012      9.577
REMARK INTER + INTRA:          -4.121
REMARK INTER:                  -4.005
REMARK INTRA:                  -0.116
REMARK UNBOUND:                -0.072
REMARK SMILES CSCC[C@@H]([NH3+])C(=O)[O-]
REMARK SMILES IDX 4 1 5 2 6 3 7 7 8 8 9 9 3 10 2 11 1 12
REMARK H PARENT 6 4 6 5 6 6
REMARK Flexibility Score: inf
ROOT
ATOM      1  C   UNL     1       1.489  25.351  30.498  1.00  0.00     0.082 C 
ENDROOT
BRANCH   1   2
ATOM      2  C   UNL     1       1.008  26.218  31.685  1.00  0.00     0.228 C 
BRANCH   2   3
ATOM      3  N   UNL     1      -0.198  25.637  32.285  1.00  0.00    -0.350 N 
ATOM      4  H   UNL     1      -0.591  24.883  31.674  1.00  0.00     0.345 HD
ATOM      5  H   UNL     1       0.030  25.235  33.225  1.00  0.00     0.345 HD
ATOM      6  H   UNL     1      -0.921  26.381  32.417  1.00  0.00     0.345 HD
ENDBRANCH   2   3
BRANCH   2   7
ATOM      7  C   UNL     1       2.088  26.364  32.727  1.00  0.00     0.099 C 
ATOM      8  O   UNL     1       3.218  25.834  32.555  1.00  0.00    -0.544 OA
ATOM      9  O   UNL     1       1.843  27.096  33.881  1.00  0.00    -0.544 OA
ENDBRANCH   2   7
ENDBRANCH   1   2
BRANCH   1  10
ATOM     10  C   UNL     1       0.343  24.683  29.725  1.00  0.00     0.076 C 
BRANCH  10  11
ATOM     11  S   UNL     1       0.499  22.862  29.758  1.00  0.00    -0.165 SA
ATOM     12  C   UNL     1      -1.147  22.586  30.484  1.00  0.00     0.085 C 
ENDBRANCH  10  11
ENDBRANCH   1  10
TORSDOF 5
ENDMDL
MODEL 7
REMARK VINA RESULT:    -3.163      8.498      9.430
REMARK INTER + INTRA:          -4.068
REMARK INTER:                  -4.004
REMARK INTRA:                  -0.064
REMARK UNBOUND:                -0.072
REMARK SMILES CSCC[C@@H]([NH3+])C(=O)[O-]
REMARK SMILES IDX 4 1 5 2 6 3 7 7 8 8 9 9 3 10 2 11 1 12
REMARK H PARENT 6 4 6 5 6 6
REMARK Flexibility Score: inf
ROOT
ATOM      1  C   UNL     1       0.912  24.189  29.315  1.00  0.00     0.082 C 
ENDROOT
BRANCH   1   2
ATOM      2  C   UNL     1       1.011  25.288  30.400  1.00  0.00     0.228 C 
BRANCH   2   3
ATOM      3  N   UNL     1       2.055  24.951  31.375  1.00  0.00    -0.350 N 
ATOM      4  H   UNL     1       1.806  24.079  31.898  1.00  0.00     0.345 HD
ATOM      5  H   UNL     1       2.968  24.807  30.882  1.00  0.00     0.345 HD
ATOM      6  H   UNL     1       2.172  25.736  32.055  1.00  0.00     0.345 HD
ENDBRANCH   2   3
BRANCH   2   7
ATOM      7  C   UNL     1       1.289  26.637  29.787  1.00  0.00     0.099 C 
ATOM      8  O   UNL     1       0.542  27.093  28.881  1.00  0.00    -0.544 OA
ATOM      9  O   UNL     1       2.369  27.389  30.229  1.00  0.00    -0.544 OA
ENDBRANCH   2   7
ENDBRANCH   1   2
BRANCH   1  10
ATOM     10  C   UNL     1       0.596  22.798  29.882  1.00  0.00     0.076 C 
BRANCH  10  11
ATOM     11  S   UNL     1      -1.170  22.657  30.334  1.00  0.00    -0.165 SA
ATOM     12  C   UNL     1      -1.626  21.701  28.854  1.00  0.00     0.085 C 
ENDBRANCH  10  11
ENDBRANCH   1  10
TORSDOF 5
ENDMDL
MODEL 8
REMARK VINA RESULT:    -3.138      6.543      7.692
REMARK INTER + INTRA:          -4.037
REMARK INTER:                  -3.861
REMARK INTRA:                  -0.176
REMARK UNBOUND:                -0.072
REMARK SMILES CSCC[C@@H]([NH3+])C(=O)[O-]
REMARK SMILES IDX 4 1 5 2 6 3 7 7 8 8 9 9 3 10 2 11 1 12
REMARK H PARENT 6 4 6 5 6 6
REMARK Flexibility Score: inf
ROOT
ATOM      1  C   UNL     1      -0.922  29.629  21.691  1.00  0.00     0.082 C 
ENDROOT
BRANCH   1   2
ATOM      2  C   UNL     1      -1.569  30.455  22.828  1.00  0.00     0.228 C 
BRANCH   2   3
ATOM      3  N   UNL     1      -2.933  30.849  22.460  1.00  0.00    -0.350 N 
ATOM      4  H   UNL     1      -3.122  30.635  21.452  1.00  0.00     0.345 HD
ATOM      5  H   UNL     1      -3.625  30.338  23.056  1.00  0.00     0.345 HD
ATOM      6  H   UNL     1      -3.061  31.874  22.620  1.00  0.00     0.345 HD
ENDBRANCH   2   3
BRANCH   2   7
ATOM      7  C   UNL     1      -1.583  29.683  24.123  1.00  0.00     0.099 C 
ATOM      8  O   UNL     1      -2.333  30.039  25.070  1.00  0.00    -0.544 OA
ATOM      9  O   UNL     1      -0.774  28.564  24.272  1.00  0.00    -0.544 OA
ENDBRANCH   2   7
ENDBRANCH   1   2
BRANCH   1  10
ATOM     10  C   UNL     1      -1.919  28.732  20.944  1.00  0.00     0.076 C 
BRANCH  10  11
ATOM     11  S   UNL     1      -1.308  27.012  20.839  1.00  0.00    -0.165 SA
ATOM     12  C   UNL     1      -2.623  26.323  21.892  1.00  0.00     0.085 C 
ENDBRANCH  10  11
ENDBRANCH   1  10
TORSDOF 5
ENDMDL
MODEL 9
REMARK VINA RESULT:    -3.098      9.337     10.092
REMARK INTER + INTRA:          -3.985
REMARK INTER:                  -3.788
REMARK INTRA:                  -0.197
REMARK UNBOUND:                -0.072
REMARK SMILES CSCC[C@@H]([NH3+])C(=O)[O-]
REMARK SMILES IDX 4 1 5 2 6 3 7 7 8 8 9 9 3 10 2 11 1 12
REMARK H PARENT 6 4 6 5 6 6
REMARK Flexibility Score: inf
ROOT
ATOM      1  C   UNL     1       1.473  25.391  30.315  1.00  0.00     0.082 C 
ENDROOT
BRANCH   1   2
ATOM      2  C   UNL     1       0.363  24.671  29.513  1.00  0.00     0.228 C 
BRANCH   2   3
ATOM      3  N   UNL     1       0.626  24.772  28.073  1.00  0.00    -0.350 N 
ATOM      4  H   UNL     1       0.732  25.773  27.785  1.00  0.00     0.345 HD
ATOM      5  H   UNL     1       1.501  24.251  27.834  1.00  0.00     0.345 HD
ATOM      6  H   UNL     1      -0.164  24.345  27.538  1.00  0.00     0.345 HD
ENDBRANCH   2   3
BRANCH   2   7
ATOM      7  C   UNL     1       0.248  23.224  29.920  1.00  0.00     0.099 C 
ATOM      8  O   UNL     1       1.271  22.493  29.975  1.00  0.00    -0.544 OA
ATOM      9  O   UNL     1      -0.993  22.693  30.247  1.00  0.00    -0.544 OA
ENDBRANCH   2   7
ENDBRANCH   1   2
BRANCH   1  10
ATOM     10  C   UNL     1       0.931  26.360  31.375  1.00  0.00     0.076 C 
BRANCH  10  11
ATOM     11  S   UNL     1      -0.856  26.666  31.136  1.00  0.00    -0.165 SA
ATOM     12  C   UNL     1      -1.363  25.741  32.619  1.00  0.00     0.085 C 
ENDBRANCH  10  11
ENDBRANCH   1  10
TORSDOF 5
ENDMDL
