MODEL 1
REMARK VINA RESULT:    -3.139      0.000      0.000
REMARK INTER + INTRA:          -3.414
REMARK INTER:                  -3.414
REMARK INTRA:                   0.000
REMARK UNBOUND:                 0.000
REMARK SMILES [NH3+]CC(=O)[O-]
REMARK SMILES IDX 2 1 1 2 3 6 4 7 5 8
REMARK H PARENT 1 3 1 4 1 5
REMARK Flexibility Score: inf
ROOT
ATOM      1  C   UNL     1     203.072 201.477 242.581  1.00  0.00     0.312 C 
ENDROOT
BRANCH   1   2
ATOM      2  N   UNL     1     202.091 200.438 242.275  1.00  0.00    -0.353 N 
ATOM      3  H   UNL     1     201.942 199.827 243.110  1.00  0.00     0.344 HD
ATOM      4  H   UNL     1     202.448 199.852 241.486  1.00  0.00     0.344 HD
ATOM      5  H   UNL     1     201.183 200.874 241.989  1.00  0.00     0.344 HD
ENDBRANCH   1   2
BRANCH   1   6
ATOM      6  C   UNL     1     202.430 202.606 243.326  1.00  0.00     0.096 C 
ATOM      7  O   UNL     1     202.432 202.616 244.586  1.00  0.00    -0.544 OA
ATOM      8  O   UNL     1     201.786 203.621 242.631  1.00  0.00    -0.544 OA
ENDBRANCH   1   6
TORSDOF 2
ENDMDL
MODEL 2
REMARK VINA RESULT:    -3.112      1.283      1.730
REMARK INTER + INTRA:          -3.385
REMARK INTER:                  -3.385
REMARK INTRA:                   0.000
REMARK UNBOUND:                 0.000
REMARK SMILES [NH3+]CC(=O)[O-]
REMARK SMILES IDX 2 1 1 2 3 6 4 7 5 8
REMARK H PARENT 1 3 1 4 1 5
REMARK Flexibility Score: inf
ROOT
ATOM      1  C   UNL     1     202.846 201.341 242.906  1.00  0.00     0.312 C 
ENDROOT
BRANCH   1   2
ATOM      2  N   UNL     1     202.089 200.342 242.154  1.00  0.00    -0.353 N 
ATOM      3  H   UNL     1     201.168 200.738 241.856  1.00  0.00     0.344 HD
ATOM      4  H   UNL     1     201.918 199.511 242.764  1.00  0.00     0.344 HD
ATOM      5  H   UNL     1     202.632 200.039 241.312  1.00  0.00     0.344 HD
ENDBRANCH   1   2
BRANCH   1   6
ATOM      6  C   UNL     1     202.892 202.639 242.161  1.00  0.00     0.096 C 
ATOM      7  O   UNL     1     203.688 202.788 241.197  1.00  0.00    -0.544 OA
ATOM      8  O   UNL     1     202.090 203.699 242.561  1.00  0.00    -0.544 OA
ENDBRANCH   1   6
TORSDOF 2
ENDMDL
MODEL 3
REMARK VINA RESULT:    -3.099      2.794      3.059
REMARK INTER + INTRA:          -3.371
REMARK INTER:                  -3.371
REMARK INTRA:                   0.000
REMARK UNBOUND:                 0.000
REMARK SMILES [NH3+]CC(=O)[O-]
REMARK SMILES IDX 2 1 1 2 3 6 4 7 5 8
REMARK H PARENT 1 3 1 4 1 5
REMARK Flexibility Score: inf
ROOT
ATOM      1  C   UNL     1     203.974 204.184 243.213  1.00  0.00     0.312 C 
ENDROOT
BRANCH   1   2
ATOM      2  N   UNL     1     204.802 204.983 242.312  1.00  0.00    -0.353 N 
ATOM      3  H   UNL     1     205.646 205.337 242.818  1.00  0.00     0.344 HD
ATOM      4  H   UNL     1     204.246 205.799 241.970  1.00  0.00     0.344 HD
ATOM      5  H   UNL     1     205.099 204.407 241.490  1.00  0.00     0.344 HD
ENDBRANCH   1   2
BRANCH   1   6
ATOM      6  C   UNL     1     202.864 203.519 242.460  1.00  0.00     0.096 C 
ATOM      7  O   UNL     1     201.690 203.539 242.913  1.00  0.00    -0.544 OA
ATOM      8  O   UNL     1     203.135 202.836 241.281  1.00  0.00    -0.544 OA
ENDBRANCH   1   6
TORSDOF 2
ENDMDL
MODEL 4
REMARK VINA RESULT:    -3.097      2.355      2.538
REMARK INTER + INTRA:          -3.368
REMARK INTER:                  -3.368
REMARK INTRA:                   0.000
REMARK UNBOUND:                 0.000
REMARK SMILES [NH3+]CC(=O)[O-]
REMARK SMILES IDX 2 1 1 2 3 6 4 7 5 8
REMARK H PARENT 1 3 1 4 1 5
REMARK Flexibility Score: inf
ROOT
ATOM      1  C   UNL     1     202.224 203.085 243.239  1.00  0.00     0.312 C 
ENDROOT
BRANCH   1   2
ATOM      2  N   UNL     1     201.415 203.940 242.372  1.00  0.00    -0.353 N 
ATOM      3  H   UNL     1     202.034 204.518 241.759  1.00  0.00     0.344 HD
ATOM      4  H   UNL     1     200.835 204.577 242.964  1.00  0.00     0.344 HD
ATOM      5  H   UNL     1     200.780 203.355 241.781  1.00  0.00     0.344 HD
ENDBRANCH   1   2
BRANCH   1   6
ATOM      6  C   UNL     1     202.854 201.980 242.449  1.00  0.00     0.096 C 
ATOM      7  O   UNL     1     202.518 200.784 242.654  1.00  0.00    -0.544 OA
ATOM      8  O   UNL     1     203.847 202.266 241.521  1.00  0.00    -0.544 OA
ENDBRANCH   1   6
TORSDOF 2
ENDMDL
MODEL 5
REMARK VINA RESULT:    -3.090      3.300      3.402
REMARK INTER + INTRA:          -3.361
REMARK INTER:                  -3.361
REMARK INTRA:                   0.000
REMARK UNBOUND:                 0.000
REMARK SMILES [NH3+]CC(=O)[O-]
REMARK SMILES IDX 2 1 1 2 3 6 4 7 5 8
REMARK H PARENT 1 3 1 4 1 5
REMARK Flexibility Score: inf
ROOT
ATOM      1  C   UNL     1     203.868 204.150 243.057  1.00  0.00     0.312 C 
ENDROOT
BRANCH   1   2
ATOM      2  N   UNL     1     204.842 204.973 242.341  1.00  0.00    -0.353 N 
ATOM      3  H   UNL     1     205.711 204.420 242.156  1.00  0.00     0.344 HD
ATOM      4  H   UNL     1     205.088 205.801 242.929  1.00  0.00     0.344 HD
ATOM      5  H   UNL     1     204.436 205.306 241.436  1.00  0.00     0.344 HD
ENDBRANCH   1   2
BRANCH   1   6
ATOM      6  C   UNL     1     204.476 202.843 243.460  1.00  0.00     0.096 C 
ATOM      7  O   UNL     1     204.620 202.560 244.678  1.00  0.00    -0.544 OA
ATOM      8  O   UNL     1     204.928 201.958 242.490  1.00  0.00    -0.544 OA
ENDBRANCH   1   6
TORSDOF 2
ENDMDL
MODEL 6
REMARK VINA RESULT:    -3.034      2.108      2.123
REMARK INTER + INTRA:          -3.301
REMARK INTER:                  -3.301
REMARK INTRA:                   0.000
REMARK UNBOUND:                 0.000
REMARK SMILES [NH3+]CC(=O)[O-]
REMARK SMILES IDX 2 1 1 2 3 6 4 7 5 8
REMARK H PARENT 1 3 1 4 1 5
REMARK Flexibility Score: inf
ROOT
ATOM      1  C   UNL     1     204.356 202.339 243.218  1.00  0.00     0.312 C 
ENDROOT
BRANCH   1   2
ATOM      2  N   UNL     1     205.232 201.651 242.272  1.00  0.00    -0.353 N 
ATOM      3  H   UNL     1     205.415 202.261 241.443  1.00  0.00     0.344 HD
ATOM      4  H   UNL     1     204.765 200.773 241.950  1.00  0.00     0.344 HD
ATOM      5  H   UNL     1     206.137 201.403 242.735  1.00  0.00     0.344 HD
ENDBRANCH   1   2
BRANCH   1   6
ATOM      6  C   UNL     1     202.922 202.008 242.946  1.00  0.00     0.096 C 
ATOM      7  O   UNL     1     202.595 200.839 242.610  1.00  0.00    -0.544 OA
ATOM      8  O   UNL     1     201.953 203.000 243.016  1.00  0.00    -0.544 OA
ENDBRANCH   1   6
TORSDOF 2
ENDMDL
MODEL 7
REMARK VINA RESULT:    -3.022      2.394      2.477
REMARK INTER + INTRA:          -3.287
REMARK INTER:                  -3.287
REMARK INTRA:                   0.000
REMARK UNBOUND:                 0.000
REMARK SMILES [NH3+]CC(=O)[O-]
REMARK SMILES IDX 2 1 1 2 3 6 4 7 5 8
REMARK H PARENT 1 3 1 4 1 5
REMARK Flexibility Score: inf
ROOT
ATOM      1  C   UNL     1     202.212 203.156 242.998  1.00  0.00     0.312 C 
ENDROOT
BRANCH   1   2
ATOM      2  N   UNL     1     201.330 204.176 242.433  1.00  0.00    -0.353 N 
ATOM      3  H   UNL     1     201.145 204.923 243.142  1.00  0.00     0.344 HD
ATOM      4  H   UNL     1     200.422 203.733 242.165  1.00  0.00     0.344 HD
ATOM      5  H   UNL     1     201.767 204.597 241.581  1.00  0.00     0.344 HD
ENDBRANCH   1   2
BRANCH   1   6
ATOM      6  C   UNL     1     203.449 203.783 243.562  1.00  0.00     0.096 C 
ATOM      7  O   UNL     1     203.712 203.674 244.788  1.00  0.00    -0.544 OA
ATOM      8  O   UNL     1     204.287 204.527 242.741  1.00  0.00    -0.544 OA
ENDBRANCH   1   6
TORSDOF 2
ENDMDL
MODEL 8
REMARK VINA RESULT:    -2.996      2.149      2.583
REMARK INTER + INTRA:          -3.258
REMARK INTER:                  -3.258
REMARK INTRA:                   0.000
REMARK UNBOUND:                 0.000
REMARK SMILES [NH3+]CC(=O)[O-]
REMARK SMILES IDX 2 1 1 2 3 6 4 7 5 8
REMARK H PARENT 1 3 1 4 1 5
REMARK Flexibility Score: inf
ROOT
ATOM      1  C   UNL     1     202.750 203.281 242.582  1.00  0.00     0.312 C 
ENDROOT
BRANCH   1   2
ATOM      2  N   UNL     1     201.397 203.830 242.654  1.00  0.00    -0.353 N 
ATOM      3  H   UNL     1     201.092 204.156 241.708  1.00  0.00     0.344 HD
ATOM      4  H   UNL     1     201.393 204.644 243.309  1.00  0.00     0.344 HD
ATOM      5  H   UNL     1     200.732 203.104 243.009  1.00  0.00     0.344 HD
ENDBRANCH   1   2
BRANCH   1   6
ATOM      6  C   UNL     1     202.769 201.863 243.062  1.00  0.00     0.096 C 
ATOM      7  O   UNL     1     202.357 200.936 242.316  1.00  0.00    -0.544 OA
ATOM      8  O   UNL     1     203.195 201.570 244.351  1.00  0.00    -0.544 OA
ENDBRANCH   1   6
TORSDOF 2
ENDMDL
MODEL 9
REMARK VINA RESULT:    -2.964      2.233      2.366
REMARK INTER + INTRA:          -3.224
REMARK INTER:                  -3.224
REMARK INTRA:                   0.000
REMARK UNBOUND:                 0.000
REMARK SMILES [NH3+]CC(=O)[O-]
REMARK SMILES IDX 2 1 1 2 3 6 4 7 5 8
REMARK H PARENT 1 3 1 4 1 5
REMARK Flexibility Score: inf
ROOT
ATOM      1  C   UNL     1     203.993 201.954 242.562  1.00  0.00     0.312 C 
ENDROOT
BRANCH   1   2
ATOM      2  N   UNL     1     205.447 201.806 242.542  1.00  0.00    -0.353 N 
ATOM      3  H   UNL     1     205.879 202.579 241.985  1.00  0.00     0.344 HD
ATOM      4  H   UNL     1     205.692 200.892 242.099  1.00  0.00     0.344 HD
ATOM      5  H   UNL     1     205.824 201.821 243.518  1.00  0.00     0.344 HD
ENDBRANCH   1   2
BRANCH   1   6
ATOM      6  C   UNL     1     203.611 203.401 242.577  1.00  0.00     0.096 C 
ATOM      7  O   UNL     1     204.500 204.290 242.640  1.00  0.00    -0.544 OA
ATOM      8  O   UNL     1     202.271 203.766 242.571  1.00  0.00    -0.544 OA
ENDBRANCH   1   6
TORSDOF 2
ENDMDL
