MODEL 1
REMARK VINA RESULT:    -6.302      0.000      0.000
REMARK INTER + INTRA:          -9.990
REMARK INTER:                  -9.250
REMARK INTRA:                  -0.740
REMARK UNBOUND:                -0.740
REMARK SMILES O=c1c(O[C@@H]2O[C@H](CO)[C@H](O)[C@@H](O)[C@@H]2O)c(-c2ccc(O)c(O)c2)oc2cc(O)cc(O)c12
REMARK SMILES IDX 4 1 3 2 16 3 25 4 2 5 26 6 1 7 33 8 27 9 31 10 28 11 30 12
REMARK SMILES IDX 17 13 20 14 19 15 22 16 18 17 24 18 21 19 23 21 32 23 29 25
REMARK SMILES IDX 5 27 14 28 6 29 12 30 7 31 10 32 15 33 13 35 8 37 9 38 11 40
REMARK H PARENT 21 20 23 22 32 24 29 26 15 34 13 36 9 39 11 41
REMARK Flexibility Score: inf
ROOT
ATOM      1  O   UNL     1      13.540   0.134   2.794  1.00  0.00    -0.454 OA
ENDROOT
BRANCH   1   2
ATOM      2  C   UNL     1      12.755   0.488   1.684  1.00  0.00     0.214 A 
ATOM      3  C   UNL     1      13.325   0.974   0.481  1.00  0.00     0.180 A 
ATOM      4  O   UNL     1      12.539   1.521  -0.444  1.00  0.00    -0.452 OA
ATOM      5  C   UNL     1      11.342   0.570   1.823  1.00  0.00     0.239 A 
ATOM      6  C   UNL     1      11.377   2.015  -0.093  1.00  0.00     0.146 A 
ATOM      7  O   UNL     1      10.837   0.207   2.938  1.00  0.00    -0.285 OA
ATOM      8  C   UNL     1      10.629   1.388   0.936  1.00  0.00     0.111 A 
ATOM      9  C   UNL     1      11.077   3.317  -0.525  1.00  0.00     0.094 A 
ATOM     10  C   UNL     1       9.494   2.123   1.401  1.00  0.00     0.134 A 
ATOM     11  C   UNL     1      10.500   4.131   0.509  1.00  0.00     0.123 A 
ATOM     12  C   UNL     1       9.580   3.522   1.374  1.00  0.00     0.093 A 
BRANCH   3  13
ATOM     13  C   UNL     1      14.741   1.253   0.282  1.00  0.00     0.025 A 
ATOM     14  C   UNL     1      14.564   3.489  -1.306  1.00  0.00     0.157 A 
ATOM     15  C   UNL     1      14.732   2.208  -1.863  1.00  0.00     0.051 A 
ATOM     16  C   UNL     1      14.740   3.696   0.112  1.00  0.00     0.158 A 
ATOM     17  C   UNL     1      15.197   1.195  -1.047  1.00  0.00     0.016 A 
ATOM     18  C   UNL     1      14.970   2.519   0.883  1.00  0.00     0.062 A 
BRANCH  14  19
ATOM     19  O   UNL     1      14.229   4.557  -2.090  1.00  0.00    -0.504 OA
ATOM     20  H   UNL     1      14.844   4.807  -2.900  1.00  0.00     0.293 HD
ENDBRANCH  14  19
BRANCH  16  21
ATOM     21  O   UNL     1      14.569   4.958   0.624  1.00  0.00    -0.504 OA
ATOM     22  H   UNL     1      14.967   5.711   0.132  1.00  0.00     0.293 HD
ENDBRANCH  16  21
ENDBRANCH   3  13
BRANCH  10  23
ATOM     23  O   UNL     1       8.202   1.569   1.631  1.00  0.00    -0.507 OA
ATOM     24  H   UNL     1       8.043   0.599   1.914  1.00  0.00     0.293 HD
ENDBRANCH  10  23
BRANCH  11  25
ATOM     25  O   UNL     1      10.768   5.456   0.678  1.00  0.00    -0.508 OA
ATOM     26  H   UNL     1      11.316   5.780   1.471  1.00  0.00     0.293 HD
ENDBRANCH  11  25
ENDBRANCH   1   2
BRANCH   1  27
ATOM     27  C   UNL     1      14.169   0.931   3.768  1.00  0.00     0.339 C 
ATOM     28  C   UNL     1      13.266   1.096   5.014  1.00  0.00     0.214 C 
ATOM     29  O   UNL     1      15.350   0.210   4.175  1.00  0.00    -0.332 OA
ATOM     30  C   UNL     1      14.065   1.415   6.293  1.00  0.00     0.180 C 
ATOM     31  C   UNL     1      16.186   0.936   5.091  1.00  0.00     0.179 C 
ATOM     32  C   UNL     1      15.426   2.000   5.976  1.00  0.00     0.177 C 
BRANCH  28  33
ATOM     33  O   UNL     1      12.530  -0.111   5.283  1.00  0.00    -0.384 OA
ATOM     34  H   UNL     1      13.181  -0.838   5.396  1.00  0.00     0.211 HD
ENDBRANCH  28  33
BRANCH  30  35
ATOM     35  O   UNL     1      13.364   2.244   7.174  1.00  0.00    -0.387 OA
ATOM     36  H   UNL     1      13.734   3.177   7.140  1.00  0.00     0.211 HD
ENDBRANCH  30  35
BRANCH  31  37
ATOM     37  C   UNL     1      16.880  -0.169   5.922  1.00  0.00     0.191 C 
BRANCH  37  38
ATOM     38  O   UNL     1      18.114   0.301   6.484  1.00  0.00    -0.394 OA
ATOM     39  H   UNL     1      18.292  -0.211   7.281  1.00  0.00     0.210 HD
ENDBRANCH  37  38
ENDBRANCH  31  37
BRANCH  32  40
ATOM     40  O   UNL     1      16.145   2.312   7.146  1.00  0.00    -0.387 OA
ATOM     41  H   UNL     1      15.486   2.379   7.886  1.00  0.00     0.211 HD
ENDBRANCH  32  40
ENDBRANCH   1  27
TORSDOF 12
ENDMDL
MODEL 2
REMARK VINA RESULT:    -5.798      1.657      2.443
REMARK INTER + INTRA:          -9.249
REMARK INTER:                  -8.662
REMARK INTRA:                  -0.587
REMARK UNBOUND:                -0.740
REMARK SMILES O=c1c(O[C@@H]2O[C@H](CO)[C@H](O)[C@@H](O)[C@@H]2O)c(-c2ccc(O)c(O)c2)oc2cc(O)cc(O)c12
REMARK SMILES IDX 4 1 3 2 16 3 25 4 2 5 26 6 1 7 33 8 27 9 31 10 28 11 30 12
REMARK SMILES IDX 17 13 20 14 19 15 22 16 18 17 24 18 21 19 23 21 32 23 29 25
REMARK SMILES IDX 5 27 14 28 6 29 12 30 7 31 10 32 15 33 13 35 8 37 9 38 11 40
REMARK H PARENT 21 20 23 22 32 24 29 26 15 34 13 36 9 39 11 41
REMARK Flexibility Score: inf
ROOT
ATOM      1  O   UNL     1      13.213   0.732   2.741  1.00  0.00    -0.454 OA
ENDROOT
BRANCH   1   2
ATOM      2  C   UNL     1      12.510   0.259   1.619  1.00  0.00     0.214 A 
ATOM      3  C   UNL     1      13.061   0.294   0.314  1.00  0.00     0.180 A 
ATOM      4  O   UNL     1      12.276   0.066  -0.736  1.00  0.00    -0.452 OA
ATOM      5  C   UNL     1      11.132  -0.068   1.744  1.00  0.00     0.239 A 
ATOM      6  C   UNL     1      10.984   0.258  -0.630  1.00  0.00     0.146 A 
ATOM      7  O   UNL     1      10.617  -0.020   2.911  1.00  0.00    -0.285 OA
ATOM      8  C   UNL     1      10.329  -0.031   0.596  1.00  0.00     0.111 A 
ATOM      9  C   UNL     1      10.367   1.038  -1.621  1.00  0.00     0.094 A 
ATOM     10  C   UNL     1       8.976   0.421   0.687  1.00  0.00     0.134 A 
ATOM     11  C   UNL     1       9.443   1.998  -1.083  1.00  0.00     0.123 A 
ATOM     12  C   UNL     1       8.643   1.594  -0.007  1.00  0.00     0.093 A 
BRANCH   3  13
ATOM     13  C   UNL     1      14.342   0.894  -0.035  1.00  0.00     0.025 A 
ATOM     14  C   UNL     1      13.475   3.005  -1.565  1.00  0.00     0.157 A 
ATOM     15  C   UNL     1      13.876   1.792  -2.154  1.00  0.00     0.051 A 
ATOM     16  C   UNL     1      13.752   3.266  -0.172  1.00  0.00     0.158 A 
ATOM     17  C   UNL     1      14.651   0.926  -1.406  1.00  0.00     0.016 A 
ATOM     18  C   UNL     1      14.333   2.185   0.554  1.00  0.00     0.062 A 
BRANCH  14  19
ATOM     19  O   UNL     1      12.816   3.955  -2.293  1.00  0.00    -0.504 OA
ATOM     20  H   UNL     1      12.518   3.730  -3.272  1.00  0.00     0.293 HD
ENDBRANCH  14  19
BRANCH  16  21
ATOM     21  O   UNL     1      13.348   4.460   0.371  1.00  0.00    -0.504 OA
ATOM     22  H   UNL     1      12.470   4.490   0.813  1.00  0.00     0.293 HD
ENDBRANCH  16  21
ENDBRANCH   3  13
BRANCH  10  23
ATOM     23  O   UNL     1       7.890  -0.351   1.191  1.00  0.00    -0.507 OA
ATOM     24  H   UNL     1       6.916  -0.042   1.168  1.00  0.00     0.293 HD
ENDBRANCH  10  23
BRANCH  11  25
ATOM     25  O   UNL     1       9.279   3.259  -1.575  1.00  0.00    -0.508 OA
ATOM     26  H   UNL     1       9.107   3.412  -2.566  1.00  0.00     0.293 HD
ENDBRANCH  11  25
ENDBRANCH   1   2
BRANCH   1  27
ATOM     27  C   UNL     1      13.793   0.044   3.821  1.00  0.00     0.339 C 
ATOM     28  C   UNL     1      15.210   0.586   4.127  1.00  0.00     0.214 C 
ATOM     29  O   UNL     1      12.961   0.320   4.967  1.00  0.00    -0.332 OA
ATOM     30  C   UNL     1      15.647   0.331   5.582  1.00  0.00     0.180 C 
ATOM     31  C   UNL     1      13.342  -0.404   6.149  1.00  0.00     0.179 C 
ATOM     32  C   UNL     1      14.868  -0.804   6.214  1.00  0.00     0.177 C 
BRANCH  28  33
ATOM     33  O   UNL     1      15.273   2.009   3.924  1.00  0.00    -0.384 OA
ATOM     34  H   UNL     1      15.185   2.439   4.803  1.00  0.00     0.211 HD
ENDBRANCH  28  33
BRANCH  30  35
ATOM     35  O   UNL     1      17.023   0.113   5.703  1.00  0.00    -0.387 OA
ATOM     36  H   UNL     1      17.255  -0.813   5.393  1.00  0.00     0.211 HD
ENDBRANCH  30  35
BRANCH  31  37
ATOM     37  C   UNL     1      12.899   0.516   7.311  1.00  0.00     0.191 C 
BRANCH  37  38
ATOM     38  O   UNL     1      12.423  -0.250   8.427  1.00  0.00    -0.394 OA
ATOM     39  H   UNL     1      11.600   0.148   8.731  1.00  0.00     0.210 HD
ENDBRANCH  37  38
ENDBRANCH  31  37
BRANCH  32  40
ATOM     40  O   UNL     1      15.285  -1.050   7.537  1.00  0.00    -0.387 OA
ATOM     41  H   UNL     1      15.874  -1.849   7.514  1.00  0.00     0.211 HD
ENDBRANCH  32  40
ENDBRANCH   1  27
TORSDOF 12
ENDMDL
MODEL 3
REMARK VINA RESULT:    -5.710      2.044      4.725
REMARK INTER + INTRA:          -9.121
REMARK INTER:                  -9.115
REMARK INTRA:                  -0.006
REMARK UNBOUND:                -0.740
REMARK SMILES O=c1c(O[C@@H]2O[C@H](CO)[C@H](O)[C@@H](O)[C@@H]2O)c(-c2ccc(O)c(O)c2)oc2cc(O)cc(O)c12
REMARK SMILES IDX 4 1 3 2 16 3 25 4 2 5 26 6 1 7 33 8 27 9 31 10 28 11 30 12
REMARK SMILES IDX 17 13 20 14 19 15 22 16 18 17 24 18 21 19 23 21 32 23 29 25
REMARK SMILES IDX 5 27 14 28 6 29 12 30 7 31 10 32 15 33 13 35 8 37 9 38 11 40
REMARK H PARENT 21 20 23 22 32 24 29 26 15 34 13 36 9 39 11 41
REMARK Flexibility Score: inf
ROOT
ATOM      1  O   UNL     1      14.341   0.569   3.293  1.00  0.00    -0.454 OA
ENDROOT
BRANCH   1   2
ATOM      2  C   UNL     1      13.931   1.085   2.052  1.00  0.00     0.214 A 
ATOM      3  C   UNL     1      12.981   0.422   1.235  1.00  0.00     0.180 A 
ATOM      4  O   UNL     1      12.810   0.816  -0.024  1.00  0.00    -0.452 OA
ATOM      5  C   UNL     1      14.631   2.186   1.486  1.00  0.00     0.239 A 
ATOM      6  C   UNL     1      13.772   1.463  -0.635  1.00  0.00     0.146 A 
ATOM      7  O   UNL     1      15.543   2.731   2.194  1.00  0.00    -0.285 OA
ATOM      8  C   UNL     1      14.588   2.364   0.097  1.00  0.00     0.111 A 
ATOM      9  C   UNL     1      14.155   0.997  -1.903  1.00  0.00     0.094 A 
ATOM     10  C   UNL     1      15.743   2.844  -0.596  1.00  0.00     0.134 A 
ATOM     11  C   UNL     1      15.582   0.936  -2.070  1.00  0.00     0.123 A 
ATOM     12  C   UNL     1      16.342   1.978  -1.522  1.00  0.00     0.093 A 
BRANCH   3  13
ATOM     13  C   UNL     1      12.402  -0.884   1.521  1.00  0.00     0.025 A 
ATOM     14  C   UNL     1       9.784  -0.158   1.939  1.00  0.00     0.157 A 
ATOM     15  C   UNL     1      10.680  -0.314   3.013  1.00  0.00     0.051 A 
ATOM     16  C   UNL     1      10.140  -0.625   0.620  1.00  0.00     0.158 A 
ATOM     17  C   UNL     1      11.838  -1.037   2.800  1.00  0.00     0.016 A 
ATOM     18  C   UNL     1      11.468  -1.125   0.480  1.00  0.00     0.062 A 
BRANCH  14  19
ATOM     19  O   UNL     1       8.568   0.436   2.121  1.00  0.00    -0.504 OA
ATOM     20  H   UNL     1       7.722   0.015   1.668  1.00  0.00     0.293 HD
ENDBRANCH  14  19
BRANCH  16  21
ATOM     21  O   UNL     1       9.243  -0.458  -0.406  1.00  0.00    -0.504 OA
ATOM     22  H   UNL     1       8.937  -1.262  -0.883  1.00  0.00     0.293 HD
ENDBRANCH  16  21
ENDBRANCH   3  13
BRANCH  10  23
ATOM     23  O   UNL     1      16.171   4.202  -0.626  1.00  0.00    -0.507 OA
ATOM     24  H   UNL     1      15.632   4.958  -1.056  1.00  0.00     0.293 HD
ENDBRANCH  10  23
BRANCH  11  25
ATOM     25  O   UNL     1      16.230  -0.050  -2.752  1.00  0.00    -0.508 OA
ATOM     26  H   UNL     1      15.713  -0.713  -3.325  1.00  0.00     0.293 HD
ENDBRANCH  11  25
ENDBRANCH   1   2
BRANCH   1  27
ATOM     27  C   UNL     1      15.362   0.978   4.169  1.00  0.00     0.339 C 
ATOM     28  C   UNL     1      14.801   1.893   5.283  1.00  0.00     0.214 C 
ATOM     29  O   UNL     1      15.860  -0.222   4.795  1.00  0.00    -0.332 OA
ATOM     30  C   UNL     1      15.673   1.890   6.555  1.00  0.00     0.180 C 
ATOM     31  C   UNL     1      16.999  -0.005   5.644  1.00  0.00     0.179 C 
ATOM     32  C   UNL     1      17.091   1.444   6.263  1.00  0.00     0.177 C 
BRANCH  28  33
ATOM     33  O   UNL     1      13.488   1.468   5.688  1.00  0.00    -0.384 OA
ATOM     34  H   UNL     1      13.521   1.270   6.649  1.00  0.00     0.211 HD
ENDBRANCH  28  33
BRANCH  30  35
ATOM     35  O   UNL     1      15.667   3.121   7.216  1.00  0.00    -0.387 OA
ATOM     36  H   UNL     1      15.491   2.987   8.196  1.00  0.00     0.211 HD
ENDBRANCH  30  35
BRANCH  31  37
ATOM     37  C   UNL     1      16.891  -1.121   6.709  1.00  0.00     0.191 C 
BRANCH  37  38
ATOM     38  O   UNL     1      18.023  -1.109   7.591  1.00  0.00    -0.394 OA
ATOM     39  H   UNL     1      18.820  -1.169   7.053  1.00  0.00     0.210 HD
ENDBRANCH  37  38
ENDBRANCH  31  37
BRANCH  32  40
ATOM     40  O   UNL     1      17.892   1.464   7.423  1.00  0.00    -0.387 OA
ATOM     41  H   UNL     1      17.279   1.435   8.203  1.00  0.00     0.211 HD
ENDBRANCH  32  40
ENDBRANCH   1  27
TORSDOF 12
ENDMDL
MODEL 4
REMARK VINA RESULT:    -5.217      1.882      5.037
REMARK INTER + INTRA:          -8.397
REMARK INTER:                  -7.613
REMARK INTRA:                  -0.783
REMARK UNBOUND:                -0.740
REMARK SMILES O=c1c(O[C@@H]2O[C@H](CO)[C@H](O)[C@@H](O)[C@@H]2O)c(-c2ccc(O)c(O)c2)oc2cc(O)cc(O)c12
REMARK SMILES IDX 4 1 3 2 16 3 25 4 2 5 26 6 1 7 33 8 27 9 31 10 28 11 30 12
REMARK SMILES IDX 17 13 20 14 19 15 22 16 18 17 24 18 21 19 23 21 32 23 29 25
REMARK SMILES IDX 5 27 14 28 6 29 12 30 7 31 10 32 15 33 13 35 8 37 9 38 11 40
REMARK H PARENT 21 20 23 22 32 24 29 26 15 34 13 36 9 39 11 41
REMARK Flexibility Score: inf
ROOT
ATOM      1  O   UNL     1      13.702   2.278   2.890  1.00  0.00    -0.454 OA
ENDROOT
BRANCH   1   2
ATOM      2  C   UNL     1      13.339   2.269   1.532  1.00  0.00     0.214 A 
ATOM      3  C   UNL     1      12.318   1.425   1.030  1.00  0.00     0.180 A 
ATOM      4  O   UNL     1      12.178   1.275  -0.285  1.00  0.00    -0.452 OA
ATOM      5  C   UNL     1      14.147   2.959   0.587  1.00  0.00     0.239 A 
ATOM      6  C   UNL     1      13.198   1.510  -1.073  1.00  0.00     0.146 A 
ATOM      7  O   UNL     1      15.118   3.656   1.038  1.00  0.00    -0.285 OA
ATOM      8  C   UNL     1      14.111   2.547  -0.752  1.00  0.00     0.111 A 
ATOM      9  C   UNL     1      13.519   0.523  -2.019  1.00  0.00     0.094 A 
ATOM     10  C   UNL     1      15.304   2.577  -1.539  1.00  0.00     0.134 A 
ATOM     11  C   UNL     1      14.929   0.256  -2.094  1.00  0.00     0.123 A 
ATOM     12  C   UNL     1      15.800   1.349  -2.000  1.00  0.00     0.093 A 
BRANCH   3  13
ATOM     13  C   UNL     1      11.606   0.422   1.810  1.00  0.00     0.025 A 
ATOM     14  C   UNL     1       9.126   0.582   0.637  1.00  0.00     0.157 A 
ATOM     15  C   UNL     1       9.425   1.293   1.813  1.00  0.00     0.051 A 
ATOM     16  C   UNL     1      10.019  -0.447   0.160  1.00  0.00     0.158 A 
ATOM     17  C   UNL     1      10.514   0.891   2.562  1.00  0.00     0.016 A 
ATOM     18  C   UNL     1      11.238  -0.591   0.886  1.00  0.00     0.062 A 
BRANCH  14  19
ATOM     19  O   UNL     1       7.992   0.851  -0.077  1.00  0.00    -0.504 OA
ATOM     20  H   UNL     1       7.182   1.306   0.407  1.00  0.00     0.293 HD
ENDBRANCH  14  19
BRANCH  16  21
ATOM     21  O   UNL     1       9.697  -1.123  -0.991  1.00  0.00    -0.504 OA
ATOM     22  H   UNL     1       9.929  -2.077  -1.043  1.00  0.00     0.293 HD
ENDBRANCH  16  21
ENDBRANCH   3  13
BRANCH  10  23
ATOM     23  O   UNL     1      15.874   3.750  -2.113  1.00  0.00    -0.507 OA
ATOM     24  H   UNL     1      16.036   3.870  -3.115  1.00  0.00     0.293 HD
ENDBRANCH  10  23
BRANCH  11  25
ATOM     25  O   UNL     1      15.463  -0.984  -2.282  1.00  0.00    -0.508 OA
ATOM     26  H   UNL     1      15.066  -1.623  -2.967  1.00  0.00     0.293 HD
ENDBRANCH  11  25
ENDBRANCH   1   2
BRANCH   1  27
ATOM     27  C   UNL     1      14.042   1.225   3.758  1.00  0.00     0.339 C 
ATOM     28  C   UNL     1      15.502   1.364   4.252  1.00  0.00     0.214 C 
ATOM     29  O   UNL     1      13.177   1.355   4.905  1.00  0.00    -0.332 OA
ATOM     30  C   UNL     1      15.750   0.651   5.595  1.00  0.00     0.180 C 
ATOM     31  C   UNL     1      13.306   0.283   5.854  1.00  0.00     0.179 C 
ATOM     32  C   UNL     1      14.717  -0.425   5.860  1.00  0.00     0.177 C 
BRANCH  28  33
ATOM     33  O   UNL     1      15.850   2.746   4.453  1.00  0.00    -0.384 OA
ATOM     34  H   UNL     1      16.559   2.972   3.811  1.00  0.00     0.211 HD
ENDBRANCH  28  33
BRANCH  30  35
ATOM     35  O   UNL     1      17.044   0.131   5.700  1.00  0.00    -0.387 OA
ATOM     36  H   UNL     1      17.603   0.713   6.298  1.00  0.00     0.211 HD
ENDBRANCH  30  35
BRANCH  31  37
ATOM     37  C   UNL     1      12.941   0.935   7.208  1.00  0.00     0.191 C 
BRANCH  37  38
ATOM     38  O   UNL     1      12.520  -0.050   8.163  1.00  0.00    -0.394 OA
ATOM     39  H   UNL     1      12.810   0.239   9.036  1.00  0.00     0.210 HD
ENDBRANCH  37  38
ENDBRANCH  31  37
BRANCH  32  40
ATOM     40  O   UNL     1      14.959  -1.091   7.079  1.00  0.00    -0.387 OA
ATOM     41  H   UNL     1      15.939  -1.062   7.238  1.00  0.00     0.211 HD
ENDBRANCH  32  40
ENDBRANCH   1  27
TORSDOF 12
ENDMDL
MODEL 5
REMARK VINA RESULT:    -5.139     17.790     20.861
REMARK INTER + INTRA:          -8.283
REMARK INTER:                  -7.387
REMARK INTRA:                  -0.896
REMARK UNBOUND:                -0.740
REMARK SMILES O=c1c(O[C@@H]2O[C@H](CO)[C@H](O)[C@@H](O)[C@@H]2O)c(-c2ccc(O)c(O)c2)oc2cc(O)cc(O)c12
REMARK SMILES IDX 4 1 3 2 16 3 25 4 2 5 26 6 1 7 33 8 27 9 31 10 28 11 30 12
REMARK SMILES IDX 17 13 20 14 19 15 22 16 18 17 24 18 21 19 23 21 32 23 29 25
REMARK SMILES IDX 5 27 14 28 6 29 12 30 7 31 10 32 15 33 13 35 8 37 9 38 11 40
REMARK H PARENT 21 20 23 22 32 24 29 26 15 34 13 36 9 39 11 41
REMARK Flexibility Score: inf
ROOT
ATOM      1  O   UNL     1      26.948  16.248   8.470  1.00  0.00    -0.454 OA
ENDROOT
BRANCH   1   2
ATOM      2  C   UNL     1      27.132  15.570   9.688  1.00  0.00     0.214 A 
ATOM      3  C   UNL     1      26.925  14.174   9.813  1.00  0.00     0.180 A 
ATOM      4  O   UNL     1      26.873  13.624  11.024  1.00  0.00    -0.452 OA
ATOM      5  C   UNL     1      27.322  16.317  10.883  1.00  0.00     0.239 A 
ATOM      6  C   UNL     1      26.562  14.367  12.058  1.00  0.00     0.146 A 
ATOM      7  O   UNL     1      27.428  17.585  10.775  1.00  0.00    -0.285 OA
ATOM      8  C   UNL     1      26.992  15.719  12.106  1.00  0.00     0.111 A 
ATOM      9  C   UNL     1      25.554  13.891  12.911  1.00  0.00     0.094 A 
ATOM     10  C   UNL     1      26.417  16.506  13.153  1.00  0.00     0.134 A 
ATOM     11  C   UNL     1      24.610  14.908  13.285  1.00  0.00     0.123 A 
ATOM     12  C   UNL     1      25.110  16.190  13.550  1.00  0.00     0.093 A 
BRANCH   3  13
ATOM     13  C   UNL     1      26.417  13.308   8.758  1.00  0.00     0.025 A 
ATOM     14  C   UNL     1      27.477  10.905   9.566  1.00  0.00     0.157 A 
ATOM     15  C   UNL     1      28.125  11.704   8.606  1.00  0.00     0.051 A 
ATOM     16  C   UNL     1      26.118  11.194   9.959  1.00  0.00     0.158 A 
ATOM     17  C   UNL     1      27.389  12.678   7.960  1.00  0.00     0.016 A 
ATOM     18  C   UNL     1      25.556  12.382   9.404  1.00  0.00     0.062 A 
BRANCH  14  19
ATOM     19  O   UNL     1      28.117   9.846  10.146  1.00  0.00    -0.504 OA
ATOM     20  H   UNL     1      27.694   8.891  10.068  1.00  0.00     0.293 HD
ENDBRANCH  14  19
BRANCH  16  21
ATOM     21  O   UNL     1      25.515  10.395  10.897  1.00  0.00    -0.504 OA
ATOM     22  H   UNL     1      26.092   9.913  11.530  1.00  0.00     0.293 HD
ENDBRANCH  16  21
ENDBRANCH   3  13
BRANCH  10  23
ATOM     23  O   UNL     1      27.143  17.393  13.998  1.00  0.00    -0.507 OA
ATOM     24  H   UNL     1      27.690  17.087  14.806  1.00  0.00     0.293 HD
ENDBRANCH  10  23
BRANCH  11  25
ATOM     25  O   UNL     1      23.271  14.693  13.426  1.00  0.00    -0.508 OA
ATOM     26  H   UNL     1      22.610  15.065  12.749  1.00  0.00     0.293 HD
ENDBRANCH  11  25
ENDBRANCH   1   2
BRANCH   1  27
ATOM     27  C   UNL     1      25.813  16.371   7.648  1.00  0.00     0.339 C 
ATOM     28  C   UNL     1      24.885  17.501   8.153  1.00  0.00     0.214 C 
ATOM     29  O   UNL     1      26.301  16.753   6.346  1.00  0.00    -0.332 OA
ATOM     30  C   UNL     1      23.989  18.081   7.041  1.00  0.00     0.180 C 
ATOM     31  C   UNL     1      25.279  16.812   5.338  1.00  0.00     0.179 C 
ATOM     32  C   UNL     1      23.829  17.115   5.886  1.00  0.00     0.177 C 
BRANCH  28  33
ATOM     33  O   UNL     1      25.649  18.602   8.678  1.00  0.00    -0.384 OA
ATOM     34  H   UNL     1      26.374  18.792   8.043  1.00  0.00     0.211 HD
ENDBRANCH  28  33
BRANCH  30  35
ATOM     35  O   UNL     1      22.741  18.497   7.515  1.00  0.00    -0.387 OA
ATOM     36  H   UNL     1      22.713  19.498   7.583  1.00  0.00     0.211 HD
ENDBRANCH  30  35
BRANCH  31  37
ATOM     37  C   UNL     1      25.793  17.880   4.344  1.00  0.00     0.191 C 
BRANCH  37  38
ATOM     38  O   UNL     1      25.431  17.551   2.994  1.00  0.00    -0.394 OA
ATOM     39  H   UNL     1      24.893  16.752   3.017  1.00  0.00     0.210 HD
ENDBRANCH  37  38
ENDBRANCH  31  37
BRANCH  32  40
ATOM     40  O   UNL     1      22.992  17.638   4.880  1.00  0.00    -0.387 OA
ATOM     41  H   UNL     1      22.523  16.870   4.462  1.00  0.00     0.211 HD
ENDBRANCH  32  40
ENDBRANCH   1  27
TORSDOF 12
ENDMDL
MODEL 6
REMARK VINA RESULT:    -5.040      2.254      6.032
REMARK INTER + INTRA:          -8.138
REMARK INTER:                  -8.098
REMARK INTRA:                  -0.040
REMARK UNBOUND:                -0.740
REMARK SMILES O=c1c(O[C@@H]2O[C@H](CO)[C@H](O)[C@@H](O)[C@@H]2O)c(-c2ccc(O)c(O)c2)oc2cc(O)cc(O)c12
REMARK SMILES IDX 4 1 3 2 16 3 25 4 2 5 26 6 1 7 33 8 27 9 31 10 28 11 30 12
REMARK SMILES IDX 17 13 20 14 19 15 22 16 18 17 24 18 21 19 23 21 32 23 29 25
REMARK SMILES IDX 5 27 14 28 6 29 12 30 7 31 10 32 15 33 13 35 8 37 9 38 11 40
REMARK H PARENT 21 20 23 22 32 24 29 26 15 34 13 36 9 39 11 41
REMARK Flexibility Score: inf
ROOT
ATOM      1  O   UNL     1      13.957   3.441  -0.958  1.00  0.00    -0.454 OA
ENDROOT
BRANCH   1   2
ATOM      2  C   UNL     1      12.932   3.396   0.002  1.00  0.00     0.214 A 
ATOM      3  C   UNL     1      13.145   2.893   1.310  1.00  0.00     0.180 A 
ATOM      4  O   UNL     1      12.100   2.645   2.096  1.00  0.00    -0.452 OA
ATOM      5  C   UNL     1      11.591   3.657  -0.392  1.00  0.00     0.239 A 
ATOM      6  C   UNL     1      10.925   2.427   1.558  1.00  0.00     0.146 A 
ATOM      7  O   UNL     1      11.393   4.033  -1.596  1.00  0.00    -0.285 OA
ATOM      8  C   UNL     1      10.550   3.126   0.381  1.00  0.00     0.111 A 
ATOM      9  C   UNL     1      10.226   1.286   1.983  1.00  0.00     0.094 A 
ATOM     10  C   UNL     1       9.357   2.660  -0.253  1.00  0.00     0.134 A 
ATOM     11  C   UNL     1       9.637   0.553   0.895  1.00  0.00     0.123 A 
ATOM     12  C   UNL     1       9.068   1.291  -0.150  1.00  0.00     0.093 A 
BRANCH   3  13
ATOM     13  C   UNL     1      14.384   2.287   1.780  1.00  0.00     0.025 A 
ATOM     14  C   UNL     1      13.418   0.798   3.877  1.00  0.00     0.157 A 
ATOM     15  C   UNL     1      13.961   2.080   4.080  1.00  0.00     0.051 A 
ATOM     16  C   UNL     1      13.589   0.125   2.611  1.00  0.00     0.158 A 
ATOM     17  C   UNL     1      14.767   2.614   3.093  1.00  0.00     0.016 A 
ATOM     18  C   UNL     1      14.224   0.890   1.588  1.00  0.00     0.062 A 
BRANCH  14  19
ATOM     19  O   UNL     1      12.719   0.167   4.867  1.00  0.00    -0.504 OA
ATOM     20  H   UNL     1      11.672   0.171   4.833  1.00  0.00     0.293 HD
ENDBRANCH  14  19
BRANCH  16  21
ATOM     21  O   UNL     1      13.048  -1.125   2.446  1.00  0.00    -0.504 OA
ATOM     22  H   UNL     1      12.391  -1.432   3.110  1.00  0.00     0.293 HD
ENDBRANCH  16  21
ENDBRANCH   3  13
BRANCH  10  23
ATOM     23  O   UNL     1       8.313   3.496  -0.743  1.00  0.00    -0.507 OA
ATOM     24  H   UNL     1       8.031   4.372  -0.297  1.00  0.00     0.293 HD
ENDBRANCH  10  23
BRANCH  11  25
ATOM     25  O   UNL     1       9.573  -0.808   0.838  1.00  0.00    -0.508 OA
ATOM     26  H   UNL     1       9.903  -1.377   1.613  1.00  0.00     0.293 HD
ENDBRANCH  11  25
ENDBRANCH   1   2
BRANCH   1  27
ATOM     27  C   UNL     1      14.449   2.450  -1.827  1.00  0.00     0.339 C 
ATOM     28  C   UNL     1      15.972   2.253  -1.636  1.00  0.00     0.214 C 
ATOM     29  O   UNL     1      13.796   1.221  -1.445  1.00  0.00    -0.332 OA
ATOM     30  C   UNL     1      16.453   0.856  -2.075  1.00  0.00     0.180 C 
ATOM     31  C   UNL     1      14.094   0.113  -2.309  1.00  0.00     0.179 C 
ATOM     32  C   UNL     1      15.488   0.206  -3.044  1.00  0.00     0.177 C 
BRANCH  28  33
ATOM     33  O   UNL     1      16.342   2.397  -0.253  1.00  0.00    -0.384 OA
ATOM     34  H   UNL     1      15.577   2.111   0.292  1.00  0.00     0.211 HD
ENDBRANCH  28  33
BRANCH  30  35
ATOM     35  O   UNL     1      17.748   0.873  -2.602  1.00  0.00    -0.387 OA
ATOM     36  H   UNL     1      17.953   1.777  -2.988  1.00  0.00     0.211 HD
ENDBRANCH  30  35
BRANCH  31  37
ATOM     37  C   UNL     1      13.967  -1.124  -1.390  1.00  0.00     0.191 C 
BRANCH  37  38
ATOM     38  O   UNL     1      12.719  -1.120  -0.682  1.00  0.00    -0.394 OA
ATOM     39  H   UNL     1      12.452  -0.203  -0.554  1.00  0.00     0.210 HD
ENDBRANCH  37  38
ENDBRANCH  31  37
BRANCH  32  40
ATOM     40  O   UNL     1      15.942  -1.061  -3.461  1.00  0.00    -0.387 OA
ATOM     41  H   UNL     1      15.661  -1.175  -4.407  1.00  0.00     0.211 HD
ENDBRANCH  32  40
ENDBRANCH   1  27
TORSDOF 12
ENDMDL
MODEL 7
REMARK VINA RESULT:    -4.976      1.825      4.470
REMARK INTER + INTRA:          -8.043
REMARK INTER:                  -8.084
REMARK INTRA:                   0.041
REMARK UNBOUND:                -0.740
REMARK SMILES O=c1c(O[C@@H]2O[C@H](CO)[C@H](O)[C@@H](O)[C@@H]2O)c(-c2ccc(O)c(O)c2)oc2cc(O)cc(O)c12
REMARK SMILES IDX 4 1 3 2 16 3 25 4 2 5 26 6 1 7 33 8 27 9 31 10 28 11 30 12
REMARK SMILES IDX 17 13 20 14 19 15 22 16 18 17 24 18 21 19 23 21 32 23 29 25
REMARK SMILES IDX 5 27 14 28 6 29 12 30 7 31 10 32 15 33 13 35 8 37 9 38 11 40
REMARK H PARENT 21 20 23 22 32 24 29 26 15 34 13 36 9 39 11 41
REMARK Flexibility Score: inf
ROOT
ATOM      1  O   UNL     1      14.339   3.019   2.528  1.00  0.00    -0.454 OA
ENDROOT
BRANCH   1   2
ATOM      2  C   UNL     1      13.887   3.048   1.197  1.00  0.00     0.214 A 
ATOM      3  C   UNL     1      12.555   3.395   0.860  1.00  0.00     0.180 A 
ATOM      4  O   UNL     1      12.112   3.173  -0.375  1.00  0.00    -0.452 OA
ATOM      5  C   UNL     1      14.709   2.513   0.167  1.00  0.00     0.239 A 
ATOM      6  C   UNL     1      12.697   2.266  -1.118  1.00  0.00     0.146 A 
ATOM      7  O   UNL     1      15.882   2.125   0.490  1.00  0.00    -0.285 OA
ATOM      8  C   UNL     1      14.098   2.069  -1.013  1.00  0.00     0.111 A 
ATOM      9  C   UNL     1      11.871   1.317  -1.742  1.00  0.00     0.094 A 
ATOM     10  C   UNL     1      14.605   0.915  -1.688  1.00  0.00     0.134 A 
ATOM     11  C   UNL     1      12.380  -0.023  -1.636  1.00  0.00     0.123 A 
ATOM     12  C   UNL     1      13.763  -0.203  -1.769  1.00  0.00     0.093 A 
BRANCH   3  13
ATOM     13  C   UNL     1      11.494   3.662   1.822  1.00  0.00     0.025 A 
ATOM     14  C   UNL     1       9.510   4.501   0.116  1.00  0.00     0.157 A 
ATOM     15  C   UNL     1      10.345   5.422   0.775  1.00  0.00     0.051 A 
ATOM     16  C   UNL     1       9.498   3.113   0.513  1.00  0.00     0.158 A 
ATOM     17  C   UNL     1      11.044   4.992   1.886  1.00  0.00     0.016 A 
ATOM     18  C   UNL     1      10.454   2.748   1.506  1.00  0.00     0.062 A 
BRANCH  14  19
ATOM     19  O   UNL     1       8.699   4.898  -0.910  1.00  0.00    -0.504 OA
ATOM     20  H   UNL     1       8.495   5.918  -1.032  1.00  0.00     0.293 HD
ENDBRANCH  14  19
BRANCH  16  21
ATOM     21  O   UNL     1       8.671   2.241  -0.150  1.00  0.00    -0.504 OA
ATOM     22  H   UNL     1       7.884   1.899   0.331  1.00  0.00     0.293 HD
ENDBRANCH  16  21
ENDBRANCH   3  13
BRANCH  10  23
ATOM     23  O   UNL     1      15.771   0.895  -2.506  1.00  0.00    -0.507 OA
ATOM     24  H   UNL     1      16.615   1.435  -2.304  1.00  0.00     0.293 HD
ENDBRANCH  10  23
BRANCH  11  25
ATOM     25  O   UNL     1      11.598  -1.124  -1.449  1.00  0.00    -0.508 OA
ATOM     26  H   UNL     1      10.961  -1.440  -2.176  1.00  0.00     0.293 HD
ENDBRANCH  11  25
ENDBRANCH   1   2
BRANCH   1  27
ATOM     27  C   UNL     1      13.840   2.341   3.655  1.00  0.00     0.339 C 
ATOM     28  C   UNL     1      13.497   0.872   3.309  1.00  0.00     0.214 C 
ATOM     29  O   UNL     1      14.912   2.325   4.621  1.00  0.00    -0.332 OA
ATOM     30  C   UNL     1      13.525  -0.054   4.540  1.00  0.00     0.180 C 
ATOM     31  C   UNL     1      14.539   1.768   5.892  1.00  0.00     0.179 C 
ATOM     32  C   UNL     1      13.360   0.720   5.831  1.00  0.00     0.177 C 
BRANCH  28  33
ATOM     33  O   UNL     1      14.440   0.329   2.368  1.00  0.00    -0.384 OA
ATOM     34  H   UNL     1      14.125   0.556   1.465  1.00  0.00     0.211 HD
ENDBRANCH  28  33
BRANCH  30  35
ATOM     35  O   UNL     1      12.586  -1.088   4.460  1.00  0.00    -0.387 OA
ATOM     36  H   UNL     1      13.033  -1.938   4.168  1.00  0.00     0.211 HD
ENDBRANCH  30  35
BRANCH  31  37
ATOM     37  C   UNL     1      15.858   1.175   6.442  1.00  0.00     0.191 C 
BRANCH  37  38
ATOM     38  O   UNL     1      16.738   2.209   6.906  1.00  0.00    -0.394 OA
ATOM     39  H   UNL     1      16.514   3.023   6.441  1.00  0.00     0.210 HD
ENDBRANCH  37  38
ENDBRANCH  31  37
BRANCH  32  40
ATOM     40  O   UNL     1      13.363  -0.131   6.954  1.00  0.00    -0.387 OA
ATOM     41  H   UNL     1      12.516  -0.649   6.931  1.00  0.00     0.211 HD
ENDBRANCH  32  40
ENDBRANCH   1  27
TORSDOF 12
ENDMDL
MODEL 8
REMARK VINA RESULT:    -4.630      1.748      6.416
REMARK INTER + INTRA:          -7.535
REMARK INTER:                  -7.553
REMARK INTRA:                   0.018
REMARK UNBOUND:                -0.740
REMARK SMILES O=c1c(O[C@@H]2O[C@H](CO)[C@H](O)[C@@H](O)[C@@H]2O)c(-c2ccc(O)c(O)c2)oc2cc(O)cc(O)c12
REMARK SMILES IDX 4 1 3 2 16 3 25 4 2 5 26 6 1 7 33 8 27 9 31 10 28 11 30 12
REMARK SMILES IDX 17 13 20 14 19 15 22 16 18 17 24 18 21 19 23 21 32 23 29 25
REMARK SMILES IDX 5 27 14 28 6 29 12 30 7 31 10 32 15 33 13 35 8 37 9 38 11 40
REMARK H PARENT 21 20 23 22 32 24 29 26 15 34 13 36 9 39 11 41
REMARK Flexibility Score: inf
ROOT
ATOM      1  O   UNL     1      12.814  -0.939   2.363  1.00  0.00    -0.454 OA
ENDROOT
BRANCH   1   2
ATOM      2  C   UNL     1      13.821   0.042   2.365  1.00  0.00     0.214 A 
ATOM      3  C   UNL     1      14.143   0.790   3.525  1.00  0.00     0.180 A 
ATOM      4  O   UNL     1      14.923   1.863   3.418  1.00  0.00    -0.452 OA
ATOM      5  C   UNL     1      14.395   0.459   1.132  1.00  0.00     0.239 A 
ATOM      6  C   UNL     1      15.017   2.481   2.266  1.00  0.00     0.146 A 
ATOM      7  O   UNL     1      14.041  -0.165   0.076  1.00  0.00    -0.285 OA
ATOM      8  C   UNL     1      14.977   1.731   1.062  1.00  0.00     0.111 A 
ATOM      9  C   UNL     1      14.830   3.872   2.266  1.00  0.00     0.094 A 
ATOM     10  C   UNL     1      14.858   2.504  -0.135  1.00  0.00     0.134 A 
ATOM     11  C   UNL     1      13.987   4.324   1.193  1.00  0.00     0.123 A 
ATOM     12  C   UNL     1      14.141   3.706  -0.055  1.00  0.00     0.093 A 
BRANCH   3  13
ATOM     13  C   UNL     1      13.430   0.711   4.793  1.00  0.00     0.025 A 
ATOM     14  C   UNL     1      15.538   0.234   6.491  1.00  0.00     0.157 A 
ATOM     15  C   UNL     1      14.757  -0.819   5.981  1.00  0.00     0.051 A 
ATOM     16  C   UNL     1      15.099   1.602   6.349  1.00  0.00     0.158 A 
ATOM     17  C   UNL     1      13.510  -0.521   5.466  1.00  0.00     0.016 A 
ATOM     18  C   UNL     1      13.917   1.792   5.573  1.00  0.00     0.062 A 
BRANCH  14  19
ATOM     19  O   UNL     1      16.722  -0.014   7.126  1.00  0.00    -0.504 OA
ATOM     20  H   UNL     1      17.599   0.424   6.756  1.00  0.00     0.293 HD
ENDBRANCH  14  19
BRANCH  16  21
ATOM     21  O   UNL     1      15.883   2.606   6.859  1.00  0.00    -0.504 OA
ATOM     22  H   UNL     1      16.468   2.391   7.620  1.00  0.00     0.293 HD
ENDBRANCH  16  21
ENDBRANCH   3  13
BRANCH  10  23
ATOM     23  O   UNL     1      15.622   2.296  -1.320  1.00  0.00    -0.507 OA
ATOM     24  H   UNL     1      15.323   1.691  -2.088  1.00  0.00     0.293 HD
ENDBRANCH  10  23
BRANCH  11  25
ATOM     25  O   UNL     1      13.077   5.332   1.310  1.00  0.00    -0.508 OA
ATOM     26  H   UNL     1      13.322   6.286   1.059  1.00  0.00     0.293 HD
ENDBRANCH  11  25
ENDBRANCH   1   2
BRANCH   1  27
ATOM     27  C   UNL     1      11.592  -1.002   1.669  1.00  0.00     0.339 C 
ATOM     28  C   UNL     1      10.398  -1.013   2.652  1.00  0.00     0.214 C 
ATOM     29  O   UNL     1      11.510   0.210   0.890  1.00  0.00    -0.332 OA
ATOM     30  C   UNL     1       9.094  -0.493   2.014  1.00  0.00     0.180 C 
ATOM     31  C   UNL     1      10.368   0.263   0.019  1.00  0.00     0.179 C 
ATOM     32  C   UNL     1       9.130  -0.588   0.503  1.00  0.00     0.177 C 
BRANCH  28  33
ATOM     33  O   UNL     1      10.658  -0.173   3.791  1.00  0.00    -0.384 OA
ATOM     34  H   UNL     1      11.089   0.647   3.465  1.00  0.00     0.211 HD
ENDBRANCH  28  33
BRANCH  30  35
ATOM     35  O   UNL     1       7.955  -1.125   2.523  1.00  0.00    -0.387 OA
ATOM     36  H   UNL     1       8.038  -1.239   3.517  1.00  0.00     0.211 HD
ENDBRANCH  30  35
BRANCH  31  37
ATOM     37  C   UNL     1      10.062   1.774  -0.105  1.00  0.00     0.191 C 
BRANCH  37  38
ATOM     38  O   UNL     1       9.620   2.107  -1.430  1.00  0.00    -0.394 OA
ATOM     39  H   UNL     1       9.028   2.865  -1.364  1.00  0.00     0.210 HD
ENDBRANCH  37  38
ENDBRANCH  31  37
BRANCH  32  40
ATOM     40  O   UNL     1       7.928  -0.134  -0.076  1.00  0.00    -0.387 OA
ATOM     41  H   UNL     1       7.574   0.585   0.510  1.00  0.00     0.211 HD
ENDBRANCH  32  40
ENDBRANCH   1  27
TORSDOF 12
ENDMDL
