MODEL 1
REMARK VINA RESULT:    -4.014      0.000      0.000
REMARK INTER + INTRA:          -4.646
REMARK INTER:                  -4.601
REMARK INTRA:                  -0.046
REMARK UNBOUND:                -0.046
REMARK SMILES CC(C)[C@@H]([NH3+])C(=O)[O-]
REMARK SMILES IDX 4 1 5 2 6 6 7 7 8 8 2 9 1 10 3 11
REMARK H PARENT 5 3 5 4 5 5
REMARK Flexibility Score: inf
ROOT
ATOM      1  C   UNL     1      24.650   6.014  14.553  1.00  0.00     0.230 C 
ENDROOT
BRANCH   1   2
ATOM      2  N   UNL     1      24.086   6.852  13.484  1.00  0.00    -0.350 N 
ATOM      3  H   UNL     1      23.328   7.475  13.845  1.00  0.00     0.345 HD
ATOM      4  H   UNL     1      24.841   7.452  13.076  1.00  0.00     0.345 HD
ATOM      5  H   UNL     1      23.708   6.257  12.714  1.00  0.00     0.345 HD
ENDBRANCH   1   2
BRANCH   1   6
ATOM      6  C   UNL     1      25.999   6.536  14.985  1.00  0.00     0.099 C 
ATOM      7  O   UNL     1      26.367   7.690  14.637  1.00  0.00    -0.544 OA
ATOM      8  O   UNL     1      26.865   5.740  15.726  1.00  0.00    -0.544 OA
ENDBRANCH   1   6
BRANCH   1   9
ATOM      9  C   UNL     1      23.697   5.862  15.776  1.00  0.00     0.047 C 
ATOM     10  C   UNL     1      23.587   4.402  16.238  1.00  0.00     0.014 C 
ATOM     11  C   UNL     1      22.295   6.452  15.542  1.00  0.00     0.014 C 
ENDBRANCH   1   9
TORSDOF 3
ENDMDL
MODEL 2
REMARK VINA RESULT:    -3.783      2.737      3.762
REMARK INTER + INTRA:          -4.382
REMARK INTER:                  -4.335
REMARK INTRA:                  -0.047
REMARK UNBOUND:                -0.046
REMARK SMILES CC(C)[C@@H]([NH3+])C(=O)[O-]
REMARK SMILES IDX 4 1 5 2 6 6 7 7 8 8 2 9 1 10 3 11
REMARK H PARENT 5 3 5 4 5 5
REMARK Flexibility Score: inf
ROOT
ATOM      1  C   UNL     1      24.272   5.020  15.300  1.00  0.00     0.230 C 
ENDROOT
BRANCH   1   2
ATOM      2  N   UNL     1      25.173   4.046  15.937  1.00  0.00    -0.350 N 
ATOM      3  H   UNL     1      24.990   3.969  16.963  1.00  0.00     0.345 HD
ATOM      4  H   UNL     1      25.030   3.104  15.503  1.00  0.00     0.345 HD
ATOM      5  H   UNL     1      26.170   4.315  15.781  1.00  0.00     0.345 HD
ENDBRANCH   1   2
BRANCH   1   6
ATOM      6  C   UNL     1      23.105   5.338  16.203  1.00  0.00     0.099 C 
ATOM      7  O   UNL     1      22.992   4.752  17.313  1.00  0.00    -0.544 OA
ATOM      8  O   UNL     1      22.124   6.238  15.805  1.00  0.00    -0.544 OA
ENDBRANCH   1   6
BRANCH   1   9
ATOM      9  C   UNL     1      25.001   6.324  14.854  1.00  0.00     0.047 C 
ATOM     10  C   UNL     1      24.780   6.623  13.365  1.00  0.00     0.014 C 
ATOM     11  C   UNL     1      26.504   6.331  15.180  1.00  0.00     0.014 C 
ENDBRANCH   1   9
TORSDOF 3
ENDMDL
MODEL 3
REMARK VINA RESULT:    -3.488      1.634      2.268
REMARK INTER + INTRA:          -4.043
REMARK INTER:                  -3.975
REMARK INTRA:                  -0.068
REMARK UNBOUND:                -0.046
REMARK SMILES CC(C)[C@@H]([NH3+])C(=O)[O-]
REMARK SMILES IDX 4 1 5 2 6 6 7 7 8 8 2 9 1 10 3 11
REMARK H PARENT 5 3 5 4 5 5
REMARK Flexibility Score: inf
ROOT
ATOM      1  C   UNL     1      24.320   5.971  15.159  1.00  0.00     0.230 C 
ENDROOT
BRANCH   1   2
ATOM      2  N   UNL     1      24.220   4.517  14.963  1.00  0.00    -0.350 N 
ATOM      3  H   UNL     1      23.426   4.269  14.330  1.00  0.00     0.345 HD
ATOM      4  H   UNL     1      25.107   4.161  14.536  1.00  0.00     0.345 HD
ATOM      5  H   UNL     1      24.096   4.032  15.880  1.00  0.00     0.345 HD
ENDBRANCH   1   2
BRANCH   1   6
ATOM      6  C   UNL     1      25.200   6.593  14.102  1.00  0.00     0.099 C 
ATOM      7  O   UNL     1      26.272   7.166  14.435  1.00  0.00    -0.544 OA
ATOM      8  O   UNL     1      24.821   6.583  12.765  1.00  0.00    -0.544 OA
ENDBRANCH   1   6
BRANCH   1   9
ATOM      9  C   UNL     1      22.931   6.677  15.210  1.00  0.00     0.047 C 
ATOM     10  C   UNL     1      23.066   8.191  15.424  1.00  0.00     0.014 C 
ATOM     11  C   UNL     1      21.973   6.077  16.253  1.00  0.00     0.014 C 
ENDBRANCH   1   9
TORSDOF 3
ENDMDL
MODEL 4
REMARK VINA RESULT:    -3.423      0.633      1.402
REMARK INTER + INTRA:          -3.969
REMARK INTER:                  -4.112
REMARK INTRA:                   0.143
REMARK UNBOUND:                -0.046
REMARK SMILES CC(C)[C@@H]([NH3+])C(=O)[O-]
REMARK SMILES IDX 4 1 5 2 6 6 7 7 8 8 2 9 1 10 3 11
REMARK H PARENT 5 3 5 4 5 5
REMARK Flexibility Score: inf
ROOT
ATOM      1  C   UNL     1      24.757   6.140  14.027  1.00  0.00     0.230 C 
ENDROOT
BRANCH   1   2
ATOM      2  N   UNL     1      24.444   6.999  12.875  1.00  0.00    -0.350 N 
ATOM      3  H   UNL     1      23.881   7.832  13.158  1.00  0.00     0.345 HD
ATOM      4  H   UNL     1      25.335   7.335  12.439  1.00  0.00     0.345 HD
ATOM      5  H   UNL     1      23.924   6.459  12.148  1.00  0.00     0.345 HD
ENDBRANCH   1   2
BRANCH   1   6
ATOM      6  C   UNL     1      25.934   6.688  14.797  1.00  0.00     0.099 C 
ATOM      7  O   UNL     1      26.178   7.924  14.775  1.00  0.00    -0.544 OA
ATOM      8  O   UNL     1      26.784   5.838  15.496  1.00  0.00    -0.544 OA
ENDBRANCH   1   6
BRANCH   1   9
ATOM      9  C   UNL     1      23.535   5.914  14.968  1.00  0.00     0.047 C 
ATOM     10  C   UNL     1      22.942   7.240  15.465  1.00  0.00     0.014 C 
ATOM     11  C   UNL     1      23.838   4.989  16.160  1.00  0.00     0.014 C 
ENDBRANCH   1   9
TORSDOF 3
ENDMDL
MODEL 5
REMARK VINA RESULT:    -3.410      1.200      1.497
REMARK INTER + INTRA:          -3.954
REMARK INTER:                  -3.907
REMARK INTRA:                  -0.048
REMARK UNBOUND:                -0.046
REMARK SMILES CC(C)[C@@H]([NH3+])C(=O)[O-]
REMARK SMILES IDX 4 1 5 2 6 6 7 7 8 8 2 9 1 10 3 11
REMARK H PARENT 5 3 5 4 5 5
REMARK Flexibility Score: inf
ROOT
ATOM      1  C   UNL     1      24.214   6.384  14.514  1.00  0.00     0.230 C 
ENDROOT
BRANCH   1   2
ATOM      2  N   UNL     1      24.224   7.018  13.187  1.00  0.00    -0.350 N 
ATOM      3  H   UNL     1      24.948   7.769  13.127  1.00  0.00     0.345 HD
ATOM      4  H   UNL     1      24.435   6.297  12.458  1.00  0.00     0.345 HD
ATOM      5  H   UNL     1      23.287   7.422  12.968  1.00  0.00     0.345 HD
ENDBRANCH   1   2
BRANCH   1   6
ATOM      6  C   UNL     1      25.617   6.251  15.054  1.00  0.00     0.099 C 
ATOM      7  O   UNL     1      26.496   7.094  14.732  1.00  0.00    -0.544 OA
ATOM      8  O   UNL     1      25.967   5.179  15.868  1.00  0.00    -0.544 OA
ENDBRANCH   1   6
BRANCH   1   9
ATOM      9  C   UNL     1      23.294   7.120  15.535  1.00  0.00     0.047 C 
ATOM     10  C   UNL     1      21.866   6.558  15.529  1.00  0.00     0.014 C 
ATOM     11  C   UNL     1      23.264   8.647  15.347  1.00  0.00     0.014 C 
ENDBRANCH   1   9
TORSDOF 3
ENDMDL
MODEL 6
REMARK VINA RESULT:    -3.377      2.183      2.541
REMARK INTER + INTRA:          -3.916
REMARK INTER:                  -3.873
REMARK INTRA:                  -0.043
REMARK UNBOUND:                -0.046
REMARK SMILES CC(C)[C@@H]([NH3+])C(=O)[O-]
REMARK SMILES IDX 4 1 5 2 6 6 7 7 8 8 2 9 1 10 3 11
REMARK H PARENT 5 3 5 4 5 5
REMARK Flexibility Score: inf
ROOT
ATOM      1  C   UNL     1      22.854   5.782  15.532  1.00  0.00     0.230 C 
ENDROOT
BRANCH   1   2
ATOM      2  N   UNL     1      21.677   6.435  16.125  1.00  0.00    -0.350 N 
ATOM      3  H   UNL     1      21.791   7.473  16.162  1.00  0.00     0.345 HD
ATOM      4  H   UNL     1      20.830   6.216  15.549  1.00  0.00     0.345 HD
ATOM      5  H   UNL     1      21.503   6.070  17.089  1.00  0.00     0.345 HD
ENDBRANCH   1   2
BRANCH   1   6
ATOM      6  C   UNL     1      23.719   6.790  14.816  1.00  0.00     0.099 C 
ATOM      7  O   UNL     1      23.732   7.990  15.198  1.00  0.00    -0.544 OA
ATOM      8  O   UNL     1      24.469   6.421  13.705  1.00  0.00    -0.544 OA
ENDBRANCH   1   6
BRANCH   1   9
ATOM      9  C   UNL     1      23.689   4.972  16.569  1.00  0.00     0.047 C 
ATOM     10  C   UNL     1      24.299   3.706  15.950  1.00  0.00     0.014 C 
ATOM     11  C   UNL     1      22.908   4.615  17.845  1.00  0.00     0.014 C 
ENDBRANCH   1   9
TORSDOF 3
ENDMDL
MODEL 7
REMARK VINA RESULT:    -3.320      2.336      3.250
REMARK INTER + INTRA:          -3.851
REMARK INTER:                  -3.792
REMARK INTRA:                  -0.059
REMARK UNBOUND:                -0.046
REMARK SMILES CC(C)[C@@H]([NH3+])C(=O)[O-]
REMARK SMILES IDX 4 1 5 2 6 6 7 7 8 8 2 9 1 10 3 11
REMARK H PARENT 5 3 5 4 5 5
REMARK Flexibility Score: inf
ROOT
ATOM      1  C   UNL     1      23.748   6.069  15.535  1.00  0.00     0.230 C 
ENDROOT
BRANCH   1   2
ATOM      2  N   UNL     1      22.489   6.539  14.938  1.00  0.00    -0.350 N 
ATOM      3  H   UNL     1      22.662   7.117  14.084  1.00  0.00     0.345 HD
ATOM      4  H   UNL     1      21.903   5.715  14.666  1.00  0.00     0.345 HD
ATOM      5  H   UNL     1      21.942   7.098  15.630  1.00  0.00     0.345 HD
ENDBRANCH   1   2
BRANCH   1   6
ATOM      6  C   UNL     1      23.537   4.765  16.267  1.00  0.00     0.099 C 
ATOM      7  O   UNL     1      22.931   4.756  17.371  1.00  0.00    -0.544 OA
ATOM      8  O   UNL     1      24.046   3.575  15.759  1.00  0.00    -0.544 OA
ENDBRANCH   1   6
BRANCH   1   9
ATOM      9  C   UNL     1      24.905   5.942  14.499  1.00  0.00     0.047 C 
ATOM     10  C   UNL     1      26.249   6.398  15.083  1.00  0.00     0.014 C 
ATOM     11  C   UNL     1      24.628   6.673  13.174  1.00  0.00     0.014 C 
ENDBRANCH   1   9
TORSDOF 3
ENDMDL
MODEL 8
REMARK VINA RESULT:    -3.287      2.380      2.998
REMARK INTER + INTRA:          -3.814
REMARK INTER:                  -3.816
REMARK INTRA:                   0.002
REMARK UNBOUND:                -0.046
REMARK SMILES CC(C)[C@@H]([NH3+])C(=O)[O-]
REMARK SMILES IDX 4 1 5 2 6 6 7 7 8 8 2 9 1 10 3 11
REMARK H PARENT 5 3 5 4 5 5
REMARK Flexibility Score: inf
ROOT
ATOM      1  C   UNL     1      23.654   5.229  16.598  1.00  0.00     0.230 C 
ENDROOT
BRANCH   1   2
ATOM      2  N   UNL     1      22.741   4.523  17.511  1.00  0.00    -0.350 N 
ATOM      3  H   UNL     1      22.067   5.181  17.965  1.00  0.00     0.345 HD
ATOM      4  H   UNL     1      22.195   3.810  16.974  1.00  0.00     0.345 HD
ATOM      5  H   UNL     1      23.280   4.017  18.247  1.00  0.00     0.345 HD
ENDBRANCH   1   2
BRANCH   1   6
ATOM      6  C   UNL     1      24.722   4.295  16.083  1.00  0.00     0.099 C 
ATOM      7  O   UNL     1      25.925   4.668  16.061  1.00  0.00    -0.544 OA
ATOM      8  O   UNL     1      24.389   3.039  15.588  1.00  0.00    -0.544 OA
ENDBRANCH   1   6
BRANCH   1   9
ATOM      9  C   UNL     1      22.915   5.931  15.419  1.00  0.00     0.047 C 
ATOM     10  C   UNL     1      23.847   6.863  14.633  1.00  0.00     0.014 C 
ATOM     11  C   UNL     1      21.647   6.689  15.850  1.00  0.00     0.014 C 
ENDBRANCH   1   9
TORSDOF 3
ENDMDL
MODEL 9
REMARK VINA RESULT:    -3.116      1.813      2.306
REMARK INTER + INTRA:          -3.617
REMARK INTER:                  -3.558
REMARK INTRA:                  -0.060
REMARK UNBOUND:                -0.046
REMARK SMILES CC(C)[C@@H]([NH3+])C(=O)[O-]
REMARK SMILES IDX 4 1 5 2 6 6 7 7 8 8 2 9 1 10 3 11
REMARK H PARENT 5 3 5 4 5 5
REMARK Flexibility Score: inf
ROOT
ATOM      1  C   UNL     1      25.505   5.937  15.650  1.00  0.00     0.230 C 
ENDROOT
BRANCH   1   2
ATOM      2  N   UNL     1      26.627   5.040  15.967  1.00  0.00    -0.350 N 
ATOM      3  H   UNL     1      27.491   5.307  15.444  1.00  0.00     0.345 HD
ATOM      4  H   UNL     1      26.833   5.090  16.992  1.00  0.00     0.345 HD
ATOM      5  H   UNL     1      26.378   4.051  15.745  1.00  0.00     0.345 HD
ENDBRANCH   1   2
BRANCH   1   6
ATOM      6  C   UNL     1      25.892   6.914  14.566  1.00  0.00     0.099 C 
ATOM      7  O   UNL     1      25.576   6.680  13.369  1.00  0.00    -0.544 OA
ATOM      8  O   UNL     1      26.635   8.050  14.866  1.00  0.00    -0.544 OA
ENDBRANCH   1   6
BRANCH   1   9
ATOM      9  C   UNL     1      24.202   5.171  15.267  1.00  0.00     0.047 C 
ATOM     10  C   UNL     1      22.942   5.937  15.695  1.00  0.00     0.014 C 
ATOM     11  C   UNL     1      24.155   3.730  15.802  1.00  0.00     0.014 C 
ENDBRANCH   1   9
TORSDOF 3
ENDMDL
