MODEL 1
REMARK VINA RESULT:    -5.098      0.000      0.000
REMARK INTER + INTRA:          -5.538
REMARK INTER:                  -5.396
REMARK INTRA:                  -0.142
REMARK UNBOUND:                -0.142
REMARK SMILES CC1=CC=C(C(C)C)CC1
REMARK SMILES IDX 1 1 2 2 3 3 4 4 5 5 9 6 10 7 6 8 7 9 8 10
REMARK H PARENT
REMARK Flexibility Score: inf
ROOT
ATOM      1  C   UNL     1     112.028 107.721 129.418  1.00  0.00     0.039 C 
ATOM      2  C   UNL     1     111.625 106.934 128.206  1.00  0.00    -0.073 C 
ATOM      3  C   UNL     1     111.741 107.479 126.985  1.00  0.00    -0.001 C 
ATOM      4  C   UNL     1     111.344 106.726 125.781  1.00  0.00    -0.001 C 
ATOM      5  C   UNL     1     110.651 105.576 125.880  1.00  0.00    -0.067 C 
ATOM      6  C   UNL     1     110.180 105.113 127.243  1.00  0.00     0.035 C 
ATOM      7  C   UNL     1     111.184 105.495 128.343  1.00  0.00     0.035 C 
ENDROOT
BRANCH   5   8
ATOM      8  C   UNL     1     110.256 104.784 124.646  1.00  0.00     0.009 C 
ATOM      9  C   UNL     1     110.287 105.664 123.390  1.00  0.00     0.012 C 
ATOM     10  C   UNL     1     108.885 104.118 124.821  1.00  0.00     0.012 C 
ENDBRANCH   5   8
TORSDOF 1
ENDMDL
MODEL 2
REMARK VINA RESULT:    -5.081      6.389      6.710
REMARK INTER + INTRA:          -5.520
REMARK INTER:                  -5.377
REMARK INTRA:                  -0.144
REMARK UNBOUND:                -0.142
REMARK SMILES CC1=CC=C(C(C)C)CC1
REMARK SMILES IDX 1 1 2 2 3 3 4 4 5 5 9 6 10 7 6 8 7 9 8 10
REMARK H PARENT
REMARK Flexibility Score: inf
ROOT
ATOM      1  C   UNL     1     104.866 112.009 129.283  1.00  0.00     0.039 C 
ATOM      2  C   UNL     1     105.616 111.573 128.059  1.00  0.00    -0.073 C 
ATOM      3  C   UNL     1     105.046 111.688 126.849  1.00  0.00    -0.001 C 
ATOM      4  C   UNL     1     105.762 111.259 125.633  1.00  0.00    -0.001 C 
ATOM      5  C   UNL     1     106.897 110.540 125.715  1.00  0.00    -0.067 C 
ATOM      6  C   UNL     1     107.380 110.074 127.073  1.00  0.00     0.035 C 
ATOM      7  C   UNL     1     107.047 111.099 128.169  1.00  0.00     0.035 C 
ENDROOT
BRANCH   5   8
ATOM      8  C   UNL     1     107.651 110.111 124.468  1.00  0.00     0.009 C 
ATOM      9  C   UNL     1     106.704 109.964 123.272  1.00  0.00     0.012 C 
ATOM     10  C   UNL     1     108.444 108.820 124.708  1.00  0.00     0.012 C 
ENDBRANCH   5   8
TORSDOF 1
ENDMDL
MODEL 3
REMARK VINA RESULT:    -5.073      8.253      9.526
REMARK INTER + INTRA:          -5.512
REMARK INTER:                  -5.367
REMARK INTRA:                  -0.144
REMARK UNBOUND:                -0.142
REMARK SMILES CC1=CC=C(C(C)C)CC1
REMARK SMILES IDX 1 1 2 2 3 3 4 4 5 5 9 6 10 7 6 8 7 9 8 10
REMARK H PARENT
REMARK Flexibility Score: inf
ROOT
ATOM      1  C   UNL     1     100.601 104.863 129.399  1.00  0.00     0.039 C 
ATOM      2  C   UNL     1     100.980 105.626 128.164  1.00  0.00    -0.073 C 
ATOM      3  C   UNL     1     100.747 105.097 126.953  1.00  0.00    -0.001 C 
ATOM      4  C   UNL     1     101.117 105.825 125.726  1.00  0.00    -0.001 C 
ATOM      5  C   UNL     1     101.895 106.924 125.780  1.00  0.00    -0.067 C 
ATOM      6  C   UNL     1     102.485 107.345 127.110  1.00  0.00     0.035 C 
ATOM      7  C   UNL     1     101.530 107.030 128.272  1.00  0.00     0.035 C 
ENDROOT
BRANCH   5   8
ATOM      8  C   UNL     1     102.265 107.691 124.523  1.00  0.00     0.009 C 
ATOM      9  C   UNL     1     102.422 106.748 123.324  1.00  0.00     0.012 C 
ATOM     10  C   UNL     1     103.529 108.536 124.732  1.00  0.00     0.012 C 
ENDBRANCH   5   8
TORSDOF 1
ENDMDL
MODEL 4
REMARK VINA RESULT:    -5.068      6.457      6.796
REMARK INTER + INTRA:          -5.506
REMARK INTER:                  -5.365
REMARK INTRA:                  -0.141
REMARK UNBOUND:                -0.142
REMARK SMILES CC1=CC=C(C(C)C)CC1
REMARK SMILES IDX 1 1 2 2 3 3 4 4 5 5 9 6 10 7 6 8 7 9 8 10
REMARK H PARENT
REMARK Flexibility Score: inf
ROOT
ATOM      1  C   UNL     1     107.741 100.382 129.472  1.00  0.00     0.039 C 
ATOM      2  C   UNL     1     106.948 100.824 128.278  1.00  0.00    -0.073 C 
ATOM      3  C   UNL     1     107.490 100.760 127.053  1.00  0.00    -0.001 C 
ATOM      4  C   UNL     1     106.731 101.197 125.866  1.00  0.00    -0.001 C 
ATOM      5  C   UNL     1     105.575 101.875 125.994  1.00  0.00    -0.067 C 
ATOM      6  C   UNL     1     105.112 102.289 127.375  1.00  0.00     0.035 C 
ATOM      7  C   UNL     1     105.505 101.247 128.435  1.00  0.00     0.035 C 
ENDROOT
BRANCH   5   8
ATOM      8  C   UNL     1     104.777 102.311 124.778  1.00  0.00     0.009 C 
ATOM      9  C   UNL     1     105.625 102.235 123.503  1.00  0.00     0.012 C 
ATOM     10  C   UNL     1     104.186 103.714 124.967  1.00  0.00     0.012 C 
ENDBRANCH   5   8
TORSDOF 1
ENDMDL
MODEL 5
REMARK VINA RESULT:    -4.954      8.209      9.880
REMARK INTER + INTRA:          -5.385
REMARK INTER:                  -5.233
REMARK INTRA:                  -0.152
REMARK UNBOUND:                -0.142
REMARK SMILES CC1=CC=C(C(C)C)CC1
REMARK SMILES IDX 1 1 2 2 3 3 4 4 5 5 9 6 10 7 6 8 7 9 8 10
REMARK H PARENT
REMARK Flexibility Score: inf
ROOT
ATOM      1  C   UNL     1     103.029 107.509 123.619  1.00  0.00     0.039 C 
ATOM      2  C   UNL     1     102.527 107.247 125.009  1.00  0.00    -0.073 C 
ATOM      3  C   UNL     1     103.280 107.584 126.067  1.00  0.00    -0.001 C 
ATOM      4  C   UNL     1     102.810 107.329 127.441  1.00  0.00    -0.001 C 
ATOM      5  C   UNL     1     101.731 106.557 127.672  1.00  0.00    -0.067 C 
ATOM      6  C   UNL     1     101.064 105.854 126.508  1.00  0.00     0.035 C 
ATOM      7  C   UNL     1     101.135 106.699 125.226  1.00  0.00     0.035 C 
ENDROOT
BRANCH   5   8
ATOM      8  C   UNL     1     101.228 106.306 129.083  1.00  0.00     0.009 C 
ATOM      9  C   UNL     1     100.535 104.942 129.189  1.00  0.00     0.012 C 
ATOM     10  C   UNL     1     100.303 107.434 129.559  1.00  0.00     0.012 C 
ENDBRANCH   5   8
TORSDOF 1
ENDMDL
MODEL 6
REMARK VINA RESULT:    -4.886      1.046      4.488
REMARK INTER + INTRA:          -5.313
REMARK INTER:                  -5.161
REMARK INTRA:                  -0.152
REMARK UNBOUND:                -0.142
REMARK SMILES CC1=CC=C(C(C)C)CC1
REMARK SMILES IDX 1 1 2 2 3 3 4 4 5 5 9 6 10 7 6 8 7 9 8 10
REMARK H PARENT
REMARK Flexibility Score: inf
ROOT
ATOM      1  C   UNL     1     109.317 104.821 123.742  1.00  0.00     0.039 C 
ATOM      2  C   UNL     1     109.856 105.111 125.112  1.00  0.00    -0.073 C 
ATOM      3  C   UNL     1     109.125 104.810 126.196  1.00  0.00    -0.001 C 
ATOM      4  C   UNL     1     109.632 105.093 127.552  1.00  0.00    -0.001 C 
ATOM      5  C   UNL     1     110.726 105.855 127.737  1.00  0.00    -0.067 C 
ATOM      6  C   UNL     1     111.373 106.521 126.540  1.00  0.00     0.035 C 
ATOM      7  C   UNL     1     111.260 105.646 125.282  1.00  0.00     0.035 C 
ENDROOT
BRANCH   5   8
ATOM      8  C   UNL     1     111.266 106.135 129.129  1.00  0.00     0.009 C 
ATOM      9  C   UNL     1     111.996 107.482 129.179  1.00  0.00     0.012 C 
ATOM     10  C   UNL     1     112.171 104.997 129.619  1.00  0.00     0.012 C 
ENDBRANCH   5   8
TORSDOF 1
ENDMDL
MODEL 7
REMARK VINA RESULT:    -4.870      6.156      7.609
REMARK INTER + INTRA:          -5.297
REMARK INTER:                  -5.143
REMARK INTRA:                  -0.153
REMARK UNBOUND:                -0.142
REMARK SMILES CC1=CC=C(C(C)C)CC1
REMARK SMILES IDX 1 1 2 2 3 3 4 4 5 5 9 6 10 7 6 8 7 9 8 10
REMARK H PARENT
REMARK Flexibility Score: inf
ROOT
ATOM      1  C   UNL     1     107.546 109.363 123.660  1.00  0.00     0.039 C 
ATOM      2  C   UNL     1     107.267 109.890 125.037  1.00  0.00    -0.073 C 
ATOM      3  C   UNL     1     107.608 109.166 126.113  1.00  0.00    -0.001 C 
ATOM      4  C   UNL     1     107.336 109.661 127.475  1.00  0.00    -0.001 C 
ATOM      5  C   UNL     1     106.547 110.733 127.678  1.00  0.00    -0.067 C 
ATOM      6  C   UNL     1     105.842 111.364 126.495  1.00  0.00     0.035 C 
ATOM      7  C   UNL     1     106.696 111.278 125.221  1.00  0.00     0.035 C 
ENDROOT
BRANCH   5   8
ATOM      8  C   UNL     1     106.278 111.263 129.076  1.00  0.00     0.009 C 
ATOM      9  C   UNL     1     104.938 112.005 129.138  1.00  0.00     0.012 C 
ATOM     10  C   UNL     1     107.427 112.151 129.570  1.00  0.00     0.012 C 
ENDBRANCH   5   8
TORSDOF 1
ENDMDL
MODEL 8
REMARK VINA RESULT:    -4.783      6.477      7.290
REMARK INTER + INTRA:          -5.205
REMARK INTER:                  -5.037
REMARK INTRA:                  -0.168
REMARK UNBOUND:                -0.142
REMARK SMILES CC1=CC=C(C(C)C)CC1
REMARK SMILES IDX 1 1 2 2 3 3 4 4 5 5 9 6 10 7 6 8 7 9 8 10
REMARK H PARENT
REMARK Flexibility Score: inf
ROOT
ATOM      1  C   UNL     1     102.976 105.300 127.967  1.00  0.00     0.039 C 
ATOM      2  C   UNL     1     103.975 104.182 127.994  1.00  0.00    -0.073 C 
ATOM      3  C   UNL     1     104.309 103.555 126.855  1.00  0.00    -0.001 C 
ATOM      4  C   UNL     1     105.283 102.448 126.859  1.00  0.00    -0.001 C 
ATOM      5  C   UNL     1     105.692 101.889 128.013  1.00  0.00    -0.067 C 
ATOM      6  C   UNL     1     105.054 102.331 129.314  1.00  0.00     0.035 C 
ATOM      7  C   UNL     1     104.685 103.823 129.279  1.00  0.00     0.035 C 
ENDROOT
BRANCH   5   8
ATOM      8  C   UNL     1     106.710 100.762 128.027  1.00  0.00     0.009 C 
ATOM      9  C   UNL     1     107.631 100.863 129.249  1.00  0.00     0.012 C 
ATOM     10  C   UNL     1     107.521 100.722 126.725  1.00  0.00     0.012 C 
ENDBRANCH   5   8
TORSDOF 1
ENDMDL
MODEL 9
REMARK VINA RESULT:    -4.782      7.949      8.854
REMARK INTER + INTRA:          -5.204
REMARK INTER:                  -5.036
REMARK INTRA:                  -0.167
REMARK UNBOUND:                -0.142
REMARK SMILES CC1=CC=C(C(C)C)CC1
REMARK SMILES IDX 1 1 2 2 3 3 4 4 5 5 9 6 10 7 6 8 7 9 8 10
REMARK H PARENT
REMARK Flexibility Score: inf
ROOT
ATOM      1  C   UNL     1     105.156 109.526 127.985  1.00  0.00     0.039 C 
ATOM      2  C   UNL     1     104.054 108.508 127.999  1.00  0.00    -0.073 C 
ATOM      3  C   UNL     1     103.458 108.152 126.852  1.00  0.00    -0.001 C 
ATOM      4  C   UNL     1     102.368 107.159 126.843  1.00  0.00    -0.001 C 
ATOM      5  C   UNL     1     101.790 106.754 127.990  1.00  0.00    -0.067 C 
ATOM      6  C   UNL     1     102.195 107.414 129.292  1.00  0.00     0.035 C 
ATOM      7  C   UNL     1     103.680 107.807 129.285  1.00  0.00     0.035 C 
ENDROOT
BRANCH   5   8
ATOM      8  C   UNL     1     100.681 105.716 127.992  1.00  0.00     0.009 C 
ATOM      9  C   UNL     1     100.778 104.805 129.221  1.00  0.00     0.012 C 
ATOM     10  C   UNL     1     100.675 104.898 126.695  1.00  0.00     0.012 C 
ENDBRANCH   5   8
TORSDOF 1
ENDMDL
