MODEL 1
REMARK VINA RESULT:    -4.216      0.000      0.000
REMARK INTER + INTRA:          -6.262
REMARK INTER:                  -5.942
REMARK INTRA:                  -0.320
REMARK UNBOUND:                -0.320
REMARK SMILES CCCCCCCCC(=O)[O-]
REMARK SMILES IDX 6 1 7 2 8 3 9 4 10 5 11 6 5 7 4 8 3 9 2 10 1 11
REMARK H PARENT
REMARK Flexibility Score: inf
ROOT
ATOM      1  C   UNL     1      -4.146  10.093  -3.337  1.00  0.00     0.000 C 
ENDROOT
BRANCH   1   2
ATOM      2  C   UNL     1      -3.044   9.024  -3.404  1.00  0.00     0.006 C 
BRANCH   2   3
ATOM      3  C   UNL     1      -1.842   9.527  -4.210  1.00  0.00     0.053 C 
BRANCH   3   4
ATOM      4  C   UNL     1      -1.280   8.428  -5.054  1.00  0.00     0.041 C 
ATOM      5  O   UNL     1      -0.143   7.950  -4.798  1.00  0.00    -0.550 OA
ATOM      6  O   UNL     1      -2.031   7.898  -6.095  1.00  0.00    -0.550 OA
ENDBRANCH   3   4
ENDBRANCH   2   3
ENDBRANCH   1   2
BRANCH   1   7
ATOM      7  C   UNL     1      -5.197   9.932  -4.448  1.00  0.00     0.000 C 
BRANCH   7   8
ATOM      8  C   UNL     1      -5.273   8.492  -4.986  1.00  0.00    -0.000 C 
BRANCH   8   9
ATOM      9  C   UNL     1      -6.707   7.938  -4.986  1.00  0.00    -0.000 C 
BRANCH   9  10
ATOM     10  C   UNL     1      -6.759   6.429  -5.272  1.00  0.00    -0.003 C 
ATOM     11  C   UNL     1      -8.174   5.988  -5.637  1.00  0.00     0.004 C 
ENDBRANCH   9  10
ENDBRANCH   8   9
ENDBRANCH   7   8
ENDBRANCH   1   7
TORSDOF 7
ENDMDL
MODEL 2
REMARK VINA RESULT:    -4.058      2.045      4.564
REMARK INTER + INTRA:          -6.039
REMARK INTER:                  -5.442
REMARK INTRA:                  -0.598
REMARK UNBOUND:                -0.320
REMARK SMILES CCCCCCCCC(=O)[O-]
REMARK SMILES IDX 6 1 7 2 8 3 9 4 10 5 11 6 5 7 4 8 3 9 2 10 1 11
REMARK H PARENT
REMARK Flexibility Score: inf
ROOT
ATOM      1  C   UNL     1      -4.939  10.114  -4.539  1.00  0.00     0.000 C 
ENDROOT
BRANCH   1   2
ATOM      2  C   UNL     1      -5.937   8.988  -4.850  1.00  0.00     0.006 C 
BRANCH   2   3
ATOM      3  C   UNL     1      -5.450   8.133  -6.023  1.00  0.00     0.053 C 
BRANCH   3   4
ATOM      4  C   UNL     1      -5.365   6.694  -5.624  1.00  0.00     0.041 C 
ATOM      5  O   UNL     1      -4.377   5.996  -5.974  1.00  0.00    -0.550 OA
ATOM      6  O   UNL     1      -6.354   6.135  -4.825  1.00  0.00    -0.550 OA
ENDBRANCH   3   4
ENDBRANCH   2   3
ENDBRANCH   1   2
BRANCH   1   7
ATOM      7  C   UNL     1      -4.231   9.922  -3.187  1.00  0.00     0.000 C 
BRANCH   7   8
ATOM      8  C   UNL     1      -2.902   9.156  -3.320  1.00  0.00    -0.000 C 
BRANCH   8   9
ATOM      9  C   UNL     1      -2.136   9.523  -4.602  1.00  0.00    -0.000 C 
BRANCH   9  10
ATOM     10  C   UNL     1      -1.707   8.288  -5.410  1.00  0.00    -0.003 C 
ATOM     11  C   UNL     1      -0.334   8.496  -6.042  1.00  0.00     0.004 C 
ENDBRANCH   9  10
ENDBRANCH   8   9
ENDBRANCH   7   8
ENDBRANCH   1   7
TORSDOF 7
ENDMDL
MODEL 3
REMARK VINA RESULT:    -4.055      2.955      4.811
REMARK INTER + INTRA:          -6.034
REMARK INTER:                  -5.835
REMARK INTRA:                  -0.199
REMARK UNBOUND:                -0.320
REMARK SMILES CCCCCCCCC(=O)[O-]
REMARK SMILES IDX 6 1 7 2 8 3 9 4 10 5 11 6 5 7 4 8 3 9 2 10 1 11
REMARK H PARENT
REMARK Flexibility Score: inf
ROOT
ATOM      1  C   UNL     1      -0.680   8.847  -6.519  1.00  0.00     0.000 C 
ENDROOT
BRANCH   1   2
ATOM      2  C   UNL     1       0.769   8.335  -6.516  1.00  0.00     0.006 C 
BRANCH   2   3
ATOM      3  C   UNL     1       1.450   8.613  -7.860  1.00  0.00     0.053 C 
BRANCH   3   4
ATOM      4  C   UNL     1       2.665   7.754  -8.019  1.00  0.00     0.041 C 
ATOM      5  O   UNL     1       3.507   8.009  -8.920  1.00  0.00    -0.550 OA
ATOM      6  O   UNL     1       2.892   6.703  -7.141  1.00  0.00    -0.550 OA
ENDBRANCH   3   4
ENDBRANCH   2   3
ENDBRANCH   1   2
BRANCH   1   7
ATOM      7  C   UNL     1      -1.480   8.371  -5.295  1.00  0.00     0.000 C 
BRANCH   7   8
ATOM      8  C   UNL     1      -1.849   9.525  -4.346  1.00  0.00    -0.000 C 
BRANCH   8   9
ATOM      9  C   UNL     1      -2.854   9.100  -3.263  1.00  0.00    -0.000 C 
BRANCH   9  10
ATOM     10  C   UNL     1      -4.077  10.028  -3.192  1.00  0.00    -0.003 C 
ATOM     11  C   UNL     1      -5.055   9.733  -4.325  1.00  0.00     0.004 C 
ENDBRANCH   9  10
ENDBRANCH   8   9
ENDBRANCH   7   8
ENDBRANCH   1   7
TORSDOF 7
ENDMDL
MODEL 4
REMARK VINA RESULT:    -3.966      2.574      5.317
REMARK INTER + INTRA:          -5.909
REMARK INTER:                  -5.565
REMARK INTRA:                  -0.344
REMARK UNBOUND:                -0.320
REMARK SMILES CCCCCCCCC(=O)[O-]
REMARK SMILES IDX 6 1 7 2 8 3 9 4 10 5 11 6 5 7 4 8 3 9 2 10 1 11
REMARK H PARENT
REMARK Flexibility Score: inf
ROOT
ATOM      1  C   UNL     1      -4.414  10.039  -3.265  1.00  0.00     0.000 C 
ENDROOT
BRANCH   1   2
ATOM      2  C   UNL     1      -5.363   9.850  -4.459  1.00  0.00     0.006 C 
BRANCH   2   3
ATOM      3  C   UNL     1      -5.181   8.465  -5.089  1.00  0.00     0.053 C 
BRANCH   3   4
ATOM      4  C   UNL     1      -6.424   7.648  -4.926  1.00  0.00     0.041 C 
ATOM      5  O   UNL     1      -7.554   8.205  -4.928  1.00  0.00    -0.550 OA
ATOM      6  O   UNL     1      -6.338   6.266  -4.821  1.00  0.00    -0.550 OA
ENDBRANCH   3   4
ENDBRANCH   2   3
ENDBRANCH   1   2
BRANCH   1   7
ATOM      7  C   UNL     1      -3.194   9.104  -3.323  1.00  0.00     0.000 C 
BRANCH   7   8
ATOM      8  C   UNL     1      -1.949   9.793  -3.909  1.00  0.00    -0.000 C 
BRANCH   8   9
ATOM      9  C   UNL     1      -1.121   8.855  -4.803  1.00  0.00    -0.000 C 
BRANCH   9  10
ATOM     10  C   UNL     1      -0.469   9.587  -5.986  1.00  0.00    -0.003 C 
ATOM     11  C   UNL     1       0.510   8.676  -6.722  1.00  0.00     0.004 C 
ENDBRANCH   9  10
ENDBRANCH   8   9
ENDBRANCH   7   8
ENDBRANCH   1   7
TORSDOF 7
ENDMDL
MODEL 5
REMARK VINA RESULT:    -3.956      2.767      5.400
REMARK INTER + INTRA:          -5.895
REMARK INTER:                  -5.503
REMARK INTRA:                  -0.392
REMARK UNBOUND:                -0.320
REMARK SMILES CCCCCCCCC(=O)[O-]
REMARK SMILES IDX 6 1 7 2 8 3 9 4 10 5 11 6 5 7 4 8 3 9 2 10 1 11
REMARK H PARENT
REMARK Flexibility Score: inf
ROOT
ATOM      1  C   UNL     1      -5.238   8.450  -5.077  1.00  0.00     0.000 C 
ENDROOT
BRANCH   1   2
ATOM      2  C   UNL     1      -6.667   7.888  -5.018  1.00  0.00     0.006 C 
BRANCH   2   3
ATOM      3  C   UNL     1      -6.661   6.362  -5.144  1.00  0.00     0.053 C 
BRANCH   3   4
ATOM      4  C   UNL     1      -7.322   5.938  -6.417  1.00  0.00     0.041 C 
ATOM      5  O   UNL     1      -6.626   5.599  -7.411  1.00  0.00    -0.550 OA
ATOM      6  O   UNL     1      -8.707   5.871  -6.491  1.00  0.00    -0.550 OA
ENDBRANCH   3   4
ENDBRANCH   2   3
ENDBRANCH   1   2
BRANCH   1   7
ATOM      7  C   UNL     1      -5.151   9.903  -4.582  1.00  0.00     0.000 C 
BRANCH   7   8
ATOM      8  C   UNL     1      -4.356  10.033  -3.270  1.00  0.00    -0.000 C 
BRANCH   8   9
ATOM      9  C   UNL     1      -3.125   9.112  -3.234  1.00  0.00    -0.000 C 
BRANCH   9  10
ATOM     10  C   UNL     1      -1.921   9.703  -3.984  1.00  0.00    -0.003 C 
ATOM     11  C   UNL     1      -1.248   8.648  -4.858  1.00  0.00     0.004 C 
ENDBRANCH   9  10
ENDBRANCH   8   9
ENDBRANCH   7   8
ENDBRANCH   1   7
TORSDOF 7
ENDMDL
MODEL 6
REMARK VINA RESULT:    -3.944      3.872      7.096
REMARK INTER + INTRA:          -5.879
REMARK INTER:                  -5.608
REMARK INTRA:                  -0.271
REMARK UNBOUND:                -0.320
REMARK SMILES CCCCCCCCC(=O)[O-]
REMARK SMILES IDX 6 1 7 2 8 3 9 4 10 5 11 6 5 7 4 8 3 9 2 10 1 11
REMARK H PARENT
REMARK Flexibility Score: inf
ROOT
ATOM      1  C   UNL     1       0.252   8.624  -6.428  1.00  0.00     0.000 C 
ENDROOT
BRANCH   1   2
ATOM      2  C   UNL     1      -0.754   9.465  -5.628  1.00  0.00     0.006 C 
BRANCH   2   3
ATOM      3  C   UNL     1      -1.364   8.648  -4.485  1.00  0.00     0.053 C 
BRANCH   3   4
ATOM      4  C   UNL     1      -2.773   9.078  -4.226  1.00  0.00     0.041 C 
ATOM      5  O   UNL     1      -3.205   9.159  -3.045  1.00  0.00    -0.550 OA
ATOM      6  O   UNL     1      -3.595   9.437  -5.286  1.00  0.00    -0.550 OA
ENDBRANCH   3   4
ENDBRANCH   2   3
ENDBRANCH   1   2
BRANCH   1   7
ATOM      7  C   UNL     1       0.748   9.339  -7.696  1.00  0.00     0.000 C 
BRANCH   7   8
ATOM      8  C   UNL     1       1.942   8.620  -8.350  1.00  0.00    -0.000 C 
BRANCH   8   9
ATOM      9  C   UNL     1       2.450   7.437  -7.509  1.00  0.00    -0.000 C 
BRANCH   9  10
ATOM     10  C   UNL     1       3.691   6.767  -8.120  1.00  0.00    -0.003 C 
ATOM     11  C   UNL     1       4.303   7.638  -9.213  1.00  0.00     0.004 C 
ENDBRANCH   9  10
ENDBRANCH   8   9
ENDBRANCH   7   8
ENDBRANCH   1   7
TORSDOF 7
ENDMDL
MODEL 7
REMARK VINA RESULT:    -3.870      2.135      3.630
REMARK INTER + INTRA:          -5.774
REMARK INTER:                  -5.397
REMARK INTRA:                  -0.378
REMARK UNBOUND:                -0.320
REMARK SMILES CCCCCCCCC(=O)[O-]
REMARK SMILES IDX 6 1 7 2 8 3 9 4 10 5 11 6 5 7 4 8 3 9 2 10 1 11
REMARK H PARENT
REMARK Flexibility Score: inf
ROOT
ATOM      1  C   UNL     1      -0.951   8.593  -4.765  1.00  0.00     0.000 C 
ENDROOT
BRANCH   1   2
ATOM      2  C   UNL     1      -1.004   8.696  -6.297  1.00  0.00     0.006 C 
BRANCH   2   3
ATOM      3  C   UNL     1       0.154   9.546  -6.828  1.00  0.00     0.053 C 
BRANCH   3   4
ATOM      4  C   UNL     1       1.125   8.696  -7.585  1.00  0.00     0.041 C 
ATOM      5  O   UNL     1       1.790   7.808  -6.988  1.00  0.00    -0.550 OA
ATOM      6  O   UNL     1       1.261   8.851  -8.958  1.00  0.00    -0.550 OA
ENDBRANCH   3   4
ENDBRANCH   2   3
ENDBRANCH   1   2
BRANCH   1   7
ATOM      7  C   UNL     1      -1.790   9.677  -4.068  1.00  0.00     0.000 C 
BRANCH   7   8
ATOM      8  C   UNL     1      -3.013   9.098  -3.335  1.00  0.00    -0.000 C 
BRANCH   8   9
ATOM      9  C   UNL     1      -4.173  10.103  -3.239  1.00  0.00    -0.000 C 
BRANCH   9  10
ATOM     10  C   UNL     1      -5.147   9.999  -4.423  1.00  0.00    -0.003 C 
ATOM     11  C   UNL     1      -5.194   8.575  -4.971  1.00  0.00     0.004 C 
ENDBRANCH   9  10
ENDBRANCH   8   9
ENDBRANCH   7   8
ENDBRANCH   1   7
TORSDOF 7
ENDMDL
MODEL 8
REMARK VINA RESULT:    -3.697      2.554      4.705
REMARK INTER + INTRA:          -5.530
REMARK INTER:                  -4.891
REMARK INTRA:                  -0.639
REMARK UNBOUND:                -0.320
REMARK SMILES CCCCCCCCC(=O)[O-]
REMARK SMILES IDX 6 1 7 2 8 3 9 4 10 5 11 6 5 7 4 8 3 9 2 10 1 11
REMARK H PARENT
REMARK Flexibility Score: inf
ROOT
ATOM      1  C   UNL     1      -5.523   8.490  -4.870  1.00  0.00     0.000 C 
ENDROOT
BRANCH   1   2
ATOM      2  C   UNL     1      -5.071   8.013  -6.259  1.00  0.00     0.006 C 
BRANCH   2   3
ATOM      3  C   UNL     1      -4.869   6.494  -6.276  1.00  0.00     0.053 C 
BRANCH   3   4
ATOM      4  C   UNL     1      -4.985   5.966  -7.671  1.00  0.00     0.041 C 
ATOM      5  O   UNL     1      -5.787   6.495  -8.485  1.00  0.00    -0.550 OA
ATOM      6  O   UNL     1      -4.171   4.920  -8.087  1.00  0.00    -0.550 OA
ENDBRANCH   3   4
ENDBRANCH   2   3
ENDBRANCH   1   2
BRANCH   1   7
ATOM      7  C   UNL     1      -5.099   9.939  -4.574  1.00  0.00     0.000 C 
BRANCH   7   8
ATOM      8  C   UNL     1      -4.268  10.058  -3.284  1.00  0.00    -0.000 C 
BRANCH   8   9
ATOM      9  C   UNL     1      -3.067   9.098  -3.265  1.00  0.00    -0.000 C 
BRANCH   9  10
ATOM     10  C   UNL     1      -1.923   9.562  -4.180  1.00  0.00    -0.003 C 
ATOM     11  C   UNL     1      -1.502   8.452  -5.139  1.00  0.00     0.004 C 
ENDBRANCH   9  10
ENDBRANCH   8   9
ENDBRANCH   7   8
ENDBRANCH   1   7
TORSDOF 7
ENDMDL
