MODEL 1
REMARK VINA RESULT:    -7.475      0.000      0.000
REMARK INTER + INTRA:          -8.159
REMARK INTER:                  -7.912
REMARK INTRA:                  -0.248
REMARK UNBOUND:                -0.248
REMARK SMILES O=c1cc(-c2ccccc2)oc2ccccc12
REMARK SMILES IDX 4 1 3 2 2 3 1 4 17 5 16 6 15 7 14 8 13 9 12 10 11 11 5 12
REMARK SMILES IDX 8 13 7 14 9 15 6 16 10 17
REMARK H PARENT
REMARK Flexibility Score: inf
ROOT
ATOM      1  C   UNL     1      52.731  59.433   3.361  1.00  0.00     0.138 A 
ATOM      2  C   UNL     1      51.432  59.512   2.817  1.00  0.00     0.100 A 
ATOM      3  C   UNL     1      51.226  59.182   1.476  1.00  0.00     0.193 A 
ATOM      4  O   UNL     1      50.064  59.253   0.989  1.00  0.00    -0.289 OA
ATOM      5  C   UNL     1      52.314  58.780   0.689  1.00  0.00     0.065 A 
ATOM      6  C   UNL     1      52.175  58.435  -0.668  1.00  0.00     0.016 A 
ATOM      7  C   UNL     1      53.294  58.039  -1.408  1.00  0.00     0.001 A 
ATOM      8  C   UNL     1      54.552  57.984  -0.802  1.00  0.00     0.004 A 
ATOM      9  C   UNL     1      54.699  58.324   0.545  1.00  0.00     0.048 A 
ATOM     10  C   UNL     1      53.586  58.722   1.294  1.00  0.00     0.138 A 
ATOM     11  O   UNL     1      53.736  59.044   2.575  1.00  0.00    -0.456 OA
ENDROOT
BRANCH   1  12
ATOM     12  C   UNL     1      53.038  59.767   4.786  1.00  0.00     0.017 A 
ATOM     13  C   UNL     1      53.676  60.318   7.480  1.00  0.00     0.000 A 
ATOM     14  C   UNL     1      52.800  61.152   6.785  1.00  0.00     0.001 A 
ATOM     15  C   UNL     1      54.236  59.211   6.842  1.00  0.00     0.001 A 
ATOM     16  C   UNL     1      52.480  60.883   5.450  1.00  0.00     0.012 A 
ATOM     17  C   UNL     1      53.921  58.936   5.509  1.00  0.00     0.012 A 
ENDBRANCH   1  12
TORSDOF 1
ENDMDL
MODEL 2
REMARK VINA RESULT:    -7.442      1.663      6.196
REMARK INTER + INTRA:          -8.125
REMARK INTER:                  -7.879
REMARK INTRA:                  -0.246
REMARK UNBOUND:                -0.248
REMARK SMILES O=c1cc(-c2ccccc2)oc2ccccc12
REMARK SMILES IDX 4 1 3 2 2 3 1 4 17 5 16 6 15 7 14 8 13 9 12 10 11 11 5 12
REMARK SMILES IDX 8 13 7 14 9 15 6 16 10 17
REMARK H PARENT
REMARK Flexibility Score: inf
ROOT
ATOM      1  C   UNL     1      52.968  59.705   4.050  1.00  0.00     0.138 A 
ATOM      2  C   UNL     1      52.441  60.868   4.650  1.00  0.00     0.100 A 
ATOM      3  C   UNL     1      52.725  61.141   5.989  1.00  0.00     0.193 A 
ATOM      4  O   UNL     1      52.253  62.180   6.526  1.00  0.00    -0.289 OA
ATOM      5  C   UNL     1      53.529  60.254   6.719  1.00  0.00     0.065 A 
ATOM      6  C   UNL     1      53.853  60.470   8.071  1.00  0.00     0.016 A 
ATOM      7  C   UNL     1      54.661  59.553   8.752  1.00  0.00     0.001 A 
ATOM      8  C   UNL     1      55.149  58.422   8.093  1.00  0.00     0.004 A 
ATOM      9  C   UNL     1      54.832  58.200   6.750  1.00  0.00     0.048 A 
ATOM     10  C   UNL     1      54.025  59.110   6.059  1.00  0.00     0.138 A 
ATOM     11  O   UNL     1      53.729  58.891   4.782  1.00  0.00    -0.456 OA
ENDROOT
BRANCH   1  12
ATOM     12  C   UNL     1      52.713  59.339   2.623  1.00  0.00     0.017 A 
ATOM     13  C   UNL     1      52.137  58.672  -0.059  1.00  0.00     0.000 A 
ATOM     14  C   UNL     1      53.434  58.529   0.433  1.00  0.00     0.001 A 
ATOM     15  C   UNL     1      51.125  59.144   0.776  1.00  0.00     0.001 A 
ATOM     16  C   UNL     1      53.725  58.858   1.761  1.00  0.00     0.012 A 
ATOM     17  C   UNL     1      51.408  59.475   2.104  1.00  0.00     0.012 A 
ENDBRANCH   1  12
TORSDOF 1
ENDMDL
MODEL 3
REMARK VINA RESULT:    -7.438      7.986     10.216
REMARK INTER + INTRA:          -8.120
REMARK INTER:                  -7.885
REMARK INTRA:                  -0.235
REMARK UNBOUND:                -0.248
REMARK SMILES O=c1cc(-c2ccccc2)oc2ccccc12
REMARK SMILES IDX 4 1 3 2 2 3 1 4 17 5 16 6 15 7 14 8 13 9 12 10 11 11 5 12
REMARK SMILES IDX 8 13 7 14 9 15 6 16 10 17
REMARK H PARENT
REMARK Flexibility Score: inf
ROOT
ATOM      1  C   UNL     1      46.371  64.454   2.867  1.00  0.00     0.138 A 
ATOM      2  C   UNL     1      44.978  64.235   2.889  1.00  0.00     0.100 A 
ATOM      3  C   UNL     1      44.127  65.254   3.321  1.00  0.00     0.193 A 
ATOM      4  O   UNL     1      42.881  65.058   3.341  1.00  0.00    -0.289 OA
ATOM      5  C   UNL     1      44.670  66.480   3.729  1.00  0.00     0.065 A 
ATOM      6  C   UNL     1      43.869  67.547   4.176  1.00  0.00     0.016 A 
ATOM      7  C   UNL     1      44.463  68.751   4.571  1.00  0.00     0.001 A 
ATOM      8  C   UNL     1      45.852  68.897   4.523  1.00  0.00     0.004 A 
ATOM      9  C   UNL     1      46.655  67.842   4.081  1.00  0.00     0.048 A 
ATOM     10  C   UNL     1      46.071  66.634   3.684  1.00  0.00     0.138 A 
ATOM     11  O   UNL     1      46.843  65.637   3.264  1.00  0.00    -0.456 OA
ENDROOT
BRANCH   1  12
ATOM     12  C   UNL     1      47.351  63.417   2.419  1.00  0.00     0.017 A 
ATOM     13  C   UNL     1      49.233  61.523   1.503  1.00  0.00     0.000 A 
ATOM     14  C   UNL     1      48.392  61.212   2.572  1.00  0.00     0.001 A 
ATOM     15  C   UNL     1      49.142  62.771   0.888  1.00  0.00     0.001 A 
ATOM     16  C   UNL     1      47.458  62.147   3.029  1.00  0.00     0.012 A 
ATOM     17  C   UNL     1      48.211  63.710   1.339  1.00  0.00     0.012 A 
ENDBRANCH   1  12
TORSDOF 1
ENDMDL
MODEL 4
REMARK VINA RESULT:    -7.285      0.982      1.712
REMARK INTER + INTRA:          -7.958
REMARK INTER:                  -7.709
REMARK INTRA:                  -0.250
REMARK UNBOUND:                -0.248
REMARK SMILES O=c1cc(-c2ccccc2)oc2ccccc12
REMARK SMILES IDX 4 1 3 2 2 3 1 4 17 5 16 6 15 7 14 8 13 9 12 10 11 11 5 12
REMARK SMILES IDX 8 13 7 14 9 15 6 16 10 17
REMARK H PARENT
REMARK Flexibility Score: inf
ROOT
ATOM      1  C   UNL     1      53.059  59.398   4.223  1.00  0.00     0.138 A 
ATOM      2  C   UNL     1      51.760  59.888   3.975  1.00  0.00     0.100 A 
ATOM      3  C   UNL     1      51.269  59.909   2.668  1.00  0.00     0.193 A 
ATOM      4  O   UNL     1      50.108  60.348   2.446  1.00  0.00    -0.289 OA
ATOM      5  C   UNL     1      52.076  59.443   1.621  1.00  0.00     0.065 A 
ATOM      6  C   UNL     1      51.643  59.437   0.282  1.00  0.00     0.016 A 
ATOM      7  C   UNL     1      52.488  58.960  -0.725  1.00  0.00     0.001 A 
ATOM      8  C   UNL     1      53.764  58.488  -0.406  1.00  0.00     0.004 A 
ATOM      9  C   UNL     1      54.203  58.491   0.921  1.00  0.00     0.048 A 
ATOM     10  C   UNL     1      53.365  58.966   1.936  1.00  0.00     0.138 A 
ATOM     11  O   UNL     1      53.791  58.964   3.195  1.00  0.00    -0.456 OA
ENDROOT
BRANCH   1  12
ATOM     12  C   UNL     1      53.660  59.341   5.591  1.00  0.00     0.017 A 
ATOM     13  C   UNL     1      54.753  59.320   8.194  1.00  0.00     0.000 A 
ATOM     14  C   UNL     1      55.010  58.264   7.320  1.00  0.00     0.001 A 
ATOM     15  C   UNL     1      53.955  60.387   7.780  1.00  0.00     0.001 A 
ATOM     16  C   UNL     1      54.472  58.269   6.029  1.00  0.00     0.012 A 
ATOM     17  C   UNL     1      53.414  60.399   6.492  1.00  0.00     0.012 A 
ENDBRANCH   1  12
TORSDOF 1
ENDMDL
MODEL 5
REMARK VINA RESULT:    -7.267      7.669      9.026
REMARK INTER + INTRA:          -7.939
REMARK INTER:                  -7.689
REMARK INTRA:                  -0.251
REMARK UNBOUND:                -0.248
REMARK SMILES O=c1cc(-c2ccccc2)oc2ccccc12
REMARK SMILES IDX 4 1 3 2 2 3 1 4 17 5 16 6 15 7 14 8 13 9 12 10 11 11 5 12
REMARK SMILES IDX 8 13 7 14 9 15 6 16 10 17
REMARK H PARENT
REMARK Flexibility Score: inf
ROOT
ATOM      1  C   UNL     1      46.273  65.248   3.338  1.00  0.00     0.138 A 
ATOM      2  C   UNL     1      45.782  63.975   3.696  1.00  0.00     0.100 A 
ATOM      3  C   UNL     1      46.446  62.830   3.251  1.00  0.00     0.193 A 
ATOM      4  O   UNL     1      46.006  61.692   3.570  1.00  0.00    -0.289 OA
ATOM      5  C   UNL     1      47.591  62.963   2.453  1.00  0.00     0.065 A 
ATOM      6  C   UNL     1      48.306  61.850   1.972  1.00  0.00     0.016 A 
ATOM      7  C   UNL     1      49.444  62.039   1.180  1.00  0.00     0.001 A 
ATOM      8  C   UNL     1      49.873  63.331   0.865  1.00  0.00     0.004 A 
ATOM      9  C   UNL     1      49.169  64.441   1.339  1.00  0.00     0.048 A 
ATOM     10  C   UNL     1      48.030  64.264   2.132  1.00  0.00     0.138 A 
ATOM     11  O   UNL     1      47.367  65.326   2.578  1.00  0.00    -0.456 OA
ENDROOT
BRANCH   1  12
ATOM     12  C   UNL     1      45.624  66.523   3.772  1.00  0.00     0.017 A 
ATOM     13  C   UNL     1      44.486  68.970   4.602  1.00  0.00     0.000 A 
ATOM     14  C   UNL     1      43.663  67.894   4.269  1.00  0.00     0.001 A 
ATOM     15  C   UNL     1      45.872  68.834   4.524  1.00  0.00     0.001 A 
ATOM     16  C   UNL     1      44.221  66.680   3.858  1.00  0.00     0.012 A 
ATOM     17  C   UNL     1      46.437  67.624   4.114  1.00  0.00     0.012 A 
ENDBRANCH   1  12
TORSDOF 1
ENDMDL
MODEL 6
REMARK VINA RESULT:    -7.154      1.230      5.878
REMARK INTER + INTRA:          -7.820
REMARK INTER:                  -7.566
REMARK INTRA:                  -0.255
REMARK UNBOUND:                -0.248
REMARK SMILES O=c1cc(-c2ccccc2)oc2ccccc12
REMARK SMILES IDX 4 1 3 2 2 3 1 4 17 5 16 6 15 7 14 8 13 9 12 10 11 11 5 12
REMARK SMILES IDX 8 13 7 14 9 15 6 16 10 17
REMARK H PARENT
REMARK Flexibility Score: inf
ROOT
ATOM      1  C   UNL     1      53.003  59.258   2.593  1.00  0.00     0.138 A 
ATOM      2  C   UNL     1      51.892  60.110   2.768  1.00  0.00     0.100 A 
ATOM      3  C   UNL     1      51.559  60.552   4.050  1.00  0.00     0.193 A 
ATOM      4  O   UNL     1      50.565  61.313   4.207  1.00  0.00    -0.289 OA
ATOM      5  C   UNL     1      52.332  60.141   5.145  1.00  0.00     0.065 A 
ATOM      6  C   UNL     1      52.049  60.549   6.462  1.00  0.00     0.016 A 
ATOM      7  C   UNL     1      52.854  60.110   7.518  1.00  0.00     0.001 A 
ATOM      8  C   UNL     1      53.940  59.267   7.270  1.00  0.00     0.004 A 
ATOM      9  C   UNL     1      54.228  58.856   5.966  1.00  0.00     0.048 A 
ATOM     10  C   UNL     1      53.429  59.289   4.901  1.00  0.00     0.138 A 
ATOM     11  O   UNL     1      53.711  58.894   3.664  1.00  0.00    -0.456 OA
ENDROOT
BRANCH   1  12
ATOM     12  C   UNL     1      53.429  58.740   1.257  1.00  0.00     0.017 A 
ATOM     13  C   UNL     1      54.138  57.764  -1.296  1.00  0.00     0.000 A 
ATOM     14  C   UNL     1      55.122  57.977  -0.331  1.00  0.00     0.001 A 
ATOM     15  C   UNL     1      52.803  58.033  -0.997  1.00  0.00     0.001 A 
ATOM     16  C   UNL     1      54.777  58.460   0.935  1.00  0.00     0.012 A 
ATOM     17  C   UNL     1      52.449  58.516   0.266  1.00  0.00     0.012 A 
ENDBRANCH   1  12
TORSDOF 1
ENDMDL
MODEL 7
REMARK VINA RESULT:    -6.974      4.642      6.690
REMARK INTER + INTRA:          -7.629
REMARK INTER:                  -7.408
REMARK INTRA:                  -0.221
REMARK UNBOUND:                -0.248
REMARK SMILES O=c1cc(-c2ccccc2)oc2ccccc12
REMARK SMILES IDX 4 1 3 2 2 3 1 4 17 5 16 6 15 7 14 8 13 9 12 10 11 11 5 12
REMARK SMILES IDX 8 13 7 14 9 15 6 16 10 17
REMARK H PARENT
REMARK Flexibility Score: inf
ROOT
ATOM      1  C   UNL     1      51.414  61.053   6.943  1.00  0.00     0.138 A 
ATOM      2  C   UNL     1      51.854  61.545   8.190  1.00  0.00     0.100 A 
ATOM      3  C   UNL     1      52.984  60.987   8.791  1.00  0.00     0.193 A 
ATOM      4  O   UNL     1      53.377  61.427   9.906  1.00  0.00    -0.289 OA
ATOM      5  C   UNL     1      53.664  59.945   8.146  1.00  0.00     0.065 A 
ATOM      6  C   UNL     1      54.808  59.338   8.698  1.00  0.00     0.016 A 
ATOM      7  C   UNL     1      55.450  58.301   8.012  1.00  0.00     0.001 A 
ATOM      8  C   UNL     1      54.958  57.865   6.779  1.00  0.00     0.004 A 
ATOM      9  C   UNL     1      53.822  58.461   6.225  1.00  0.00     0.048 A 
ATOM     10  C   UNL     1      53.172  59.499   6.902  1.00  0.00     0.138 A 
ATOM     11  O   UNL     1      52.093  60.060   6.367  1.00  0.00    -0.456 OA
ENDROOT
BRANCH   1  12
ATOM     12  C   UNL     1      50.215  61.594   6.232  1.00  0.00     0.017 A 
ATOM     13  C   UNL     1      47.894  62.557   4.944  1.00  0.00     0.000 A 
ATOM     14  C   UNL     1      49.151  63.034   4.570  1.00  0.00     0.001 A 
ATOM     15  C   UNL     1      47.787  61.604   5.956  1.00  0.00     0.001 A 
ATOM     16  C   UNL     1      50.303  62.561   5.204  1.00  0.00     0.012 A 
ATOM     17  C   UNL     1      48.934  61.125   6.594  1.00  0.00     0.012 A 
ENDBRANCH   1  12
TORSDOF 1
ENDMDL
MODEL 8
REMARK VINA RESULT:    -6.916      4.612      7.866
REMARK INTER + INTRA:          -7.568
REMARK INTER:                  -7.309
REMARK INTRA:                  -0.259
REMARK UNBOUND:                -0.248
REMARK SMILES O=c1cc(-c2ccccc2)oc2ccccc12
REMARK SMILES IDX 4 1 3 2 2 3 1 4 17 5 16 6 15 7 14 8 13 9 12 10 11 11 5 12
REMARK SMILES IDX 8 13 7 14 9 15 6 16 10 17
REMARK H PARENT
REMARK Flexibility Score: inf
ROOT
ATOM      1  C   UNL     1      54.173  61.680  -2.857  1.00  0.00     0.138 A 
ATOM      2  C   UNL     1      53.377  62.621  -2.173  1.00  0.00     0.100 A 
ATOM      3  C   UNL     1      52.570  62.201  -1.114  1.00  0.00     0.193 A 
ATOM      4  O   UNL     1      51.857  63.043  -0.502  1.00  0.00    -0.289 OA
ATOM      5  C   UNL     1      52.563  60.848  -0.747  1.00  0.00     0.065 A 
ATOM      6  C   UNL     1      51.773  60.359   0.310  1.00  0.00     0.016 A 
ATOM      7  C   UNL     1      51.804  58.998   0.635  1.00  0.00     0.001 A 
ATOM      8  C   UNL     1      52.619  58.122  -0.087  1.00  0.00     0.004 A 
ATOM      9  C   UNL     1      53.406  58.599  -1.138  1.00  0.00     0.048 A 
ATOM     10  C   UNL     1      53.382  59.958  -1.472  1.00  0.00     0.138 A 
ATOM     11  O   UNL     1      54.135  60.403  -2.473  1.00  0.00    -0.456 OA
ENDROOT
BRANCH   1  12
ATOM     12  C   UNL     1      55.064  62.046  -4.001  1.00  0.00     0.017 A 
ATOM     13  C   UNL     1      56.751  62.829  -6.125  1.00  0.00     0.000 A 
ATOM     14  C   UNL     1      56.285  61.517  -6.050  1.00  0.00     0.001 A 
ATOM     15  C   UNL     1      56.383  63.754  -5.148  1.00  0.00     0.001 A 
ATOM     16  C   UNL     1      55.449  61.124  -5.001  1.00  0.00     0.012 A 
ATOM     17  C   UNL     1      55.547  63.369  -4.096  1.00  0.00     0.012 A 
ENDBRANCH   1  12
TORSDOF 1
ENDMDL
MODEL 9
REMARK VINA RESULT:    -6.877      3.518      4.636
REMARK INTER + INTRA:          -7.527
REMARK INTER:                  -7.304
REMARK INTRA:                  -0.223
REMARK UNBOUND:                -0.248
REMARK SMILES O=c1cc(-c2ccccc2)oc2ccccc12
REMARK SMILES IDX 4 1 3 2 2 3 1 4 17 5 16 6 15 7 14 8 13 9 12 10 11 11 5 12
REMARK SMILES IDX 8 13 7 14 9 15 6 16 10 17
REMARK H PARENT
REMARK Flexibility Score: inf
ROOT
ATOM      1  C   UNL     1      50.974  60.269   0.158  1.00  0.00     0.138 A 
ATOM      2  C   UNL     1      50.718  59.718  -1.116  1.00  0.00     0.100 A 
ATOM      3  C   UNL     1      51.676  58.900  -1.717  1.00  0.00     0.193 A 
ATOM      4  O   UNL     1      51.448  58.407  -2.856  1.00  0.00    -0.289 OA
ATOM      5  C   UNL     1      52.880  58.640  -1.047  1.00  0.00     0.065 A 
ATOM      6  C   UNL     1      53.887  57.825  -1.597  1.00  0.00     0.016 A 
ATOM      7  C   UNL     1      55.070  57.597  -0.885  1.00  0.00     0.001 A 
ATOM      8  C   UNL     1      55.254  58.176   0.373  1.00  0.00     0.004 A 
ATOM      9  C   UNL     1      54.260  58.986   0.927  1.00  0.00     0.048 A 
ATOM     10  C   UNL     1      53.073  59.221   0.223  1.00  0.00     0.138 A 
ATOM     11  O   UNL     1      52.133  59.993   0.758  1.00  0.00    -0.456 OA
ENDROOT
BRANCH   1  12
ATOM     12  C   UNL     1      50.002  61.154   0.871  1.00  0.00     0.017 A 
ATOM     13  C   UNL     1      48.192  62.897   2.157  1.00  0.00     0.000 A 
ATOM     14  C   UNL     1      48.341  61.586   2.610  1.00  0.00     0.001 A 
ATOM     15  C   UNL     1      48.939  63.344   1.068  1.00  0.00     0.001 A 
ATOM     16  C   UNL     1      49.237  60.719   1.977  1.00  0.00     0.012 A 
ATOM     17  C   UNL     1      49.836  62.484   0.430  1.00  0.00     0.012 A 
ENDBRANCH   1  12
TORSDOF 1
ENDMDL
