MODEL 1
REMARK VINA RESULT:    -2.573      0.000      0.000
REMARK INTER + INTRA:          -2.392
REMARK INTER:                  -2.874
REMARK INTRA:                   0.482
REMARK UNBOUND:                 0.482
REMARK SMILES O=C([O-])c1ccccc1C(=O)[O-]
REMARK SMILES IDX 4 1 9 2 5 3 8 4 6 5 7 6 2 7 1 8 3 9 10 10 11 11 12 12
REMARK H PARENT
REMARK Flexibility Score: inf
ROOT
ATOM      1  C   UNL     1      35.374 106.703 265.736  1.00  0.00     0.006 A 
ATOM      2  C   UNL     1      35.120 105.606 266.606  1.00  0.00     0.006 A 
ATOM      3  C   UNL     1      35.338 108.010 266.255  1.00  0.00     0.010 A 
ATOM      4  C   UNL     1      34.905 105.854 267.974  1.00  0.00     0.010 A 
ATOM      5  C   UNL     1      35.102 108.234 267.612  1.00  0.00     0.001 A 
ATOM      6  C   UNL     1      34.897 107.158 268.472  1.00  0.00     0.001 A 
ENDROOT
BRANCH   1   7
ATOM      7  C   UNL     1      35.744 106.535 264.311  1.00  0.00     0.072 C 
ATOM      8  O   UNL     1      34.907 106.755 263.398  1.00  0.00    -0.545 OA
ATOM      9  O   UNL     1      37.007 106.066 263.971  1.00  0.00    -0.545 OA
ENDBRANCH   1   7
BRANCH   2  10
ATOM     10  C   UNL     1      35.000 104.208 266.131  1.00  0.00     0.072 C 
ATOM     11  O   UNL     1      34.875 103.953 264.903  1.00  0.00    -0.545 OA
ATOM     12  O   UNL     1      34.957 103.162 267.045  1.00  0.00    -0.545 OA
ENDBRANCH   2  10
TORSDOF 2
ENDMDL
MODEL 2
REMARK VINA RESULT:    -2.507      1.847      2.882
REMARK INTER + INTRA:          -2.318
REMARK INTER:                  -3.484
REMARK INTRA:                   1.167
REMARK UNBOUND:                 0.482
REMARK SMILES O=C([O-])c1ccccc1C(=O)[O-]
REMARK SMILES IDX 4 1 9 2 5 3 8 4 6 5 7 6 2 7 1 8 3 9 10 10 11 11 12 12
REMARK H PARENT
REMARK Flexibility Score: inf
ROOT
ATOM      1  C   UNL     1      35.259 106.813 267.390  1.00  0.00     0.006 A 
ATOM      2  C   UNL     1      35.041 105.623 266.641  1.00  0.00     0.006 A 
ATOM      3  C   UNL     1      35.238 106.750 268.795  1.00  0.00     0.010 A 
ATOM      4  C   UNL     1      34.876 104.405 267.325  1.00  0.00     0.010 A 
ATOM      5  C   UNL     1      35.051 105.534 269.453  1.00  0.00     0.001 A 
ATOM      6  C   UNL     1      34.882 104.362 268.720  1.00  0.00     0.001 A 
ENDROOT
BRANCH   1   7
ATOM      7  C   UNL     1      35.577 108.117 266.762  1.00  0.00     0.072 C 
ATOM      8  O   UNL     1      36.521 108.220 265.935  1.00  0.00    -0.545 OA
ATOM      9  O   UNL     1      34.875 109.258 267.131  1.00  0.00    -0.545 OA
ENDBRANCH   1   7
BRANCH   2  10
ATOM     10  C   UNL     1      34.908 105.610 265.166  1.00  0.00     0.072 C 
ATOM     11  O   UNL     1      34.882 104.523 264.529  1.00  0.00    -0.545 OA
ATOM     12  O   UNL     1      34.880 106.807 264.458  1.00  0.00    -0.545 OA
ENDBRANCH   2  10
TORSDOF 2
ENDMDL
MODEL 3
REMARK VINA RESULT:    -2.377      0.231      2.965
REMARK INTER + INTRA:          -2.173
REMARK INTER:                  -3.185
REMARK INTRA:                   1.012
REMARK UNBOUND:                 0.482
REMARK SMILES O=C([O-])c1ccccc1C(=O)[O-]
REMARK SMILES IDX 4 1 9 2 5 3 8 4 6 5 7 6 2 7 1 8 3 9 10 10 11 11 12 12
REMARK H PARENT
REMARK Flexibility Score: inf
ROOT
ATOM      1  C   UNL     1      35.113 105.523 266.597  1.00  0.00     0.006 A 
ATOM      2  C   UNL     1      35.257 106.635 265.720  1.00  0.00     0.006 A 
ATOM      3  C   UNL     1      34.945 105.757 267.974  1.00  0.00     0.010 A 
ATOM      4  C   UNL     1      35.163 107.937 266.244  1.00  0.00     0.010 A 
ATOM      5  C   UNL     1      34.876 107.057 268.475  1.00  0.00     0.001 A 
ATOM      6  C   UNL     1      34.973 108.145 267.611  1.00  0.00     0.001 A 
ENDROOT
BRANCH   1   7
ATOM      7  C   UNL     1      35.061 104.121 266.122  1.00  0.00     0.072 C 
ATOM      8  O   UNL     1      34.875 103.859 264.905  1.00  0.00    -0.545 OA
ATOM      9  O   UNL     1      35.152 103.074 267.032  1.00  0.00    -0.545 OA
ENDBRANCH   1   7
BRANCH   2  10
ATOM     10  C   UNL     1      35.573 106.491 264.280  1.00  0.00     0.072 C 
ATOM     11  O   UNL     1      34.875 107.070 263.405  1.00  0.00    -0.545 OA
ATOM     12  O   UNL     1      36.608 105.656 263.873  1.00  0.00    -0.545 OA
ENDBRANCH   2  10
TORSDOF 2
ENDMDL
MODEL 4
REMARK VINA RESULT:    -2.105      2.077      3.339
REMARK INTER + INTRA:          -1.869
REMARK INTER:                  -4.476
REMARK INTRA:                   2.607
REMARK UNBOUND:                 0.482
REMARK SMILES O=C([O-])c1ccccc1C(=O)[O-]
REMARK SMILES IDX 4 1 9 2 5 3 8 4 6 5 7 6 2 7 1 8 3 9 10 10 11 11 12 12
REMARK H PARENT
REMARK Flexibility Score: inf
ROOT
ATOM      1  C   UNL     1      35.249 106.565 265.787  1.00  0.00     0.006 A 
ATOM      2  C   UNL     1      34.998 105.220 266.177  1.00  0.00     0.006 A 
ATOM      3  C   UNL     1      35.446 106.856 264.425  1.00  0.00     0.010 A 
ATOM      4  C   UNL     1      34.889 104.229 265.184  1.00  0.00     0.010 A 
ATOM      5  C   UNL     1      35.356 105.854 263.459  1.00  0.00     0.001 A 
ATOM      6  C   UNL     1      35.066 104.545 263.836  1.00  0.00     0.001 A 
ENDROOT
BRANCH   1   7
ATOM      7  C   UNL     1      35.246 107.697 266.742  1.00  0.00     0.072 C 
ATOM      8  O   UNL     1      35.509 107.514 267.960  1.00  0.00    -0.545 OA
ATOM      9  O   UNL     1      34.884 108.969 266.314  1.00  0.00    -0.545 OA
ENDBRANCH   1   7
BRANCH   2  10
ATOM     10  C   UNL     1      34.912 104.792 267.592  1.00  0.00     0.072 C 
ATOM     11  O   UNL     1      34.916 105.640 268.524  1.00  0.00    -0.545 OA
ATOM     12  O   UNL     1      34.895 103.439 267.912  1.00  0.00    -0.545 OA
ENDBRANCH   2  10
TORSDOF 2
ENDMDL
MODEL 5
REMARK VINA RESULT:    -1.698      1.938      3.116
REMARK INTER + INTRA:          -1.415
REMARK INTER:                  -2.278
REMARK INTRA:                   0.863
REMARK UNBOUND:                 0.482
REMARK SMILES O=C([O-])c1ccccc1C(=O)[O-]
REMARK SMILES IDX 4 1 9 2 5 3 8 4 6 5 7 6 2 7 1 8 3 9 10 10 11 11 12 12
REMARK H PARENT
REMARK Flexibility Score: inf
ROOT
ATOM      1  C   UNL     1      35.514 105.469 265.153  1.00  0.00     0.006 A 
ATOM      2  C   UNL     1      35.219 106.024 266.430  1.00  0.00     0.006 A 
ATOM      3  C   UNL     1      35.528 104.070 265.003  1.00  0.00     0.010 A 
ATOM      4  C   UNL     1      34.886 105.162 267.490  1.00  0.00     0.010 A 
ATOM      5  C   UNL     1      35.216 103.233 266.075  1.00  0.00     0.001 A 
ATOM      6  C   UNL     1      34.884 103.778 267.312  1.00  0.00     0.001 A 
ENDROOT
BRANCH   1   7
ATOM      7  C   UNL     1      35.742 106.295 263.945  1.00  0.00     0.072 C 
ATOM      8  O   UNL     1      34.876 107.121 263.556  1.00  0.00    -0.545 OA
ATOM      9  O   UNL     1      36.894 106.118 263.188  1.00  0.00    -0.545 OA
ENDBRANCH   1   7
BRANCH   2  10
ATOM     10  C   UNL     1      35.313 107.473 266.721  1.00  0.00     0.072 C 
ATOM     11  O   UNL     1      34.875 108.326 265.903  1.00  0.00    -0.545 OA
ATOM     12  O   UNL     1      35.950 107.913 267.876  1.00  0.00    -0.545 OA
ENDBRANCH   2  10
TORSDOF 2
ENDMDL
MODEL 6
REMARK VINA RESULT:    -1.672      1.677      3.450
REMARK INTER + INTRA:          -1.386
REMARK INTER:                  -4.172
REMARK INTRA:                   2.787
REMARK UNBOUND:                 0.482
REMARK SMILES O=C([O-])c1ccccc1C(=O)[O-]
REMARK SMILES IDX 4 1 9 2 5 3 8 4 6 5 7 6 2 7 1 8 3 9 10 10 11 11 12 12
REMARK H PARENT
REMARK Flexibility Score: inf
ROOT
ATOM      1  C   UNL     1      35.081 106.667 267.856  1.00  0.00     0.006 A 
ATOM      2  C   UNL     1      34.999 106.083 266.560  1.00  0.00     0.006 A 
ATOM      3  C   UNL     1      35.102 108.069 267.973  1.00  0.00     0.010 A 
ATOM      4  C   UNL     1      34.875 106.922 265.438  1.00  0.00     0.010 A 
ATOM      5  C   UNL     1      35.000 108.883 266.844  1.00  0.00     0.001 A 
ATOM      6  C   UNL     1      34.875 108.311 265.581  1.00  0.00     0.001 A 
ENDROOT
BRANCH   1   7
ATOM      7  C   UNL     1      35.077 105.869 269.103  1.00  0.00     0.072 C 
ATOM      8  O   UNL     1      35.185 104.615 269.067  1.00  0.00    -0.545 OA
ATOM      9  O   UNL     1      34.886 106.495 270.329  1.00  0.00    -0.545 OA
ENDBRANCH   1   7
BRANCH   2  10
ATOM     10  C   UNL     1      35.107 104.625 266.324  1.00  0.00     0.072 C 
ATOM     11  O   UNL     1      34.945 103.804 267.266  1.00  0.00    -0.545 OA
ATOM     12  O   UNL     1      35.457 104.147 265.066  1.00  0.00    -0.545 OA
ENDBRANCH   2  10
TORSDOF 2
ENDMDL
MODEL 7
REMARK VINA RESULT:    -1.641      1.658      3.197
REMARK INTER + INTRA:          -1.351
REMARK INTER:                  -3.823
REMARK INTRA:                   2.471
REMARK UNBOUND:                 0.482
REMARK SMILES O=C([O-])c1ccccc1C(=O)[O-]
REMARK SMILES IDX 4 1 9 2 5 3 8 4 6 5 7 6 2 7 1 8 3 9 10 10 11 11 12 12
REMARK H PARENT
REMARK Flexibility Score: inf
ROOT
ATOM      1  C   UNL     1      35.080 105.502 266.414  1.00  0.00     0.006 A 
ATOM      2  C   UNL     1      35.053 106.292 267.598  1.00  0.00     0.006 A 
ATOM      3  C   UNL     1      34.967 106.140 265.165  1.00  0.00     0.010 A 
ATOM      4  C   UNL     1      34.982 107.692 267.484  1.00  0.00     0.010 A 
ATOM      5  C   UNL     1      34.875 107.529 265.077  1.00  0.00     0.001 A 
ATOM      6  C   UNL     1      34.894 108.305 266.233  1.00  0.00     0.001 A 
ENDROOT
BRANCH   1   7
ATOM      7  C   UNL     1      35.289 104.036 266.425  1.00  0.00     0.072 C 
ATOM      8  O   UNL     1      34.885 103.335 267.390  1.00  0.00    -0.545 OA
ATOM      9  O   UNL     1      35.997 103.426 265.397  1.00  0.00    -0.545 OA
ENDBRANCH   1   7
BRANCH   2  10
ATOM     10  C   UNL     1      35.028 105.707 268.958  1.00  0.00     0.072 C 
ATOM     11  O   UNL     1      35.079 104.459 269.125  1.00  0.00    -0.545 OA
ATOM     12  O   UNL     1      34.878 106.531 270.069  1.00  0.00    -0.545 OA
ENDBRANCH   2  10
TORSDOF 2
ENDMDL
MODEL 8
REMARK VINA RESULT:    -1.320      2.372      3.498
REMARK INTER + INTRA:          -0.992
REMARK INTER:                  -3.793
REMARK INTRA:                   2.801
REMARK UNBOUND:                 0.482
REMARK SMILES O=C([O-])c1ccccc1C(=O)[O-]
REMARK SMILES IDX 4 1 9 2 5 3 8 4 6 5 7 6 2 7 1 8 3 9 10 10 11 11 12 12
REMARK H PARENT
REMARK Flexibility Score: inf
ROOT
ATOM      1  C   UNL     1      35.108 106.233 266.361  1.00  0.00     0.006 A 
ATOM      2  C   UNL     1      35.012 105.368 267.487  1.00  0.00     0.006 A 
ATOM      3  C   UNL     1      35.133 105.674 265.070  1.00  0.00     0.010 A 
ATOM      4  C   UNL     1      34.879 103.984 267.277  1.00  0.00     0.010 A 
ATOM      5  C   UNL     1      35.022 104.296 264.886  1.00  0.00     0.001 A 
ATOM      6  C   UNL     1      34.883 103.453 265.986  1.00  0.00     0.001 A 
ENDROOT
BRANCH   1   7
ATOM      7  C   UNL     1      35.114 107.710 266.475  1.00  0.00     0.072 C 
ATOM      8  O   UNL     1      34.878 108.434 265.473  1.00  0.00    -0.545 OA
ATOM      9  O   UNL     1      35.449 108.315 267.681  1.00  0.00    -0.545 OA
ENDBRANCH   1   7
BRANCH   2  10
ATOM     10  C   UNL     1      35.115 105.848 268.885  1.00  0.00     0.072 C 
ATOM     11  O   UNL     1      35.354 105.047 269.827  1.00  0.00    -0.545 OA
ATOM     12  O   UNL     1      34.879 107.186 269.181  1.00  0.00    -0.545 OA
ENDBRANCH   2  10
TORSDOF 2
ENDMDL
