MODEL 1
REMARK VINA RESULT:    -4.923      0.000      0.000
REMARK INTER + INTRA:          -5.388
REMARK INTER:                  -5.355
REMARK INTRA:                  -0.034
REMARK UNBOUND:                -0.034
REMARK SMILES O=C([O-])c1ccc(O)cc1
REMARK SMILES IDX 4 1 5 2 10 3 6 4 9 5 7 6 2 7 1 8 3 9 8 10
REMARK H PARENT 8 11
REMARK Flexibility Score: inf
ROOT
ATOM      1  C   UNL     1     -37.789  -7.846 -14.084  1.00  0.00    -0.003 A 
ATOM      2  C   UNL     1     -38.541  -6.657 -14.066  1.00  0.00     0.014 A 
ATOM      3  C   UNL     1     -38.464  -9.079 -14.080  1.00  0.00     0.014 A 
ATOM      4  C   UNL     1     -39.938  -6.702 -14.045  1.00  0.00     0.047 A 
ATOM      5  C   UNL     1     -39.862  -9.121 -14.058  1.00  0.00     0.047 A 
ATOM      6  C   UNL     1     -40.602  -7.935 -14.040  1.00  0.00     0.115 A 
ENDROOT
BRANCH   1   7
ATOM      7  C   UNL     1     -36.310  -7.804 -14.107  1.00  0.00     0.071 C 
ATOM      8  O   UNL     1     -35.651  -8.724 -14.660  1.00  0.00    -0.545 OA
ATOM      9  O   UNL     1     -35.626  -6.746 -13.518  1.00  0.00    -0.545 OA
ENDBRANCH   1   7
BRANCH   6  10
ATOM     10  O   UNL     1     -41.995  -7.993 -14.018  1.00  0.00    -0.508 OA
ATOM     11  H   UNL     1     -42.503  -8.697 -14.540  1.00  0.00     0.293 HD
ENDBRANCH   6  10
TORSDOF 2
ENDMDL
MODEL 2
REMARK VINA RESULT:    -4.866      0.083      1.534
REMARK INTER + INTRA:          -5.326
REMARK INTER:                  -5.291
REMARK INTRA:                  -0.034
REMARK UNBOUND:                -0.034
REMARK SMILES O=C([O-])c1ccc(O)cc1
REMARK SMILES IDX 4 1 5 2 10 3 6 4 9 5 7 6 2 7 1 8 3 9 8 10
REMARK H PARENT 8 11
REMARK Flexibility Score: inf
ROOT
ATOM      1  C   UNL     1     -37.811  -7.816 -14.106  1.00  0.00    -0.003 A 
ATOM      2  C   UNL     1     -38.467  -9.060 -14.112  1.00  0.00     0.014 A 
ATOM      3  C   UNL     1     -38.581  -6.640 -14.088  1.00  0.00     0.014 A 
ATOM      4  C   UNL     1     -39.864  -9.125 -14.101  1.00  0.00     0.047 A 
ATOM      5  C   UNL     1     -39.978  -6.708 -14.078  1.00  0.00     0.047 A 
ATOM      6  C   UNL     1     -40.623  -7.948 -14.084  1.00  0.00     0.115 A 
ENDROOT
BRANCH   1   7
ATOM      7  C   UNL     1     -36.333  -7.741 -14.117  1.00  0.00     0.071 C 
ATOM      8  O   UNL     1     -35.646  -8.701 -14.557  1.00  0.00    -0.545 OA
ATOM      9  O   UNL     1     -35.682  -6.609 -13.641  1.00  0.00    -0.545 OA
ENDBRANCH   1   7
BRANCH   6  10
ATOM     10  O   UNL     1     -42.015  -8.000 -14.074  1.00  0.00    -0.508 OA
ATOM     11  H   UNL     1     -42.539  -7.964 -13.208  1.00  0.00     0.293 HD
ENDBRANCH   6  10
TORSDOF 2
ENDMDL
MODEL 3
REMARK VINA RESULT:    -4.706      7.914      9.836
REMARK INTER + INTRA:          -5.153
REMARK INTER:                  -5.119
REMARK INTRA:                  -0.033
REMARK UNBOUND:                -0.034
REMARK SMILES O=C([O-])c1ccc(O)cc1
REMARK SMILES IDX 4 1 5 2 10 3 6 4 9 5 7 6 2 7 1 8 3 9 8 10
REMARK H PARENT 8 11
REMARK Flexibility Score: inf
ROOT
ATOM      1  C   UNL     1     -33.304  -3.565 -18.859  1.00  0.00    -0.003 A 
ATOM      2  C   UNL     1     -32.074  -3.196 -18.283  1.00  0.00     0.014 A 
ATOM      3  C   UNL     1     -33.511  -3.333 -20.230  1.00  0.00     0.014 A 
ATOM      4  C   UNL     1     -31.075  -2.606 -19.064  1.00  0.00     0.047 A 
ATOM      5  C   UNL     1     -32.510  -2.742 -21.008  1.00  0.00     0.047 A 
ATOM      6  C   UNL     1     -31.291  -2.377 -20.429  1.00  0.00     0.115 A 
ENDROOT
BRANCH   1   7
ATOM      7  C   UNL     1     -34.363  -4.191 -18.038  1.00  0.00     0.071 C 
ATOM      8  O   UNL     1     -34.493  -3.891 -16.821  1.00  0.00    -0.545 OA
ATOM      9  O   UNL     1     -35.233  -5.119 -18.599  1.00  0.00    -0.545 OA
ENDBRANCH   1   7
BRANCH   6  10
ATOM     10  O   UNL     1     -30.304  -1.789 -21.217  1.00  0.00    -0.508 OA
ATOM     11  H   UNL     1     -29.554  -1.245 -20.807  1.00  0.00     0.293 HD
ENDBRANCH   6  10
TORSDOF 2
ENDMDL
MODEL 4
REMARK VINA RESULT:    -4.668      3.106      4.564
REMARK INTER + INTRA:          -5.111
REMARK INTER:                  -5.084
REMARK INTRA:                  -0.027
REMARK UNBOUND:                -0.034
REMARK SMILES O=C([O-])c1ccc(O)cc1
REMARK SMILES IDX 4 1 5 2 10 3 6 4 9 5 7 6 2 7 1 8 3 9 8 10
REMARK H PARENT 8 11
REMARK Flexibility Score: inf
ROOT
ATOM      1  C   UNL     1     -36.854  -6.643 -15.800  1.00  0.00    -0.003 A 
ATOM      2  C   UNL     1     -36.636  -8.031 -15.879  1.00  0.00     0.014 A 
ATOM      3  C   UNL     1     -36.402  -5.947 -14.665  1.00  0.00     0.014 A 
ATOM      4  C   UNL     1     -35.981  -8.706 -14.844  1.00  0.00     0.047 A 
ATOM      5  C   UNL     1     -35.748  -6.625 -13.631  1.00  0.00     0.047 A 
ATOM      6  C   UNL     1     -35.536  -8.004 -13.717  1.00  0.00     0.115 A 
ENDROOT
BRANCH   1   7
ATOM      7  C   UNL     1     -37.545  -5.924 -16.892  1.00  0.00     0.071 C 
ATOM      8  O   UNL     1     -36.925  -5.601 -17.941  1.00  0.00    -0.545 OA
ATOM      9  O   UNL     1     -38.891  -5.593 -16.777  1.00  0.00    -0.545 OA
ENDBRANCH   1   7
BRANCH   6  10
ATOM     10  O   UNL     1     -34.884  -8.666 -12.679  1.00  0.00    -0.508 OA
ATOM     11  H   UNL     1     -33.896  -8.527 -12.501  1.00  0.00     0.293 HD
ENDBRANCH   6  10
TORSDOF 2
ENDMDL
MODEL 5
REMARK VINA RESULT:    -4.554      2.060      3.874
REMARK INTER + INTRA:          -4.987
REMARK INTER:                  -4.954
REMARK INTRA:                  -0.033
REMARK UNBOUND:                -0.034
REMARK SMILES O=C([O-])c1ccc(O)cc1
REMARK SMILES IDX 4 1 5 2 10 3 6 4 9 5 7 6 2 7 1 8 3 9 8 10
REMARK H PARENT 8 11
REMARK Flexibility Score: inf
ROOT
ATOM      1  C   UNL     1     -38.565  -6.544 -13.644  1.00  0.00    -0.003 A 
ATOM      2  C   UNL     1     -37.293  -6.105 -14.054  1.00  0.00     0.014 A 
ATOM      3  C   UNL     1     -38.968  -7.854 -13.959  1.00  0.00     0.014 A 
ATOM      4  C   UNL     1     -36.443  -6.959 -14.764  1.00  0.00     0.047 A 
ATOM      5  C   UNL     1     -38.116  -8.706 -14.670  1.00  0.00     0.047 A 
ATOM      6  C   UNL     1     -36.853  -8.262 -15.074  1.00  0.00     0.115 A 
ENDROOT
BRANCH   1   7
ATOM      7  C   UNL     1     -39.468  -5.646 -12.891  1.00  0.00     0.071 C 
ATOM      8  O   UNL     1     -40.220  -6.100 -11.989  1.00  0.00    -0.545 OA
ATOM      9  O   UNL     1     -39.499  -4.284 -13.171  1.00  0.00    -0.545 OA
ENDBRANCH   1   7
BRANCH   6  10
ATOM     10  O   UNL     1     -36.015  -9.122 -15.782  1.00  0.00    -0.508 OA
ATOM     11  H   UNL     1     -36.246 -10.099 -15.907  1.00  0.00     0.293 HD
ENDBRANCH   6  10
TORSDOF 2
ENDMDL
MODEL 6
REMARK VINA RESULT:    -4.483      2.199      4.423
REMARK INTER + INTRA:          -4.909
REMARK INTER:                  -4.879
REMARK INTRA:                  -0.030
REMARK UNBOUND:                -0.034
REMARK SMILES O=C([O-])c1ccc(O)cc1
REMARK SMILES IDX 4 1 5 2 10 3 6 4 9 5 7 6 2 7 1 8 3 9 8 10
REMARK H PARENT 8 11
REMARK Flexibility Score: inf
ROOT
ATOM      1  C   UNL     1     -38.451  -7.394 -14.689  1.00  0.00    -0.003 A 
ATOM      2  C   UNL     1     -37.275  -8.149 -14.854  1.00  0.00     0.014 A 
ATOM      3  C   UNL     1     -38.623  -6.227 -15.454  1.00  0.00     0.014 A 
ATOM      4  C   UNL     1     -36.294  -7.743 -15.764  1.00  0.00     0.047 A 
ATOM      5  C   UNL     1     -37.640  -5.823 -16.363  1.00  0.00     0.047 A 
ATOM      6  C   UNL     1     -36.474  -6.578 -16.521  1.00  0.00     0.115 A 
ENDROOT
BRANCH   1   7
ATOM      7  C   UNL     1     -39.492  -7.819 -13.729  1.00  0.00     0.071 C 
ATOM      8  O   UNL     1     -39.959  -7.006 -12.887  1.00  0.00    -0.545 OA
ATOM      9  O   UNL     1     -39.972  -9.124 -13.742  1.00  0.00    -0.545 OA
ENDBRANCH   1   7
BRANCH   6  10
ATOM     10  O   UNL     1     -35.503  -6.164 -17.430  1.00  0.00    -0.508 OA
ATOM     11  H   UNL     1     -35.727  -5.541 -18.196  1.00  0.00     0.293 HD
ENDBRANCH   6  10
TORSDOF 2
ENDMDL
MODEL 7
REMARK VINA RESULT:    -4.397      1.897      4.147
REMARK INTER + INTRA:          -4.816
REMARK INTER:                  -4.788
REMARK INTRA:                  -0.028
REMARK UNBOUND:                -0.034
REMARK SMILES O=C([O-])c1ccc(O)cc1
REMARK SMILES IDX 4 1 5 2 10 3 6 4 9 5 7 6 2 7 1 8 3 9 8 10
REMARK H PARENT 8 11
REMARK Flexibility Score: inf
ROOT
ATOM      1  C   UNL     1     -37.919  -7.490 -14.137  1.00  0.00    -0.003 A 
ATOM      2  C   UNL     1     -38.333  -6.187 -13.803  1.00  0.00     0.014 A 
ATOM      3  C   UNL     1     -36.549  -7.803 -14.084  1.00  0.00     0.014 A 
ATOM      4  C   UNL     1     -37.397  -5.220 -13.425  1.00  0.00     0.047 A 
ATOM      5  C   UNL     1     -35.614  -6.833 -13.706  1.00  0.00     0.047 A 
ATOM      6  C   UNL     1     -36.035  -5.541 -13.376  1.00  0.00     0.115 A 
ENDROOT
BRANCH   1   7
ATOM      7  C   UNL     1     -38.905  -8.517 -14.536  1.00  0.00     0.071 C 
ATOM      8  O   UNL     1     -39.731  -8.972 -13.702  1.00  0.00    -0.545 OA
ATOM      9  O   UNL     1     -38.934  -8.996 -15.842  1.00  0.00    -0.545 OA
ENDBRANCH   1   7
BRANCH   6  10
ATOM     10  O   UNL     1     -35.092  -4.585 -13.002  1.00  0.00    -0.508 OA
ATOM     11  H   UNL     1     -35.275  -3.595 -13.102  1.00  0.00     0.293 HD
ENDBRANCH   6  10
TORSDOF 2
ENDMDL
MODEL 8
REMARK VINA RESULT:    -4.375      3.161      4.432
REMARK INTER + INTRA:          -4.793
REMARK INTER:                  -4.764
REMARK INTRA:                  -0.028
REMARK UNBOUND:                -0.034
REMARK SMILES O=C([O-])c1ccc(O)cc1
REMARK SMILES IDX 4 1 5 2 10 3 6 4 9 5 7 6 2 7 1 8 3 9 8 10
REMARK H PARENT 8 11
REMARK Flexibility Score: inf
ROOT
ATOM      1  C   UNL     1     -36.077  -7.081 -14.721  1.00  0.00    -0.003 A 
ATOM      2  C   UNL     1     -36.139  -7.206 -16.122  1.00  0.00     0.014 A 
ATOM      3  C   UNL     1     -36.014  -5.796 -14.154  1.00  0.00     0.014 A 
ATOM      4  C   UNL     1     -36.138  -6.068 -16.935  1.00  0.00     0.047 A 
ATOM      5  C   UNL     1     -36.013  -4.661 -14.971  1.00  0.00     0.047 A 
ATOM      6  C   UNL     1     -36.075  -4.793 -16.361  1.00  0.00     0.115 A 
ENDROOT
BRANCH   1   7
ATOM      7  C   UNL     1     -36.078  -8.281 -13.856  1.00  0.00     0.071 C 
ATOM      8  O   UNL     1     -37.072  -9.055 -13.835  1.00  0.00    -0.545 OA
ATOM      9  O   UNL     1     -34.981  -8.572 -13.053  1.00  0.00    -0.545 OA
ENDBRANCH   1   7
BRANCH   6  10
ATOM     10  O   UNL     1     -36.073  -3.652 -17.161  1.00  0.00    -0.508 OA
ATOM     11  H   UNL     1     -36.516  -3.644 -18.072  1.00  0.00     0.293 HD
ENDBRANCH   6  10
TORSDOF 2
ENDMDL
MODEL 9
REMARK VINA RESULT:    -4.351      6.170      7.899
REMARK INTER + INTRA:          -4.766
REMARK INTER:                  -4.736
REMARK INTRA:                  -0.030
REMARK UNBOUND:                -0.034
REMARK SMILES O=C([O-])c1ccc(O)cc1
REMARK SMILES IDX 4 1 5 2 10 3 6 4 9 5 7 6 2 7 1 8 3 9 8 10
REMARK H PARENT 8 11
REMARK Flexibility Score: inf
ROOT
ATOM      1  C   UNL     1     -34.874  -4.256 -17.812  1.00  0.00    -0.003 A 
ATOM      2  C   UNL     1     -35.410  -5.006 -18.875  1.00  0.00     0.014 A 
ATOM      3  C   UNL     1     -33.707  -3.503 -18.029  1.00  0.00     0.014 A 
ATOM      4  C   UNL     1     -34.789  -5.002 -20.128  1.00  0.00     0.047 A 
ATOM      5  C   UNL     1     -33.088  -3.502 -19.284  1.00  0.00     0.047 A 
ATOM      6  C   UNL     1     -33.626  -4.250 -20.335  1.00  0.00     0.115 A 
ENDROOT
BRANCH   1   7
ATOM      7  C   UNL     1     -35.527  -4.256 -16.484  1.00  0.00     0.071 C 
ATOM      8  O   UNL     1     -35.773  -3.172 -15.891  1.00  0.00    -0.545 OA
ATOM      9  O   UNL     1     -35.879  -5.454 -15.872  1.00  0.00    -0.545 OA
ENDBRANCH   1   7
BRANCH   6  10
ATOM     10  O   UNL     1     -32.999  -4.239 -21.579  1.00  0.00    -0.508 OA
ATOM     11  H   UNL     1     -32.883  -3.382 -22.106  1.00  0.00     0.293 HD
ENDBRANCH   6  10
TORSDOF 2
ENDMDL
