MODEL 1
REMARK VINA RESULT:    -4.412      0.000      0.000
REMARK INTER + INTRA:         -10.135
REMARK INTER:                  -8.022
REMARK INTRA:                  -2.113
REMARK UNBOUND:                -2.113
REMARK SMILES CCCCCCCCCCCCCCCC(=O)[O-]
REMARK SMILES IDX 9 1 10 2 11 3 12 4 13 5 14 6 15 7 16 8 17 9 18 10 8 11 7 12
REMARK SMILES IDX 6 13 5 14 4 15 3 16 2 17 1 18
REMARK H PARENT
REMARK Flexibility Score: inf
ROOT
ATOM      1  C   UNL     1       4.459   3.122  13.261  1.00  0.00     0.000 C 
ENDROOT
BRANCH   1   2
ATOM      2  C   UNL     1       3.921   3.383  14.683  1.00  0.00     0.000 C 
BRANCH   2   3
ATOM      3  C   UNL     1       2.926   2.330  15.203  1.00  0.00     0.000 C 
BRANCH   3   4
ATOM      4  C   UNL     1       3.383   1.673  16.513  1.00  0.00     0.000 C 
BRANCH   4   5
ATOM      5  C   UNL     1       4.842   2.030  16.825  1.00  0.00     0.000 C 
BRANCH   5   6
ATOM      6  C   UNL     1       5.758   0.814  16.639  1.00  0.00     0.006 C 
BRANCH   6   7
ATOM      7  C   UNL     1       5.200  -0.411  17.369  1.00  0.00     0.053 C 
BRANCH   7   8
ATOM      8  C   UNL     1       5.525  -0.343  18.828  1.00  0.00     0.041 C 
ATOM      9  O   UNL     1       6.523  -0.961  19.285  1.00  0.00    -0.550 OA
ATOM     10  O   UNL     1       4.753   0.441  19.676  1.00  0.00    -0.550 OA
ENDBRANCH   7   8
ENDBRANCH   6   7
ENDBRANCH   5   6
ENDBRANCH   4   5
ENDBRANCH   3   4
ENDBRANCH   2   3
ENDBRANCH   1   2
BRANCH   1  11
ATOM     11  C   UNL     1       4.659   1.637  12.898  1.00  0.00     0.000 C 
BRANCH  11  12
ATOM     12  C   UNL     1       6.023   1.047  13.300  1.00  0.00    -0.000 C 
BRANCH  12  13
ATOM     13  C   UNL     1       6.113  -0.467  13.058  1.00  0.00    -0.000 C 
BRANCH  13  14
ATOM     14  C   UNL     1       4.714  -1.095  12.988  1.00  0.00    -0.000 C 
BRANCH  14  15
ATOM     15  C   UNL     1       4.396  -1.986  14.202  1.00  0.00    -0.000 C 
BRANCH  15  16
ATOM     16  C   UNL     1       3.131  -1.590  14.991  1.00  0.00    -0.000 C 
BRANCH  16  17
ATOM     17  C   UNL     1       1.896  -1.279  14.127  1.00  0.00    -0.003 C 
ATOM     18  C   UNL     1       0.888  -0.374  14.835  1.00  0.00     0.004 C 
ENDBRANCH  16  17
ENDBRANCH  15  16
ENDBRANCH  14  15
ENDBRANCH  13  14
ENDBRANCH  12  13
ENDBRANCH  11  12
ENDBRANCH   1  11
TORSDOF 14
ENDMDL
MODEL 2
REMARK VINA RESULT:    -4.387      1.056      3.069
REMARK INTER + INTRA:         -10.090
REMARK INTER:                  -7.983
REMARK INTRA:                  -2.107
REMARK UNBOUND:                -2.113
REMARK SMILES CCCCCCCCCCCCCCCC(=O)[O-]
REMARK SMILES IDX 9 1 10 2 11 3 12 4 13 5 14 6 15 7 16 8 17 9 18 10 8 11 7 12
REMARK SMILES IDX 6 13 5 14 4 15 3 16 2 17 1 18
REMARK H PARENT
REMARK Flexibility Score: inf
ROOT
ATOM      1  C   UNL     1       5.213   2.940  13.154  1.00  0.00     0.000 C 
ENDROOT
BRANCH   1   2
ATOM      2  C   UNL     1       5.305   1.419  12.918  1.00  0.00     0.000 C 
BRANCH   2   3
ATOM      3  C   UNL     1       6.252   0.671  13.873  1.00  0.00     0.000 C 
BRANCH   3   4
ATOM      4  C   UNL     1       6.315  -0.836  13.591  1.00  0.00     0.000 C 
BRANCH   4   5
ATOM      5  C   UNL     1       5.791  -1.641  14.786  1.00  0.00     0.000 C 
BRANCH   5   6
ATOM      6  C   UNL     1       5.901  -0.833  16.085  1.00  0.00     0.006 C 
BRANCH   6   7
ATOM      7  C   UNL     1       5.048  -1.457  17.194  1.00  0.00     0.053 C 
BRANCH   7   8
ATOM      8  C   UNL     1       5.557  -1.045  18.539  1.00  0.00     0.041 C 
ATOM      9  O   UNL     1       6.600  -1.571  19.011  1.00  0.00    -0.550 OA
ATOM     10  O   UNL     1       4.908  -0.045  19.252  1.00  0.00    -0.550 OA
ENDBRANCH   7   8
ENDBRANCH   6   7
ENDBRANCH   5   6
ENDBRANCH   4   5
ENDBRANCH   3   4
ENDBRANCH   2   3
ENDBRANCH   1   2
BRANCH   1  11
ATOM     11  C   UNL     1       3.789   3.484  13.381  1.00  0.00     0.000 C 
BRANCH  11  12
ATOM     12  C   UNL     1       3.430   3.780  14.849  1.00  0.00    -0.000 C 
BRANCH  12  13
ATOM     13  C   UNL     1       4.403   3.132  15.843  1.00  0.00    -0.000 C 
BRANCH  13  14
ATOM     14  C   UNL     1       3.701   2.046  16.670  1.00  0.00    -0.000 C 
BRANCH  14  15
ATOM     15  C   UNL     1       2.449   1.480  15.977  1.00  0.00    -0.000 C 
BRANCH  15  16
ATOM     16  C   UNL     1       2.692   0.236  15.099  1.00  0.00    -0.000 C 
BRANCH  16  17
ATOM     17  C   UNL     1       1.481  -0.700  14.946  1.00  0.00    -0.003 C 
ATOM     18  C   UNL     1       1.875  -2.125  14.560  1.00  0.00     0.004 C 
ENDBRANCH  16  17
ENDBRANCH  15  16
ENDBRANCH  14  15
ENDBRANCH  13  14
ENDBRANCH  12  13
ENDBRANCH  11  12
ENDBRANCH   1  11
TORSDOF 14
ENDMDL
MODEL 3
REMARK VINA RESULT:    -4.152      2.016      4.504
REMARK INTER + INTRA:          -9.663
REMARK INTER:                  -7.823
REMARK INTRA:                  -1.841
REMARK UNBOUND:                -2.113
REMARK SMILES CCCCCCCCCCCCCCCC(=O)[O-]
REMARK SMILES IDX 9 1 10 2 11 3 12 4 13 5 14 6 15 7 16 8 17 9 18 10 8 11 7 12
REMARK SMILES IDX 6 13 5 14 4 15 3 16 2 17 1 18
REMARK H PARENT
REMARK Flexibility Score: inf
ROOT
ATOM      1  C   UNL     1       4.352   3.421  13.172  1.00  0.00     0.000 C 
ENDROOT
BRANCH   1   2
ATOM      2  C   UNL     1       5.723   2.744  12.968  1.00  0.00     0.000 C 
BRANCH   2   3
ATOM      3  C   UNL     1       5.684   1.207  12.911  1.00  0.00     0.000 C 
BRANCH   3   4
ATOM      4  C   UNL     1       6.186   0.549  14.203  1.00  0.00     0.000 C 
BRANCH   4   5
ATOM      5  C   UNL     1       6.552  -0.921  13.965  1.00  0.00     0.000 C 
BRANCH   5   6
ATOM      6  C   UNL     1       5.521  -1.856  14.608  1.00  0.00     0.006 C 
BRANCH   6   7
ATOM      7  C   UNL     1       4.164  -1.741  13.907  1.00  0.00     0.053 C 
BRANCH   7   8
ATOM      8  C   UNL     1       3.061  -1.651  14.914  1.00  0.00     0.041 C 
ATOM      9  O   UNL     1       3.328  -1.587  16.144  1.00  0.00    -0.550 OA
ATOM     10  O   UNL     1       1.739  -1.589  14.494  1.00  0.00    -0.550 OA
ENDBRANCH   7   8
ENDBRANCH   6   7
ENDBRANCH   5   6
ENDBRANCH   4   5
ENDBRANCH   3   4
ENDBRANCH   2   3
ENDBRANCH   1   2
BRANCH   1  11
ATOM     11  C   UNL     1       3.798   3.358  14.609  1.00  0.00     0.000 C 
BRANCH  11  12
ATOM     12  C   UNL     1       2.766   2.244  14.861  1.00  0.00    -0.000 C 
BRANCH  12  13
ATOM     13  C   UNL     1       2.805   1.708  16.299  1.00  0.00    -0.000 C 
BRANCH  13  14
ATOM     14  C   UNL     1       4.200   1.890  16.915  1.00  0.00    -0.000 C 
BRANCH  14  15
ATOM     15  C   UNL     1       4.203   1.742  18.447  1.00  0.00    -0.000 C 
BRANCH  15  16
ATOM     16  C   UNL     1       4.738   0.394  18.973  1.00  0.00    -0.000 C 
BRANCH  16  17
ATOM     17  C   UNL     1       5.833  -0.254  18.108  1.00  0.00    -0.003 C 
ATOM     18  C   UNL     1       6.068  -1.724  18.448  1.00  0.00     0.004 C 
ENDBRANCH  16  17
ENDBRANCH  15  16
ENDBRANCH  14  15
ENDBRANCH  13  14
ENDBRANCH  12  13
ENDBRANCH  11  12
ENDBRANCH   1  11
TORSDOF 14
ENDMDL
MODEL 4
REMARK VINA RESULT:    -4.084      2.196      4.705
REMARK INTER + INTRA:          -9.540
REMARK INTER:                  -7.508
REMARK INTRA:                  -2.032
REMARK UNBOUND:                -2.113
REMARK SMILES CCCCCCCCCCCCCCCC(=O)[O-]
REMARK SMILES IDX 9 1 10 2 11 3 12 4 13 5 14 6 15 7 16 8 17 9 18 10 8 11 7 12
REMARK SMILES IDX 6 13 5 14 4 15 3 16 2 17 1 18
REMARK H PARENT
REMARK Flexibility Score: inf
ROOT
ATOM      1  C   UNL     1       5.842   2.588  13.067  1.00  0.00     0.000 C 
ENDROOT
BRANCH   1   2
ATOM      2  C   UNL     1       5.912   1.059  12.875  1.00  0.00     0.000 C 
BRANCH   2   3
ATOM      3  C   UNL     1       6.652   0.298  13.989  1.00  0.00     0.000 C 
BRANCH   3   4
ATOM      4  C   UNL     1       6.132  -1.132  14.183  1.00  0.00     0.000 C 
BRANCH   4   5
ATOM      5  C   UNL     1       4.829  -1.353  13.403  1.00  0.00     0.000 C 
BRANCH   5   6
ATOM      6  C   UNL     1       3.616  -1.335  14.340  1.00  0.00     0.006 C 
BRANCH   6   7
ATOM      7  C   UNL     1       2.589  -0.293  13.889  1.00  0.00     0.053 C 
BRANCH   7   8
ATOM      8  C   UNL     1       1.446  -0.233  14.853  1.00  0.00     0.041 C 
ATOM      9  O   UNL     1       0.532  -1.099  14.808  1.00  0.00    -0.550 OA
ATOM     10  O   UNL     1       1.413   0.750  15.833  1.00  0.00    -0.550 OA
ENDBRANCH   7   8
ENDBRANCH   6   7
ENDBRANCH   5   6
ENDBRANCH   4   5
ENDBRANCH   3   4
ENDBRANCH   2   3
ENDBRANCH   1   2
BRANCH   1  11
ATOM     11  C   UNL     1       4.420   3.180  13.097  1.00  0.00     0.000 C 
BRANCH  11  12
ATOM     12  C   UNL     1       3.701   3.082  14.455  1.00  0.00    -0.000 C 
BRANCH  12  13
ATOM     13  C   UNL     1       4.655   3.240  15.648  1.00  0.00    -0.000 C 
BRANCH  13  14
ATOM     14  C   UNL     1       4.193   2.387  16.837  1.00  0.00    -0.000 C 
BRANCH  14  15
ATOM     15  C   UNL     1       4.662   0.924  16.744  1.00  0.00    -0.000 C 
BRANCH  15  16
ATOM     16  C   UNL     1       5.263   0.345  18.040  1.00  0.00    -0.000 C 
BRANCH  16  17
ATOM     17  C   UNL     1       5.245  -1.191  18.137  1.00  0.00    -0.003 C 
ATOM     18  C   UNL     1       6.443  -1.753  18.901  1.00  0.00     0.004 C 
ENDBRANCH  16  17
ENDBRANCH  15  16
ENDBRANCH  14  15
ENDBRANCH  13  14
ENDBRANCH  12  13
ENDBRANCH  11  12
ENDBRANCH   1  11
TORSDOF 14
ENDMDL
MODEL 5
REMARK VINA RESULT:    -4.045      1.190      4.102
REMARK INTER + INTRA:          -9.469
REMARK INTER:                  -7.329
REMARK INTRA:                  -2.140
REMARK UNBOUND:                -2.113
REMARK SMILES CCCCCCCCCCCCCCCC(=O)[O-]
REMARK SMILES IDX 9 1 10 2 11 3 12 4 13 5 14 6 15 7 16 8 17 9 18 10 8 11 7 12
REMARK SMILES IDX 6 13 5 14 4 15 3 16 2 17 1 18
REMARK H PARENT
REMARK Flexibility Score: inf
ROOT
ATOM      1  C   UNL     1       3.915  -1.174  13.248  1.00  0.00     0.000 C 
ENDROOT
BRANCH   1   2
ATOM      2  C   UNL     1       5.260  -1.930  13.251  1.00  0.00     0.000 C 
BRANCH   2   3
ATOM      3  C   UNL     1       6.419  -1.188  13.939  1.00  0.00     0.000 C 
BRANCH   3   4
ATOM      4  C   UNL     1       6.047  -0.661  15.331  1.00  0.00     0.000 C 
BRANCH   4   5
ATOM      5  C   UNL     1       5.807  -1.818  16.310  1.00  0.00     0.000 C 
BRANCH   5   6
ATOM      6  C   UNL     1       5.826  -1.325  17.761  1.00  0.00     0.006 C 
BRANCH   6   7
ATOM      7  C   UNL     1       5.635   0.193  17.828  1.00  0.00     0.053 C 
BRANCH   7   8
ATOM      8  C   UNL     1       4.822   0.566  19.028  1.00  0.00     0.041 C 
ATOM      9  O   UNL     1       4.801  -0.186  20.039  1.00  0.00    -0.550 OA
ATOM     10  O   UNL     1       4.126   1.768  19.050  1.00  0.00    -0.550 OA
ENDBRANCH   7   8
ENDBRANCH   6   7
ENDBRANCH   5   6
ENDBRANCH   4   5
ENDBRANCH   3   4
ENDBRANCH   2   3
ENDBRANCH   1   2
BRANCH   1  11
ATOM     11  C   UNL     1       2.821  -1.780  14.149  1.00  0.00     0.000 C 
BRANCH  11  12
ATOM     12  C   UNL     1       1.868  -0.757  14.794  1.00  0.00    -0.000 C 
BRANCH  12  13
ATOM     13  C   UNL     1       2.295   0.696  14.545  1.00  0.00    -0.000 C 
BRANCH  13  14
ATOM     14  C   UNL     1       2.773   1.358  15.846  1.00  0.00    -0.000 C 
BRANCH  14  15
ATOM     15  C   UNL     1       3.890   2.392  15.616  1.00  0.00    -0.000 C 
BRANCH  15  16
ATOM     16  C   UNL     1       3.560   3.497  14.594  1.00  0.00    -0.000 C 
BRANCH  16  17
ATOM     17  C   UNL     1       4.219   3.327  13.214  1.00  0.00    -0.003 C 
ATOM     18  C   UNL     1       5.423   2.386  13.242  1.00  0.00     0.004 C 
ENDBRANCH  16  17
ENDBRANCH  15  16
ENDBRANCH  14  15
ENDBRANCH  13  14
ENDBRANCH  12  13
ENDBRANCH  11  12
ENDBRANCH   1  11
TORSDOF 14
ENDMDL
MODEL 6
REMARK VINA RESULT:    -3.969      2.447      5.186
REMARK INTER + INTRA:          -9.330
REMARK INTER:                  -7.740
REMARK INTRA:                  -1.590
REMARK UNBOUND:                -2.113
REMARK SMILES CCCCCCCCCCCCCCCC(=O)[O-]
REMARK SMILES IDX 9 1 10 2 11 3 12 4 13 5 14 6 15 7 16 8 17 9 18 10 8 11 7 12
REMARK SMILES IDX 6 13 5 14 4 15 3 16 2 17 1 18
REMARK H PARENT
REMARK Flexibility Score: inf
ROOT
ATOM      1  C   UNL     1       5.531   0.863  17.606  1.00  0.00     0.000 C 
ENDROOT
BRANCH   1   2
ATOM      2  C   UNL     1       5.607  -0.272  18.648  1.00  0.00     0.000 C 
BRANCH   2   3
ATOM      3  C   UNL     1       5.860  -1.673  18.065  1.00  0.00     0.000 C 
BRANCH   3   4
ATOM      4  C   UNL     1       5.656  -1.731  16.545  1.00  0.00     0.000 C 
BRANCH   4   5
ATOM      5  C   UNL     1       4.164  -1.718  16.190  1.00  0.00     0.000 C 
BRANCH   5   6
ATOM      6  C   UNL     1       3.956  -1.825  14.675  1.00  0.00     0.006 C 
BRANCH   6   7
ATOM      7  C   UNL     1       2.472  -1.983  14.333  1.00  0.00     0.053 C 
BRANCH   7   8
ATOM      8  C   UNL     1       1.796  -0.648  14.310  1.00  0.00     0.041 C 
ATOM      9  O   UNL     1       2.257   0.284  13.599  1.00  0.00    -0.550 OA
ATOM     10  O   UNL     1       0.628  -0.448  15.034  1.00  0.00    -0.550 OA
ENDBRANCH   7   8
ENDBRANCH   6   7
ENDBRANCH   5   6
ENDBRANCH   4   5
ENDBRANCH   3   4
ENDBRANCH   2   3
ENDBRANCH   1   2
BRANCH   1  11
ATOM     11  C   UNL     1       4.242   1.708  17.650  1.00  0.00     0.000 C 
BRANCH  11  12
ATOM     12  C   UNL     1       3.629   2.032  16.275  1.00  0.00    -0.000 C 
BRANCH  12  13
ATOM     13  C   UNL     1       4.326   3.206  15.573  1.00  0.00    -0.000 C 
BRANCH  13  14
ATOM     14  C   UNL     1       3.481   3.724  14.400  1.00  0.00    -0.000 C 
BRANCH  14  15
ATOM     15  C   UNL     1       4.183   3.562  13.040  1.00  0.00    -0.000 C 
BRANCH  15  16
ATOM     16  C   UNL     1       5.534   2.821  13.084  1.00  0.00    -0.000 C 
BRANCH  16  17
ATOM     17  C   UNL     1       5.449   1.299  12.881  1.00  0.00    -0.003 C 
ATOM     18  C   UNL     1       6.491   0.531  13.693  1.00  0.00     0.004 C 
ENDBRANCH  16  17
ENDBRANCH  15  16
ENDBRANCH  14  15
ENDBRANCH  13  14
ENDBRANCH  12  13
ENDBRANCH  11  12
ENDBRANCH   1  11
TORSDOF 14
ENDMDL
MODEL 7
REMARK VINA RESULT:    -3.905      1.235      3.331
REMARK INTER + INTRA:          -9.213
REMARK INTER:                  -7.043
REMARK INTRA:                  -2.170
REMARK UNBOUND:                -2.113
REMARK SMILES CCCCCCCCCCCCCCCC(=O)[O-]
REMARK SMILES IDX 9 1 10 2 11 3 12 4 13 5 14 6 15 7 16 8 17 9 18 10 8 11 7 12
REMARK SMILES IDX 6 13 5 14 4 15 3 16 2 17 1 18
REMARK H PARENT
REMARK Flexibility Score: inf
ROOT
ATOM      1  C   UNL     1       6.419   0.331  14.111  1.00  0.00     0.000 C 
ENDROOT
BRANCH   1   2
ATOM      2  C   UNL     1       6.379  -1.143  13.658  1.00  0.00     0.000 C 
BRANCH   2   3
ATOM      3  C   UNL     1       5.756  -2.117  14.673  1.00  0.00     0.000 C 
BRANCH   3   4
ATOM      4  C   UNL     1       5.133  -1.402  15.880  1.00  0.00     0.000 C 
BRANCH   4   5
ATOM      5  C   UNL     1       5.895  -1.733  17.168  1.00  0.00     0.000 C 
BRANCH   5   6
ATOM      6  C   UNL     1       6.286  -0.455  17.921  1.00  0.00     0.006 C 
BRANCH   6   7
ATOM      7  C   UNL     1       5.248   0.650  17.704  1.00  0.00     0.053 C 
BRANCH   7   8
ATOM      8  C   UNL     1       4.524   0.945  18.980  1.00  0.00     0.041 C 
ATOM      9  O   UNL     1       3.908   2.035  19.122  1.00  0.00    -0.550 OA
ATOM     10  O   UNL     1       4.489  -0.002  19.995  1.00  0.00    -0.550 OA
ENDBRANCH   7   8
ENDBRANCH   6   7
ENDBRANCH   5   6
ENDBRANCH   4   5
ENDBRANCH   3   4
ENDBRANCH   2   3
ENDBRANCH   1   2
BRANCH   1  11
ATOM     11  C   UNL     1       6.246   1.368  12.983  1.00  0.00     0.000 C 
BRANCH  11  12
ATOM     12  C   UNL     1       4.853   2.018  12.905  1.00  0.00    -0.000 C 
BRANCH  12  13
ATOM     13  C   UNL     1       4.734   3.282  13.769  1.00  0.00    -0.000 C 
BRANCH  13  14
ATOM     14  C   UNL     1       4.014   2.977  15.090  1.00  0.00    -0.000 C 
BRANCH  14  15
ATOM     15  C   UNL     1       2.642   2.311  14.885  1.00  0.00    -0.000 C 
BRANCH  15  16
ATOM     16  C   UNL     1       2.332   1.142  15.842  1.00  0.00    -0.000 C 
BRANCH  16  17
ATOM     17  C   UNL     1       1.762  -0.117  15.167  1.00  0.00    -0.003 C 
ATOM     18  C   UNL     1       2.428  -0.429  13.828  1.00  0.00     0.004 C 
ENDBRANCH  16  17
ENDBRANCH  15  16
ENDBRANCH  14  15
ENDBRANCH  13  14
ENDBRANCH  12  13
ENDBRANCH  11  12
ENDBRANCH   1  11
TORSDOF 14
ENDMDL
MODEL 8
REMARK VINA RESULT:    -3.791      2.343      4.955
REMARK INTER + INTRA:          -9.006
REMARK INTER:                  -7.093
REMARK INTRA:                  -1.913
REMARK UNBOUND:                -2.113
REMARK SMILES CCCCCCCCCCCCCCCC(=O)[O-]
REMARK SMILES IDX 9 1 10 2 11 3 12 4 13 5 14 6 15 7 16 8 17 9 18 10 8 11 7 12
REMARK SMILES IDX 6 13 5 14 4 15 3 16 2 17 1 18
REMARK H PARENT
REMARK Flexibility Score: inf
ROOT
ATOM      1  C   UNL     1       6.139  -1.218  16.085  1.00  0.00     0.000 C 
ENDROOT
BRANCH   1   2
ATOM      2  C   UNL     1       5.450  -2.124  15.044  1.00  0.00     0.000 C 
BRANCH   2   3
ATOM      3  C   UNL     1       5.471  -1.588  13.602  1.00  0.00     0.000 C 
BRANCH   3   4
ATOM      4  C   UNL     1       6.392  -0.372  13.431  1.00  0.00     0.000 C 
BRANCH   4   5
ATOM      5  C   UNL     1       5.617   0.830  12.879  1.00  0.00     0.000 C 
BRANCH   5   6
ATOM      6  C   UNL     1       5.432   1.908  13.954  1.00  0.00     0.006 C 
BRANCH   6   7
ATOM      7  C   UNL     1       4.783   3.164  13.367  1.00  0.00     0.053 C 
BRANCH   7   8
ATOM      8  C   UNL     1       3.990   3.882  14.413  1.00  0.00     0.041 C 
ATOM      9  O   UNL     1       4.539   4.249  15.485  1.00  0.00    -0.550 OA
ATOM     10  O   UNL     1       2.655   4.188  14.184  1.00  0.00    -0.550 OA
ENDBRANCH   7   8
ENDBRANCH   6   7
ENDBRANCH   5   6
ENDBRANCH   4   5
ENDBRANCH   3   4
ENDBRANCH   2   3
ENDBRANCH   1   2
BRANCH   1  11
ATOM     11  C   UNL     1       5.748  -1.487  17.551  1.00  0.00     0.000 C 
BRANCH  11  12
ATOM     12  C   UNL     1       5.337  -0.240  18.356  1.00  0.00    -0.000 C 
BRANCH  12  13
ATOM     13  C   UNL     1       5.067   0.982  17.467  1.00  0.00    -0.000 C 
BRANCH  13  14
ATOM     14  C   UNL     1       3.719   1.627  17.816  1.00  0.00    -0.000 C 
BRANCH  14  15
ATOM     15  C   UNL     1       2.718   1.594  16.647  1.00  0.00    -0.000 C 
BRANCH  15  16
ATOM     16  C   UNL     1       3.043   0.576  15.535  1.00  0.00    -0.000 C 
BRANCH  16  17
ATOM     17  C   UNL     1       2.055  -0.597  15.418  1.00  0.00    -0.003 C 
ATOM     18  C   UNL     1       0.724  -0.194  14.786  1.00  0.00     0.004 C 
ENDBRANCH  16  17
ENDBRANCH  15  16
ENDBRANCH  14  15
ENDBRANCH  13  14
ENDBRANCH  12  13
ENDBRANCH  11  12
ENDBRANCH   1  11
TORSDOF 14
ENDMDL
MODEL 9
REMARK VINA RESULT:    -1.804      2.320      3.689
REMARK INTER + INTRA:          -5.394
REMARK INTER:                  -3.789
REMARK INTRA:                  -1.605
REMARK UNBOUND:                -2.113
REMARK SMILES CCCCCCCCCCCCCCCC(=O)[O-]
REMARK SMILES IDX 9 1 10 2 11 3 12 4 13 5 14 6 15 7 16 8 17 9 18 10 8 11 7 12
REMARK SMILES IDX 6 13 5 14 4 15 3 16 2 17 1 18
REMARK H PARENT
REMARK Flexibility Score: inf
ROOT
ATOM      1  C   UNL     1       5.586   2.885  13.097  1.00  0.00     0.000 C 
ENDROOT
BRANCH   1   2
ATOM      2  C   UNL     1       4.212   3.582  13.023  1.00  0.00     0.000 C 
BRANCH   2   3
ATOM      3  C   UNL     1       3.492   3.740  14.374  1.00  0.00     0.000 C 
BRANCH   3   4
ATOM      4  C   UNL     1       4.414   3.487  15.574  1.00  0.00     0.000 C 
BRANCH   4   5
ATOM      5  C   UNL     1       4.108   2.133  16.226  1.00  0.00     0.000 C 
BRANCH   5   6
ATOM      6  C   UNL     1       2.768   1.574  15.731  1.00  0.00     0.006 C 
BRANCH   6   7
ATOM      7  C   UNL     1       2.958   0.212  15.056  1.00  0.00     0.053 C 
BRANCH   7   8
ATOM      8  C   UNL     1       1.685  -0.574  15.099  1.00  0.00     0.041 C 
ATOM      9  O   UNL     1       1.716  -1.822  15.269  1.00  0.00    -0.550 OA
ATOM     10  O   UNL     1       0.462   0.076  14.999  1.00  0.00    -0.550 OA
ENDBRANCH   7   8
ENDBRANCH   6   7
ENDBRANCH   5   6
ENDBRANCH   4   5
ENDBRANCH   3   4
ENDBRANCH   2   3
ENDBRANCH   1   2
BRANCH   1  11
ATOM     11  C   UNL     1       5.560   1.359  12.875  1.00  0.00     0.000 C 
BRANCH  11  12
ATOM     12  C   UNL     1       6.320   0.534  13.929  1.00  0.00    -0.000 C 
BRANCH  12  13
ATOM     13  C   UNL     1       6.125  -0.979  13.757  1.00  0.00    -0.000 C 
BRANCH  13  14
ATOM     14  C   UNL     1       6.506  -1.731  15.040  1.00  0.00    -0.000 C 
BRANCH  14  15
ATOM     15  C   UNL     1       5.368  -1.763  16.076  1.00  0.00    -0.000 C 
BRANCH  15  16
ATOM     16  C   UNL     1       5.815  -1.624  17.545  1.00  0.00    -0.000 C 
BRANCH  16  17
ATOM     17  C   UNL     1       5.649  -0.218  18.146  1.00  0.00    -0.003 C 
ATOM     18  C   UNL     1       5.221  -0.244  19.612  1.00  0.00     0.004 C 
ENDBRANCH  16  17
ENDBRANCH  15  16
ENDBRANCH  14  15
ENDBRANCH  13  14
ENDBRANCH  12  13
ENDBRANCH  11  12
ENDBRANCH   1  11
TORSDOF 14
ENDMDL
