MODEL 1
REMARK VINA RESULT:    -3.375      0.000      0.000
REMARK INTER + INTRA:          -4.241
REMARK INTER:                  -4.164
REMARK INTRA:                  -0.077
REMARK UNBOUND:                -0.077
REMARK SMILES CCCCCC(=O)[O-]
REMARK SMILES IDX 4 1 5 2 6 3 7 4 8 5 3 6 2 7 1 8
REMARK H PARENT
REMARK Flexibility Score: inf
ROOT
ATOM      1  C   UNL     1      -5.122  35.516  21.620  1.00  0.00     0.006 C 
ENDROOT
BRANCH   1   2
ATOM      2  C   UNL     1      -6.125  35.989  22.681  1.00  0.00     0.053 C 
BRANCH   2   3
ATOM      3  C   UNL     1      -6.066  35.147  23.918  1.00  0.00     0.041 C 
ATOM      4  O   UNL     1      -6.100  33.892  23.832  1.00  0.00    -0.550 OA
ATOM      5  O   UNL     1      -5.940  35.749  25.164  1.00  0.00    -0.550 OA
ENDBRANCH   2   3
ENDBRANCH   1   2
BRANCH   1   6
ATOM      6  C   UNL     1      -5.320  36.229  20.274  1.00  0.00     0.000 C 
BRANCH   6   7
ATOM      7  C   UNL     1      -4.738  35.400  19.124  1.00  0.00    -0.003 C 
ATOM      8  C   UNL     1      -5.667  34.248  18.750  1.00  0.00     0.004 C 
ENDBRANCH   6   7
ENDBRANCH   1   6
TORSDOF 4
ENDMDL
MODEL 2
REMARK VINA RESULT:    -3.282      2.890      4.540
REMARK INTER + INTRA:          -4.126
REMARK INTER:                  -4.033
REMARK INTRA:                  -0.094
REMARK UNBOUND:                -0.077
REMARK SMILES CCCCCC(=O)[O-]
REMARK SMILES IDX 4 1 5 2 6 3 7 4 8 5 3 6 2 7 1 8
REMARK H PARENT
REMARK Flexibility Score: inf
ROOT
ATOM      1  C   UNL     1      -5.065  35.537  21.405  1.00  0.00     0.006 C 
ENDROOT
BRANCH   1   2
ATOM      2  C   UNL     1      -5.186  36.128  19.994  1.00  0.00     0.053 C 
BRANCH   2   3
ATOM      3  C   UNL     1      -5.211  35.061  18.943  1.00  0.00     0.041 C 
ATOM      4  O   UNL     1      -6.125  34.194  18.943  1.00  0.00    -0.550 OA
ATOM      5  O   UNL     1      -4.244  35.043  17.946  1.00  0.00    -0.550 OA
ENDBRANCH   2   3
ENDBRANCH   1   2
BRANCH   1   6
ATOM      6  C   UNL     1      -6.111  36.116  22.370  1.00  0.00     0.000 C 
BRANCH   6   7
ATOM      7  C   UNL     1      -6.032  35.433  23.739  1.00  0.00    -0.003 C 
ATOM      8  C   UNL     1      -6.041  33.914  23.599  1.00  0.00     0.004 C 
ENDBRANCH   6   7
ENDBRANCH   1   6
TORSDOF 4
ENDMDL
MODEL 3
REMARK VINA RESULT:    -3.057      0.932      2.011
REMARK INTER + INTRA:          -3.849
REMARK INTER:                  -4.190
REMARK INTRA:                   0.342
REMARK UNBOUND:                -0.077
REMARK SMILES CCCCCC(=O)[O-]
REMARK SMILES IDX 4 1 5 2 6 3 7 4 8 5 3 6 2 7 1 8
REMARK H PARENT
REMARK Flexibility Score: inf
ROOT
ATOM      1  C   UNL     1      -5.163  35.295  21.666  1.00  0.00     0.006 C 
ENDROOT
BRANCH   1   2
ATOM      2  C   UNL     1      -6.122  35.823  22.741  1.00  0.00     0.053 C 
BRANCH   2   3
ATOM      3  C   UNL     1      -6.064  35.001  23.992  1.00  0.00     0.041 C 
ATOM      4  O   UNL     1      -6.001  35.563  25.117  1.00  0.00    -0.550 OA
ATOM      5  O   UNL     1      -6.111  33.614  23.916  1.00  0.00    -0.550 OA
ENDBRANCH   2   3
ENDBRANCH   1   2
BRANCH   1   6
ATOM      6  C   UNL     1      -5.672  35.576  20.244  1.00  0.00     0.000 C 
BRANCH   6   7
ATOM      7  C   UNL     1      -5.133  36.912  19.722  1.00  0.00    -0.003 C 
ATOM      8  C   UNL     1      -5.408  38.042  20.709  1.00  0.00     0.004 C 
ENDBRANCH   6   7
ENDBRANCH   1   6
TORSDOF 4
ENDMDL
MODEL 4
REMARK VINA RESULT:    -2.804     11.839     13.347
REMARK INTER + INTRA:          -3.536
REMARK INTER:                  -3.423
REMARK INTRA:                  -0.114
REMARK UNBOUND:                -0.077
REMARK SMILES CCCCCC(=O)[O-]
REMARK SMILES IDX 4 1 5 2 6 3 7 4 8 5 3 6 2 7 1 8
REMARK H PARENT
REMARK Flexibility Score: inf
ROOT
ATOM      1  C   UNL     1      -4.960  24.413  29.623  1.00  0.00     0.006 C 
ENDROOT
BRANCH   1   2
ATOM      2  C   UNL     1      -5.843  25.601  29.217  1.00  0.00     0.053 C 
BRANCH   2   3
ATOM      3  C   UNL     1      -5.432  26.863  29.910  1.00  0.00     0.041 C 
ATOM      4  O   UNL     1      -6.125  27.908  29.787  1.00  0.00    -0.550 OA
ATOM      5  O   UNL     1      -4.302  26.878  30.717  1.00  0.00    -0.550 OA
ENDBRANCH   2   3
ENDBRANCH   1   2
BRANCH   1   6
ATOM      6  C   UNL     1      -5.745  23.340  30.391  1.00  0.00     0.000 C 
BRANCH   6   7
ATOM      7  C   UNL     1      -5.738  22.007  29.635  1.00  0.00    -0.003 C 
ATOM      8  C   UNL     1      -4.969  22.123  28.321  1.00  0.00     0.004 C 
ENDBRANCH   6   7
ENDBRANCH   1   6
TORSDOF 4
ENDMDL
MODEL 5
REMARK VINA RESULT:    -2.600     12.372     13.453
REMARK INTER + INTRA:          -3.285
REMARK INTER:                  -3.194
REMARK INTRA:                  -0.091
REMARK UNBOUND:                -0.077
REMARK SMILES CCCCCC(=O)[O-]
REMARK SMILES IDX 4 1 5 2 6 3 7 4 8 5 3 6 2 7 1 8
REMARK H PARENT
REMARK Flexibility Score: inf
ROOT
ATOM      1  C   UNL     1      -4.946  25.515  29.576  1.00  0.00     0.006 C 
ENDROOT
BRANCH   1   2
ATOM      2  C   UNL     1      -5.429  24.353  28.697  1.00  0.00     0.053 C 
BRANCH   2   3
ATOM      3  C   UNL     1      -5.471  23.062  29.455  1.00  0.00     0.041 C 
ATOM      4  O   UNL     1      -5.858  23.043  30.653  1.00  0.00    -0.550 OA
ATOM      5  O   UNL     1      -5.114  21.875  28.828  1.00  0.00    -0.550 OA
ENDBRANCH   2   3
ENDBRANCH   1   2
BRANCH   1   6
ATOM      6  C   UNL     1      -5.659  26.834  29.239  1.00  0.00     0.000 C 
BRANCH   6   7
ATOM      7  C   UNL     1      -5.751  27.739  30.472  1.00  0.00    -0.003 C 
ATOM      8  C   UNL     1      -4.578  27.502  31.419  1.00  0.00     0.004 C 
ENDBRANCH   6   7
ENDBRANCH   1   6
TORSDOF 4
ENDMDL
MODEL 6
REMARK VINA RESULT:    -2.324      3.244      4.471
REMARK INTER + INTRA:          -2.944
REMARK INTER:                  -2.842
REMARK INTRA:                  -0.102
REMARK UNBOUND:                -0.077
REMARK SMILES CCCCCC(=O)[O-]
REMARK SMILES IDX 4 1 5 2 6 3 7 4 8 5 3 6 2 7 1 8
REMARK H PARENT
REMARK Flexibility Score: inf
ROOT
ATOM      1  C   UNL     1      -6.020  35.454  21.281  1.00  0.00     0.006 C 
ENDROOT
BRANCH   1   2
ATOM      2  C   UNL     1      -4.774  34.975  20.523  1.00  0.00     0.053 C 
BRANCH   2   3
ATOM      3  C   UNL     1      -5.034  34.838  19.055  1.00  0.00     0.041 C 
ATOM      4  O   UNL     1      -5.945  34.073  18.641  1.00  0.00    -0.550 OA
ATOM      5  O   UNL     1      -4.292  35.581  18.145  1.00  0.00    -0.550 OA
ENDBRANCH   2   3
ENDBRANCH   1   2
BRANCH   1   6
ATOM      6  C   UNL     1      -5.784  36.789  22.003  1.00  0.00     0.000 C 
BRANCH   6   7
ATOM      7  C   UNL     1      -5.441  37.900  21.004  1.00  0.00    -0.003 C 
ATOM      8  C   UNL     1      -5.466  39.271  21.674  1.00  0.00     0.004 C 
ENDBRANCH   6   7
ENDBRANCH   1   6
TORSDOF 4
ENDMDL
MODEL 7
REMARK VINA RESULT:    -2.190      1.977      2.924
REMARK INTER + INTRA:          -2.779
REMARK INTER:                  -2.685
REMARK INTRA:                  -0.094
REMARK UNBOUND:                -0.077
REMARK SMILES CCCCCC(=O)[O-]
REMARK SMILES IDX 4 1 5 2 6 3 7 4 8 5 3 6 2 7 1 8
REMARK H PARENT
REMARK Flexibility Score: inf
ROOT
ATOM      1  C   UNL     1      -5.071  36.300  20.966  1.00  0.00     0.006 C 
ENDROOT
BRANCH   1   2
ATOM      2  C   UNL     1      -6.123  35.339  21.538  1.00  0.00     0.053 C 
BRANCH   2   3
ATOM      3  C   UNL     1      -6.042  35.249  23.030  1.00  0.00     0.041 C 
ATOM      4  O   UNL     1      -5.868  34.134  23.589  1.00  0.00    -0.550 OA
ATOM      5  O   UNL     1      -6.125  36.401  23.803  1.00  0.00    -0.550 OA
ENDBRANCH   2   3
ENDBRANCH   1   2
BRANCH   1   6
ATOM      6  C   UNL     1      -5.617  37.726  20.798  1.00  0.00     0.000 C 
BRANCH   6   7
ATOM      7  C   UNL     1      -4.693  38.749  21.467  1.00  0.00    -0.003 C 
ATOM      8  C   UNL     1      -5.495  39.867  22.129  1.00  0.00     0.004 C 
ENDBRANCH   6   7
ENDBRANCH   1   6
TORSDOF 4
ENDMDL
MODEL 8
REMARK VINA RESULT:    -1.712      2.551      3.247
REMARK INTER + INTRA:          -2.189
REMARK INTER:                  -2.086
REMARK INTRA:                  -0.104
REMARK UNBOUND:                -0.077
REMARK SMILES CCCCCC(=O)[O-]
REMARK SMILES IDX 4 1 5 2 6 3 7 4 8 5 3 6 2 7 1 8
REMARK H PARENT
REMARK Flexibility Score: inf
ROOT
ATOM      1  C   UNL     1      -5.762  36.656  19.844  1.00  0.00     0.006 C 
ENDROOT
BRANCH   1   2
ATOM      2  C   UNL     1      -5.059  37.959  20.252  1.00  0.00     0.053 C 
BRANCH   2   3
ATOM      3  C   UNL     1      -5.455  38.397  21.628  1.00  0.00     0.041 C 
ATOM      4  O   UNL     1      -5.495  39.622  21.915  1.00  0.00    -0.550 OA
ATOM      5  O   UNL     1      -5.811  37.454  22.584  1.00  0.00    -0.550 OA
ENDBRANCH   2   3
ENDBRANCH   1   2
BRANCH   1   6
ATOM      6  C   UNL     1      -4.815  35.447  19.888  1.00  0.00     0.000 C 
BRANCH   6   7
ATOM      7  C   UNL     1      -5.123  34.468  18.750  1.00  0.00    -0.003 C 
ATOM      8  C   UNL     1      -4.272  34.767  17.519  1.00  0.00     0.004 C 
ENDBRANCH   6   7
ENDBRANCH   1   6
TORSDOF 4
ENDMDL
MODEL 9
REMARK VINA RESULT:    -0.564      2.891      4.774
REMARK INTER + INTRA:          -0.773
REMARK INTER:                  -0.699
REMARK INTRA:                  -0.074
REMARK UNBOUND:                -0.077
REMARK SMILES CCCCCC(=O)[O-]
REMARK SMILES IDX 4 1 5 2 6 3 7 4 8 5 3 6 2 7 1 8
REMARK H PARENT
REMARK Flexibility Score: inf
ROOT
ATOM      1  C   UNL     1      -5.718  35.822  22.407  1.00  0.00     0.006 C 
ENDROOT
BRANCH   1   2
ATOM      2  C   UNL     1      -6.109  35.362  20.995  1.00  0.00     0.053 C 
BRANCH   2   3
ATOM      3  C   UNL     1      -5.362  36.114  19.938  1.00  0.00     0.041 C 
ATOM      4  O   UNL     1      -5.377  37.373  19.926  1.00  0.00    -0.550 OA
ATOM      5  O   UNL     1      -4.623  35.425  18.984  1.00  0.00    -0.550 OA
ENDBRANCH   2   3
ENDBRANCH   1   2
BRANCH   1   6
ATOM      6  C   UNL     1      -5.776  34.677  23.428  1.00  0.00     0.000 C 
BRANCH   6   7
ATOM      7  C   UNL     1      -6.125  35.204  24.824  1.00  0.00    -0.003 C 
ATOM      8  C   UNL     1      -5.386  36.506  25.123  1.00  0.00     0.004 C 
ENDBRANCH   6   7
ENDBRANCH   1   6
TORSDOF 4
ENDMDL
