MODEL 1
REMARK VINA RESULT:    12.308      0.000      0.000
REMARK INTER + INTRA:          25.247
REMARK INTER:                  26.697
REMARK INTRA:                  -1.451
REMARK UNBOUND:                -1.451
REMARK SMILES CCCCCCCCCCCCCCCCCCCCCC(=O)[O-]
REMARK SMILES IDX 12 1 11 2 10 3 9 4 8 5 7 6 6 7 5 8 4 9 3 10 2 11 1 12 13 13
REMARK SMILES IDX 14 14 15 15 16 16 17 17 18 18 19 19 20 20 21 21 22 22 23 23
REMARK SMILES IDX 24 24
REMARK H PARENT
REMARK Flexibility Score: inf
ROOT
ATOM      1  C   UNL     1      -7.239  16.549 -11.756  1.00  0.00     0.000 C 
ENDROOT
BRANCH   1   2
ATOM      2  C   UNL     1      -7.715  15.356 -12.594  1.00  0.00     0.000 C 
BRANCH   2   3
ATOM      3  C   UNL     1      -9.245  15.222 -12.535  1.00  0.00     0.000 C 
BRANCH   3   4
ATOM      4  C   UNL     1      -9.706  14.002 -11.719  1.00  0.00    -0.000 C 
BRANCH   4   5
ATOM      5  C   UNL     1     -10.425  14.341 -10.397  1.00  0.00    -0.000 C 
BRANCH   5   6
ATOM      6  C   UNL     1     -10.214  15.779  -9.884  1.00  0.00    -0.000 C 
BRANCH   6   7
ATOM      7  C   UNL     1      -9.273  15.909  -8.672  1.00  0.00    -0.000 C 
BRANCH   7   8
ATOM      8  C   UNL     1      -9.880  16.737  -7.529  1.00  0.00    -0.000 C 
BRANCH   8   9
ATOM      9  C   UNL     1     -11.380  16.442  -7.376  1.00  0.00    -0.000 C 
BRANCH   9  10
ATOM     10  C   UNL     1     -11.784  16.170  -5.918  1.00  0.00    -0.000 C 
BRANCH  10  11
ATOM     11  C   UNL     1     -13.166  15.509  -5.801  1.00  0.00    -0.003 C 
ATOM     12  C   UNL     1     -13.090  14.211  -5.002  1.00  0.00     0.004 C 
ENDBRANCH  10  11
ENDBRANCH   9  10
ENDBRANCH   8   9
ENDBRANCH   7   8
ENDBRANCH   6   7
ENDBRANCH   5   6
ENDBRANCH   4   5
ENDBRANCH   3   4
ENDBRANCH   2   3
ENDBRANCH   1   2
BRANCH   1  13
ATOM     13  C   UNL     1      -6.155  16.119 -10.755  1.00  0.00     0.000 C 
BRANCH  13  14
ATOM     14  C   UNL     1      -5.060  15.252 -11.396  1.00  0.00     0.000 C 
BRANCH  14  15
ATOM     15  C   UNL     1      -3.839  15.063 -10.479  1.00  0.00     0.000 C 
BRANCH  15  16
ATOM     16  C   UNL     1      -3.133  16.389 -10.144  1.00  0.00     0.000 C 
BRANCH  16  17
ATOM     17  C   UNL     1      -3.606  17.605 -10.964  1.00  0.00     0.000 C 
BRANCH  17  18
ATOM     18  C   UNL     1      -2.933  18.917 -10.531  1.00  0.00     0.000 C 
BRANCH  18  19
ATOM     19  C   UNL     1      -3.827  20.123 -10.846  1.00  0.00     0.000 C 
BRANCH  19  20
ATOM     20  C   UNL     1      -5.265  19.677 -11.148  1.00  0.00     0.006 C 
BRANCH  20  21
ATOM     21  C   UNL     1      -6.161  20.851 -11.563  1.00  0.00     0.053 C 
BRANCH  21  22
ATOM     22  C   UNL     1      -6.771  20.632 -12.914  1.00  0.00     0.041 C 
ATOM     23  O   UNL     1      -7.338  19.541 -13.183  1.00  0.00    -0.550 OA
ATOM     24  O   UNL     1      -6.743  21.647 -13.862  1.00  0.00    -0.550 OA
ENDBRANCH  21  22
ENDBRANCH  20  21
ENDBRANCH  19  20
ENDBRANCH  18  19
ENDBRANCH  17  18
ENDBRANCH  16  17
ENDBRANCH  15  16
ENDBRANCH  14  15
ENDBRANCH  13  14
ENDBRANCH   1  13
TORSDOF 20
ENDMDL
MODEL 2
REMARK VINA RESULT:    13.209      3.028      7.992
REMARK INTER + INTRA:          27.203
REMARK INTER:                  28.583
REMARK INTRA:                  -1.381
REMARK UNBOUND:                -1.451
REMARK SMILES CCCCCCCCCCCCCCCCCCCCCC(=O)[O-]
REMARK SMILES IDX 12 1 11 2 10 3 9 4 8 5 7 6 6 7 5 8 4 9 3 10 2 11 1 12 13 13
REMARK SMILES IDX 14 14 15 15 16 16 17 17 18 18 19 19 20 20 21 21 22 22 23 23
REMARK SMILES IDX 24 24
REMARK H PARENT
REMARK Flexibility Score: inf
ROOT
ATOM      1  C   UNL     1      -5.962  15.939 -10.462  1.00  0.00     0.000 C 
ENDROOT
BRANCH   1   2
ATOM      2  C   UNL     1      -4.903  15.073 -11.156  1.00  0.00     0.000 C 
BRANCH   2   3
ATOM      3  C   UNL     1      -3.612  15.015 -10.325  1.00  0.00     0.000 C 
BRANCH   3   4
ATOM      4  C   UNL     1      -2.975  16.400 -10.116  1.00  0.00    -0.000 C 
BRANCH   4   5
ATOM      5  C   UNL     1      -3.466  17.493 -11.087  1.00  0.00    -0.000 C 
BRANCH   5   6
ATOM      6  C   UNL     1      -2.981  18.921 -10.768  1.00  0.00    -0.000 C 
BRANCH   6   7
ATOM      7  C   UNL     1      -4.044  20.023 -10.932  1.00  0.00    -0.000 C 
BRANCH   7   8
ATOM      8  C   UNL     1      -5.481  19.483 -10.861  1.00  0.00    -0.000 C 
BRANCH   8   9
ATOM      9  C   UNL     1      -6.489  20.546 -11.325  1.00  0.00    -0.000 C 
BRANCH   9  10
ATOM     10  C   UNL     1      -6.783  20.466 -12.832  1.00  0.00    -0.000 C 
BRANCH  10  11
ATOM     11  C   UNL     1      -6.725  21.838 -13.520  1.00  0.00    -0.003 C 
ATOM     12  C   UNL     1      -6.832  21.699 -15.036  1.00  0.00     0.004 C 
ENDBRANCH  10  11
ENDBRANCH   9  10
ENDBRANCH   8   9
ENDBRANCH   7   8
ENDBRANCH   6   7
ENDBRANCH   5   6
ENDBRANCH   4   5
ENDBRANCH   3   4
ENDBRANCH   2   3
ENDBRANCH   1   2
BRANCH   1  13
ATOM     13  C   UNL     1      -6.934  16.545 -11.486  1.00  0.00     0.000 C 
BRANCH  13  14
ATOM     14  C   UNL     1      -7.542  15.492 -12.427  1.00  0.00     0.000 C 
BRANCH  14  15
ATOM     15  C   UNL     1      -9.074  15.596 -12.523  1.00  0.00     0.000 C 
BRANCH  15  16
ATOM     16  C   UNL     1      -9.785  14.270 -12.193  1.00  0.00     0.000 C 
BRANCH  16  17
ATOM     17  C   UNL     1     -10.247  14.125 -10.731  1.00  0.00     0.000 C 
BRANCH  17  18
ATOM     18  C   UNL     1     -10.595  15.472 -10.076  1.00  0.00     0.000 C 
BRANCH  18  19
ATOM     19  C   UNL     1      -9.761  15.700  -8.810  1.00  0.00     0.000 C 
BRANCH  19  20
ATOM     20  C   UNL     1     -10.492  16.630  -7.831  1.00  0.00     0.006 C 
BRANCH  20  21
ATOM     21  C   UNL     1     -11.926  16.163  -7.547  1.00  0.00     0.053 C 
BRANCH  21  22
ATOM     22  C   UNL     1     -12.185  16.029  -6.077  1.00  0.00     0.041 C 
ATOM     23  O   UNL     1     -11.475  16.658  -5.250  1.00  0.00    -0.550 OA
ATOM     24  O   UNL     1     -13.231  15.234  -5.625  1.00  0.00    -0.550 OA
ENDBRANCH  21  22
ENDBRANCH  20  21
ENDBRANCH  19  20
ENDBRANCH  18  19
ENDBRANCH  17  18
ENDBRANCH  16  17
ENDBRANCH  15  16
ENDBRANCH  14  15
ENDBRANCH  13  14
ENDBRANCH   1  13
TORSDOF 20
ENDMDL
MODEL 3
REMARK VINA RESULT:    13.392      3.185      8.054
REMARK INTER + INTRA:          27.598
REMARK INTER:                  28.369
REMARK INTRA:                  -0.771
REMARK UNBOUND:                -1.451
REMARK SMILES CCCCCCCCCCCCCCCCCCCCCC(=O)[O-]
REMARK SMILES IDX 12 1 11 2 10 3 9 4 8 5 7 6 6 7 5 8 4 9 3 10 2 11 1 12 13 13
REMARK SMILES IDX 14 14 15 15 16 16 17 17 18 18 19 19 20 20 21 21 22 22 23 23
REMARK SMILES IDX 24 24
REMARK H PARENT
REMARK Flexibility Score: inf
ROOT
ATOM      1  C   UNL     1      -7.129  18.354 -12.703  1.00  0.00     0.000 C 
ENDROOT
BRANCH   1   2
ATOM      2  C   UNL     1      -7.197  19.846 -13.052  1.00  0.00     0.000 C 
BRANCH   2   3
ATOM      3  C   UNL     1      -6.370  20.679 -12.061  1.00  0.00     0.000 C 
BRANCH   3   4
ATOM      4  C   UNL     1      -5.535  19.811 -11.103  1.00  0.00    -0.000 C 
BRANCH   4   5
ATOM      5  C   UNL     1      -4.160  20.398 -10.728  1.00  0.00    -0.000 C 
BRANCH   5   6
ATOM      6  C   UNL     1      -3.028  19.365 -10.559  1.00  0.00    -0.000 C 
BRANCH   6   7
ATOM      7  C   UNL     1      -3.243  18.034 -11.302  1.00  0.00    -0.000 C 
BRANCH   7   8
ATOM      8  C   UNL     1      -3.646  16.884 -10.367  1.00  0.00    -0.000 C 
BRANCH   8   9
ATOM      9  C   UNL     1      -4.796  16.064 -10.971  1.00  0.00    -0.000 C 
BRANCH   9  10
ATOM     10  C   UNL     1      -4.534  14.550 -10.923  1.00  0.00    -0.000 C 
BRANCH  10  11
ATOM     11  C   UNL     1      -3.611  14.145  -9.764  1.00  0.00    -0.003 C 
ATOM     12  C   UNL     1      -2.143  14.266 -10.162  1.00  0.00     0.004 C 
ENDBRANCH  10  11
ENDBRANCH   9  10
ENDBRANCH   8   9
ENDBRANCH   7   8
ENDBRANCH   6   7
ENDBRANCH   5   6
ENDBRANCH   4   5
ENDBRANCH   3   4
ENDBRANCH   2   3
ENDBRANCH   1   2
BRANCH   1  13
ATOM     13  C   UNL     1      -8.094  17.540 -13.579  1.00  0.00     0.000 C 
BRANCH  13  14
ATOM     14  C   UNL     1      -8.236  16.082 -13.114  1.00  0.00     0.000 C 
BRANCH  14  15
ATOM     15  C   UNL     1      -9.372  15.892 -12.094  1.00  0.00     0.000 C 
BRANCH  15  16
ATOM     16  C   UNL     1      -9.619  14.413 -11.742  1.00  0.00     0.000 C 
BRANCH  16  17
ATOM     17  C   UNL     1     -10.622  14.174 -10.598  1.00  0.00     0.000 C 
BRANCH  17  18
ATOM     18  C   UNL     1     -10.283  14.970  -9.328  1.00  0.00     0.000 C 
BRANCH  18  19
ATOM     19  C   UNL     1     -11.531  15.654  -8.758  1.00  0.00     0.000 C 
BRANCH  19  20
ATOM     20  C   UNL     1     -11.151  16.691  -7.691  1.00  0.00     0.006 C 
BRANCH  20  21
ATOM     21  C   UNL     1     -11.310  16.143  -6.267  1.00  0.00     0.053 C 
BRANCH  21  22
ATOM     22  C   UNL     1     -12.703  15.651  -6.014  1.00  0.00     0.041 C 
ATOM     23  O   UNL     1     -12.940  14.899  -5.033  1.00  0.00    -0.550 OA
ATOM     24  O   UNL     1     -13.743  16.051  -6.843  1.00  0.00    -0.550 OA
ENDBRANCH  21  22
ENDBRANCH  20  21
ENDBRANCH  19  20
ENDBRANCH  18  19
ENDBRANCH  17  18
ENDBRANCH  16  17
ENDBRANCH  15  16
ENDBRANCH  14  15
ENDBRANCH  13  14
ENDBRANCH   1  13
TORSDOF 20
ENDMDL
MODEL 4
REMARK VINA RESULT:    13.437      3.195      7.976
REMARK INTER + INTRA:          27.696
REMARK INTER:                  28.705
REMARK INTRA:                  -1.010
REMARK UNBOUND:                -1.451
REMARK SMILES CCCCCCCCCCCCCCCCCCCCCC(=O)[O-]
REMARK SMILES IDX 12 1 11 2 10 3 9 4 8 5 7 6 6 7 5 8 4 9 3 10 2 11 1 12 13 13
REMARK SMILES IDX 14 14 15 15 16 16 17 17 18 18 19 19 20 20 21 21 22 22 23 23
REMARK SMILES IDX 24 24
REMARK H PARENT
REMARK Flexibility Score: inf
ROOT
ATOM      1  C   UNL     1      -6.749  16.036 -11.302  1.00  0.00     0.000 C 
ENDROOT
BRANCH   1   2
ATOM      2  C   UNL     1      -5.341  15.614 -11.740  1.00  0.00     0.000 C 
BRANCH   2   3
ATOM      3  C   UNL     1      -4.653  14.784 -10.646  1.00  0.00     0.000 C 
BRANCH   3   4
ATOM      4  C   UNL     1      -3.229  15.274 -10.332  1.00  0.00    -0.000 C 
BRANCH   4   5
ATOM      5  C   UNL     1      -3.111  16.785 -10.049  1.00  0.00    -0.000 C 
BRANCH   5   6
ATOM      6  C   UNL     1      -3.646  17.707 -11.163  1.00  0.00    -0.000 C 
BRANCH   6   7
ATOM      7  C   UNL     1      -3.107  19.149 -11.133  1.00  0.00    -0.000 C 
BRANCH   7   8
ATOM      8  C   UNL     1      -4.186  20.183 -10.778  1.00  0.00    -0.000 C 
BRANCH   8   9
ATOM      9  C   UNL     1      -5.591  19.580 -10.920  1.00  0.00    -0.000 C 
BRANCH   9  10
ATOM     10  C   UNL     1      -6.610  20.580 -11.490  1.00  0.00    -0.000 C 
BRANCH  10  11
ATOM     11  C   UNL     1      -6.856  20.385 -12.994  1.00  0.00    -0.003 C 
ATOM     12  C   UNL     1      -6.531  21.656 -13.774  1.00  0.00     0.004 C 
ENDBRANCH  10  11
ENDBRANCH   9  10
ENDBRANCH   8   9
ENDBRANCH   7   8
ENDBRANCH   6   7
ENDBRANCH   5   6
ENDBRANCH   4   5
ENDBRANCH   3   4
ENDBRANCH   2   3
ENDBRANCH   1   2
BRANCH   1  13
ATOM     13  C   UNL     1      -7.717  16.042 -12.496  1.00  0.00     0.000 C 
BRANCH  13  14
ATOM     14  C   UNL     1      -8.675  14.839 -12.492  1.00  0.00     0.000 C 
BRANCH  14  15
ATOM     15  C   UNL     1     -10.024  15.157 -11.822  1.00  0.00     0.000 C 
BRANCH  15  16
ATOM     16  C   UNL     1     -10.429  14.109 -10.769  1.00  0.00     0.000 C 
BRANCH  16  17
ATOM     17  C   UNL     1     -10.484  14.630  -9.320  1.00  0.00     0.000 C 
BRANCH  17  18
ATOM     18  C   UNL     1      -9.588  15.858  -9.090  1.00  0.00     0.000 C 
BRANCH  18  19
ATOM     19  C   UNL     1      -9.752  16.400  -7.666  1.00  0.00     0.000 C 
BRANCH  19  20
ATOM     20  C   UNL     1     -11.215  16.773  -7.386  1.00  0.00     0.006 C 
BRANCH  20  21
ATOM     21  C   UNL     1     -11.639  16.425  -5.954  1.00  0.00     0.053 C 
BRANCH  21  22
ATOM     22  C   UNL     1     -12.856  15.550  -5.932  1.00  0.00     0.041 C 
ATOM     23  O   UNL     1     -13.836  15.812  -6.678  1.00  0.00    -0.550 OA
ATOM     24  O   UNL     1     -12.892  14.429  -5.114  1.00  0.00    -0.550 OA
ENDBRANCH  21  22
ENDBRANCH  20  21
ENDBRANCH  19  20
ENDBRANCH  18  19
ENDBRANCH  17  18
ENDBRANCH  16  17
ENDBRANCH  15  16
ENDBRANCH  14  15
ENDBRANCH  13  14
ENDBRANCH   1  13
TORSDOF 20
ENDMDL
MODEL 5
REMARK VINA RESULT:    13.931      2.270      3.783
REMARK INTER + INTRA:          28.768
REMARK INTER:                  30.355
REMARK INTRA:                  -1.587
REMARK UNBOUND:                -1.451
REMARK SMILES CCCCCCCCCCCCCCCCCCCCCC(=O)[O-]
REMARK SMILES IDX 12 1 11 2 10 3 9 4 8 5 7 6 6 7 5 8 4 9 3 10 2 11 1 12 13 13
REMARK SMILES IDX 14 14 15 15 16 16 17 17 18 18 19 19 20 20 21 21 22 22 23 23
REMARK SMILES IDX 24 24
REMARK H PARENT
REMARK Flexibility Score: inf
ROOT
ATOM      1  C   UNL     1      -7.181  17.498 -12.114  1.00  0.00     0.000 C 
ENDROOT
BRANCH   1   2
ATOM      2  C   UNL     1      -7.256  16.088 -12.713  1.00  0.00     0.000 C 
BRANCH   2   3
ATOM      3  C   UNL     1      -8.680  15.773 -13.196  1.00  0.00     0.000 C 
BRANCH   3   4
ATOM      4  C   UNL     1      -9.688  15.649 -12.040  1.00  0.00    -0.000 C 
BRANCH   4   5
ATOM      5  C   UNL     1     -10.124  14.206 -11.713  1.00  0.00    -0.000 C 
BRANCH   5   6
ATOM      6  C   UNL     1     -10.672  13.992 -10.288  1.00  0.00    -0.000 C 
BRANCH   6   7
ATOM      7  C   UNL     1     -10.122  14.961  -9.225  1.00  0.00    -0.000 C 
BRANCH   7   8
ATOM      8  C   UNL     1     -11.205  15.874  -8.630  1.00  0.00    -0.000 C 
BRANCH   8   9
ATOM      9  C   UNL     1     -10.737  16.484  -7.301  1.00  0.00    -0.000 C 
BRANCH   9  10
ATOM     10  C   UNL     1     -11.893  16.710  -6.313  1.00  0.00    -0.000 C 
BRANCH  10  11
ATOM     11  C   UNL     1     -12.978  15.627  -6.413  1.00  0.00    -0.003 C 
ATOM     12  C   UNL     1     -12.892  14.650  -5.244  1.00  0.00     0.004 C 
ENDBRANCH  10  11
ENDBRANCH   9  10
ENDBRANCH   8   9
ENDBRANCH   7   8
ENDBRANCH   6   7
ENDBRANCH   5   6
ENDBRANCH   4   5
ENDBRANCH   3   4
ENDBRANCH   2   3
ENDBRANCH   1   2
BRANCH   1  13
ATOM     13  C   UNL     1      -7.705  18.546 -13.108  1.00  0.00     0.000 C 
BRANCH  13  14
ATOM     14  C   UNL     1      -6.926  19.870 -13.047  1.00  0.00     0.000 C 
BRANCH  14  15
ATOM     15  C   UNL     1      -6.733  20.379 -11.608  1.00  0.00     0.000 C 
BRANCH  15  16
ATOM     16  C   UNL     1      -5.579  21.392 -11.482  1.00  0.00     0.000 C 
BRANCH  16  17
ATOM     17  C   UNL     1      -4.264  20.816 -10.925  1.00  0.00     0.000 C 
BRANCH  17  18
ATOM     18  C   UNL     1      -4.274  19.281 -10.834  1.00  0.00     0.000 C 
BRANCH  18  19
ATOM     19  C   UNL     1      -2.849  18.729 -10.702  1.00  0.00     0.000 C 
BRANCH  19  20
ATOM     20  C   UNL     1      -2.869  17.234 -10.351  1.00  0.00     0.006 C 
BRANCH  20  21
ATOM     21  C   UNL     1      -4.057  16.504 -10.991  1.00  0.00     0.053 C 
BRANCH  21  22
ATOM     22  C   UNL     1      -4.110  15.064 -10.579  1.00  0.00     0.041 C 
ATOM     23  O   UNL     1      -3.410  14.656  -9.615  1.00  0.00    -0.550 OA
ATOM     24  O   UNL     1      -4.957  14.182 -11.238  1.00  0.00    -0.550 OA
ENDBRANCH  21  22
ENDBRANCH  20  21
ENDBRANCH  19  20
ENDBRANCH  18  19
ENDBRANCH  17  18
ENDBRANCH  16  17
ENDBRANCH  15  16
ENDBRANCH  14  15
ENDBRANCH  13  14
ENDBRANCH   1  13
TORSDOF 20
ENDMDL
MODEL 6
REMARK VINA RESULT:    13.955      3.408      8.091
REMARK INTER + INTRA:          28.820
REMARK INTER:                  28.627
REMARK INTRA:                   0.193
REMARK UNBOUND:                -1.451
REMARK SMILES CCCCCCCCCCCCCCCCCCCCCC(=O)[O-]
REMARK SMILES IDX 12 1 11 2 10 3 9 4 8 5 7 6 6 7 5 8 4 9 3 10 2 11 1 12 13 13
REMARK SMILES IDX 14 14 15 15 16 16 17 17 18 18 19 19 20 20 21 21 22 22 23 23
REMARK SMILES IDX 24 24
REMARK H PARENT
REMARK Flexibility Score: inf
ROOT
ATOM      1  C   UNL     1      -4.987  14.250 -11.119  1.00  0.00     0.000 C 
ENDROOT
BRANCH   1   2
ATOM      2  C   UNL     1      -4.081  14.141  -9.886  1.00  0.00     0.000 C 
BRANCH   2   3
ATOM      3  C   UNL     1      -2.608  14.346 -10.268  1.00  0.00     0.000 C 
BRANCH   3   4
ATOM      4  C   UNL     1      -2.186  15.826 -10.243  1.00  0.00    -0.000 C 
BRANCH   4   5
ATOM      5  C   UNL     1      -3.352  16.831 -10.153  1.00  0.00    -0.000 C 
BRANCH   5   6
ATOM      6  C   UNL     1      -3.065  18.225 -10.745  1.00  0.00    -0.000 C 
BRANCH   6   7
ATOM      7  C   UNL     1      -4.308  19.106 -10.971  1.00  0.00    -0.000 C 
BRANCH   7   8
ATOM      8  C   UNL     1      -4.052  20.590 -10.669  1.00  0.00    -0.000 C 
BRANCH   8   9
ATOM      9  C   UNL     1      -5.014  21.485 -11.464  1.00  0.00    -0.000 C 
BRANCH   9  10
ATOM     10  C   UNL     1      -6.422  20.880 -11.587  1.00  0.00    -0.000 C 
BRANCH  10  11
ATOM     11  C   UNL     1      -6.720  20.355 -12.999  1.00  0.00    -0.003 C 
ATOM     12  C   UNL     1      -6.784  21.498 -14.009  1.00  0.00     0.004 C 
ENDBRANCH  10  11
ENDBRANCH   9  10
ENDBRANCH   8   9
ENDBRANCH   7   8
ENDBRANCH   6   7
ENDBRANCH   5   6
ENDBRANCH   4   5
ENDBRANCH   3   4
ENDBRANCH   2   3
ENDBRANCH   1   2
BRANCH   1  13
ATOM     13  C   UNL     1      -5.318  15.719 -11.428  1.00  0.00     0.000 C 
BRANCH  13  14
ATOM     14  C   UNL     1      -6.803  16.053 -11.212  1.00  0.00     0.000 C 
BRANCH  14  15
ATOM     15  C   UNL     1      -7.041  16.915  -9.959  1.00  0.00     0.000 C 
BRANCH  15  16
ATOM     16  C   UNL     1      -7.533  16.093  -8.754  1.00  0.00     0.000 C 
BRANCH  16  17
ATOM     17  C   UNL     1      -8.930  16.476  -8.231  1.00  0.00     0.000 C 
BRANCH  17  18
ATOM     18  C   UNL     1     -10.049  15.600  -8.816  1.00  0.00     0.000 C 
BRANCH  18  19
ATOM     19  C   UNL     1     -11.426  16.074  -8.336  1.00  0.00     0.000 C 
BRANCH  19  20
ATOM     20  C   UNL     1     -11.304  16.912  -7.055  1.00  0.00     0.006 C 
BRANCH  20  21
ATOM     21  C   UNL     1     -11.521  16.073  -5.789  1.00  0.00     0.053 C 
BRANCH  21  22
ATOM     22  C   UNL     1     -12.892  15.467  -5.754  1.00  0.00     0.041 C 
ATOM     23  O   UNL     1     -13.845  16.023  -6.361  1.00  0.00    -0.550 OA
ATOM     24  O   UNL     1     -13.107  14.273  -5.079  1.00  0.00    -0.550 OA
ENDBRANCH  21  22
ENDBRANCH  20  21
ENDBRANCH  19  20
ENDBRANCH  18  19
ENDBRANCH  17  18
ENDBRANCH  16  17
ENDBRANCH  15  16
ENDBRANCH  14  15
ENDBRANCH  13  14
ENDBRANCH   1  13
TORSDOF 20
ENDMDL
MODEL 7
REMARK VINA RESULT:    14.341      4.198      7.030
REMARK INTER + INTRA:          29.658
REMARK INTER:                  29.842
REMARK INTRA:                  -0.184
REMARK UNBOUND:                -1.451
REMARK SMILES CCCCCCCCCCCCCCCCCCCCCC(=O)[O-]
REMARK SMILES IDX 12 1 11 2 10 3 9 4 8 5 7 6 6 7 5 8 4 9 3 10 2 11 1 12 13 13
REMARK SMILES IDX 14 14 15 15 16 16 17 17 18 18 19 19 20 20 21 21 22 22 23 23
REMARK SMILES IDX 24 24
REMARK H PARENT
REMARK Flexibility Score: inf
ROOT
ATOM      1  C   UNL     1      -6.593  19.398 -10.982  1.00  0.00     0.000 C 
ENDROOT
BRANCH   1   2
ATOM      2  C   UNL     1      -5.502  18.346 -10.745  1.00  0.00     0.000 C 
BRANCH   2   3
ATOM      3  C   UNL     1      -4.109  18.927 -11.031  1.00  0.00     0.000 C 
BRANCH   3   4
ATOM      4  C   UNL     1      -2.975  17.933 -10.729  1.00  0.00    -0.000 C 
BRANCH   4   5
ATOM      5  C   UNL     1      -3.438  16.565 -10.189  1.00  0.00    -0.000 C 
BRANCH   5   6
ATOM      6  C   UNL     1      -2.308  15.563  -9.878  1.00  0.00    -0.000 C 
BRANCH   6   7
ATOM      7  C   UNL     1      -2.701  14.079  -9.997  1.00  0.00    -0.000 C 
BRANCH   7   8
ATOM      8  C   UNL     1      -4.205  13.875 -10.232  1.00  0.00    -0.000 C 
BRANCH   8   9
ATOM      9  C   UNL     1      -4.641  14.499 -11.567  1.00  0.00    -0.000 C 
BRANCH   9  10
ATOM     10  C   UNL     1      -5.892  15.382 -11.428  1.00  0.00    -0.000 C 
BRANCH  10  11
ATOM     11  C   UNL     1      -6.769  15.369 -12.689  1.00  0.00    -0.003 C 
ATOM     12  C   UNL     1      -8.142  15.973 -12.411  1.00  0.00     0.004 C 
ENDBRANCH  10  11
ENDBRANCH   9  10
ENDBRANCH   8   9
ENDBRANCH   7   8
ENDBRANCH   6   7
ENDBRANCH   5   6
ENDBRANCH   4   5
ENDBRANCH   3   4
ENDBRANCH   2   3
ENDBRANCH   1   2
BRANCH   1  13
ATOM     13  C   UNL     1      -6.740  19.709 -12.480  1.00  0.00     0.000 C 
BRANCH  13  14
ATOM     14  C   UNL     1      -6.489  21.189 -12.810  1.00  0.00     0.000 C 
BRANCH  14  15
ATOM     15  C   UNL     1      -6.250  22.045 -11.554  1.00  0.00     0.000 C 
BRANCH  15  16
ATOM     16  C   UNL     1      -4.796  22.540 -11.435  1.00  0.00     0.000 C 
BRANCH  16  17
ATOM     17  C   UNL     1      -4.534  23.938 -12.024  1.00  0.00     0.000 C 
BRANCH  17  18
ATOM     18  C   UNL     1      -3.436  24.709 -11.273  1.00  0.00     0.000 C 
BRANCH  18  19
ATOM     19  C   UNL     1      -3.605  26.222 -11.453  1.00  0.00     0.000 C 
BRANCH  19  20
ATOM     20  C   UNL     1      -3.781  26.920 -10.097  1.00  0.00     0.006 C 
BRANCH  20  21
ATOM     21  C   UNL     1      -5.219  27.406  -9.877  1.00  0.00     0.053 C 
BRANCH  21  22
ATOM     22  C   UNL     1      -5.899  27.731 -11.173  1.00  0.00     0.041 C 
ATOM     23  O   UNL     1      -6.870  27.035 -11.569  1.00  0.00    -0.550 OA
ATOM     24  O   UNL     1      -5.480  28.821 -11.924  1.00  0.00    -0.550 OA
ENDBRANCH  21  22
ENDBRANCH  20  21
ENDBRANCH  19  20
ENDBRANCH  18  19
ENDBRANCH  17  18
ENDBRANCH  16  17
ENDBRANCH  15  16
ENDBRANCH  14  15
ENDBRANCH  13  14
ENDBRANCH   1  13
TORSDOF 20
ENDMDL
MODEL 8
REMARK VINA RESULT:    15.028      4.279      6.650
REMARK INTER + INTRA:          31.147
REMARK INTER:                  31.232
REMARK INTRA:                  -0.084
REMARK UNBOUND:                -1.451
REMARK SMILES CCCCCCCCCCCCCCCCCCCCCC(=O)[O-]
REMARK SMILES IDX 12 1 11 2 10 3 9 4 8 5 7 6 6 7 5 8 4 9 3 10 2 11 1 12 13 13
REMARK SMILES IDX 14 14 15 15 16 16 17 17 18 18 19 19 20 20 21 21 22 22 23 23
REMARK SMILES IDX 24 24
REMARK H PARENT
REMARK Flexibility Score: inf
ROOT
ATOM      1  C   UNL     1      -4.117  19.567 -11.067  1.00  0.00     0.000 C 
ENDROOT
BRANCH   1   2
ATOM      2  C   UNL     1      -2.966  18.600 -10.758  1.00  0.00     0.000 C 
BRANCH   2   3
ATOM      3  C   UNL     1      -3.492  17.171 -10.555  1.00  0.00     0.000 C 
BRANCH   3   4
ATOM      4  C   UNL     1      -2.467  16.251  -9.868  1.00  0.00    -0.000 C 
BRANCH   4   5
ATOM      5  C   UNL     1      -2.637  14.749 -10.175  1.00  0.00    -0.000 C 
BRANCH   5   6
ATOM      6  C   UNL     1      -4.065  14.198  -9.990  1.00  0.00    -0.000 C 
BRANCH   6   7
ATOM      7  C   UNL     1      -4.890  14.076 -11.284  1.00  0.00    -0.000 C 
BRANCH   7   8
ATOM      8  C   UNL     1      -5.294  15.438 -11.867  1.00  0.00    -0.000 C 
BRANCH   8   9
ATOM      9  C   UNL     1      -6.773  15.740 -11.583  1.00  0.00    -0.000 C 
BRANCH   9  10
ATOM     10  C   UNL     1      -7.707  15.216 -12.685  1.00  0.00    -0.000 C 
BRANCH  10  11
ATOM     11  C   UNL     1      -8.704  16.279 -13.172  1.00  0.00    -0.003 C 
ATOM     12  C   UNL     1      -7.979  17.526 -13.670  1.00  0.00     0.004 C 
ENDBRANCH  10  11
ENDBRANCH   9  10
ENDBRANCH   8   9
ENDBRANCH   7   8
ENDBRANCH   6   7
ENDBRANCH   5   6
ENDBRANCH   4   5
ENDBRANCH   3   4
ENDBRANCH   2   3
ENDBRANCH   1   2
BRANCH   1  13
ATOM     13  C   UNL     1      -5.478  18.898 -10.820  1.00  0.00     0.000 C 
BRANCH  13  14
ATOM     14  C   UNL     1      -6.663  19.833 -11.108  1.00  0.00     0.000 C 
BRANCH  14  15
ATOM     15  C   UNL     1      -6.618  20.430 -12.526  1.00  0.00     0.000 C 
BRANCH  15  16
ATOM     16  C   UNL     1      -5.948  21.816 -12.569  1.00  0.00     0.000 C 
BRANCH  16  17
ATOM     17  C   UNL     1      -5.385  22.310 -11.222  1.00  0.00     0.000 C 
BRANCH  17  18
ATOM     18  C   UNL     1      -4.224  23.303 -11.386  1.00  0.00     0.000 C 
BRANCH  18  19
ATOM     19  C   UNL     1      -4.738  24.684 -11.810  1.00  0.00     0.000 C 
BRANCH  19  20
ATOM     20  C   UNL     1      -3.763  25.790 -11.378  1.00  0.00     0.006 C 
BRANCH  20  21
ATOM     21  C   UNL     1      -4.435  26.841 -10.487  1.00  0.00     0.053 C 
BRANCH  21  22
ATOM     22  C   UNL     1      -5.537  27.557 -11.208  1.00  0.00     0.041 C 
ATOM     23  O   UNL     1      -5.279  28.565 -11.916  1.00  0.00    -0.550 OA
ATOM     24  O   UNL     1      -6.842  27.089 -11.123  1.00  0.00    -0.550 OA
ENDBRANCH  21  22
ENDBRANCH  20  21
ENDBRANCH  19  20
ENDBRANCH  18  19
ENDBRANCH  17  18
ENDBRANCH  16  17
ENDBRANCH  15  16
ENDBRANCH  14  15
ENDBRANCH  13  14
ENDBRANCH   1  13
TORSDOF 20
ENDMDL
MODEL 9
REMARK VINA RESULT:    15.138      4.066      8.260
REMARK INTER + INTRA:          31.387
REMARK INTER:                  31.096
REMARK INTRA:                   0.291
REMARK UNBOUND:                -1.451
REMARK SMILES CCCCCCCCCCCCCCCCCCCCCC(=O)[O-]
REMARK SMILES IDX 12 1 11 2 10 3 9 4 8 5 7 6 6 7 5 8 4 9 3 10 2 11 1 12 13 13
REMARK SMILES IDX 14 14 15 15 16 16 17 17 18 18 19 19 20 20 21 21 22 22 23 23
REMARK SMILES IDX 24 24
REMARK H PARENT
REMARK Flexibility Score: inf
ROOT
ATOM      1  C   UNL     1      -4.433  19.702 -10.851  1.00  0.00     0.000 C 
ENDROOT
BRANCH   1   2
ATOM      2  C   UNL     1      -5.704  18.847 -10.923  1.00  0.00     0.000 C 
BRANCH   2   3
ATOM      3  C   UNL     1      -6.769  19.521 -11.802  1.00  0.00     0.000 C 
BRANCH   3   4
ATOM      4  C   UNL     1      -6.261  20.809 -12.472  1.00  0.00    -0.000 C 
BRANCH   4   5
ATOM      5  C   UNL     1      -6.245  22.052 -11.558  1.00  0.00    -0.000 C 
BRANCH   5   6
ATOM      6  C   UNL     1      -4.935  22.863 -11.575  1.00  0.00    -0.000 C 
BRANCH   6   7
ATOM      7  C   UNL     1      -5.079  24.344 -11.178  1.00  0.00    -0.000 C 
BRANCH   7   8
ATOM      8  C   UNL     1      -3.930  25.218 -11.702  1.00  0.00    -0.000 C 
BRANCH   8   9
ATOM      9  C   UNL     1      -4.072  26.665 -11.205  1.00  0.00    -0.000 C 
BRANCH   9  10
ATOM     10  C   UNL     1      -5.510  27.009 -10.784  1.00  0.00    -0.000 C 
BRANCH  10  11
ATOM     11  C   UNL     1      -6.170  28.036 -11.716  1.00  0.00    -0.003 C 
ATOM     12  C   UNL     1      -5.310  29.289 -11.851  1.00  0.00     0.004 C 
ENDBRANCH  10  11
ENDBRANCH   9  10
ENDBRANCH   8   9
ENDBRANCH   7   8
ENDBRANCH   6   7
ENDBRANCH   5   6
ENDBRANCH   4   5
ENDBRANCH   3   4
ENDBRANCH   2   3
ENDBRANCH   1   2
BRANCH   1  13
ATOM     13  C   UNL     1      -3.214  18.843 -10.479  1.00  0.00     0.000 C 
BRANCH  13  14
ATOM     14  C   UNL     1      -3.417  17.352 -10.791  1.00  0.00     0.000 C 
BRANCH  14  15
ATOM     15  C   UNL     1      -2.753  16.432  -9.752  1.00  0.00     0.000 C 
BRANCH  15  16
ATOM     16  C   UNL     1      -2.354  15.063 -10.334  1.00  0.00     0.000 C 
BRANCH  16  17
ATOM     17  C   UNL     1      -3.245  13.885  -9.897  1.00  0.00     0.000 C 
BRANCH  17  18
ATOM     18  C   UNL     1      -4.727  14.092 -10.249  1.00  0.00     0.000 C 
BRANCH  18  19
ATOM     19  C   UNL     1      -4.879  14.996 -11.477  1.00  0.00     0.000 C 
BRANCH  19  20
ATOM     20  C   UNL     1      -6.295  15.587 -11.553  1.00  0.00     0.006 C 
BRANCH  20  21
ATOM     21  C   UNL     1      -6.850  15.581 -12.982  1.00  0.00     0.053 C 
BRANCH  21  22
ATOM     22  C   UNL     1      -8.205  16.219 -13.053  1.00  0.00     0.041 C 
ATOM     23  O   UNL     1      -9.197  15.658 -12.519  1.00  0.00    -0.550 OA
ATOM     24  O   UNL     1      -8.363  17.448 -13.681  1.00  0.00    -0.550 OA
ENDBRANCH  21  22
ENDBRANCH  20  21
ENDBRANCH  19  20
ENDBRANCH  18  19
ENDBRANCH  17  18
ENDBRANCH  16  17
ENDBRANCH  15  16
ENDBRANCH  14  15
ENDBRANCH  13  14
ENDBRANCH   1  13
TORSDOF 20
ENDMDL
