MODEL 1
REMARK VINA RESULT:    -4.649      0.000      0.000
REMARK INTER + INTRA:         -10.263
REMARK INTER:                  -8.998
REMARK INTRA:                  -1.265
REMARK UNBOUND:                -1.265
REMARK SMILES CCCCCCCCCCCCCCCCCC(=O)[O-]
REMARK SMILES IDX 10 1 11 2 12 3 13 4 14 5 15 6 16 7 17 8 18 9 19 10 20 11
REMARK SMILES IDX 9 12 8 13 7 14 6 15 5 16 4 17 3 18 2 19 1 20
REMARK H PARENT
REMARK Flexibility Score: inf
ROOT
ATOM      1  C   UNL     1       1.990  13.748  19.038  1.00  0.00     0.000 C 
ENDROOT
BRANCH   1   2
ATOM      2  C   UNL     1       2.969  12.641  18.622  1.00  0.00     0.000 C 
BRANCH   2   3
ATOM      3  C   UNL     1       2.385  11.231  18.802  1.00  0.00     0.000 C 
BRANCH   3   4
ATOM      4  C   UNL     1       2.976  10.216  17.808  1.00  0.00     0.000 C 
BRANCH   4   5
ATOM      5  C   UNL     1       4.316   9.634  18.288  1.00  0.00     0.000 C 
BRANCH   5   6
ATOM      6  C   UNL     1       5.502  10.071  17.409  1.00  0.00     0.000 C 
BRANCH   6   7
ATOM      7  C   UNL     1       6.699  10.576  18.235  1.00  0.00     0.006 C 
BRANCH   7   8
ATOM      8  C   UNL     1       6.307  11.380  19.485  1.00  0.00     0.053 C 
BRANCH   8   9
ATOM      9  C   UNL     1       6.643  10.648  20.750  1.00  0.00     0.041 C 
ATOM     10  O   UNL     1       5.725  10.224  21.499  1.00  0.00    -0.550 OA
ATOM     11  O   UNL     1       7.970  10.406  21.081  1.00  0.00    -0.550 OA
ENDBRANCH   8   9
ENDBRANCH   7   8
ENDBRANCH   6   7
ENDBRANCH   5   6
ENDBRANCH   4   5
ENDBRANCH   3   4
ENDBRANCH   2   3
ENDBRANCH   1   2
BRANCH   1  12
ATOM     12  C   UNL     1       1.648  14.655  17.846  1.00  0.00     0.000 C 
BRANCH  12  13
ATOM     13  C   UNL     1       0.846  15.905  18.251  1.00  0.00    -0.000 C 
BRANCH  13  14
ATOM     14  C   UNL     1      -0.613  15.638  18.665  1.00  0.00    -0.000 C 
BRANCH  14  15
ATOM     15  C   UNL     1      -1.472  16.914  18.692  1.00  0.00    -0.000 C 
BRANCH  15  16
ATOM     16  C   UNL     1      -1.149  17.817  19.894  1.00  0.00    -0.000 C 
BRANCH  16  17
ATOM     17  C   UNL     1      -0.346  19.067  19.493  1.00  0.00    -0.000 C 
BRANCH  17  18
ATOM     18  C   UNL     1      -0.811  19.663  18.153  1.00  0.00    -0.000 C 
BRANCH  18  19
ATOM     19  C   UNL     1       0.356  19.953  17.198  1.00  0.00    -0.003 C 
ATOM     20  C   UNL     1       1.691  19.565  17.828  1.00  0.00     0.004 C 
ENDBRANCH  18  19
ENDBRANCH  17  18
ENDBRANCH  16  17
ENDBRANCH  15  16
ENDBRANCH  14  15
ENDBRANCH  13  14
ENDBRANCH  12  13
ENDBRANCH   1  12
TORSDOF 16
ENDMDL
MODEL 2
REMARK VINA RESULT:    -4.509      0.622      1.403
REMARK INTER + INTRA:          -9.991
REMARK INTER:                  -8.876
REMARK INTRA:                  -1.115
REMARK UNBOUND:                -1.265
REMARK SMILES CCCCCCCCCCCCCCCCCC(=O)[O-]
REMARK SMILES IDX 10 1 11 2 12 3 13 4 14 5 15 6 16 7 17 8 18 9 19 10 20 11
REMARK SMILES IDX 9 12 8 13 7 14 6 15 5 16 4 17 3 18 2 19 1 20
REMARK H PARENT
REMARK Flexibility Score: inf
ROOT
ATOM      1  C   UNL     1       1.764  14.567  17.876  1.00  0.00     0.000 C 
ENDROOT
BRANCH   1   2
ATOM      2  C   UNL     1       1.985  13.588  19.038  1.00  0.00     0.000 C 
BRANCH   2   3
ATOM      3  C   UNL     1       3.092  12.562  18.749  1.00  0.00     0.000 C 
BRANCH   3   4
ATOM      4  C   UNL     1       2.561  11.119  18.696  1.00  0.00     0.000 C 
BRANCH   4   5
ATOM      5  C   UNL     1       3.665  10.075  18.930  1.00  0.00     0.000 C 
BRANCH   5   6
ATOM      6  C   UNL     1       4.664   9.996  17.762  1.00  0.00     0.000 C 
BRANCH   6   7
ATOM      7  C   UNL     1       6.097  10.378  18.178  1.00  0.00     0.006 C 
BRANCH   7   8
ATOM      8  C   UNL     1       6.170  11.318  19.392  1.00  0.00     0.053 C 
BRANCH   8   9
ATOM      9  C   UNL     1       6.756  10.638  20.592  1.00  0.00     0.041 C 
ATOM     10  O   UNL     1       7.986  10.379  20.636  1.00  0.00    -0.550 OA
ATOM     11  O   UNL     1       5.946  10.324  21.676  1.00  0.00    -0.550 OA
ENDBRANCH   8   9
ENDBRANCH   7   8
ENDBRANCH   6   7
ENDBRANCH   5   6
ENDBRANCH   4   5
ENDBRANCH   3   4
ENDBRANCH   2   3
ENDBRANCH   1   2
BRANCH   1  12
ATOM     12  C   UNL     1       1.040  15.834  18.356  1.00  0.00     0.000 C 
BRANCH  12  13
ATOM     13  C   UNL     1      -0.485  15.651  18.468  1.00  0.00    -0.000 C 
BRANCH  13  14
ATOM     14  C   UNL     1      -1.282  16.946  18.708  1.00  0.00    -0.000 C 
BRANCH  14  15
ATOM     15  C   UNL     1      -1.311  17.366  20.187  1.00  0.00    -0.000 C 
BRANCH  15  16
ATOM     16  C   UNL     1      -1.534  18.878  20.366  1.00  0.00    -0.000 C 
BRANCH  16  17
ATOM     17  C   UNL     1      -0.955  19.700  19.201  1.00  0.00    -0.000 C 
BRANCH  17  18
ATOM     18  C   UNL     1       0.522  20.071  19.416  1.00  0.00    -0.000 C 
BRANCH  18  19
ATOM     19  C   UNL     1       1.438  19.519  18.314  1.00  0.00    -0.003 C 
ATOM     20  C   UNL     1       0.919  19.899  16.929  1.00  0.00     0.004 C 
ENDBRANCH  18  19
ENDBRANCH  17  18
ENDBRANCH  16  17
ENDBRANCH  15  16
ENDBRANCH  14  15
ENDBRANCH  13  14
ENDBRANCH  12  13
ENDBRANCH   1  12
TORSDOF 16
ENDMDL
MODEL 3
REMARK VINA RESULT:    -4.305      3.523      9.077
REMARK INTER + INTRA:          -9.598
REMARK INTER:                  -8.264
REMARK INTRA:                  -1.334
REMARK UNBOUND:                -1.265
REMARK SMILES CCCCCCCCCCCCCCCCCC(=O)[O-]
REMARK SMILES IDX 10 1 11 2 12 3 13 4 14 5 15 6 16 7 17 8 18 9 19 10 20 11
REMARK SMILES IDX 9 12 8 13 7 14 6 15 5 16 4 17 3 18 2 19 1 20
REMARK H PARENT
REMARK Flexibility Score: inf
ROOT
ATOM      1  C   UNL     1       1.923  13.528  19.049  1.00  0.00     0.000 C 
ENDROOT
BRANCH   1   2
ATOM      2  C   UNL     1       1.967  14.602  17.953  1.00  0.00     0.000 C 
BRANCH   2   3
ATOM      3  C   UNL     1       0.716  15.495  17.943  1.00  0.00     0.000 C 
BRANCH   3   4
ATOM      4  C   UNL     1      -0.200  15.241  19.153  1.00  0.00     0.000 C 
BRANCH   4   5
ATOM      5  C   UNL     1      -1.490  16.076  19.100  1.00  0.00     0.000 C 
BRANCH   5   6
ATOM      6  C   UNL     1      -1.668  16.973  20.338  1.00  0.00     0.000 C 
BRANCH   6   7
ATOM      7  C   UNL     1      -1.251  18.432  20.080  1.00  0.00     0.006 C 
BRANCH   7   8
ATOM      8  C   UNL     1      -1.023  18.769  18.597  1.00  0.00     0.053 C 
BRANCH   8   9
ATOM      9  C   UNL     1       0.376  19.241  18.338  1.00  0.00     0.041 C 
ATOM     10  O   UNL     1       1.220  19.263  19.272  1.00  0.00    -0.550 OA
ATOM     11  O   UNL     1       0.754  19.624  17.058  1.00  0.00    -0.550 OA
ENDBRANCH   8   9
ENDBRANCH   7   8
ENDBRANCH   6   7
ENDBRANCH   5   6
ENDBRANCH   4   5
ENDBRANCH   3   4
ENDBRANCH   2   3
ENDBRANCH   1   2
BRANCH   1  12
ATOM     12  C   UNL     1       3.026  12.479  18.835  1.00  0.00     0.000 C 
BRANCH  12  13
ATOM     13  C   UNL     1       2.488  11.037  18.805  1.00  0.00    -0.000 C 
BRANCH  13  14
ATOM     14  C   UNL     1       3.056  10.152  17.681  1.00  0.00    -0.000 C 
BRANCH  14  15
ATOM     15  C   UNL     1       4.432   9.558  18.023  1.00  0.00    -0.000 C 
BRANCH  15  16
ATOM     16  C   UNL     1       5.525   9.993  17.033  1.00  0.00    -0.000 C 
BRANCH  16  17
ATOM     17  C   UNL     1       6.771  10.555  17.740  1.00  0.00    -0.000 C 
BRANCH  17  18
ATOM     18  C   UNL     1       6.421  11.356  19.005  1.00  0.00    -0.000 C 
BRANCH  18  19
ATOM     19  C   UNL     1       6.916  10.678  20.291  1.00  0.00    -0.003 C 
ATOM     20  C   UNL     1       5.744  10.241  21.167  1.00  0.00     0.004 C 
ENDBRANCH  18  19
ENDBRANCH  17  18
ENDBRANCH  16  17
ENDBRANCH  15  16
ENDBRANCH  14  15
ENDBRANCH  13  14
ENDBRANCH  12  13
ENDBRANCH   1  12
TORSDOF 16
ENDMDL
MODEL 4
REMARK VINA RESULT:    -4.191      1.769      2.571
REMARK INTER + INTRA:          -9.377
REMARK INTER:                  -8.049
REMARK INTRA:                  -1.327
REMARK UNBOUND:                -1.265
REMARK SMILES CCCCCCCCCCCCCCCCCC(=O)[O-]
REMARK SMILES IDX 10 1 11 2 12 3 13 4 14 5 15 6 16 7 17 8 18 9 19 10 20 11
REMARK SMILES IDX 9 12 8 13 7 14 6 15 5 16 4 17 3 18 2 19 1 20
REMARK H PARENT
REMARK Flexibility Score: inf
ROOT
ATOM      1  C   UNL     1       1.045  15.962  18.445  1.00  0.00     0.000 C 
ENDROOT
BRANCH   1   2
ATOM      2  C   UNL     1       1.589  14.610  17.960  1.00  0.00     0.000 C 
BRANCH   2   3
ATOM      3  C   UNL     1       2.038  13.700  19.114  1.00  0.00     0.000 C 
BRANCH   3   4
ATOM      4  C   UNL     1       2.717  12.411  18.619  1.00  0.00     0.000 C 
BRANCH   4   5
ATOM      5  C   UNL     1       4.032  12.116  19.360  1.00  0.00     0.000 C 
BRANCH   5   6
ATOM      6  C   UNL     1       4.122  10.660  19.851  1.00  0.00     0.000 C 
BRANCH   6   7
ATOM      7  C   UNL     1       5.522  10.051  19.649  1.00  0.00     0.006 C 
BRANCH   7   8
ATOM      8  C   UNL     1       6.471  10.920  18.808  1.00  0.00     0.053 C 
BRANCH   8   9
ATOM      9  C   UNL     1       6.468  10.518  17.365  1.00  0.00     0.041 C 
ATOM     10  O   UNL     1       7.415  10.859  16.609  1.00  0.00    -0.550 OA
ATOM     11  O   UNL     1       5.434   9.737  16.864  1.00  0.00    -0.550 OA
ENDBRANCH   8   9
ENDBRANCH   7   8
ENDBRANCH   6   7
ENDBRANCH   5   6
ENDBRANCH   4   5
ENDBRANCH   3   4
ENDBRANCH   2   3
ENDBRANCH   1   2
BRANCH   1  12
ATOM     12  C   UNL     1      -0.486  16.012  18.329  1.00  0.00     0.000 C 
BRANCH  12  13
ATOM     13  C   UNL     1      -1.202  15.598  19.628  1.00  0.00    -0.000 C 
BRANCH  13  14
ATOM     14  C   UNL     1      -1.803  16.760  20.440  1.00  0.00    -0.000 C 
BRANCH  14  15
ATOM     15  C   UNL     1      -1.814  18.089  19.666  1.00  0.00    -0.000 C 
BRANCH  15  16
ATOM     16  C   UNL     1      -0.904  19.151  20.306  1.00  0.00    -0.000 C 
BRANCH  16  17
ATOM     17  C   UNL     1       0.188  19.648  19.343  1.00  0.00    -0.000 C 
BRANCH  17  18
ATOM     18  C   UNL     1      -0.347  19.906  17.925  1.00  0.00    -0.000 C 
BRANCH  18  19
ATOM     19  C   UNL     1       0.765  19.928  16.867  1.00  0.00    -0.003 C 
ATOM     20  C   UNL     1       2.141  19.787  17.514  1.00  0.00     0.004 C 
ENDBRANCH  18  19
ENDBRANCH  17  18
ENDBRANCH  16  17
ENDBRANCH  15  16
ENDBRANCH  14  15
ENDBRANCH  13  14
ENDBRANCH  12  13
ENDBRANCH   1  12
TORSDOF 16
ENDMDL
MODEL 5
REMARK VINA RESULT:    -4.078      1.852      2.717
REMARK INTER + INTRA:          -9.158
REMARK INTER:                  -7.842
REMARK INTRA:                  -1.315
REMARK UNBOUND:                -1.265
REMARK SMILES CCCCCCCCCCCCCCCCCC(=O)[O-]
REMARK SMILES IDX 10 1 11 2 12 3 13 4 14 5 15 6 16 7 17 8 18 9 19 10 20 11
REMARK SMILES IDX 9 12 8 13 7 14 6 15 5 16 4 17 3 18 2 19 1 20
REMARK H PARENT
REMARK Flexibility Score: inf
ROOT
ATOM      1  C   UNL     1       3.439  12.222  18.867  1.00  0.00     0.000 C 
ENDROOT
BRANCH   1   2
ATOM      2  C   UNL     1       3.123  10.853  18.246  1.00  0.00     0.000 C 
BRANCH   2   3
ATOM      3  C   UNL     1       3.793   9.691  18.995  1.00  0.00     0.000 C 
BRANCH   3   4
ATOM      4  C   UNL     1       4.121  10.042  20.457  1.00  0.00     0.000 C 
BRANCH   4   5
ATOM      5  C   UNL     1       5.563   9.671  20.842  1.00  0.00     0.000 C 
BRANCH   5   6
ATOM      6  C   UNL     1       6.534  10.859  20.721  1.00  0.00     0.000 C 
BRANCH   6   7
ATOM      7  C   UNL     1       7.394  10.796  19.445  1.00  0.00     0.006 C 
BRANCH   7   8
ATOM      8  C   UNL     1       6.877  11.674  18.294  1.00  0.00     0.053 C 
BRANCH   8   9
ATOM      9  C   UNL     1       7.117  11.042  16.956  1.00  0.00     0.041 C 
ATOM     10  O   UNL     1       8.094  11.403  16.251  1.00  0.00    -0.550 OA
ATOM     11  O   UNL     1       6.278  10.030  16.506  1.00  0.00    -0.550 OA
ENDBRANCH   8   9
ENDBRANCH   7   8
ENDBRANCH   6   7
ENDBRANCH   5   6
ENDBRANCH   4   5
ENDBRANCH   3   4
ENDBRANCH   2   3
ENDBRANCH   1   2
BRANCH   1  12
ATOM     12  C   UNL     1       2.159  13.055  19.038  1.00  0.00     0.000 C 
BRANCH  12  13
ATOM     13  C   UNL     1       2.208  14.395  18.281  1.00  0.00    -0.000 C 
BRANCH  13  14
ATOM     14  C   UNL     1       0.835  14.979  17.901  1.00  0.00    -0.000 C 
BRANCH  14  15
ATOM     15  C   UNL     1       0.592  16.376  18.497  1.00  0.00    -0.000 C 
BRANCH  15  16
ATOM     16  C   UNL     1      -0.903  16.725  18.591  1.00  0.00    -0.000 C 
BRANCH  16  17
ATOM     17  C   UNL     1      -1.144  18.225  18.833  1.00  0.00    -0.000 C 
BRANCH  17  18
ATOM     18  C   UNL     1      -0.094  18.849  19.768  1.00  0.00    -0.000 C 
BRANCH  18  19
ATOM     19  C   UNL     1       0.579  20.088  19.160  1.00  0.00    -0.003 C 
ATOM     20  C   UNL     1       0.872  19.881  17.676  1.00  0.00     0.004 C 
ENDBRANCH  18  19
ENDBRANCH  17  18
ENDBRANCH  16  17
ENDBRANCH  15  16
ENDBRANCH  14  15
ENDBRANCH  13  14
ENDBRANCH  12  13
ENDBRANCH   1  12
TORSDOF 16
ENDMDL
MODEL 6
REMARK VINA RESULT:    -4.033      3.921      9.262
REMARK INTER + INTRA:          -9.070
REMARK INTER:                  -7.899
REMARK INTRA:                  -1.172
REMARK UNBOUND:                -1.265
REMARK SMILES CCCCCCCCCCCCCCCCCC(=O)[O-]
REMARK SMILES IDX 10 1 11 2 12 3 13 4 14 5 15 6 16 7 17 8 18 9 19 10 20 11
REMARK SMILES IDX 9 12 8 13 7 14 6 15 5 16 4 17 3 18 2 19 1 20
REMARK H PARENT
REMARK Flexibility Score: inf
ROOT
ATOM      1  C   UNL     1       2.077  12.864  19.102  1.00  0.00     0.000 C 
ENDROOT
BRANCH   1   2
ATOM      2  C   UNL     1       2.279  14.329  18.689  1.00  0.00     0.000 C 
BRANCH   2   3
ATOM      3  C   UNL     1       1.157  14.853  17.780  1.00  0.00     0.000 C 
BRANCH   3   4
ATOM      4  C   UNL     1       0.506  16.137  18.324  1.00  0.00     0.000 C 
BRANCH   4   5
ATOM      5  C   UNL     1      -0.983  15.946  18.657  1.00  0.00     0.000 C 
BRANCH   5   6
ATOM      6  C   UNL     1      -1.651  17.242  19.151  1.00  0.00     0.000 C 
BRANCH   6   7
ATOM      7  C   UNL     1      -0.667  18.179  19.875  1.00  0.00     0.006 C 
BRANCH   7   8
ATOM      8  C   UNL     1      -0.708  19.635  19.385  1.00  0.00     0.053 C 
BRANCH   8   9
ATOM      9  C   UNL     1      -0.435  19.740  17.915  1.00  0.00     0.041 C 
ATOM     10  O   UNL     1      -1.388  19.782  17.095  1.00  0.00    -0.550 OA
ATOM     11  O   UNL     1       0.874  19.824  17.457  1.00  0.00    -0.550 OA
ENDBRANCH   8   9
ENDBRANCH   7   8
ENDBRANCH   6   7
ENDBRANCH   5   6
ENDBRANCH   4   5
ENDBRANCH   3   4
ENDBRANCH   2   3
ENDBRANCH   1   2
BRANCH   1  12
ATOM     12  C   UNL     1       3.266  11.999  18.657  1.00  0.00     0.000 C 
BRANCH  12  13
ATOM     13  C   UNL     1       2.979  10.489  18.747  1.00  0.00    -0.000 C 
BRANCH  13  14
ATOM     14  C   UNL     1       3.914   9.702  19.683  1.00  0.00    -0.000 C 
BRANCH  14  15
ATOM     15  C   UNL     1       4.786  10.612  20.564  1.00  0.00    -0.000 C 
BRANCH  15  16
ATOM     16  C   UNL     1       6.173  10.009  20.843  1.00  0.00    -0.000 C 
BRANCH  16  17
ATOM     17  C   UNL     1       7.279  10.656  19.991  1.00  0.00    -0.000 C 
BRANCH  17  18
ATOM     18  C   UNL     1       6.719  11.420  18.779  1.00  0.00    -0.000 C 
BRANCH  18  19
ATOM     19  C   UNL     1       7.136  10.793  17.441  1.00  0.00    -0.003 C 
ATOM     20  C   UNL     1       5.991   9.985  16.834  1.00  0.00     0.004 C 
ENDBRANCH  18  19
ENDBRANCH  17  18
ENDBRANCH  16  17
ENDBRANCH  15  16
ENDBRANCH  14  15
ENDBRANCH  13  14
ENDBRANCH  12  13
ENDBRANCH   1  12
TORSDOF 16
ENDMDL
MODEL 7
REMARK VINA RESULT:    -3.971      3.759      9.221
REMARK INTER + INTRA:          -8.951
REMARK INTER:                  -7.781
REMARK INTRA:                  -1.169
REMARK UNBOUND:                -1.265
REMARK SMILES CCCCCCCCCCCCCCCCCC(=O)[O-]
REMARK SMILES IDX 10 1 11 2 12 3 13 4 14 5 15 6 16 7 17 8 18 9 19 10 20 11
REMARK SMILES IDX 9 12 8 13 7 14 6 15 5 16 4 17 3 18 2 19 1 20
REMARK H PARENT
REMARK Flexibility Score: inf
ROOT
ATOM      1  C   UNL     1       1.073  15.892  18.394  1.00  0.00     0.000 C 
ENDROOT
BRANCH   1   2
ATOM      2  C   UNL     1      -0.436  15.958  18.114  1.00  0.00     0.000 C 
BRANCH   2   3
ATOM      3  C   UNL     1      -1.286  15.576  19.336  1.00  0.00     0.000 C 
BRANCH   3   4
ATOM      4  C   UNL     1      -1.841  16.805  20.077  1.00  0.00     0.000 C 
BRANCH   4   5
ATOM      5  C   UNL     1      -1.452  18.128  19.396  1.00  0.00     0.000 C 
BRANCH   5   6
ATOM      6  C   UNL     1      -0.559  19.013  20.284  1.00  0.00     0.000 C 
BRANCH   6   7
ATOM      7  C   UNL     1       0.184  20.099  19.484  1.00  0.00     0.006 C 
BRANCH   7   8
ATOM      8  C   UNL     1      -0.161  20.125  17.987  1.00  0.00     0.053 C 
BRANCH   8   9
ATOM      9  C   UNL     1       1.061  20.005  17.128  1.00  0.00     0.041 C 
ATOM     10  O   UNL     1       2.183  19.776  17.650  1.00  0.00    -0.550 OA
ATOM     11  O   UNL     1       0.953  20.114  15.747  1.00  0.00    -0.550 OA
ENDBRANCH   8   9
ENDBRANCH   7   8
ENDBRANCH   6   7
ENDBRANCH   5   6
ENDBRANCH   4   5
ENDBRANCH   3   4
ENDBRANCH   2   3
ENDBRANCH   1   2
BRANCH   1  12
ATOM     12  C   UNL     1       1.660  14.552  17.924  1.00  0.00     0.000 C 
BRANCH  12  13
ATOM     13  C   UNL     1       1.833  13.536  19.067  1.00  0.00    -0.000 C 
BRANCH  13  14
ATOM     14  C   UNL     1       3.119  12.693  19.002  1.00  0.00    -0.000 C 
BRANCH  14  15
ATOM     15  C   UNL     1       2.847  11.204  18.730  1.00  0.00    -0.000 C 
BRANCH  15  16
ATOM     16  C   UNL     1       3.999  10.298  19.198  1.00  0.00    -0.000 C 
BRANCH  16  17
ATOM     17  C   UNL     1       5.068  10.094  18.111  1.00  0.00    -0.000 C 
BRANCH  17  18
ATOM     18  C   UNL     1       6.409  10.756  18.469  1.00  0.00    -0.000 C 
BRANCH  18  19
ATOM     19  C   UNL     1       6.489  11.169  19.946  1.00  0.00    -0.003 C 
ATOM     20  C   UNL     1       7.456  10.273  20.715  1.00  0.00     0.004 C 
ENDBRANCH  18  19
ENDBRANCH  17  18
ENDBRANCH  16  17
ENDBRANCH  15  16
ENDBRANCH  14  15
ENDBRANCH  13  14
ENDBRANCH  12  13
ENDBRANCH   1  12
TORSDOF 16
ENDMDL
MODEL 8
REMARK VINA RESULT:    -3.880      2.945      3.863
REMARK INTER + INTRA:          -8.774
REMARK INTER:                  -7.576
REMARK INTRA:                  -1.198
REMARK UNBOUND:                -1.265
REMARK SMILES CCCCCCCCCCCCCCCCCC(=O)[O-]
REMARK SMILES IDX 10 1 11 2 12 3 13 4 14 5 15 6 16 7 17 8 18 9 19 10 20 11
REMARK SMILES IDX 9 12 8 13 7 14 6 15 5 16 4 17 3 18 2 19 1 20
REMARK H PARENT
REMARK Flexibility Score: inf
ROOT
ATOM      1  C   UNL     1       2.379  12.956  18.837  1.00  0.00     0.000 C 
ENDROOT
BRANCH   1   2
ATOM      2  C   UNL     1       3.817  12.549  19.187  1.00  0.00     0.000 C 
BRANCH   2   3
ATOM      3  C   UNL     1       3.964  11.041  19.445  1.00  0.00     0.000 C 
BRANCH   3   4
ATOM      4  C   UNL     1       5.052  10.395  18.569  1.00  0.00     0.000 C 
BRANCH   4   5
ATOM      5  C   UNL     1       4.469   9.441  17.515  1.00  0.00     0.000 C 
BRANCH   5   6
ATOM      6  C   UNL     1       2.987   9.724  17.212  1.00  0.00     0.000 C 
BRANCH   6   7
ATOM      7  C   UNL     1       2.061   8.572  17.647  1.00  0.00     0.006 C 
BRANCH   7   8
ATOM      8  C   UNL     1       1.024   8.966  18.711  1.00  0.00     0.053 C 
BRANCH   8   9
ATOM      9  C   UNL     1      -0.352   8.490  18.355  1.00  0.00     0.041 C 
ATOM     10  O   UNL     1      -0.982   7.732  19.137  1.00  0.00    -0.550 OA
ATOM     11  O   UNL     1      -0.949   8.914  17.174  1.00  0.00    -0.550 OA
ENDBRANCH   8   9
ENDBRANCH   7   8
ENDBRANCH   6   7
ENDBRANCH   5   6
ENDBRANCH   4   5
ENDBRANCH   3   4
ENDBRANCH   2   3
ENDBRANCH   1   2
BRANCH   1  12
ATOM     12  C   UNL     1       2.318  14.421  18.380  1.00  0.00     0.000 C 
BRANCH  12  13
ATOM     13  C   UNL     1       0.908  14.858  17.942  1.00  0.00    -0.000 C 
BRANCH  13  14
ATOM     14  C   UNL     1       0.424  16.193  18.536  1.00  0.00    -0.000 C 
BRANCH  14  15
ATOM     15  C   UNL     1      -1.108  16.329  18.534  1.00  0.00    -0.000 C 
BRANCH  15  16
ATOM     16  C   UNL     1      -1.571  17.774  18.785  1.00  0.00    -0.000 C 
BRANCH  16  17
ATOM     17  C   UNL     1      -0.710  18.495  19.837  1.00  0.00    -0.000 C 
BRANCH  17  18
ATOM     18  C   UNL     1      -0.281  19.901  19.387  1.00  0.00    -0.000 C 
BRANCH  18  19
ATOM     19  C   UNL     1       0.144  19.947  17.912  1.00  0.00    -0.003 C 
ATOM     20  C   UNL     1       1.626  19.613  17.758  1.00  0.00     0.004 C 
ENDBRANCH  18  19
ENDBRANCH  17  18
ENDBRANCH  16  17
ENDBRANCH  15  16
ENDBRANCH  14  15
ENDBRANCH  13  14
ENDBRANCH  12  13
ENDBRANCH   1  12
TORSDOF 16
ENDMDL
MODEL 9
REMARK VINA RESULT:    -3.724      3.761      9.102
REMARK INTER + INTRA:          -8.472
REMARK INTER:                  -7.495
REMARK INTRA:                  -0.978
REMARK UNBOUND:                -1.265
REMARK SMILES CCCCCCCCCCCCCCCCCC(=O)[O-]
REMARK SMILES IDX 10 1 11 2 12 3 13 4 14 5 15 6 16 7 17 8 18 9 19 10 20 11
REMARK SMILES IDX 9 12 8 13 7 14 6 15 5 16 4 17 3 18 2 19 1 20
REMARK H PARENT
REMARK Flexibility Score: inf
ROOT
ATOM      1  C   UNL     1       2.249  13.950  19.101  1.00  0.00     0.000 C 
ENDROOT
BRANCH   1   2
ATOM      2  C   UNL     1       1.612  14.452  17.797  1.00  0.00     0.000 C 
BRANCH   2   3
ATOM      3  C   UNL     1       0.801  15.743  17.989  1.00  0.00     0.000 C 
BRANCH   3   4
ATOM      4  C   UNL     1      -0.422  15.542  18.900  1.00  0.00     0.000 C 
BRANCH   4   5
ATOM      5  C   UNL     1      -1.696  16.184  18.326  1.00  0.00     0.000 C 
BRANCH   5   6
ATOM      6  C   UNL     1      -2.112  17.457  19.083  1.00  0.00     0.000 C 
BRANCH   6   7
ATOM      7  C   UNL     1      -1.087  17.874  20.154  1.00  0.00     0.006 C 
BRANCH   7   8
ATOM      8  C   UNL     1      -0.526  19.294  19.969  1.00  0.00     0.053 C 
BRANCH   8   9
ATOM      9  C   UNL     1       0.369  19.390  18.771  1.00  0.00     0.041 C 
ATOM     10  O   UNL     1       1.562  18.995  18.838  1.00  0.00    -0.550 OA
ATOM     11  O   UNL     1      -0.126  19.886  17.572  1.00  0.00    -0.550 OA
ENDBRANCH   8   9
ENDBRANCH   7   8
ENDBRANCH   6   7
ENDBRANCH   5   6
ENDBRANCH   4   5
ENDBRANCH   3   4
ENDBRANCH   2   3
ENDBRANCH   1   2
BRANCH   1  12
ATOM     12  C   UNL     1       2.661  12.474  18.978  1.00  0.00     0.000 C 
BRANCH  12  13
ATOM     13  C   UNL     1       4.110  12.214  19.429  1.00  0.00    -0.000 C 
BRANCH  13  14
ATOM     14  C   UNL     1       4.397  10.779  19.907  1.00  0.00    -0.000 C 
BRANCH  14  15
ATOM     15  C   UNL     1       5.098   9.921  18.841  1.00  0.00    -0.000 C 
BRANCH  15  16
ATOM     16  C   UNL     1       4.375   9.960  17.484  1.00  0.00    -0.000 C 
BRANCH  16  17
ATOM     17  C   UNL     1       3.329   8.840  17.341  1.00  0.00    -0.000 C 
BRANCH  17  18
ATOM     18  C   UNL     1       1.911   9.306  17.713  1.00  0.00    -0.000 C 
BRANCH  18  19
ATOM     19  C   UNL     1       0.991   8.143  18.111  1.00  0.00    -0.003 C 
ATOM     20  C   UNL     1      -0.455   8.612  18.257  1.00  0.00     0.004 C 
ENDBRANCH  18  19
ENDBRANCH  17  18
ENDBRANCH  16  17
ENDBRANCH  15  16
ENDBRANCH  14  15
ENDBRANCH  13  14
ENDBRANCH  12  13
ENDBRANCH   1  12
TORSDOF 16
ENDMDL
