MODEL 1
REMARK VINA RESULT:    -4.792      0.000      0.000
REMARK INTER + INTRA:         -12.654
REMARK INTER:                 -10.394
REMARK INTRA:                  -2.260
REMARK UNBOUND:                -2.260
REMARK SMILES CCCCCCCCCCCCCCCCCCCCCC(=O)[O-]
REMARK SMILES IDX 12 1 11 2 10 3 9 4 8 5 7 6 6 7 5 8 4 9 3 10 2 11 1 12 13 13
REMARK SMILES IDX 14 14 15 15 16 16 17 17 18 18 19 19 20 20 21 21 22 22 23 23
REMARK SMILES IDX 24 24
REMARK H PARENT
REMARK Flexibility Score: inf
ROOT
ATOM      1  C   UNL     1      27.747   7.471  13.251  1.00  0.00     0.000 C 
ENDROOT
BRANCH   1   2
ATOM      2  C   UNL     1      27.401   8.766  12.498  1.00  0.00     0.000 C 
BRANCH   2   3
ATOM      3  C   UNL     1      28.497   9.180  11.503  1.00  0.00     0.000 C 
BRANCH   3   4
ATOM      4  C   UNL     1      29.829   9.513  12.198  1.00  0.00    -0.000 C 
BRANCH   4   5
ATOM      5  C   UNL     1      29.717  10.713  13.153  1.00  0.00    -0.000 C 
BRANCH   5   6
ATOM      6  C   UNL     1      30.149  12.033  12.493  1.00  0.00    -0.000 C 
BRANCH   6   7
ATOM      7  C   UNL     1      28.965  12.978  12.233  1.00  0.00    -0.000 C 
BRANCH   7   8
ATOM      8  C   UNL     1      27.678  12.528  12.948  1.00  0.00    -0.000 C 
BRANCH   8   9
ATOM      9  C   UNL     1      26.439  12.619  12.044  1.00  0.00    -0.000 C 
BRANCH   9  10
ATOM     10  C   UNL     1      25.666  13.936  12.232  1.00  0.00    -0.000 C 
BRANCH  10  11
ATOM     11  C   UNL     1      25.510  14.719  10.919  1.00  0.00    -0.003 C 
ATOM     12  C   UNL     1      26.724  15.592  10.605  1.00  0.00     0.004 C 
ENDBRANCH  10  11
ENDBRANCH   9  10
ENDBRANCH   8   9
ENDBRANCH   7   8
ENDBRANCH   6   7
ENDBRANCH   5   6
ENDBRANCH   4   5
ENDBRANCH   3   4
ENDBRANCH   2   3
ENDBRANCH   1   2
BRANCH   1  13
ATOM     13  C   UNL     1      26.687   7.087  14.299  1.00  0.00     0.000 C 
BRANCH  13  14
ATOM     14  C   UNL     1      25.594   8.159  14.497  1.00  0.00     0.000 C 
BRANCH  14  15
ATOM     15  C   UNL     1      24.306   7.570  15.094  1.00  0.00     0.000 C 
BRANCH  15  16
ATOM     16  C   UNL     1      23.244   7.354  14.011  1.00  0.00     0.000 C 
BRANCH  16  17
ATOM     17  C   UNL     1      23.055   5.858  13.717  1.00  0.00     0.000 C 
BRANCH  17  18
ATOM     18  C   UNL     1      23.023   5.001  14.993  1.00  0.00     0.000 C 
BRANCH  18  19
ATOM     19  C   UNL     1      24.104   3.909  14.999  1.00  0.00     0.000 C 
BRANCH  19  20
ATOM     20  C   UNL     1      24.903   3.846  13.685  1.00  0.00     0.006 C 
BRANCH  20  21
ATOM     21  C   UNL     1      26.001   2.767  13.672  1.00  0.00     0.053 C 
BRANCH  21  22
ATOM     22  C   UNL     1      26.767   2.744  12.383  1.00  0.00     0.041 C 
ATOM     23  O   UNL     1      26.155   2.783  11.283  1.00  0.00    -0.550 OA
ATOM     24  O   UNL     1      28.156   2.718  12.396  1.00  0.00    -0.550 OA
ENDBRANCH  21  22
ENDBRANCH  20  21
ENDBRANCH  19  20
ENDBRANCH  18  19
ENDBRANCH  17  18
ENDBRANCH  16  17
ENDBRANCH  15  16
ENDBRANCH  14  15
ENDBRANCH  13  14
ENDBRANCH   1  13
TORSDOF 20
ENDMDL
MODEL 2
REMARK VINA RESULT:    -4.735      1.184      2.310
REMARK INTER + INTRA:         -12.531
REMARK INTER:                  -9.812
REMARK INTRA:                  -2.718
REMARK UNBOUND:                -2.260
REMARK SMILES CCCCCCCCCCCCCCCCCCCCCC(=O)[O-]
REMARK SMILES IDX 12 1 11 2 10 3 9 4 8 5 7 6 6 7 5 8 4 9 3 10 2 11 1 12 13 13
REMARK SMILES IDX 14 14 15 15 16 16 17 17 18 18 19 19 20 20 21 21 22 22 23 23
REMARK SMILES IDX 24 24
REMARK H PARENT
REMARK Flexibility Score: inf
ROOT
ATOM      1  C   UNL     1      27.111   8.042  15.001  1.00  0.00     0.000 C 
ENDROOT
BRANCH   1   2
ATOM      2  C   UNL     1      28.066   6.990  14.414  1.00  0.00     0.000 C 
BRANCH   2   3
ATOM      3  C   UNL     1      28.167   7.074  12.883  1.00  0.00     0.000 C 
BRANCH   3   4
ATOM      4  C   UNL     1      27.722   8.443  12.337  1.00  0.00    -0.000 C 
BRANCH   4   5
ATOM      5  C   UNL     1      28.811   9.129  11.495  1.00  0.00    -0.000 C 
BRANCH   5   6
ATOM      6  C   UNL     1      30.170   9.173  12.214  1.00  0.00    -0.000 C 
BRANCH   6   7
ATOM      7  C   UNL     1      30.353  10.451  13.049  1.00  0.00    -0.000 C 
BRANCH   7   8
ATOM      8  C   UNL     1      29.368  11.566  12.654  1.00  0.00    -0.000 C 
BRANCH   8   9
ATOM      9  C   UNL     1      28.543  12.073  13.848  1.00  0.00    -0.000 C 
BRANCH   9  10
ATOM     10  C   UNL     1      27.029  11.894  13.638  1.00  0.00    -0.000 C 
BRANCH  10  11
ATOM     11  C   UNL     1      26.630  11.956  12.155  1.00  0.00    -0.003 C 
ATOM     12  C   UNL     1      25.989  13.289  11.773  1.00  0.00     0.004 C 
ENDBRANCH  10  11
ENDBRANCH   9  10
ENDBRANCH   8   9
ENDBRANCH   7   8
ENDBRANCH   6   7
ENDBRANCH   5   6
ENDBRANCH   4   5
ENDBRANCH   3   4
ENDBRANCH   2   3
ENDBRANCH   1   2
BRANCH   1  13
ATOM     13  C   UNL     1      25.718   7.471  15.322  1.00  0.00     0.000 C 
BRANCH  13  14
ATOM     14  C   UNL     1      24.700   7.635  14.173  1.00  0.00     0.000 C 
BRANCH  14  15
ATOM     15  C   UNL     1      23.287   7.190  14.583  1.00  0.00     0.000 C 
BRANCH  15  16
ATOM     16  C   UNL     1      22.984   5.777  14.073  1.00  0.00     0.000 C 
BRANCH  16  17
ATOM     17  C   UNL     1      23.255   4.730  15.164  1.00  0.00     0.000 C 
BRANCH  17  18
ATOM     18  C   UNL     1      24.293   3.680  14.735  1.00  0.00     0.000 C 
BRANCH  18  19
ATOM     19  C   UNL     1      24.848   3.939  13.326  1.00  0.00     0.000 C 
BRANCH  19  20
ATOM     20  C   UNL     1      26.364   3.690  13.220  1.00  0.00     0.006 C 
BRANCH  20  21
ATOM     21  C   UNL     1      26.799   2.283  13.667  1.00  0.00     0.053 C 
BRANCH  21  22
ATOM     22  C   UNL     1      28.259   2.034  13.436  1.00  0.00     0.041 C 
ATOM     23  O   UNL     1      28.975   1.566  14.361  1.00  0.00    -0.550 OA
ATOM     24  O   UNL     1      28.823   2.280  12.190  1.00  0.00    -0.550 OA
ENDBRANCH  21  22
ENDBRANCH  20  21
ENDBRANCH  19  20
ENDBRANCH  18  19
ENDBRANCH  17  18
ENDBRANCH  16  17
ENDBRANCH  15  16
ENDBRANCH  14  15
ENDBRANCH  13  14
ENDBRANCH   1  13
TORSDOF 20
ENDMDL
MODEL 3
REMARK VINA RESULT:    -4.715      9.909     12.430
REMARK INTER + INTRA:         -12.488
REMARK INTER:                  -9.410
REMARK INTRA:                  -3.078
REMARK UNBOUND:                -2.260
REMARK SMILES CCCCCCCCCCCCCCCCCCCCCC(=O)[O-]
REMARK SMILES IDX 12 1 11 2 10 3 9 4 8 5 7 6 6 7 5 8 4 9 3 10 2 11 1 12 13 13
REMARK SMILES IDX 14 14 15 15 16 16 17 17 18 18 19 19 20 20 21 21 22 22 23 23
REMARK SMILES IDX 24 24
REMARK H PARENT
REMARK Flexibility Score: inf
ROOT
ATOM      1  C   UNL     1      17.991   7.987   5.198  1.00  0.00     0.000 C 
ENDROOT
BRANCH   1   2
ATOM      2  C   UNL     1      17.069   7.636   4.019  1.00  0.00     0.000 C 
BRANCH   2   3
ATOM      3  C   UNL     1      17.847   7.377   2.719  1.00  0.00     0.000 C 
BRANCH   3   4
ATOM      4  C   UNL     1      19.313   7.837   2.808  1.00  0.00    -0.000 C 
BRANCH   4   5
ATOM      5  C   UNL     1      20.311   6.686   2.597  1.00  0.00    -0.000 C 
BRANCH   5   6
ATOM      6  C   UNL     1      19.731   5.322   3.009  1.00  0.00    -0.000 C 
BRANCH   6   7
ATOM      7  C   UNL     1      20.435   4.731   4.241  1.00  0.00    -0.000 C 
BRANCH   7   8
ATOM      8  C   UNL     1      21.540   5.649   4.793  1.00  0.00    -0.000 C 
BRANCH   8   9
ATOM      9  C   UNL     1      21.656   5.577   6.323  1.00  0.00    -0.000 C 
BRANCH   9  10
ATOM     10  C   UNL     1      23.103   5.347   6.795  1.00  0.00    -0.000 C 
BRANCH  10  11
ATOM     11  C   UNL     1      24.084   5.179   5.624  1.00  0.00    -0.003 C 
ATOM     12  C   UNL     1      25.456   4.678   6.071  1.00  0.00     0.004 C 
ENDBRANCH  10  11
ENDBRANCH   9  10
ENDBRANCH   8   9
ENDBRANCH   7   8
ENDBRANCH   6   7
ENDBRANCH   5   6
ENDBRANCH   4   5
ENDBRANCH   3   4
ENDBRANCH   2   3
ENDBRANCH   1   2
BRANCH   1  13
ATOM     13  C   UNL     1      18.113   6.843   6.220  1.00  0.00     0.000 C 
BRANCH  13  14
ATOM     14  C   UNL     1      17.068   5.723   6.028  1.00  0.00     0.000 C 
BRANCH  14  15
ATOM     15  C   UNL     1      16.062   5.664   7.188  1.00  0.00     0.000 C 
BRANCH  15  16
ATOM     16  C   UNL     1      14.621   5.756   6.674  1.00  0.00     0.000 C 
BRANCH  16  17
ATOM     17  C   UNL     1      13.867   6.908   7.358  1.00  0.00     0.000 C 
BRANCH  17  18
ATOM     18  C   UNL     1      14.243   8.285   6.786  1.00  0.00     0.000 C 
BRANCH  18  19
ATOM     19  C   UNL     1      14.719   9.265   7.870  1.00  0.00     0.000 C 
BRANCH  19  20
ATOM     20  C   UNL     1      16.220   9.130   8.186  1.00  0.00     0.006 C 
BRANCH  20  21
ATOM     21  C   UNL     1      16.643   9.795   9.508  1.00  0.00     0.053 C 
BRANCH  21  22
ATOM     22  C   UNL     1      18.133   9.874   9.659  1.00  0.00     0.041 C 
ATOM     23  O   UNL     1      18.885   9.466   8.735  1.00  0.00    -0.550 OA
ATOM     24  O   UNL     1      18.691  10.433  10.802  1.00  0.00    -0.550 OA
ENDBRANCH  21  22
ENDBRANCH  20  21
ENDBRANCH  19  20
ENDBRANCH  18  19
ENDBRANCH  17  18
ENDBRANCH  16  17
ENDBRANCH  15  16
ENDBRANCH  14  15
ENDBRANCH  13  14
ENDBRANCH   1  13
TORSDOF 20
ENDMDL
MODEL 4
REMARK VINA RESULT:    -4.666      3.597      7.019
REMARK INTER + INTRA:         -12.380
REMARK INTER:                  -9.392
REMARK INTRA:                  -2.988
REMARK UNBOUND:                -2.260
REMARK SMILES CCCCCCCCCCCCCCCCCCCCCC(=O)[O-]
REMARK SMILES IDX 12 1 11 2 10 3 9 4 8 5 7 6 6 7 5 8 4 9 3 10 2 11 1 12 13 13
REMARK SMILES IDX 14 14 15 15 16 16 17 17 18 18 19 19 20 20 21 21 22 22 23 23
REMARK SMILES IDX 24 24
REMARK H PARENT
REMARK Flexibility Score: inf
ROOT
ATOM      1  C   UNL     1      22.924   5.532  14.901  1.00  0.00     0.000 C 
ENDROOT
BRANCH   1   2
ATOM      2  C   UNL     1      22.668   6.069  13.483  1.00  0.00     0.000 C 
BRANCH   2   3
ATOM      3  C   UNL     1      23.262   7.471  13.267  1.00  0.00     0.000 C 
BRANCH   3   4
ATOM      4  C   UNL     1      23.283   8.307  14.559  1.00  0.00    -0.000 C 
BRANCH   4   5
ATOM      5  C   UNL     1      24.707   8.703  14.986  1.00  0.00    -0.000 C 
BRANCH   5   6
ATOM      6  C   UNL     1      25.094   8.116  16.354  1.00  0.00    -0.000 C 
BRANCH   6   7
ATOM      7  C   UNL     1      23.923   8.118  17.350  1.00  0.00    -0.000 C 
BRANCH   7   8
ATOM      8  C   UNL     1      24.034   9.242  18.396  1.00  0.00    -0.000 C 
BRANCH   8   9
ATOM      9  C   UNL     1      22.773  10.118  18.456  1.00  0.00    -0.000 C 
BRANCH   9  10
ATOM     10  C   UNL     1      21.577   9.481  17.728  1.00  0.00    -0.000 C 
BRANCH  10  11
ATOM     11  C   UNL     1      20.982  10.405  16.654  1.00  0.00    -0.003 C 
ATOM     12  C   UNL     1      20.158  11.546  17.248  1.00  0.00     0.004 C 
ENDBRANCH  10  11
ENDBRANCH   9  10
ENDBRANCH   8   9
ENDBRANCH   7   8
ENDBRANCH   6   7
ENDBRANCH   5   6
ENDBRANCH   4   5
ENDBRANCH   3   4
ENDBRANCH   2   3
ENDBRANCH   1   2
BRANCH   1  13
ATOM     13  C   UNL     1      23.858   4.310  14.917  1.00  0.00     0.000 C 
BRANCH  13  14
ATOM     14  C   UNL     1      24.562   4.048  13.569  1.00  0.00     0.000 C 
BRANCH  14  15
ATOM     15  C   UNL     1      26.092   4.149  13.685  1.00  0.00     0.000 C 
BRANCH  15  16
ATOM     16  C   UNL     1      26.520   5.554  14.123  1.00  0.00     0.000 C 
BRANCH  16  17
ATOM     17  C   UNL     1      27.702   6.055  13.278  1.00  0.00     0.000 C 
BRANCH  17  18
ATOM     18  C   UNL     1      27.856   7.584  13.319  1.00  0.00     0.000 C 
BRANCH  18  19
ATOM     19  C   UNL     1      28.635   8.132  12.113  1.00  0.00     0.000 C 
BRANCH  19  20
ATOM     20  C   UNL     1      28.211   9.559  11.720  1.00  0.00     0.006 C 
BRANCH  20  21
ATOM     21  C   UNL     1      26.766   9.913  12.114  1.00  0.00     0.053 C 
BRANCH  21  22
ATOM     22  C   UNL     1      26.633  11.327  12.594  1.00  0.00     0.041 C 
ATOM     23  O   UNL     1      25.817  11.610  13.512  1.00  0.00    -0.550 OA
ATOM     24  O   UNL     1      27.435  12.327  12.058  1.00  0.00    -0.550 OA
ENDBRANCH  21  22
ENDBRANCH  20  21
ENDBRANCH  19  20
ENDBRANCH  18  19
ENDBRANCH  17  18
ENDBRANCH  16  17
ENDBRANCH  15  16
ENDBRANCH  14  15
ENDBRANCH  13  14
ENDBRANCH   1  13
TORSDOF 20
ENDMDL
MODEL 5
REMARK VINA RESULT:    -4.617      6.107      9.627
REMARK INTER + INTRA:         -12.275
REMARK INTER:                 -10.515
REMARK INTRA:                  -1.760
REMARK UNBOUND:                -2.260
REMARK SMILES CCCCCCCCCCCCCCCCCCCCCC(=O)[O-]
REMARK SMILES IDX 12 1 11 2 10 3 9 4 8 5 7 6 6 7 5 8 4 9 3 10 2 11 1 12 13 13
REMARK SMILES IDX 14 14 15 15 16 16 17 17 18 18 19 19 20 20 21 21 22 22 23 23
REMARK SMILES IDX 24 24
REMARK H PARENT
REMARK Flexibility Score: inf
ROOT
ATOM      1  C   UNL     1      20.316  10.996  16.549  1.00  0.00     0.000 C 
ENDROOT
BRANCH   1   2
ATOM      2  C   UNL     1      20.894  11.064  17.972  1.00  0.00     0.000 C 
BRANCH   2   3
ATOM      3  C   UNL     1      21.571   9.750  18.397  1.00  0.00     0.000 C 
BRANCH   3   4
ATOM      4  C   UNL     1      22.220   9.012  17.213  1.00  0.00    -0.000 C 
BRANCH   4   5
ATOM      5  C   UNL     1      23.756   9.080  17.240  1.00  0.00    -0.000 C 
BRANCH   5   6
ATOM      6  C   UNL     1      24.398   8.368  16.037  1.00  0.00    -0.000 C 
BRANCH   6   7
ATOM      7  C   UNL     1      23.514   8.420  14.780  1.00  0.00    -0.000 C 
BRANCH   7   8
ATOM      8  C   UNL     1      23.292   7.033  14.151  1.00  0.00    -0.000 C 
BRANCH   8   9
ATOM      9  C   UNL     1      23.447   5.893  15.170  1.00  0.00    -0.000 C 
BRANCH   9  10
ATOM     10  C   UNL     1      23.657   4.525  14.497  1.00  0.00    -0.000 C 
BRANCH  10  11
ATOM     11  C   UNL     1      25.123   4.282  14.103  1.00  0.00    -0.003 C 
ATOM     12  C   UNL     1      25.273   3.215  13.020  1.00  0.00     0.004 C 
ENDBRANCH  10  11
ENDBRANCH   9  10
ENDBRANCH   8   9
ENDBRANCH   7   8
ENDBRANCH   6   7
ENDBRANCH   5   6
ENDBRANCH   4   5
ENDBRANCH   3   4
ENDBRANCH   2   3
ENDBRANCH   1   2
BRANCH   1  13
ATOM     13  C   UNL     1      20.348  12.354  15.827  1.00  0.00     0.000 C 
BRANCH  13  14
ATOM     14  C   UNL     1      20.956  12.290  14.409  1.00  0.00     0.000 C 
BRANCH  14  15
ATOM     15  C   UNL     1      20.986  10.856  13.856  1.00  0.00     0.000 C 
BRANCH  15  16
ATOM     16  C   UNL     1      20.064  10.715  12.639  1.00  0.00     0.000 C 
BRANCH  16  17
ATOM     17  C   UNL     1      19.694  12.093  12.069  1.00  0.00     0.000 C 
BRANCH  17  18
ATOM     18  C   UNL     1      18.666  12.007  10.929  1.00  0.00     0.000 C 
BRANCH  18  19
ATOM     19  C   UNL     1      18.631  10.620  10.267  1.00  0.00     0.000 C 
BRANCH  19  20
ATOM     20  C   UNL     1      17.340   9.840  10.573  1.00  0.00     0.006 C 
BRANCH  20  21
ATOM     21  C   UNL     1      16.114  10.323   9.778  1.00  0.00     0.053 C 
BRANCH  21  22
ATOM     22  C   UNL     1      15.914   9.552   8.507  1.00  0.00     0.041 C 
ATOM     23  O   UNL     1      16.471   8.434   8.352  1.00  0.00    -0.550 OA
ATOM     24  O   UNL     1      15.081  10.048   7.512  1.00  0.00    -0.550 OA
ENDBRANCH  21  22
ENDBRANCH  20  21
ENDBRANCH  19  20
ENDBRANCH  18  19
ENDBRANCH  17  18
ENDBRANCH  16  17
ENDBRANCH  15  16
ENDBRANCH  14  15
ENDBRANCH  13  14
ENDBRANCH   1  13
TORSDOF 20
ENDMDL
MODEL 6
REMARK VINA RESULT:    -4.599      4.516      5.979
REMARK INTER + INTRA:         -12.237
REMARK INTER:                 -10.388
REMARK INTRA:                  -1.849
REMARK UNBOUND:                -2.260
REMARK SMILES CCCCCCCCCCCCCCCCCCCCCC(=O)[O-]
REMARK SMILES IDX 12 1 11 2 10 3 9 4 8 5 7 6 6 7 5 8 4 9 3 10 2 11 1 12 13 13
REMARK SMILES IDX 14 14 15 15 16 16 17 17 18 18 19 19 20 20 21 21 22 22 23 23
REMARK SMILES IDX 24 24
REMARK H PARENT
REMARK Flexibility Score: inf
ROOT
ATOM      1  C   UNL     1      23.727   9.081  17.156  1.00  0.00     0.000 C 
ENDROOT
BRANCH   1   2
ATOM      2  C   UNL     1      22.481   8.266  17.537  1.00  0.00     0.000 C 
BRANCH   2   3
ATOM      3  C   UNL     1      21.366   9.139  18.136  1.00  0.00     0.000 C 
BRANCH   3   4
ATOM      4  C   UNL     1      21.646  10.644  17.977  1.00  0.00    -0.000 C 
BRANCH   4   5
ATOM      5  C   UNL     1      20.443  11.416  17.411  1.00  0.00    -0.000 C 
BRANCH   5   6
ATOM      6  C   UNL     1      20.842  12.383  16.284  1.00  0.00    -0.000 C 
BRANCH   6   7
ATOM      7  C   UNL     1      21.617  11.686  15.154  1.00  0.00    -0.000 C 
BRANCH   7   8
ATOM      8  C   UNL     1      20.691  11.001  14.133  1.00  0.00    -0.000 C 
BRANCH   8   9
ATOM      9  C   UNL     1      20.643  11.745  12.789  1.00  0.00    -0.000 C 
BRANCH   9  10
ATOM     10  C   UNL     1      19.628  12.902  12.792  1.00  0.00    -0.000 C 
BRANCH  10  11
ATOM     11  C   UNL     1      18.929  13.073  11.434  1.00  0.00    -0.003 C 
ATOM     12  C   UNL     1      19.073  11.845  10.537  1.00  0.00     0.004 C 
ENDBRANCH  10  11
ENDBRANCH   9  10
ENDBRANCH   8   9
ENDBRANCH   7   8
ENDBRANCH   6   7
ENDBRANCH   5   6
ENDBRANCH   4   5
ENDBRANCH   3   4
ENDBRANCH   2   3
ENDBRANCH   1   2
BRANCH   1  13
ATOM     13  C   UNL     1      24.378   8.600  15.847  1.00  0.00     0.000 C 
BRANCH  13  14
ATOM     14  C   UNL     1      23.383   8.448  14.677  1.00  0.00     0.000 C 
BRANCH  14  15
ATOM     15  C   UNL     1      23.250   6.989  14.214  1.00  0.00     0.000 C 
BRANCH  15  16
ATOM     16  C   UNL     1      23.925   6.032  15.203  1.00  0.00     0.000 C 
BRANCH  16  17
ATOM     17  C   UNL     1      23.496   4.580  14.941  1.00  0.00     0.000 C 
BRANCH  17  18
ATOM     18  C   UNL     1      24.675   3.672  14.554  1.00  0.00     0.000 C 
BRANCH  18  19
ATOM     19  C   UNL     1      24.791   3.470  13.036  1.00  0.00     0.000 C 
BRANCH  19  20
ATOM     20  C   UNL     1      26.105   2.784  12.619  1.00  0.00     0.006 C 
BRANCH  20  21
ATOM     21  C   UNL     1      26.825   2.060  13.769  1.00  0.00     0.053 C 
BRANCH  21  22
ATOM     22  C   UNL     1      28.303   1.948  13.541  1.00  0.00     0.041 C 
ATOM     23  O   UNL     1      29.059   1.558  14.470  1.00  0.00    -0.550 OA
ATOM     24  O   UNL     1      28.842   2.234  12.293  1.00  0.00    -0.550 OA
ENDBRANCH  21  22
ENDBRANCH  20  21
ENDBRANCH  19  20
ENDBRANCH  18  19
ENDBRANCH  17  18
ENDBRANCH  16  17
ENDBRANCH  15  16
ENDBRANCH  14  15
ENDBRANCH  13  14
ENDBRANCH   1  13
TORSDOF 20
ENDMDL
MODEL 7
REMARK VINA RESULT:    -4.596      4.293      6.605
REMARK INTER + INTRA:         -12.230
REMARK INTER:                  -9.609
REMARK INTRA:                  -2.621
REMARK UNBOUND:                -2.260
REMARK SMILES CCCCCCCCCCCCCCCCCCCCCC(=O)[O-]
REMARK SMILES IDX 12 1 11 2 10 3 9 4 8 5 7 6 6 7 5 8 4 9 3 10 2 11 1 12 13 13
REMARK SMILES IDX 14 14 15 15 16 16 17 17 18 18 19 19 20 20 21 21 22 22 23 23
REMARK SMILES IDX 24 24
REMARK H PARENT
REMARK Flexibility Score: inf
ROOT
ATOM      1  C   UNL     1      25.648   2.724  12.750  1.00  0.00     0.000 C 
ENDROOT
BRANCH   1   2
ATOM      2  C   UNL     1      26.894   3.442  12.205  1.00  0.00     0.000 C 
BRANCH   2   3
ATOM      3  C   UNL     1      27.723   4.109  13.315  1.00  0.00     0.000 C 
BRANCH   3   4
ATOM      4  C   UNL     1      27.818   5.636  13.143  1.00  0.00    -0.000 C 
BRANCH   4   5
ATOM      5  C   UNL     1      28.162   6.361  14.455  1.00  0.00    -0.000 C 
BRANCH   5   6
ATOM      6  C   UNL     1      27.197   7.521  14.756  1.00  0.00    -0.000 C 
BRANCH   6   7
ATOM      7  C   UNL     1      26.431   7.989  13.509  1.00  0.00    -0.000 C 
BRANCH   7   8
ATOM      8  C   UNL     1      26.471   9.517  13.326  1.00  0.00    -0.000 C 
BRANCH   8   9
ATOM      9  C   UNL     1      27.123   9.935  11.998  1.00  0.00    -0.000 C 
BRANCH   9  10
ATOM     10  C   UNL     1      28.361   9.087  11.657  1.00  0.00    -0.000 C 
BRANCH  10  11
ATOM     11  C   UNL     1      29.676   9.787  12.037  1.00  0.00    -0.003 C 
ATOM     12  C   UNL     1      30.742   8.811  12.530  1.00  0.00     0.004 C 
ENDBRANCH  10  11
ENDBRANCH   9  10
ENDBRANCH   8   9
ENDBRANCH   7   8
ENDBRANCH   6   7
ENDBRANCH   5   6
ENDBRANCH   4   5
ENDBRANCH   3   4
ENDBRANCH   2   3
ENDBRANCH   1   2
BRANCH   1  13
ATOM     13  C   UNL     1      25.125   3.346  14.057  1.00  0.00     0.000 C 
BRANCH  13  14
ATOM     14  C   UNL     1      24.141   4.515  13.839  1.00  0.00     0.000 C 
BRANCH  14  15
ATOM     15  C   UNL     1      23.353   4.855  15.113  1.00  0.00     0.000 C 
BRANCH  15  16
ATOM     16  C   UNL     1      23.583   6.311  15.532  1.00  0.00     0.000 C 
BRANCH  16  17
ATOM     17  C   UNL     1      23.293   7.270  14.367  1.00  0.00     0.000 C 
BRANCH  17  18
ATOM     18  C   UNL     1      23.008   8.705  14.835  1.00  0.00     0.000 C 
BRANCH  18  19
ATOM     19  C   UNL     1      23.420   8.944  16.296  1.00  0.00     0.000 C 
BRANCH  19  20
ATOM     20  C   UNL     1      22.231   9.294  17.208  1.00  0.00     0.006 C 
BRANCH  20  21
ATOM     21  C   UNL     1      21.449  10.543  16.765  1.00  0.00     0.053 C 
BRANCH  21  22
ATOM     22  C   UNL     1      21.481  11.635  17.792  1.00  0.00     0.041 C 
ATOM     23  O   UNL     1      22.166  12.672  17.590  1.00  0.00    -0.550 OA
ATOM     24  O   UNL     1      20.725  11.526  18.952  1.00  0.00    -0.550 OA
ENDBRANCH  21  22
ENDBRANCH  20  21
ENDBRANCH  19  20
ENDBRANCH  18  19
ENDBRANCH  17  18
ENDBRANCH  16  17
ENDBRANCH  15  16
ENDBRANCH  14  15
ENDBRANCH  13  14
ENDBRANCH   1  13
TORSDOF 20
ENDMDL
MODEL 8
REMARK VINA RESULT:    -4.550      5.610      8.007
REMARK INTER + INTRA:         -12.130
REMARK INTER:                 -10.452
REMARK INTRA:                  -1.679
REMARK UNBOUND:                -2.260
REMARK SMILES CCCCCCCCCCCCCCCCCCCCCC(=O)[O-]
REMARK SMILES IDX 12 1 11 2 10 3 9 4 8 5 7 6 6 7 5 8 4 9 3 10 2 11 1 12 13 13
REMARK SMILES IDX 14 14 15 15 16 16 17 17 18 18 19 19 20 20 21 21 22 22 23 23
REMARK SMILES IDX 24 24
REMARK H PARENT
REMARK Flexibility Score: inf
ROOT
ATOM      1  C   UNL     1      22.095  11.646  15.575  1.00  0.00     0.000 C 
ENDROOT
BRANCH   1   2
ATOM      2  C   UNL     1      22.104  11.704  14.039  1.00  0.00     0.000 C 
BRANCH   2   3
ATOM      3  C   UNL     1      20.692  11.607  13.437  1.00  0.00     0.000 C 
BRANCH   3   4
ATOM      4  C   UNL     1      20.151  12.974  12.980  1.00  0.00    -0.000 C 
BRANCH   4   5
ATOM      5  C   UNL     1      19.715  12.977  11.505  1.00  0.00    -0.000 C 
BRANCH   5   6
ATOM      6  C   UNL     1      18.251  13.414  11.326  1.00  0.00    -0.000 C 
BRANCH   6   7
ATOM      7  C   UNL     1      17.408  12.361  10.589  1.00  0.00    -0.000 C 
BRANCH   7   8
ATOM      8  C   UNL     1      18.189  11.065  10.307  1.00  0.00    -0.000 C 
BRANCH   8   9
ATOM      9  C   UNL     1      17.309   9.810  10.420  1.00  0.00    -0.000 C 
BRANCH   9  10
ATOM     10  C   UNL     1      16.061   9.881   9.521  1.00  0.00    -0.000 C 
BRANCH  10  11
ATOM     11  C   UNL     1      15.866   8.608   8.684  1.00  0.00    -0.003 C 
ATOM     12  C   UNL     1      16.956   8.423   7.630  1.00  0.00     0.004 C 
ENDBRANCH  10  11
ENDBRANCH   9  10
ENDBRANCH   8   9
ENDBRANCH   7   8
ENDBRANCH   6   7
ENDBRANCH   5   6
ENDBRANCH   4   5
ENDBRANCH   3   4
ENDBRANCH   2   3
ENDBRANCH   1   2
BRANCH   1  13
ATOM     13  C   UNL     1      20.679  11.494  16.158  1.00  0.00     0.000 C 
BRANCH  13  14
ATOM     14  C   UNL     1      20.512  10.262  17.072  1.00  0.00     0.000 C 
BRANCH  14  15
ATOM     15  C   UNL     1      21.626  10.166  18.126  1.00  0.00     0.000 C 
BRANCH  15  16
ATOM     16  C   UNL     1      22.231   8.758  18.164  1.00  0.00     0.000 C 
BRANCH  16  17
ATOM     17  C   UNL     1      23.761   8.815  18.034  1.00  0.00     0.000 C 
BRANCH  17  18
ATOM     18  C   UNL     1      24.267   8.229  16.707  1.00  0.00     0.000 C 
BRANCH  18  19
ATOM     19  C   UNL     1      23.253   7.274  16.057  1.00  0.00     0.000 C 
BRANCH  19  20
ATOM     20  C   UNL     1      23.390   7.200  14.526  1.00  0.00     0.006 C 
BRANCH  20  21
ATOM     21  C   UNL     1      23.158   5.795  13.944  1.00  0.00     0.053 C 
BRANCH  21  22
ATOM     22  C   UNL     1      24.153   4.793  14.449  1.00  0.00     0.041 C 
ATOM     23  O   UNL     1      23.778   3.850  15.195  1.00  0.00    -0.550 OA
ATOM     24  O   UNL     1      25.486   4.875  14.065  1.00  0.00    -0.550 OA
ENDBRANCH  21  22
ENDBRANCH  20  21
ENDBRANCH  19  20
ENDBRANCH  18  19
ENDBRANCH  17  18
ENDBRANCH  16  17
ENDBRANCH  15  16
ENDBRANCH  14  15
ENDBRANCH  13  14
ENDBRANCH   1  13
TORSDOF 20
ENDMDL
MODEL 9
REMARK VINA RESULT:    -4.521      3.139      5.257
REMARK INTER + INTRA:         -12.066
REMARK INTER:                  -8.541
REMARK INTRA:                  -3.525
REMARK UNBOUND:                -2.260
REMARK SMILES CCCCCCCCCCCCCCCCCCCCCC(=O)[O-]
REMARK SMILES IDX 12 1 11 2 10 3 9 4 8 5 7 6 6 7 5 8 4 9 3 10 2 11 1 12 13 13
REMARK SMILES IDX 14 14 15 15 16 16 17 17 18 18 19 19 20 20 21 21 22 22 23 23
REMARK SMILES IDX 24 24
REMARK H PARENT
REMARK Flexibility Score: inf
ROOT
ATOM      1  C   UNL     1      25.514   8.691  15.749  1.00  0.00     0.000 C 
ENDROOT
BRANCH   1   2
ATOM      2  C   UNL     1      24.867   7.859  16.869  1.00  0.00     0.000 C 
BRANCH   2   3
ATOM      3  C   UNL     1      25.069   8.485  18.259  1.00  0.00     0.000 C 
BRANCH   3   4
ATOM      4  C   UNL     1      23.826   9.250  18.747  1.00  0.00    -0.000 C 
BRANCH   4   5
ATOM      5  C   UNL     1      22.517   8.684  18.171  1.00  0.00    -0.000 C 
BRANCH   5   6
ATOM      6  C   UNL     1      21.360   9.696  18.236  1.00  0.00    -0.000 C 
BRANCH   6   7
ATOM      7  C   UNL     1      20.880  10.133  16.842  1.00  0.00    -0.000 C 
BRANCH   7   8
ATOM      8  C   UNL     1      21.295  11.575  16.496  1.00  0.00    -0.000 C 
BRANCH   8   9
ATOM      9  C   UNL     1      22.458  11.628  15.492  1.00  0.00    -0.000 C 
BRANCH   9  10
ATOM     10  C   UNL     1      23.801  11.968  16.162  1.00  0.00    -0.000 C 
BRANCH  10  11
ATOM     11  C   UNL     1      24.884  12.356  15.143  1.00  0.00    -0.003 C 
ATOM     12  C   UNL     1      24.323  12.568  13.738  1.00  0.00     0.004 C 
ENDBRANCH  10  11
ENDBRANCH   9  10
ENDBRANCH   8   9
ENDBRANCH   7   8
ENDBRANCH   6   7
ENDBRANCH   5   6
ENDBRANCH   4   5
ENDBRANCH   3   4
ENDBRANCH   2   3
ENDBRANCH   1   2
BRANCH   1  13
ATOM     13  C   UNL     1      24.670   8.718  14.463  1.00  0.00     0.000 C 
BRANCH  13  14
ATOM     14  C   UNL     1      23.312   7.997  14.595  1.00  0.00     0.000 C 
BRANCH  14  15
ATOM     15  C   UNL     1      22.917   7.262  13.304  1.00  0.00     0.000 C 
BRANCH  15  16
ATOM     16  C   UNL     1      22.565   5.798  13.588  1.00  0.00     0.000 C 
BRANCH  16  17
ATOM     17  C   UNL     1      23.094   5.364  14.964  1.00  0.00     0.000 C 
BRANCH  17  18
ATOM     18  C   UNL     1      23.973   4.105  14.893  1.00  0.00     0.000 C 
BRANCH  18  19
ATOM     19  C   UNL     1      25.007   4.169  13.758  1.00  0.00     0.000 C 
BRANCH  19  20
ATOM     20  C   UNL     1      26.257   4.987  14.128  1.00  0.00     0.006 C 
BRANCH  20  21
ATOM     21  C   UNL     1      27.411   4.858  13.118  1.00  0.00     0.053 C 
BRANCH  21  22
ATOM     22  C   UNL     1      27.656   3.438  12.704  1.00  0.00     0.041 C 
ATOM     23  O   UNL     1      27.586   3.113  11.489  1.00  0.00    -0.550 OA
ATOM     24  O   UNL     1      27.998   2.482  13.652  1.00  0.00    -0.550 OA
ENDBRANCH  21  22
ENDBRANCH  20  21
ENDBRANCH  19  20
ENDBRANCH  18  19
ENDBRANCH  17  18
ENDBRANCH  16  17
ENDBRANCH  15  16
ENDBRANCH  14  15
ENDBRANCH  13  14
ENDBRANCH   1  13
TORSDOF 20
ENDMDL
