MODEL 1
REMARK VINA RESULT:    -6.743      0.000      0.000
REMARK INTER + INTRA:          -9.214
REMARK INTER:                  -8.714
REMARK INTRA:                  -0.500
REMARK UNBOUND:                -0.500
REMARK SMILES COc1cc(-c2[o+]c3cc(O)cc(O)c3cc2O)cc(OC)c1O
REMARK SMILES IDX 6 1 7 2 8 3 9 4 10 5 12 6 13 7 15 8 16 9 17 10 5 11 3 12
REMARK SMILES IDX 4 13 23 14 20 15 19 16 2 17 1 18 24 19 21 21 22 22 18 23
REMARK SMILES IDX 11 25 14 27
REMARK H PARENT 24 20 18 24 11 26 14 28
REMARK Flexibility Score: inf
ROOT
ATOM      1  C   UNL     1     -22.066  11.864 -34.683  1.00  0.00     0.402 A 
ATOM      2  O   UNL     1     -21.043  12.148 -33.881  1.00  0.00    -0.202 OA
ATOM      3  C   UNL     1     -19.773  11.961 -34.225  1.00  0.00     0.368 A 
ATOM      4  C   UNL     1     -18.765  12.286 -33.312  1.00  0.00     0.162 A 
ATOM      5  C   UNL     1     -17.424  12.098 -33.645  1.00  0.00     0.128 A 
ATOM      6  C   UNL     1     -17.084  11.578 -34.899  1.00  0.00     0.093 A 
ATOM      7  C   UNL     1     -18.073  11.244 -35.831  1.00  0.00     0.136 A 
ATOM      8  C   UNL     1     -19.439  11.437 -35.498  1.00  0.00     0.125 A 
ATOM      9  C   UNL     1     -20.498  11.142 -36.373  1.00  0.00     0.078 A 
ATOM     10  C   UNL     1     -21.819  11.364 -35.975  1.00  0.00     0.223 A 
ENDROOT
BRANCH   1  11
ATOM     11  C   UNL     1     -23.438  12.108 -34.181  1.00  0.00     0.091 A 
ATOM     12  C   UNL     1     -25.356  11.469 -32.809  1.00  0.00     0.165 A 
ATOM     13  C   UNL     1     -24.058  11.216 -33.293  1.00  0.00     0.069 A 
ATOM     14  C   UNL     1     -26.025  12.638 -33.213  1.00  0.00     0.200 A 
ATOM     15  C   UNL     1     -25.406  13.548 -34.082  1.00  0.00     0.165 A 
ATOM     16  C   UNL     1     -24.109  13.280 -34.557  1.00  0.00     0.069 A 
BRANCH  12  17
ATOM     17  O   UNL     1     -26.004  10.588 -31.928  1.00  0.00    -0.493 OA
ATOM     18  C   UNL     1     -25.409  10.025 -30.764  1.00  0.00     0.278 C 
ENDBRANCH  12  17
BRANCH  14  19
ATOM     19  O   UNL     1     -27.313  12.916 -32.753  1.00  0.00    -0.502 OA
ATOM     20  H   UNL     1     -28.140  12.713 -33.302  1.00  0.00     0.293 HD
ENDBRANCH  14  19
BRANCH  15  21
ATOM     21  O   UNL     1     -26.112  14.705 -34.449  1.00  0.00    -0.493 OA
ATOM     22  C   UNL     1     -25.628  16.033 -34.277  1.00  0.00     0.278 C 
ENDBRANCH  15  21
ENDBRANCH   1  11
BRANCH  10  23
ATOM     23  O   UNL     1     -22.868  11.118 -36.861  1.00  0.00    -0.500 OA
ATOM     24  H   UNL     1     -23.768  10.782 -36.541  1.00  0.00     0.294 HD
ENDBRANCH  10  23
BRANCH   5  25
ATOM     25  O   UNL     1     -16.435  12.429 -32.721  1.00  0.00    -0.507 OA
ATOM     26  H   UNL     1     -16.075  13.373 -32.647  1.00  0.00     0.293 HD
ENDBRANCH   5  25
BRANCH   7  27
ATOM     27  O   UNL     1     -17.652  10.727 -37.060  1.00  0.00    -0.507 OA
ATOM     28  H   UNL     1     -17.523  11.277 -37.897  1.00  0.00     0.293 HD
ENDBRANCH   7  27
TORSDOF 7
ENDMDL
MODEL 2
REMARK VINA RESULT:    -6.686      0.431      2.647
REMARK INTER + INTRA:          -9.141
REMARK INTER:                  -8.632
REMARK INTRA:                  -0.509
REMARK UNBOUND:                -0.500
REMARK SMILES COc1cc(-c2[o+]c3cc(O)cc(O)c3cc2O)cc(OC)c1O
REMARK SMILES IDX 6 1 7 2 8 3 9 4 10 5 12 6 13 7 15 8 16 9 17 10 5 11 3 12
REMARK SMILES IDX 4 13 23 14 20 15 19 16 2 17 1 18 24 19 21 21 22 22 18 23
REMARK SMILES IDX 11 25 14 27
REMARK H PARENT 24 20 18 24 11 26 14 28
REMARK Flexibility Score: inf
ROOT
ATOM      1  C   UNL     1     -21.986  11.803 -34.928  1.00  0.00     0.402 A 
ATOM      2  O   UNL     1     -20.897  12.054 -34.207  1.00  0.00    -0.202 OA
ATOM      3  C   UNL     1     -19.662  11.870 -34.663  1.00  0.00     0.368 A 
ATOM      4  C   UNL     1     -18.579  12.159 -33.829  1.00  0.00     0.162 A 
ATOM      5  C   UNL     1     -17.271  11.972 -34.279  1.00  0.00     0.128 A 
ATOM      6  C   UNL     1     -17.043  11.489 -35.573  1.00  0.00     0.093 A 
ATOM      7  C   UNL     1     -18.110  11.191 -36.427  1.00  0.00     0.136 A 
ATOM      8  C   UNL     1     -19.442  11.383 -35.974  1.00  0.00     0.125 A 
ATOM      9  C   UNL     1     -20.573  11.123 -36.766  1.00  0.00     0.078 A 
ATOM     10  C   UNL     1     -21.854  11.342 -36.251  1.00  0.00     0.223 A 
ENDROOT
BRANCH   1  11
ATOM     11  C   UNL     1     -23.309  12.040 -34.306  1.00  0.00     0.091 A 
ATOM     12  C   UNL     1     -25.324  13.391 -34.021  1.00  0.00     0.165 A 
ATOM     13  C   UNL     1     -24.060  13.187 -34.606  1.00  0.00     0.069 A 
ATOM     14  C   UNL     1     -25.839  12.424 -33.139  1.00  0.00     0.200 A 
ATOM     15  C   UNL     1     -25.107  11.264 -32.849  1.00  0.00     0.165 A 
ATOM     16  C   UNL     1     -23.845  11.075 -33.442  1.00  0.00     0.069 A 
BRANCH  12  17
ATOM     17  O   UNL     1     -26.093  14.534 -34.296  1.00  0.00    -0.493 OA
ATOM     18  C   UNL     1     -25.655  15.873 -34.089  1.00  0.00     0.278 C 
ENDBRANCH  12  17
BRANCH  14  19
ATOM     19  O   UNL     1     -27.088  12.599 -32.540  1.00  0.00    -0.502 OA
ATOM     20  H   UNL     1     -27.194  12.981 -31.608  1.00  0.00     0.293 HD
ENDBRANCH  14  19
BRANCH  15  21
ATOM     21  O   UNL     1     -25.668  10.324 -31.970  1.00  0.00    -0.493 OA
ATOM     22  C   UNL     1     -25.237  10.117 -30.629  1.00  0.00     0.278 C 
ENDBRANCH  15  21
ENDBRANCH   1  11
BRANCH  10  23
ATOM     23  O   UNL     1     -22.975  11.131 -37.053  1.00  0.00    -0.500 OA
ATOM     24  H   UNL     1     -23.386  11.877 -37.602  1.00  0.00     0.294 HD
ENDBRANCH  10  23
BRANCH   5  25
ATOM     25  O   UNL     1     -16.205  12.267 -33.432  1.00  0.00    -0.507 OA
ATOM     26  H   UNL     1     -15.509  12.960 -33.680  1.00  0.00     0.293 HD
ENDBRANCH   5  25
BRANCH   7  27
ATOM     27  O   UNL     1     -17.799  10.710 -37.703  1.00  0.00    -0.507 OA
ATOM     28  H   UNL     1     -18.473  10.579 -38.444  1.00  0.00     0.293 HD
ENDBRANCH   7  27
TORSDOF 7
ENDMDL
MODEL 3
REMARK VINA RESULT:    -6.589      5.893      8.929
REMARK INTER + INTRA:          -9.015
REMARK INTER:                  -8.569
REMARK INTRA:                  -0.445
REMARK UNBOUND:                -0.500
REMARK SMILES COc1cc(-c2[o+]c3cc(O)cc(O)c3cc2O)cc(OC)c1O
REMARK SMILES IDX 6 1 7 2 8 3 9 4 10 5 12 6 13 7 15 8 16 9 17 10 5 11 3 12
REMARK SMILES IDX 4 13 23 14 20 15 19 16 2 17 1 18 24 19 21 21 22 22 18 23
REMARK SMILES IDX 11 25 14 27
REMARK H PARENT 24 20 18 24 11 26 14 28
REMARK Flexibility Score: inf
ROOT
ATOM      1  C   UNL     1     -23.239  16.005 -39.152  1.00  0.00     0.402 A 
ATOM      2  O   UNL     1     -23.403  16.757 -40.238  1.00  0.00    -0.202 OA
ATOM      3  C   UNL     1     -23.382  18.085 -40.215  1.00  0.00     0.368 A 
ATOM      4  C   UNL     1     -23.568  18.790 -41.408  1.00  0.00     0.162 A 
ATOM      5  C   UNL     1     -23.554  20.185 -41.413  1.00  0.00     0.128 A 
ATOM      6  C   UNL     1     -23.356  20.884 -40.217  1.00  0.00     0.093 A 
ATOM      7  C   UNL     1     -23.168  20.202 -39.009  1.00  0.00     0.136 A 
ATOM      8  C   UNL     1     -23.179  18.784 -39.000  1.00  0.00     0.125 A 
ATOM      9  C   UNL     1     -22.986  18.017 -37.838  1.00  0.00     0.078 A 
ATOM     10  C   UNL     1     -23.004  16.621 -37.909  1.00  0.00     0.223 A 
ENDROOT
BRANCH   1  11
ATOM     11  C   UNL     1     -23.292  14.533 -39.305  1.00  0.00     0.091 A 
ATOM     12  C   UNL     1     -24.537  12.472 -39.721  1.00  0.00     0.165 A 
ATOM     13  C   UNL     1     -24.503  13.870 -39.559  1.00  0.00     0.069 A 
ATOM     14  C   UNL     1     -23.338  11.741 -39.641  1.00  0.00     0.200 A 
ATOM     15  C   UNL     1     -22.120  12.395 -39.409  1.00  0.00     0.165 A 
ATOM     16  C   UNL     1     -22.103  13.793 -39.249  1.00  0.00     0.069 A 
BRANCH  12  17
ATOM     17  O   UNL     1     -25.735  11.782 -39.966  1.00  0.00    -0.493 OA
ATOM     18  C   UNL     1     -26.905  11.883 -39.161  1.00  0.00     0.278 C 
ENDBRANCH  12  17
BRANCH  14  19
ATOM     19  O   UNL     1     -23.338  10.353 -39.793  1.00  0.00    -0.502 OA
ATOM     20  H   UNL     1     -24.071   9.863 -40.293  1.00  0.00     0.293 HD
ENDBRANCH  14  19
BRANCH  15  21
ATOM     21  O   UNL     1     -20.949  11.622 -39.346  1.00  0.00    -0.493 OA
ATOM     22  C   UNL     1     -20.062  11.412 -40.439  1.00  0.00     0.278 C 
ENDBRANCH  15  21
ENDBRANCH   1  11
BRANCH  10  23
ATOM     23  O   UNL     1     -22.765  15.859 -36.765  1.00  0.00    -0.500 OA
ATOM     24  H   UNL     1     -23.234  14.976 -36.605  1.00  0.00     0.294 HD
ENDBRANCH  10  23
BRANCH   5  25
ATOM     25  O   UNL     1     -23.741  20.868 -42.613  1.00  0.00    -0.507 OA
ATOM     26  H   UNL     1     -22.957  21.136 -43.196  1.00  0.00     0.293 HD
ENDBRANCH   5  25
BRANCH   7  27
ATOM     27  O   UNL     1     -22.980  20.973 -37.858  1.00  0.00    -0.507 OA
ATOM     28  H   UNL     1     -22.092  21.358 -37.567  1.00  0.00     0.293 HD
ENDBRANCH   7  27
TORSDOF 7
ENDMDL
MODEL 4
REMARK VINA RESULT:    -6.581      5.268      8.425
REMARK INTER + INTRA:          -9.005
REMARK INTER:                  -8.480
REMARK INTRA:                  -0.526
REMARK UNBOUND:                -0.500
REMARK SMILES COc1cc(-c2[o+]c3cc(O)cc(O)c3cc2O)cc(OC)c1O
REMARK SMILES IDX 6 1 7 2 8 3 9 4 10 5 12 6 13 7 15 8 16 9 17 10 5 11 3 12
REMARK SMILES IDX 4 13 23 14 20 15 19 16 2 17 1 18 24 19 21 21 22 22 18 23
REMARK SMILES IDX 11 25 14 27
REMARK H PARENT 24 20 18 24 11 26 14 28
REMARK Flexibility Score: inf
ROOT
ATOM      1  C   UNL     1     -23.429  14.495 -39.165  1.00  0.00     0.402 A 
ATOM      2  O   UNL     1     -22.776  15.315 -39.985  1.00  0.00    -0.202 OA
ATOM      3  C   UNL     1     -23.260  16.488 -40.380  1.00  0.00     0.368 A 
ATOM      4  C   UNL     1     -22.501  17.280 -41.246  1.00  0.00     0.162 A 
ATOM      5  C   UNL     1     -22.985  18.514 -41.680  1.00  0.00     0.128 A 
ATOM      6  C   UNL     1     -24.238  18.961 -41.248  1.00  0.00     0.093 A 
ATOM      7  C   UNL     1     -25.018  18.187 -40.381  1.00  0.00     0.136 A 
ATOM      8  C   UNL     1     -24.529  16.933 -39.935  1.00  0.00     0.125 A 
ATOM      9  C   UNL     1     -25.235  16.095 -39.056  1.00  0.00     0.078 A 
ATOM     10  C   UNL     1     -24.684  14.874 -38.656  1.00  0.00     0.223 A 
ENDROOT
BRANCH   1  11
ATOM     11  C   UNL     1     -22.788  13.209 -38.804  1.00  0.00     0.091 A 
ATOM     12  C   UNL     1     -22.289  10.864 -39.276  1.00  0.00     0.165 A 
ATOM     13  C   UNL     1     -22.918  12.075 -39.621  1.00  0.00     0.069 A 
ATOM     14  C   UNL     1     -21.510  10.803 -38.106  1.00  0.00     0.200 A 
ATOM     15  C   UNL     1     -21.355  11.935 -37.294  1.00  0.00     0.165 A 
ATOM     16  C   UNL     1     -21.991  13.137 -37.653  1.00  0.00     0.069 A 
BRANCH  12  17
ATOM     17  O   UNL     1     -22.410   9.712 -40.069  1.00  0.00    -0.493 OA
ATOM     18  C   UNL     1     -23.410   9.517 -41.064  1.00  0.00     0.278 C 
ENDBRANCH  12  17
BRANCH  14  19
ATOM     19  O   UNL     1     -20.876   9.615 -37.735  1.00  0.00    -0.502 OA
ATOM     20  H   UNL     1     -19.876   9.481 -37.831  1.00  0.00     0.293 HD
ENDBRANCH  14  19
BRANCH  15  21
ATOM     21  O   UNL     1     -20.560  11.825 -36.141  1.00  0.00    -0.493 OA
ATOM     22  C   UNL     1     -21.059  11.888 -34.809  1.00  0.00     0.278 C 
ENDBRANCH  15  21
ENDBRANCH   1  11
BRANCH  10  23
ATOM     23  O   UNL     1     -25.363  14.065 -37.745  1.00  0.00    -0.500 OA
ATOM     24  H   UNL     1     -26.178  13.528 -38.014  1.00  0.00     0.294 HD
ENDBRANCH  10  23
BRANCH   5  25
ATOM     25  O   UNL     1     -22.213  19.289 -42.544  1.00  0.00    -0.507 OA
ATOM     26  H   UNL     1     -21.202  19.303 -42.480  1.00  0.00     0.293 HD
ENDBRANCH   5  25
BRANCH   7  27
ATOM     27  O   UNL     1     -26.260  18.703 -39.999  1.00  0.00    -0.507 OA
ATOM     28  H   UNL     1     -27.006  18.931 -40.641  1.00  0.00     0.293 HD
ENDBRANCH   7  27
TORSDOF 7
ENDMDL
MODEL 5
REMARK VINA RESULT:    -6.560      5.857      8.906
REMARK INTER + INTRA:          -8.978
REMARK INTER:                  -8.485
REMARK INTRA:                  -0.493
REMARK UNBOUND:                -0.500
REMARK SMILES COc1cc(-c2[o+]c3cc(O)cc(O)c3cc2O)cc(OC)c1O
REMARK SMILES IDX 6 1 7 2 8 3 9 4 10 5 12 6 13 7 15 8 16 9 17 10 5 11 3 12
REMARK SMILES IDX 4 13 23 14 20 15 19 16 2 17 1 18 24 19 21 21 22 22 18 23
REMARK SMILES IDX 11 25 14 27
REMARK H PARENT 24 20 18 24 11 26 14 28
REMARK Flexibility Score: inf
ROOT
ATOM      1  C   UNL     1     -23.279  15.921 -39.200  1.00  0.00     0.402 A 
ATOM      2  O   UNL     1     -23.351  16.691 -40.282  1.00  0.00    -0.202 OA
ATOM      3  C   UNL     1     -23.372  18.019 -40.233  1.00  0.00     0.368 A 
ATOM      4  C   UNL     1     -23.453  18.743 -41.426  1.00  0.00     0.162 A 
ATOM      5  C   UNL     1     -23.479  20.138 -41.404  1.00  0.00     0.128 A 
ATOM      6  C   UNL     1     -23.426  20.816 -40.181  1.00  0.00     0.093 A 
ATOM      7  C   UNL     1     -23.345  20.115 -38.973  1.00  0.00     0.136 A 
ATOM      8  C   UNL     1     -23.315  18.697 -38.991  1.00  0.00     0.125 A 
ATOM      9  C   UNL     1     -23.222  17.911 -37.830  1.00  0.00     0.078 A 
ATOM     10  C   UNL     1     -23.192  16.516 -37.928  1.00  0.00     0.223 A 
ENDROOT
BRANCH   1  11
ATOM     11  C   UNL     1     -23.273  14.452 -39.384  1.00  0.00     0.091 A 
ATOM     12  C   UNL     1     -22.095  12.312 -39.454  1.00  0.00     0.165 A 
ATOM     13  C   UNL     1     -22.084  13.711 -39.295  1.00  0.00     0.069 A 
ATOM     14  C   UNL     1     -23.317  11.656 -39.689  1.00  0.00     0.200 A 
ATOM     15  C   UNL     1     -24.513  12.384 -39.758  1.00  0.00     0.165 A 
ATOM     16  C   UNL     1     -24.485  13.781 -39.598  1.00  0.00     0.069 A 
BRANCH  12  17
ATOM     17  O   UNL     1     -20.920  11.548 -39.379  1.00  0.00    -0.493 OA
ATOM     18  C   UNL     1     -20.020  11.340 -40.463  1.00  0.00     0.278 C 
ENDBRANCH  12  17
BRANCH  14  19
ATOM     19  O   UNL     1     -23.361  10.271 -39.854  1.00  0.00    -0.502 OA
ATOM     20  H   UNL     1     -22.760   9.783 -40.509  1.00  0.00     0.293 HD
ENDBRANCH  14  19
BRANCH  15  21
ATOM     21  O   UNL     1     -25.708  11.682 -39.986  1.00  0.00    -0.493 OA
ATOM     22  C   UNL     1     -26.919  11.896 -39.268  1.00  0.00     0.278 C 
ENDBRANCH  15  21
ENDBRANCH   1  11
BRANCH  10  23
ATOM     23  O   UNL     1     -23.050  15.738 -36.779  1.00  0.00    -0.500 OA
ATOM     24  H   UNL     1     -23.205  16.119 -35.854  1.00  0.00     0.294 HD
ENDBRANCH  10  23
BRANCH   5  25
ATOM     25  O   UNL     1     -23.560  20.841 -42.604  1.00  0.00    -0.507 OA
ATOM     26  H   UNL     1     -23.806  21.824 -42.626  1.00  0.00     0.293 HD
ENDBRANCH   5  25
BRANCH   7  27
ATOM     27  O   UNL     1     -23.300  20.866 -37.795  1.00  0.00    -0.507 OA
ATOM     28  H   UNL     1     -22.546  20.830 -37.123  1.00  0.00     0.293 HD
ENDBRANCH   7  27
TORSDOF 7
ENDMDL
MODEL 6
REMARK VINA RESULT:    -6.539      5.259      8.355
REMARK INTER + INTRA:          -8.951
REMARK INTER:                  -8.434
REMARK INTRA:                  -0.517
REMARK UNBOUND:                -0.500
REMARK SMILES COc1cc(-c2[o+]c3cc(O)cc(O)c3cc2O)cc(OC)c1O
REMARK SMILES IDX 6 1 7 2 8 3 9 4 10 5 12 6 13 7 15 8 16 9 17 10 5 11 3 12
REMARK SMILES IDX 4 13 23 14 20 15 19 16 2 17 1 18 24 19 21 21 22 22 18 23
REMARK SMILES IDX 11 25 14 27
REMARK H PARENT 24 20 18 24 11 26 14 28
REMARK Flexibility Score: inf
ROOT
ATOM      1  C   UNL     1     -23.380  14.501 -39.146  1.00  0.00     0.402 A 
ATOM      2  O   UNL     1     -22.729  15.333 -39.955  1.00  0.00    -0.202 OA
ATOM      3  C   UNL     1     -23.234  16.492 -40.367  1.00  0.00     0.368 A 
ATOM      4  C   UNL     1     -22.476  17.299 -41.220  1.00  0.00     0.162 A 
ATOM      5  C   UNL     1     -22.981  18.519 -41.670  1.00  0.00     0.128 A 
ATOM      6  C   UNL     1     -24.255  18.936 -41.269  1.00  0.00     0.093 A 
ATOM      7  C   UNL     1     -25.034  18.146 -40.416  1.00  0.00     0.136 A 
ATOM      8  C   UNL     1     -24.523  16.906 -39.953  1.00  0.00     0.125 A 
ATOM      9  C   UNL     1     -25.228  16.055 -39.086  1.00  0.00     0.078 A 
ATOM     10  C   UNL     1     -24.656  14.850 -38.668  1.00  0.00     0.223 A 
ENDROOT
BRANCH   1  11
ATOM     11  C   UNL     1     -22.715  13.233 -38.765  1.00  0.00     0.091 A 
ATOM     12  C   UNL     1     -21.353  11.915 -37.223  1.00  0.00     0.165 A 
ATOM     13  C   UNL     1     -21.964  13.131 -37.584  1.00  0.00     0.069 A 
ATOM     14  C   UNL     1     -21.513  10.792 -38.053  1.00  0.00     0.200 A 
ATOM     15  C   UNL     1     -22.280  10.876 -39.225  1.00  0.00     0.165 A 
ATOM     16  C   UNL     1     -22.883  12.098 -39.571  1.00  0.00     0.069 A 
BRANCH  12  17
ATOM     17  O   UNL     1     -20.588  11.788 -36.052  1.00  0.00    -0.493 OA
ATOM     18  C   UNL     1     -21.020  12.188 -34.756  1.00  0.00     0.278 C 
ENDBRANCH  12  17
BRANCH  14  19
ATOM     19  O   UNL     1     -20.917   9.573 -37.726  1.00  0.00    -0.502 OA
ATOM     20  H   UNL     1     -19.939   9.381 -37.908  1.00  0.00     0.293 HD
ENDBRANCH  14  19
BRANCH  15  21
ATOM     21  O   UNL     1     -22.417   9.724 -40.016  1.00  0.00    -0.493 OA
ATOM     22  C   UNL     1     -23.407   9.553 -41.025  1.00  0.00     0.278 C 
ENDBRANCH  15  21
ENDBRANCH   1  11
BRANCH  10  23
ATOM     23  O   UNL     1     -25.335  14.028 -37.768  1.00  0.00    -0.500 OA
ATOM     24  H   UNL     1     -25.168  14.078 -36.770  1.00  0.00     0.294 HD
ENDBRANCH  10  23
BRANCH   5  25
ATOM     25  O   UNL     1     -22.209  19.310 -42.520  1.00  0.00    -0.507 OA
ATOM     26  H   UNL     1     -21.294  19.645 -42.244  1.00  0.00     0.293 HD
ENDBRANCH   5  25
BRANCH   7  27
ATOM     27  O   UNL     1     -26.298  18.632 -40.064  1.00  0.00    -0.507 OA
ATOM     28  H   UNL     1     -26.852  18.277 -39.298  1.00  0.00     0.293 HD
ENDBRANCH   7  27
TORSDOF 7
ENDMDL
MODEL 7
REMARK VINA RESULT:    -6.409      3.798      5.381
REMARK INTER + INTRA:          -8.783
REMARK INTER:                  -8.249
REMARK INTRA:                  -0.534
REMARK UNBOUND:                -0.500
REMARK SMILES COc1cc(-c2[o+]c3cc(O)cc(O)c3cc2O)cc(OC)c1O
REMARK SMILES IDX 6 1 7 2 8 3 9 4 10 5 12 6 13 7 15 8 16 9 17 10 5 11 3 12
REMARK SMILES IDX 4 13 23 14 20 15 19 16 2 17 1 18 24 19 21 21 22 22 18 23
REMARK SMILES IDX 11 25 14 27
REMARK H PARENT 24 20 18 24 11 26 14 28
REMARK Flexibility Score: inf
ROOT
ATOM      1  C   UNL     1     -21.857  13.241 -37.656  1.00  0.00     0.402 A 
ATOM      2  O   UNL     1     -20.558  13.323 -37.381  1.00  0.00    -0.202 OA
ATOM      3  C   UNL     1     -19.796  12.262 -37.136  1.00  0.00     0.368 A 
ATOM      4  C   UNL     1     -18.440  12.449 -36.853  1.00  0.00     0.162 A 
ATOM      5  C   UNL     1     -17.617  11.354 -36.588  1.00  0.00     0.128 A 
ATOM      6  C   UNL     1     -18.152  10.062 -36.603  1.00  0.00     0.093 A 
ATOM      7  C   UNL     1     -19.506   9.847 -36.882  1.00  0.00     0.136 A 
ATOM      8  C   UNL     1     -20.346  10.958 -37.155  1.00  0.00     0.125 A 
ATOM      9  C   UNL     1     -21.713  10.837 -37.458  1.00  0.00     0.078 A 
ATOM     10  C   UNL     1     -22.475  11.979 -37.721  1.00  0.00     0.223 A 
ENDROOT
BRANCH   1  11
ATOM     11  C   UNL     1     -22.601  14.497 -37.903  1.00  0.00     0.091 A 
ATOM     12  C   UNL     1     -23.504  16.181 -39.426  1.00  0.00     0.165 A 
ATOM     13  C   UNL     1     -22.778  14.995 -39.203  1.00  0.00     0.069 A 
ATOM     14  C   UNL     1     -24.068  16.859 -38.330  1.00  0.00     0.200 A 
ATOM     15  C   UNL     1     -23.916  16.358 -37.029  1.00  0.00     0.165 A 
ATOM     16  C   UNL     1     -23.188  15.173 -36.824  1.00  0.00     0.069 A 
BRANCH  12  17
ATOM     17  O   UNL     1     -23.688  16.707 -40.715  1.00  0.00    -0.493 OA
ATOM     18  C   UNL     1     -22.729  17.497 -41.411  1.00  0.00     0.278 C 
ENDBRANCH  12  17
BRANCH  14  19
ATOM     19  O   UNL     1     -24.790  18.039 -38.518  1.00  0.00    -0.502 OA
ATOM     20  H   UNL     1     -25.783  18.041 -38.719  1.00  0.00     0.293 HD
ENDBRANCH  14  19
BRANCH  15  21
ATOM     21  O   UNL     1     -24.505  17.067 -35.969  1.00  0.00    -0.493 OA
ATOM     22  C   UNL     1     -25.749  16.728 -35.366  1.00  0.00     0.278 C 
ENDBRANCH  15  21
ENDBRANCH   1  11
BRANCH  10  23
ATOM     23  O   UNL     1     -23.820  11.856 -38.071  1.00  0.00    -0.500 OA
ATOM     24  H   UNL     1     -24.198  12.299 -38.899  1.00  0.00     0.294 HD
ENDBRANCH  10  23
BRANCH   5  25
ATOM     25  O   UNL     1     -16.267  11.562 -36.309  1.00  0.00    -0.507 OA
ATOM     26  H   UNL     1     -15.732  10.898 -35.762  1.00  0.00     0.293 HD
ENDBRANCH   5  25
BRANCH   7  27
ATOM     27  O   UNL     1     -19.964   8.526 -36.874  1.00  0.00    -0.507 OA
ATOM     28  H   UNL     1     -19.374   7.717 -37.010  1.00  0.00     0.293 HD
ENDBRANCH   7  27
TORSDOF 7
ENDMDL
MODEL 8
REMARK VINA RESULT:    -6.392      3.860      5.135
REMARK INTER + INTRA:          -8.760
REMARK INTER:                  -8.220
REMARK INTRA:                  -0.540
REMARK UNBOUND:                -0.500
REMARK SMILES COc1cc(-c2[o+]c3cc(O)cc(O)c3cc2O)cc(OC)c1O
REMARK SMILES IDX 6 1 7 2 8 3 9 4 10 5 12 6 13 7 15 8 16 9 17 10 5 11 3 12
REMARK SMILES IDX 4 13 23 14 20 15 19 16 2 17 1 18 24 19 21 21 22 22 18 23
REMARK SMILES IDX 11 25 14 27
REMARK H PARENT 24 20 18 24 11 26 14 28
REMARK Flexibility Score: inf
ROOT
ATOM      1  C   UNL     1     -21.962  13.242 -37.702  1.00  0.00     0.402 A 
ATOM      2  O   UNL     1     -20.664  13.313 -37.417  1.00  0.00    -0.202 OA
ATOM      3  C   UNL     1     -19.907  12.245 -37.193  1.00  0.00     0.368 A 
ATOM      4  C   UNL     1     -18.552  12.420 -36.897  1.00  0.00     0.162 A 
ATOM      5  C   UNL     1     -17.734  11.316 -36.654  1.00  0.00     0.128 A 
ATOM      6  C   UNL     1     -18.273  10.026 -36.704  1.00  0.00     0.093 A 
ATOM      7  C   UNL     1     -19.626   9.823 -36.997  1.00  0.00     0.136 A 
ATOM      8  C   UNL     1     -20.461  10.942 -37.248  1.00  0.00     0.125 A 
ATOM      9  C   UNL     1     -21.826  10.834 -37.562  1.00  0.00     0.078 A 
ATOM     10  C   UNL     1     -22.584  11.984 -37.802  1.00  0.00     0.223 A 
ENDROOT
BRANCH   1  11
ATOM     11  C   UNL     1     -22.701  14.507 -37.923  1.00  0.00     0.091 A 
ATOM     12  C   UNL     1     -23.937  16.435 -37.073  1.00  0.00     0.165 A 
ATOM     13  C   UNL     1     -23.252  15.225 -36.851  1.00  0.00     0.069 A 
ATOM     14  C   UNL     1     -24.051  16.930 -38.384  1.00  0.00     0.200 A 
ATOM     15  C   UNL     1     -23.485  16.232 -39.460  1.00  0.00     0.165 A 
ATOM     16  C   UNL     1     -22.805  15.024 -39.221  1.00  0.00     0.069 A 
BRANCH  12  17
ATOM     17  O   UNL     1     -24.506  17.169 -36.020  1.00  0.00    -0.493 OA
ATOM     18  C   UNL     1     -25.789  16.914 -35.457  1.00  0.00     0.278 C 
ENDBRANCH  12  17
BRANCH  14  19
ATOM     19  O   UNL     1     -24.727  18.125 -38.637  1.00  0.00    -0.502 OA
ATOM     20  H   UNL     1     -25.735  18.204 -38.569  1.00  0.00     0.293 HD
ENDBRANCH  14  19
BRANCH  15  21
ATOM     21  O   UNL     1     -23.620  16.772 -40.750  1.00  0.00    -0.493 OA
ATOM     22  C   UNL     1     -22.586  17.457 -41.449  1.00  0.00     0.278 C 
ENDBRANCH  15  21
ENDBRANCH   1  11
BRANCH  10  23
ATOM     23  O   UNL     1     -23.927  11.874 -38.162  1.00  0.00    -0.500 OA
ATOM     24  H   UNL     1     -24.338  12.468 -38.873  1.00  0.00     0.294 HD
ENDBRANCH  10  23
BRANCH   5  25
ATOM     25  O   UNL     1     -16.386  11.513 -36.362  1.00  0.00    -0.507 OA
ATOM     26  H   UNL     1     -15.703  10.778 -36.498  1.00  0.00     0.293 HD
ENDBRANCH   5  25
BRANCH   7  27
ATOM     27  O   UNL     1     -20.088   8.503 -37.024  1.00  0.00    -0.507 OA
ATOM     28  H   UNL     1     -20.192   7.918 -36.208  1.00  0.00     0.293 HD
ENDBRANCH   7  27
TORSDOF 7
ENDMDL
MODEL 9
REMARK VINA RESULT:    -6.380      2.918      5.225
REMARK INTER + INTRA:          -8.746
REMARK INTER:                  -8.243
REMARK INTRA:                  -0.502
REMARK UNBOUND:                -0.500
REMARK SMILES COc1cc(-c2[o+]c3cc(O)cc(O)c3cc2O)cc(OC)c1O
REMARK SMILES IDX 6 1 7 2 8 3 9 4 10 5 12 6 13 7 15 8 16 9 17 10 5 11 3 12
REMARK SMILES IDX 4 13 23 14 20 15 19 16 2 17 1 18 24 19 21 21 22 22 18 23
REMARK SMILES IDX 11 25 14 27
REMARK H PARENT 24 20 18 24 11 26 14 28
REMARK Flexibility Score: inf
ROOT
ATOM      1  C   UNL     1     -18.912  12.367 -35.247  1.00  0.00     0.402 A 
ATOM      2  O   UNL     1     -18.550  13.486 -34.626  1.00  0.00    -0.202 OA
ATOM      3  C   UNL     1     -17.592  13.534 -33.707  1.00  0.00     0.368 A 
ATOM      4  C   UNL     1     -17.284  14.758 -33.106  1.00  0.00     0.162 A 
ATOM      5  C   UNL     1     -16.285  14.836 -32.136  1.00  0.00     0.128 A 
ATOM      6  C   UNL     1     -15.588  13.683 -31.759  1.00  0.00     0.093 A 
ATOM      7  C   UNL     1     -15.877  12.445 -32.345  1.00  0.00     0.136 A 
ATOM      8  C   UNL     1     -16.890  12.361 -33.334  1.00  0.00     0.125 A 
ATOM      9  C   UNL     1     -17.239  11.165 -33.984  1.00  0.00     0.078 A 
ATOM     10  C   UNL     1     -18.246  11.162 -34.954  1.00  0.00     0.223 A 
ENDROOT
BRANCH   1  11
ATOM     11  C   UNL     1     -20.002  12.441 -36.247  1.00  0.00     0.091 A 
ATOM     12  C   UNL     1     -22.371  12.614 -36.816  1.00  0.00     0.165 A 
ATOM     13  C   UNL     1     -21.346  12.526 -35.855  1.00  0.00     0.069 A 
ATOM     14  C   UNL     1     -22.035  12.633 -38.181  1.00  0.00     0.200 A 
ATOM     15  C   UNL     1     -20.693  12.571 -38.584  1.00  0.00     0.165 A 
ATOM     16  C   UNL     1     -19.681  12.482 -37.612  1.00  0.00     0.069 A 
BRANCH  12  17
ATOM     17  O   UNL     1     -23.726  12.690 -36.452  1.00  0.00    -0.493 OA
ATOM     18  C   UNL     1     -24.321  13.794 -35.778  1.00  0.00     0.278 C 
ENDBRANCH  12  17
BRANCH  14  19
ATOM     19  O   UNL     1     -23.028  12.717 -39.159  1.00  0.00    -0.502 OA
ATOM     20  H   UNL     1     -23.501  11.898 -39.522  1.00  0.00     0.293 HD
ENDBRANCH  14  19
BRANCH  15  21
ATOM     21  O   UNL     1     -20.408  12.602 -39.959  1.00  0.00    -0.493 OA
ATOM     22  C   UNL     1     -20.060  11.461 -40.736  1.00  0.00     0.278 C 
ENDBRANCH  15  21
ENDBRANCH   1  11
BRANCH  10  23
ATOM     23  O   UNL     1     -18.558   9.985 -35.634  1.00  0.00    -0.500 OA
ATOM     24  H   UNL     1     -18.140   9.760 -36.529  1.00  0.00     0.294 HD
ENDBRANCH  10  23
BRANCH   5  25
ATOM     25  O   UNL     1     -15.993  16.067 -31.550  1.00  0.00    -0.507 OA
ATOM     26  H   UNL     1     -16.293  16.288 -30.608  1.00  0.00     0.293 HD
ENDBRANCH   5  25
BRANCH   7  27
ATOM     27  O   UNL     1     -15.138  11.340 -31.911  1.00  0.00    -0.507 OA
ATOM     28  H   UNL     1     -15.247  10.403 -32.273  1.00  0.00     0.293 HD
ENDBRANCH   7  27
TORSDOF 7
ENDMDL
