MODEL 1
REMARK VINA RESULT:    -4.735      0.000      0.000
REMARK INTER + INTRA:          -7.436
REMARK INTER:                  -7.226
REMARK INTRA:                  -0.211
REMARK UNBOUND:                -0.211
REMARK SMILES O=C([O-])CCCCCCCCC(=O)[O-]
REMARK SMILES IDX 7 1 6 2 5 3 4 4 2 5 1 6 3 7 8 8 9 9 10 10 11 11 12 12 13 13
REMARK SMILES IDX 14 14
REMARK H PARENT
REMARK Flexibility Score: inf
ROOT
ATOM      1  C   UNL     1      44.222  12.593 -34.945  1.00  0.00     0.000 C 
ENDROOT
BRANCH   1   2
ATOM      2  C   UNL     1      44.368  12.609 -33.415  1.00  0.00     0.000 C 
BRANCH   2   3
ATOM      3  C   UNL     1      45.782  13.000 -32.959  1.00  0.00     0.006 C 
BRANCH   3   4
ATOM      4  C   UNL     1      46.290  12.046 -31.874  1.00  0.00     0.053 C 
BRANCH   4   5
ATOM      5  C   UNL     1      45.995  12.594 -30.514  1.00  0.00     0.041 C 
ATOM      6  O   UNL     1      45.456  13.725 -30.389  1.00  0.00    -0.550 OA
ATOM      7  O   UNL     1      46.359  11.876 -29.381  1.00  0.00    -0.550 OA
ENDBRANCH   4   5
ENDBRANCH   3   4
ENDBRANCH   2   3
ENDBRANCH   1   2
BRANCH   1   8
ATOM      8  C   UNL     1      42.921  11.920 -35.408  1.00  0.00     0.000 C 
BRANCH   8   9
ATOM      9  C   UNL     1      42.059  12.900 -36.221  1.00  0.00     0.000 C 
BRANCH   9  10
ATOM     10  C   UNL     1      40.573  12.846 -35.829  1.00  0.00     0.006 C 
BRANCH  10  11
ATOM     11  C   UNL     1      39.923  14.235 -35.790  1.00  0.00     0.053 C 
BRANCH  11  12
ATOM     12  C   UNL     1      38.440  14.120 -35.957  1.00  0.00     0.041 C 
ATOM     13  O   UNL     1      37.931  14.108 -37.109  1.00  0.00    -0.550 OA
ATOM     14  O   UNL     1      37.625  13.975 -34.842  1.00  0.00    -0.550 OA
ENDBRANCH  11  12
ENDBRANCH  10  11
ENDBRANCH   9  10
ENDBRANCH   8   9
ENDBRANCH   1   8
TORSDOF 9
ENDMDL
MODEL 2
REMARK VINA RESULT:    -4.251      0.776      7.616
REMARK INTER + INTRA:          -6.698
REMARK INTER:                  -6.452
REMARK INTRA:                  -0.245
REMARK UNBOUND:                -0.211
REMARK SMILES O=C([O-])CCCCCCCCC(=O)[O-]
REMARK SMILES IDX 7 1 6 2 5 3 4 4 2 5 1 6 3 7 8 8 9 9 10 10 11 11 12 12 13 13
REMARK SMILES IDX 14 14
REMARK H PARENT
REMARK Flexibility Score: inf
ROOT
ATOM      1  C   UNL     1      42.990  12.151 -35.896  1.00  0.00     0.000 C 
ENDROOT
BRANCH   1   2
ATOM      2  C   UNL     1      42.015  13.241 -36.367  1.00  0.00     0.000 C 
BRANCH   2   3
ATOM      3  C   UNL     1      40.609  13.078 -35.769  1.00  0.00     0.006 C 
BRANCH   3   4
ATOM      4  C   UNL     1      39.723  14.276 -36.120  1.00  0.00     0.053 C 
BRANCH   4   5
ATOM      5  C   UNL     1      38.381  14.144 -35.471  1.00  0.00     0.041 C 
ATOM      6  O   UNL     1      37.672  13.125 -35.683  1.00  0.00    -0.550 OA
ATOM      7  O   UNL     1      37.893  15.168 -34.669  1.00  0.00    -0.550 OA
ENDBRANCH   4   5
ENDBRANCH   3   4
ENDBRANCH   2   3
ENDBRANCH   1   2
BRANCH   1   8
ATOM      8  C   UNL     1      43.304  12.245 -34.396  1.00  0.00     0.000 C 
BRANCH   8   9
ATOM      9  C   UNL     1      44.779  12.612 -34.168  1.00  0.00     0.000 C 
BRANCH   9  10
ATOM     10  C   UNL     1      45.059  13.071 -32.727  1.00  0.00     0.006 C 
BRANCH  10  11
ATOM     11  C   UNL     1      45.728  11.981 -31.880  1.00  0.00     0.053 C 
BRANCH  11  12
ATOM     12  C   UNL     1      46.040  12.503 -30.512  1.00  0.00     0.041 C 
ATOM     13  O   UNL     1      46.851  11.888 -29.770  1.00  0.00    -0.550 OA
ATOM     14  O   UNL     1      45.474  13.694 -30.077  1.00  0.00    -0.550 OA
ENDBRANCH  11  12
ENDBRANCH  10  11
ENDBRANCH   9  10
ENDBRANCH   8   9
ENDBRANCH   1   8
TORSDOF 9
ENDMDL
MODEL 3
REMARK VINA RESULT:    -3.817      1.105      1.563
REMARK INTER + INTRA:          -6.036
REMARK INTER:                  -5.747
REMARK INTRA:                  -0.289
REMARK UNBOUND:                -0.211
REMARK SMILES O=C([O-])CCCCCCCCC(=O)[O-]
REMARK SMILES IDX 7 1 6 2 5 3 4 4 2 5 1 6 3 7 8 8 9 9 10 10 11 11 12 12 13 13
REMARK SMILES IDX 14 14
REMARK H PARENT
REMARK Flexibility Score: inf
ROOT
ATOM      1  C   UNL     1      43.032  11.994 -34.840  1.00  0.00     0.000 C 
ENDROOT
BRANCH   1   2
ATOM      2  C   UNL     1      44.526  12.316 -34.681  1.00  0.00     0.000 C 
BRANCH   2   3
ATOM      3  C   UNL     1      44.810  13.241 -33.487  1.00  0.00     0.006 C 
BRANCH   3   4
ATOM      4  C   UNL     1      44.548  12.519 -32.162  1.00  0.00     0.053 C 
BRANCH   4   5
ATOM      5  C   UNL     1      45.828  12.311 -31.417  1.00  0.00     0.041 C 
ATOM      6  O   UNL     1      46.875  11.983 -32.034  1.00  0.00    -0.550 OA
ATOM      7  O   UNL     1      45.854  12.431 -30.033  1.00  0.00    -0.550 OA
ENDBRANCH   4   5
ENDBRANCH   3   4
ENDBRANCH   2   3
ENDBRANCH   1   2
BRANCH   1   8
ATOM      8  C   UNL     1      42.415  12.643 -36.088  1.00  0.00     0.000 C 
BRANCH   8   9
ATOM      9  C   UNL     1      40.884  12.505 -36.076  1.00  0.00     0.000 C 
BRANCH   9  10
ATOM     10  C   UNL     1      40.174  13.819 -35.715  1.00  0.00     0.006 C 
BRANCH  10  11
ATOM     11  C   UNL     1      38.702  13.833 -36.147  1.00  0.00     0.053 C 
BRANCH  11  12
ATOM     12  C   UNL     1      37.818  14.118 -34.974  1.00  0.00     0.041 C 
ATOM     13  O   UNL     1      37.710  15.293 -34.532  1.00  0.00    -0.550 OA
ATOM     14  O   UNL     1      37.074  13.096 -34.399  1.00  0.00    -0.550 OA
ENDBRANCH  11  12
ENDBRANCH  10  11
ENDBRANCH   9  10
ENDBRANCH   8   9
ENDBRANCH   1   8
TORSDOF 9
ENDMDL
MODEL 4
REMARK VINA RESULT:    -3.738     20.220     21.201
REMARK INTER + INTRA:          -5.915
REMARK INTER:                  -5.488
REMARK INTRA:                  -0.427
REMARK UNBOUND:                -0.211
REMARK SMILES O=C([O-])CCCCCCCCC(=O)[O-]
REMARK SMILES IDX 7 1 6 2 5 3 4 4 2 5 1 6 3 7 8 8 9 9 10 10 11 11 12 12 13 13
REMARK SMILES IDX 14 14
REMARK H PARENT
REMARK Flexibility Score: inf
ROOT
ATOM      1  C   UNL     1      56.665  27.229 -34.648  1.00  0.00     0.000 C 
ENDROOT
BRANCH   1   2
ATOM      2  C   UNL     1      56.752  28.438 -33.703  1.00  0.00     0.000 C 
BRANCH   2   3
ATOM      3  C   UNL     1      56.913  28.029 -32.231  1.00  0.00     0.006 C 
BRANCH   3   4
ATOM      4  C   UNL     1      55.801  28.634 -31.370  1.00  0.00     0.053 C 
BRANCH   4   5
ATOM      5  C   UNL     1      55.905  30.126 -31.351  1.00  0.00     0.041 C 
ATOM      6  O   UNL     1      56.960  30.682 -30.947  1.00  0.00    -0.550 OA
ATOM      7  O   UNL     1      54.819  30.903 -31.733  1.00  0.00    -0.550 OA
ENDBRANCH   4   5
ENDBRANCH   3   4
ENDBRANCH   2   3
ENDBRANCH   1   2
BRANCH   1   8
ATOM      8  C   UNL     1      55.587  27.397 -35.729  1.00  0.00     0.000 C 
BRANCH   8   9
ATOM      9  C   UNL     1      55.724  28.758 -36.430  1.00  0.00     0.000 C 
BRANCH   9  10
ATOM     10  C   UNL     1      54.888  28.848 -37.717  1.00  0.00     0.006 C 
BRANCH  10  11
ATOM     11  C   UNL     1      55.107  30.165 -38.473  1.00  0.00     0.053 C 
BRANCH  11  12
ATOM     12  C   UNL     1      54.557  31.313 -37.686  1.00  0.00     0.041 C 
ATOM     13  O   UNL     1      55.337  32.108 -37.097  1.00  0.00    -0.550 OA
ATOM     14  O   UNL     1      53.187  31.535 -37.645  1.00  0.00    -0.550 OA
ENDBRANCH  11  12
ENDBRANCH  10  11
ENDBRANCH   9  10
ENDBRANCH   8   9
ENDBRANCH   1   8
TORSDOF 9
ENDMDL
MODEL 5
REMARK VINA RESULT:    -3.714     20.390     21.812
REMARK INTER + INTRA:          -5.879
REMARK INTER:                  -5.303
REMARK INTRA:                  -0.576
REMARK UNBOUND:                -0.211
REMARK SMILES O=C([O-])CCCCCCCCC(=O)[O-]
REMARK SMILES IDX 7 1 6 2 5 3 4 4 2 5 1 6 3 7 8 8 9 9 10 10 11 11 12 12 13 13
REMARK SMILES IDX 14 14
REMARK H PARENT
REMARK Flexibility Score: inf
ROOT
ATOM      1  C   UNL     1      55.930  27.869 -32.722  1.00  0.00     0.000 C 
ENDROOT
BRANCH   1   2
ATOM      2  C   UNL     1      56.947  27.552 -33.830  1.00  0.00     0.000 C 
BRANCH   2   3
ATOM      3  C   UNL     1      56.348  27.681 -35.239  1.00  0.00     0.006 C 
BRANCH   3   4
ATOM      4  C   UNL     1      56.720  29.026 -35.870  1.00  0.00     0.053 C 
BRANCH   4   5
ATOM      5  C   UNL     1      55.653  29.472 -36.819  1.00  0.00     0.041 C 
ATOM      6  O   UNL     1      55.362  30.693 -36.917  1.00  0.00    -0.550 OA
ATOM      7  O   UNL     1      54.946  28.535 -37.561  1.00  0.00    -0.550 OA
ENDBRANCH   4   5
ENDBRANCH   3   4
ENDBRANCH   2   3
ENDBRANCH   1   2
BRANCH   1   8
ATOM      8  C   UNL     1      56.586  28.017 -31.341  1.00  0.00     0.000 C 
BRANCH   8   9
ATOM      9  C   UNL     1      55.945  29.170 -30.552  1.00  0.00     0.000 C 
BRANCH   9  10
ATOM     10  C   UNL     1      56.543  30.540 -30.915  1.00  0.00     0.006 C 
BRANCH  10  11
ATOM     11  C   UNL     1      55.482  31.644 -30.997  1.00  0.00     0.053 C 
BRANCH  11  12
ATOM     12  C   UNL     1      54.803  31.616 -32.331  1.00  0.00     0.041 C 
ATOM     13  O   UNL     1      55.433  31.238 -33.354  1.00  0.00    -0.550 OA
ATOM     14  O   UNL     1      53.462  31.960 -32.436  1.00  0.00    -0.550 OA
ENDBRANCH  11  12
ENDBRANCH  10  11
ENDBRANCH   9  10
ENDBRANCH   8   9
ENDBRANCH   1   8
TORSDOF 9
ENDMDL
MODEL 6
REMARK VINA RESULT:    -3.711     20.209     21.915
REMARK INTER + INTRA:          -5.874
REMARK INTER:                  -5.338
REMARK INTRA:                  -0.536
REMARK UNBOUND:                -0.211
REMARK SMILES O=C([O-])CCCCCCCCC(=O)[O-]
REMARK SMILES IDX 7 1 6 2 5 3 4 4 2 5 1 6 3 7 8 8 9 9 10 10 11 11 12 12 13 13
REMARK SMILES IDX 14 14
REMARK H PARENT
REMARK Flexibility Score: inf
ROOT
ATOM      1  C   UNL     1      55.631  27.261 -34.295  1.00  0.00     0.000 C 
ENDROOT
BRANCH   1   2
ATOM      2  C   UNL     1      55.870  27.584 -35.779  1.00  0.00     0.000 C 
BRANCH   2   3
ATOM      3  C   UNL     1      56.008  29.090 -36.042  1.00  0.00     0.006 C 
BRANCH   3   4
ATOM      4  C   UNL     1      55.314  29.483 -37.350  1.00  0.00     0.053 C 
BRANCH   4   5
ATOM      5  C   UNL     1      54.855  30.906 -37.293  1.00  0.00     0.041 C 
ATOM      6  O   UNL     1      55.582  31.786 -36.763  1.00  0.00    -0.550 OA
ATOM      7  O   UNL     1      53.602  31.251 -37.782  1.00  0.00    -0.550 OA
ENDBRANCH   4   5
ENDBRANCH   3   4
ENDBRANCH   2   3
ENDBRANCH   1   2
BRANCH   1   8
ATOM      8  C   UNL     1      56.788  27.718 -33.395  1.00  0.00     0.000 C 
BRANCH   8   9
ATOM      9  C   UNL     1      56.273  28.113 -32.001  1.00  0.00     0.000 C 
BRANCH   9  10
ATOM     10  C   UNL     1      56.753  29.508 -31.567  1.00  0.00     0.006 C 
BRANCH  10  11
ATOM     11  C   UNL     1      55.599  30.418 -31.128  1.00  0.00     0.053 C 
BRANCH  11  12
ATOM     12  C   UNL     1      55.097  31.219 -32.288  1.00  0.00     0.041 C 
ATOM     13  O   UNL     1      53.945  31.725 -32.257  1.00  0.00    -0.550 OA
ATOM     14  O   UNL     1      55.920  31.447 -33.383  1.00  0.00    -0.550 OA
ENDBRANCH  11  12
ENDBRANCH  10  11
ENDBRANCH   9  10
ENDBRANCH   8   9
ENDBRANCH   1   8
TORSDOF 9
ENDMDL
MODEL 7
REMARK VINA RESULT:    -3.615     19.880     22.063
REMARK INTER + INTRA:          -5.728
REMARK INTER:                  -5.200
REMARK INTRA:                  -0.528
REMARK UNBOUND:                -0.211
REMARK SMILES O=C([O-])CCCCCCCCC(=O)[O-]
REMARK SMILES IDX 7 1 6 2 5 3 4 4 2 5 1 6 3 7 8 8 9 9 10 10 11 11 12 12 13 13
REMARK SMILES IDX 14 14
REMARK H PARENT
REMARK Flexibility Score: inf
ROOT
ATOM      1  C   UNL     1      57.125  27.648 -33.662  1.00  0.00     0.000 C 
ENDROOT
BRANCH   1   2
ATOM      2  C   UNL     1      55.749  27.241 -34.212  1.00  0.00     0.000 C 
BRANCH   2   3
ATOM      3  C   UNL     1      55.643  27.416 -35.735  1.00  0.00     0.006 C 
BRANCH   3   4
ATOM      4  C   UNL     1      56.135  28.803 -36.161  1.00  0.00     0.053 C 
BRANCH   4   5
ATOM      5  C   UNL     1      55.293  29.337 -37.276  1.00  0.00     0.041 C 
ATOM      6  O   UNL     1      54.692  28.549 -38.052  1.00  0.00    -0.550 OA
ATOM      7  O   UNL     1      55.210  30.708 -37.489  1.00  0.00    -0.550 OA
ENDBRANCH   4   5
ENDBRANCH   3   4
ENDBRANCH   2   3
ENDBRANCH   1   2
BRANCH   1   8
ATOM      8  C   UNL     1      57.027  28.482 -32.376  1.00  0.00     0.000 C 
BRANCH   8   9
ATOM      9  C   UNL     1      56.354  29.836 -32.653  1.00  0.00     0.000 C 
BRANCH   9  10
ATOM     10  C   UNL     1      55.537  30.346 -31.455  1.00  0.00     0.006 C 
BRANCH  10  11
ATOM     11  C   UNL     1      56.383  31.156 -30.464  1.00  0.00     0.053 C 
BRANCH  11  12
ATOM     12  C   UNL     1      56.338  30.528 -29.106  1.00  0.00     0.041 C 
ATOM     13  O   UNL     1      56.023  29.315 -28.980  1.00  0.00    -0.550 OA
ATOM     14  O   UNL     1      56.691  31.269 -27.986  1.00  0.00    -0.550 OA
ENDBRANCH  11  12
ENDBRANCH  10  11
ENDBRANCH   9  10
ENDBRANCH   8   9
ENDBRANCH   1   8
TORSDOF 9
ENDMDL
MODEL 8
REMARK VINA RESULT:    -3.559     19.750     21.967
REMARK INTER + INTRA:          -5.642
REMARK INTER:                  -4.981
REMARK INTRA:                  -0.660
REMARK UNBOUND:                -0.211
REMARK SMILES O=C([O-])CCCCCCCCC(=O)[O-]
REMARK SMILES IDX 7 1 6 2 5 3 4 4 2 5 1 6 3 7 8 8 9 9 10 10 11 11 12 12 13 13
REMARK SMILES IDX 14 14
REMARK H PARENT
REMARK Flexibility Score: inf
ROOT
ATOM      1  C   UNL     1      57.122  30.838 -34.110  1.00  0.00     0.000 C 
ENDROOT
BRANCH   1   2
ATOM      2  C   UNL     1      56.711  32.016 -35.008  1.00  0.00     0.000 C 
BRANCH   2   3
ATOM      3  C   UNL     1      55.468  31.708 -35.856  1.00  0.00     0.006 C 
BRANCH   3   4
ATOM      4  C   UNL     1      55.642  30.395 -36.626  1.00  0.00     0.053 C 
BRANCH   4   5
ATOM      5  C   UNL     1      54.874  30.434 -37.909  1.00  0.00     0.041 C 
ATOM      6  O   UNL     1      54.035  31.349 -38.119  1.00  0.00    -0.550 OA
ATOM      7  O   UNL     1      55.050  29.432 -38.855  1.00  0.00    -0.550 OA
ENDBRANCH   4   5
ENDBRANCH   3   4
ENDBRANCH   2   3
ENDBRANCH   1   2
BRANCH   1   8
ATOM      8  C   UNL     1      56.102  30.557 -32.996  1.00  0.00     0.000 C 
BRANCH   8   9
ATOM      9  C   UNL     1      56.624  29.476 -32.037  1.00  0.00     0.000 C 
BRANCH   9  10
ATOM     10  C   UNL     1      56.871  28.131 -32.738  1.00  0.00     0.006 C 
BRANCH  10  11
ATOM     11  C   UNL     1      55.639  27.627 -33.500  1.00  0.00     0.053 C 
BRANCH  11  12
ATOM     12  C   UNL     1      56.043  27.052 -34.822  1.00  0.00     0.041 C 
ATOM     13  O   UNL     1      57.124  27.406 -35.362  1.00  0.00    -0.550 OA
ATOM     14  O   UNL     1      55.251  26.089 -35.432  1.00  0.00    -0.550 OA
ENDBRANCH  11  12
ENDBRANCH  10  11
ENDBRANCH   9  10
ENDBRANCH   8   9
ENDBRANCH   1   8
TORSDOF 9
ENDMDL
MODEL 9
REMARK VINA RESULT:    -3.539     19.585     21.081
REMARK INTER + INTRA:          -5.612
REMARK INTER:                  -5.129
REMARK INTRA:                  -0.483
REMARK UNBOUND:                -0.211
REMARK SMILES O=C([O-])CCCCCCCCC(=O)[O-]
REMARK SMILES IDX 7 1 6 2 5 3 4 4 2 5 1 6 3 7 8 8 9 9 10 10 11 11 12 12 13 13
REMARK SMILES IDX 14 14
REMARK H PARENT
REMARK Flexibility Score: inf
ROOT
ATOM      1  C   UNL     1      56.227  28.339 -32.718  1.00  0.00     0.000 C 
ENDROOT
BRANCH   1   2
ATOM      2  C   UNL     1      56.042  29.863 -32.788  1.00  0.00     0.000 C 
BRANCH   2   3
ATOM      3  C   UNL     1      55.341  30.433 -31.546  1.00  0.00     0.006 C 
BRANCH   3   4
ATOM      4  C   UNL     1      56.344  31.134 -30.625  1.00  0.00     0.053 C 
BRANCH   4   5
ATOM      5  C   UNL     1      56.415  30.440 -29.302  1.00  0.00     0.041 C 
ATOM      6  O   UNL     1      56.471  29.184 -29.246  1.00  0.00    -0.550 OA
ATOM      7  O   UNL     1      56.369  31.180 -28.126  1.00  0.00    -0.550 OA
ENDBRANCH   4   5
ENDBRANCH   3   4
ENDBRANCH   2   3
ENDBRANCH   1   2
BRANCH   1   8
ATOM      8  C   UNL     1      56.727  27.741 -34.041  1.00  0.00     0.000 C 
BRANCH   8   9
ATOM      9  C   UNL     1      55.657  26.834 -34.670  1.00  0.00     0.000 C 
BRANCH   9  10
ATOM     10  C   UNL     1      55.292  27.253 -36.103  1.00  0.00     0.006 C 
BRANCH  10  11
ATOM     11  C   UNL     1      55.681  28.705 -36.410  1.00  0.00     0.053 C 
BRANCH  11  12
ATOM     12  C   UNL     1      54.940  29.199 -37.613  1.00  0.00     0.041 C 
ATOM     13  O   UNL     1      54.855  30.435 -37.842  1.00  0.00    -0.550 OA
ATOM     14  O   UNL     1      54.385  28.293 -38.508  1.00  0.00    -0.550 OA
ENDBRANCH  11  12
ENDBRANCH  10  11
ENDBRANCH   9  10
ENDBRANCH   8   9
ENDBRANCH   1   8
TORSDOF 9
ENDMDL
