MODEL 1
REMARK VINA RESULT:    -3.330      0.000      0.000
REMARK INTER + INTRA:          -5.410
REMARK INTER:                  -5.081
REMARK INTRA:                  -0.329
REMARK UNBOUND:                -0.329
REMARK SMILES CC1=CCC[C@@H](C)C(=O)C[C@@H](C(C)C)C(=O)C1
REMARK SMILES IDX 8 1 9 2 6 3 7 4 5 5 4 6 3 7 2 8 1 9 10 11 11 12 15 13 16 14
REMARK SMILES IDX 17 15 12 17 13 18 14 19
REMARK H PARENT
REMARK Flexibility Score: 70.00
ROOT
ATOM      1  C   UNL     1      16.212  25.506  15.731  1.00  0.00     0.136 C 
ATOM      2  O   UNL     1      17.013  25.105  16.563  1.00  0.00    -0.299 OA
ENDROOT
BRANCH   1   3
ATOM      3  C   UNL     1      16.700  25.962  14.364  1.00  0.00     0.053 C 
ATOM      4  C   UNL     1      17.552  24.870  13.699  1.00  0.00     0.016 C 
BRANCH   3   5
ATOM      5  C   UNL     1      17.495  27.286  14.478  1.00  0.00     0.015 C 
BRANCH   5   6
ATOM      6  C   UNL     1      16.631  28.446  15.015  1.00  0.00     0.028 C 
BRANCH   6   7
ATOM      7  C   UNL     1      15.677  28.953  13.963  1.00  0.00    -0.028 C 
ATOM      8  C   UNL     1      14.331  28.814  14.012  1.00  0.00    -0.070 CG0
ATOM      9  C   UNL     1      13.515  29.426  12.902  1.00  0.00     0.039 C 
ATOM     10  G   UNL     1      13.616  28.070  15.131  1.00  0.00     0.000 G0
ENDBRANCH   6   7
ENDBRANCH   5   6
ENDBRANCH   3   5
ENDBRANCH   1   3
BRANCH   1  11
ATOM     11  C   UNL     1      14.744  25.559  16.088  1.00  0.00     0.087 C 
BRANCH  11  12
ATOM     12  C   UNL     1      13.788  25.461  14.864  1.00  0.00     0.066 C 
BRANCH  12  13
ATOM     13  C   UNL     1      13.013  26.760  14.688  1.00  0.00     0.140 C 
ATOM     14  O   UNL     1      11.928  26.748  14.123  1.00  0.00    -0.299 OA
BRANCH  13  15
ATOM     15  C   UNL     1      13.599  28.074  15.143  1.00  0.00     0.106 CG0
ATOM     16  G   UNL     1      14.338  28.792  14.022  1.00  0.00     0.000 G0
ENDBRANCH  13  15
ENDBRANCH  12  13
BRANCH  12  17
ATOM     17  C   UNL     1      12.830  24.222  14.883  1.00  0.00    -0.006 C 
ATOM     18  C   UNL     1      12.196  23.982  16.265  1.00  0.00     0.008 C 
ATOM     19  C   UNL     1      13.581  22.945  14.456  1.00  0.00     0.008 C 
ENDBRANCH  12  17
ENDBRANCH  11  12
ENDBRANCH   1  11
TORSDOF 1
ENDMDL
MODEL 2
REMARK VINA RESULT:    -3.219      5.835      8.163
REMARK INTER + INTRA:          -5.241
REMARK INTER:                  -4.786
REMARK INTRA:                  -0.455
REMARK UNBOUND:                -0.329
REMARK SMILES CC1=CCC[C@@H](C)C(=O)C[C@@H](C(C)C)C(=O)C1
REMARK SMILES IDX 8 1 9 2 6 3 7 4 5 5 4 6 3 7 2 8 1 9 10 11 11 12 15 13 16 14
REMARK SMILES IDX 17 15 12 17 13 18 14 19
REMARK H PARENT
REMARK Flexibility Score: 70.00
ROOT
ATOM      1  C   UNL     1       7.052  27.129  17.018  1.00  0.00     0.136 C 
ATOM      2  O   UNL     1       7.351  26.247  17.810  1.00  0.00    -0.299 OA
ENDROOT
BRANCH   1   3
ATOM      3  C   UNL     1       6.271  26.786  15.758  1.00  0.00     0.053 C 
ATOM      4  C   UNL     1       4.911  26.166  16.114  1.00  0.00     0.016 C 
BRANCH   3   5
ATOM      5  C   UNL     1       7.087  25.837  14.847  1.00  0.00     0.015 C 
BRANCH   5   6
ATOM      6  C   UNL     1       7.986  26.603  13.855  1.00  0.00     0.028 C 
BRANCH   6   7
ATOM      7  C   UNL     1       9.400  26.711  14.365  1.00  0.00    -0.028 C 
ATOM      8  C   UNL     1      10.043  27.878  14.612  1.00  0.00    -0.070 CG0
ATOM      9  C   UNL     1      11.443  27.810  15.171  1.00  0.00     0.039 C 
ATOM     10  G   UNL     1       9.417  29.240  14.349  1.00  0.00     0.000 G0
ENDBRANCH   6   7
ENDBRANCH   5   6
ENDBRANCH   3   5
ENDBRANCH   1   3
BRANCH   1  11
ATOM     11  C   UNL     1       7.486  28.550  17.299  1.00  0.00     0.087 C 
BRANCH  11  12
ATOM     12  C   UNL     1       7.420  29.492  16.062  1.00  0.00     0.066 C 
BRANCH  12  13
ATOM     13  C   UNL     1       8.823  29.865  15.601  1.00  0.00     0.140 C 
ATOM     14  O   UNL     1       9.462  30.704  16.222  1.00  0.00    -0.299 OA
BRANCH  13  15
ATOM     15  C   UNL     1       9.409  29.261  14.350  1.00  0.00     0.106 CG0
ATOM     16  G   UNL     1      10.038  27.899  14.609  1.00  0.00     0.000 G0
ENDBRANCH  13  15
ENDBRANCH  12  13
BRANCH  12  17
ATOM     17  C   UNL     1       6.525  30.762  16.257  1.00  0.00    -0.006 C 
ATOM     18  C   UNL     1       5.780  30.763  17.604  1.00  0.00     0.008 C 
ATOM     19  C   UNL     1       5.491  30.881  15.120  1.00  0.00     0.008 C 
ENDBRANCH  12  17
ENDBRANCH  11  12
ENDBRANCH   1  11
TORSDOF 1
ENDMDL
MODEL 3
REMARK VINA RESULT:    -2.944      7.750      9.242
REMARK INTER + INTRA:          -4.822
REMARK INTER:                  -4.773
REMARK INTRA:                  -0.049
REMARK UNBOUND:                -0.329
REMARK SMILES CC1=CCC[C@@H](C)C(=O)C[C@@H](C(C)C)C(=O)C1
REMARK SMILES IDX 8 1 9 2 6 3 7 4 5 5 4 6 3 7 2 8 1 9 10 11 11 12 15 13 16 14
REMARK SMILES IDX 17 15 12 17 13 18 14 19
REMARK H PARENT
REMARK Flexibility Score: 70.00
ROOT
ATOM      1  C   UNL     1       7.405  26.953  16.365  1.00  0.00     0.136 C 
ATOM      2  O   UNL     1       8.099  25.946  16.379  1.00  0.00    -0.299 OA
ENDROOT
BRANCH   1   3
ATOM      3  C   UNL     1       7.898  28.206  15.657  1.00  0.00     0.053 C 
ATOM      4  C   UNL     1       8.881  27.843  14.533  1.00  0.00     0.016 C 
BRANCH   3   5
ATOM      5  C   UNL     1       8.549  29.186  16.663  1.00  0.00     0.015 C 
BRANCH   5   6
ATOM      6  C   UNL     1       7.587  30.313  17.091  1.00  0.00     0.028 C 
BRANCH   6   7
ATOM      7  C   UNL     1       6.617  30.656  15.989  1.00  0.00    -0.028 C 
ATOM      8  C   UNL     1       5.284  30.421  16.036  1.00  0.00    -0.070 CG0
ATOM      9  C   UNL     1       4.444  30.874  14.868  1.00  0.00     0.039 C 
ATOM     10  G   UNL     1       4.606  29.724  17.207  1.00  0.00     0.000 G0
ENDBRANCH   6   7
ENDBRANCH   5   6
ENDBRANCH   3   5
ENDBRANCH   1   3
BRANCH   1  11
ATOM     11  C   UNL     1       6.071  26.938  17.076  1.00  0.00     0.087 C 
BRANCH  11  12
ATOM     12  C   UNL     1       4.863  27.319  16.171  1.00  0.00     0.066 C 
BRANCH  12  13
ATOM     13  C   UNL     1       4.010  28.386  16.844  1.00  0.00     0.140 C 
ATOM     14  O   UNL     1       2.818  28.181  17.029  1.00  0.00    -0.299 OA
BRANCH  13  15
ATOM     15  C   UNL     1       4.602  29.720  17.225  1.00  0.00     0.106 CG0
ATOM     16  G   UNL     1       5.287  30.401  16.049  1.00  0.00     0.000 G0
ENDBRANCH  13  15
ENDBRANCH  12  13
BRANCH  12  17
ATOM     17  C   UNL     1       3.995  26.105  15.699  1.00  0.00    -0.006 C 
ATOM     18  C   UNL     1       3.854  25.017  16.779  1.00  0.00     0.008 C 
ATOM     19  C   UNL     1       4.593  25.466  14.430  1.00  0.00     0.008 C 
ENDBRANCH  12  17
ENDBRANCH  11  12
ENDBRANCH   1  11
TORSDOF 1
ENDMDL
MODEL 4
REMARK VINA RESULT:    -2.909      4.674      6.917
REMARK INTER + INTRA:          -4.768
REMARK INTER:                  -4.422
REMARK INTRA:                  -0.346
REMARK UNBOUND:                -0.329
REMARK SMILES CC1=CCC[C@@H](C)C(=O)C[C@@H](C(C)C)C(=O)C1
REMARK SMILES IDX 8 1 9 2 6 3 7 4 5 5 4 6 3 7 2 8 1 9 10 11 11 12 15 13 16 14
REMARK SMILES IDX 17 15 12 17 13 18 14 19
REMARK H PARENT
REMARK Flexibility Score: 70.00
ROOT
ATOM      1  C   UNL     1       7.677  29.358  14.961  1.00  0.00     0.136 C 
ATOM      2  O   UNL     1       6.999  30.281  14.533  1.00  0.00    -0.299 OA
ENDROOT
BRANCH   1   3
ATOM      3  C   UNL     1       8.645  29.596  16.111  1.00  0.00     0.053 C 
ATOM      4  C   UNL     1       7.940  30.308  17.276  1.00  0.00     0.016 C 
BRANCH   3   5
ATOM      5  C   UNL     1       9.876  30.405  15.635  1.00  0.00     0.015 C 
BRANCH   5   6
ATOM      6  C   UNL     1      10.555  29.771  14.404  1.00  0.00     0.028 C 
BRANCH   6   7
ATOM      7  C   UNL     1      11.517  28.682  14.806  1.00  0.00    -0.028 C 
ATOM      8  C   UNL     1      11.368  27.371  14.500  1.00  0.00    -0.070 CG0
ATOM      9  C   UNL     1      12.451  26.415  14.935  1.00  0.00     0.039 C 
ATOM     10  G   UNL     1      10.164  26.828  13.743  1.00  0.00     0.000 G0
ENDBRANCH   6   7
ENDBRANCH   5   6
ENDBRANCH   3   5
ENDBRANCH   1   3
BRANCH   1  11
ATOM     11  C   UNL     1       7.553  27.994  14.322  1.00  0.00     0.087 C 
BRANCH  11  12
ATOM     12  C   UNL     1       7.997  26.818  15.239  1.00  0.00     0.066 C 
BRANCH  12  13
ATOM     13  C   UNL     1       9.189  26.090  14.631  1.00  0.00     0.140 C 
ATOM     14  O   UNL     1       9.394  24.918  14.916  1.00  0.00    -0.299 OA
BRANCH  13  15
ATOM     15  C   UNL     1      10.159  26.816  13.732  1.00  0.00     0.106 CG0
ATOM     16  G   UNL     1      11.361  27.351  14.497  1.00  0.00     0.000 G0
ENDBRANCH  13  15
ENDBRANCH  12  13
BRANCH  12  17
ATOM     17  C   UNL     1       6.852  25.821  15.621  1.00  0.00    -0.006 C 
ATOM     18  C   UNL     1       5.818  25.643  14.494  1.00  0.00     0.008 C 
ATOM     19  C   UNL     1       6.120  26.292  16.893  1.00  0.00     0.008 C 
ENDBRANCH  12  17
ENDBRANCH  11  12
ENDBRANCH   1  11
TORSDOF 1
ENDMDL
MODEL 5
REMARK VINA RESULT:    -2.908      8.067     10.269
REMARK INTER + INTRA:          -4.766
REMARK INTER:                  -4.609
REMARK INTRA:                  -0.157
REMARK UNBOUND:                -0.329
REMARK SMILES CC1=CCC[C@@H](C)C(=O)C[C@@H](C(C)C)C(=O)C1
REMARK SMILES IDX 8 1 9 2 6 3 7 4 5 5 4 6 3 7 2 8 1 9 10 11 11 12 15 13 16 14
REMARK SMILES IDX 17 15 12 17 13 18 14 19
REMARK H PARENT
REMARK Flexibility Score: 70.00
ROOT
ATOM      1  C   UNL     1       7.018  28.705  16.985  1.00  0.00     0.136 C 
ATOM      2  O   UNL     1       8.166  29.042  17.241  1.00  0.00    -0.299 OA
ENDROOT
BRANCH   1   3
ATOM      3  C   UNL     1       5.923  29.756  16.885  1.00  0.00     0.053 C 
ATOM      4  C   UNL     1       6.321  31.030  17.645  1.00  0.00     0.016 C 
BRANCH   3   5
ATOM      5  C   UNL     1       4.577  29.198  17.410  1.00  0.00     0.015 C 
BRANCH   5   6
ATOM      6  C   UNL     1       3.580  28.902  16.272  1.00  0.00     0.028 C 
BRANCH   6   7
ATOM      7  C   UNL     1       2.754  27.676  16.569  1.00  0.00    -0.028 C 
ATOM      8  C   UNL     1       2.890  26.484  15.940  1.00  0.00    -0.070 CG0
ATOM      9  C   UNL     1       2.018  25.340  16.394  1.00  0.00     0.039 C 
ATOM     10  G   UNL     1       3.876  26.256  14.803  1.00  0.00     0.000 G0
ENDBRANCH   6   7
ENDBRANCH   5   6
ENDBRANCH   3   5
ENDBRANCH   1   3
BRANCH   1  11
ATOM     11  C   UNL     1       6.707  27.238  16.794  1.00  0.00     0.087 C 
BRANCH  11  12
ATOM     12  C   UNL     1       6.394  26.841  15.322  1.00  0.00     0.066 C 
BRANCH  12  13
ATOM     13  C   UNL     1       5.245  25.842  15.273  1.00  0.00     0.140 C 
ATOM     14  O   UNL     1       5.446  24.672  15.570  1.00  0.00    -0.299 OA
BRANCH  13  15
ATOM     15  C   UNL     1       3.877  26.263  14.797  1.00  0.00     0.106 CG0
ATOM     16  G   UNL     1       2.907  26.474  15.951  1.00  0.00     0.000 G0
ENDBRANCH  13  15
ENDBRANCH  12  13
BRANCH  12  17
ATOM     17  C   UNL     1       7.631  26.332  14.508  1.00  0.00    -0.006 C 
ATOM     18  C   UNL     1       8.801  25.901  15.411  1.00  0.00     0.008 C 
ATOM     19  C   UNL     1       8.131  27.420  13.537  1.00  0.00     0.008 C 
ENDBRANCH  12  17
ENDBRANCH  11  12
ENDBRANCH   1  11
TORSDOF 1
ENDMDL
MODEL 6
REMARK VINA RESULT:    -2.826      6.462      8.699
REMARK INTER + INTRA:          -4.641
REMARK INTER:                  -4.375
REMARK INTRA:                  -0.266
REMARK UNBOUND:                -0.329
REMARK SMILES CC1=CCC[C@@H](C)C(=O)C[C@@H](C(C)C)C(=O)C1
REMARK SMILES IDX 8 1 9 2 6 3 7 4 5 5 4 6 3 7 2 8 1 9 10 11 11 12 15 13 16 14
REMARK SMILES IDX 17 15 12 17 13 18 14 19
REMARK H PARENT
REMARK Flexibility Score: 70.00
ROOT
ATOM      1  C   UNL     1       8.844  26.772  14.944  1.00  0.00     0.136 C 
ATOM      2  O   UNL     1      10.036  26.567  15.125  1.00  0.00    -0.299 OA
ENDROOT
BRANCH   1   3
ATOM      3  C   UNL     1       7.809  25.880  15.614  1.00  0.00     0.053 C 
ATOM      4  C   UNL     1       6.703  25.491  14.622  1.00  0.00     0.016 C 
BRANCH   3   5
ATOM      5  C   UNL     1       7.210  26.576  16.862  1.00  0.00     0.015 C 
BRANCH   5   6
ATOM      6  C   UNL     1       5.678  26.729  16.770  1.00  0.00     0.028 C 
BRANCH   6   7
ATOM      7  C   UNL     1       5.244  28.130  17.117  1.00  0.00    -0.028 C 
ATOM      8  C   UNL     1       5.129  29.144  16.226  1.00  0.00    -0.070 CG0
ATOM      9  C   UNL     1       4.631  30.476  16.729  1.00  0.00     0.039 C 
ATOM     10  G   UNL     1       5.482  28.996  14.753  1.00  0.00     0.000 G0
ENDBRANCH   6   7
ENDBRANCH   5   6
ENDBRANCH   3   5
ENDBRANCH   1   3
BRANCH   1  11
ATOM     11  C   UNL     1       8.421  27.903  14.035  1.00  0.00     0.087 C 
BRANCH  11  12
ATOM     12  C   UNL     1       8.084  29.227  14.780  1.00  0.00     0.066 C 
BRANCH  12  13
ATOM     13  C   UNL     1       6.716  29.744  14.352  1.00  0.00     0.140 C 
ATOM     14  O   UNL     1       6.633  30.796  13.733  1.00  0.00    -0.299 OA
BRANCH  13  15
ATOM     15  C   UNL     1       5.458  29.010  14.742  1.00  0.00     0.106 CG0
ATOM     16  G   UNL     1       5.142  29.157  16.224  1.00  0.00     0.000 G0
ENDBRANCH  13  15
ENDBRANCH  12  13
BRANCH  12  17
ATOM     17  C   UNL     1       9.179  30.339  14.661  1.00  0.00    -0.006 C 
ATOM     18  C   UNL     1      10.341  29.933  13.737  1.00  0.00     0.008 C 
ATOM     19  C   UNL     1       9.752  30.692  16.048  1.00  0.00     0.008 C 
ENDBRANCH  12  17
ENDBRANCH  11  12
ENDBRANCH   1  11
TORSDOF 1
ENDMDL
MODEL 7
REMARK VINA RESULT:    -2.669      7.801     10.032
REMARK INTER + INTRA:          -4.401
REMARK INTER:                  -4.178
REMARK INTRA:                  -0.223
REMARK UNBOUND:                -0.329
REMARK SMILES CC1=CCC[C@@H](C)C(=O)C[C@@H](C(C)C)C(=O)C1
REMARK SMILES IDX 8 1 9 2 6 3 7 4 5 5 4 6 3 7 2 8 1 9 10 11 11 12 15 13 16 14
REMARK SMILES IDX 17 15 12 17 13 18 14 19
REMARK H PARENT
REMARK Flexibility Score: 70.00
ROOT
ATOM      1  C   UNL     1       7.047  26.692  16.215  1.00  0.00     0.136 C 
ATOM      2  O   UNL     1       7.161  26.674  17.432  1.00  0.00    -0.299 OA
ENDROOT
BRANCH   1   3
ATOM      3  C   UNL     1       6.701  25.414  15.465  1.00  0.00     0.053 C 
ATOM      4  C   UNL     1       6.919  25.595  13.955  1.00  0.00     0.016 C 
BRANCH   3   5
ATOM      5  C   UNL     1       5.245  24.979  15.763  1.00  0.00     0.015 C 
BRANCH   5   6
ATOM      6  C   UNL     1       4.232  25.606  14.784  1.00  0.00     0.028 C 
BRANCH   6   7
ATOM      7  C   UNL     1       3.373  26.639  15.467  1.00  0.00    -0.028 C 
ATOM      8  C   UNL     1       3.490  27.977  15.293  1.00  0.00    -0.070 CG0
ATOM      9  C   UNL     1       2.515  28.873  16.014  1.00  0.00     0.039 C 
ATOM     10  G   UNL     1       4.558  28.606  14.410  1.00  0.00     0.000 G0
ENDBRANCH   6   7
ENDBRANCH   5   6
ENDBRANCH   3   5
ENDBRANCH   1   3
BRANCH   1  11
ATOM     11  C   UNL     1       7.275  27.989  15.474  1.00  0.00     0.087 C 
BRANCH  11  12
ATOM     12  C   UNL     1       6.506  29.205  16.067  1.00  0.00     0.066 C 
BRANCH  12  13
ATOM     13  C   UNL     1       5.387  29.636  15.128  1.00  0.00     0.140 C 
ATOM     14  O   UNL     1       5.117  30.824  15.011  1.00  0.00    -0.299 OA
BRANCH  13  15
ATOM     15  C   UNL     1       4.561  28.611  14.391  1.00  0.00     0.106 CG0
ATOM     16  G   UNL     1       3.495  27.986  15.279  1.00  0.00     0.000 G0
ENDBRANCH  13  15
ENDBRANCH  12  13
BRANCH  12  17
ATOM     17  C   UNL     1       7.413  30.416  16.470  1.00  0.00    -0.006 C 
ATOM     18  C   UNL     1       8.912  30.069  16.450  1.00  0.00     0.008 C 
ATOM     19  C   UNL     1       7.044  30.930  17.876  1.00  0.00     0.008 C 
ENDBRANCH  12  17
ENDBRANCH  11  12
ENDBRANCH   1  11
TORSDOF 1
ENDMDL
MODEL 8
REMARK VINA RESULT:    -2.605     10.402     12.723
REMARK INTER + INTRA:          -4.304
REMARK INTER:                  -3.850
REMARK INTRA:                  -0.453
REMARK UNBOUND:                -0.329
REMARK SMILES CC1=CCC[C@@H](C)C(=O)C[C@@H](C(C)C)C(=O)C1
REMARK SMILES IDX 8 1 9 2 6 3 7 4 5 5 4 6 3 7 2 8 1 9 10 11 11 12 15 13 16 14
REMARK SMILES IDX 17 15 12 17 13 18 14 19
REMARK H PARENT
REMARK Flexibility Score: 70.00
ROOT
ATOM      1  C   UNL     1      14.738  13.422  14.220  1.00  0.00     0.136 C 
ATOM      2  O   UNL     1      13.628  13.017  13.908  1.00  0.00    -0.299 OA
ENDROOT
BRANCH   1   3
ATOM      3  C   UNL     1      14.991  13.934  15.631  1.00  0.00     0.053 C 
ATOM      4  C   UNL     1      14.600  12.873  16.672  1.00  0.00     0.016 C 
BRANCH   3   5
ATOM      5  C   UNL     1      14.227  15.257  15.880  1.00  0.00     0.015 C 
BRANCH   5   6
ATOM      6  C   UNL     1      14.693  16.390  14.943  1.00  0.00     0.028 C 
BRANCH   6   7
ATOM      7  C   UNL     1      16.050  16.912  15.344  1.00  0.00    -0.028 C 
ATOM      8  C   UNL     1      17.165  16.828  14.579  1.00  0.00    -0.070 CG0
ATOM      9  C   UNL     1      18.434  17.448  15.107  1.00  0.00     0.039 C 
ATOM     10  G   UNL     1      17.187  16.139  13.222  1.00  0.00     0.000 G0
ENDBRANCH   6   7
ENDBRANCH   5   6
ENDBRANCH   3   5
ENDBRANCH   1   3
BRANCH   1  11
ATOM     11  C   UNL     1      15.840  13.424  13.186  1.00  0.00     0.087 C 
BRANCH  11  12
ATOM     12  C   UNL     1      17.271  13.573  13.780  1.00  0.00     0.066 C 
BRANCH  12  13
ATOM     13  C   UNL     1      17.942  14.830  13.243  1.00  0.00     0.140 C 
ATOM     14  O   UNL     1      19.111  14.787  12.883  1.00  0.00    -0.299 OA
BRANCH  13  15
ATOM     15  C   UNL     1      17.203  16.145  13.211  1.00  0.00     0.106 CG0
ATOM     16  G   UNL     1      17.179  16.823  14.574  1.00  0.00     0.000 G0
ENDBRANCH  13  15
ENDBRANCH  12  13
BRANCH  12  17
ATOM     17  C   UNL     1      18.185  12.314  13.599  1.00  0.00    -0.006 C 
ATOM     18  C   UNL     1      17.452  11.137  12.931  1.00  0.00     0.008 C 
ATOM     19  C   UNL     1      18.740  11.843  14.958  1.00  0.00     0.008 C 
ENDBRANCH  12  17
ENDBRANCH  11  12
ENDBRANCH   1  11
TORSDOF 1
ENDMDL
MODEL 9
REMARK VINA RESULT:    -2.552      8.658     10.832
REMARK INTER + INTRA:          -4.223
REMARK INTER:                  -3.841
REMARK INTRA:                  -0.383
REMARK UNBOUND:                -0.329
REMARK SMILES CC1=CCC[C@@H](C)C(=O)C[C@@H](C(C)C)C(=O)C1
REMARK SMILES IDX 8 1 9 2 6 3 7 4 5 5 4 6 3 7 2 8 1 9 10 11 11 12 15 13 16 14
REMARK SMILES IDX 17 15 12 17 13 18 14 19
REMARK H PARENT
REMARK Flexibility Score: 70.00
ROOT
ATOM      1  C   UNL     1       3.286  26.627  16.014  1.00  0.00     0.136 C 
ATOM      2  O   UNL     1       2.540  25.765  16.458  1.00  0.00    -0.299 OA
ENDROOT
BRANCH   1   3
ATOM      3  C   UNL     1       4.470  26.232  15.145  1.00  0.00     0.053 C 
ATOM      4  C   UNL     1       4.003  25.418  13.928  1.00  0.00     0.016 C 
BRANCH   3   5
ATOM      5  C   UNL     1       5.516  25.441  15.968  1.00  0.00     0.015 C 
BRANCH   5   6
ATOM      6  C   UNL     1       6.004  26.223  17.205  1.00  0.00     0.028 C 
BRANCH   6   7
ATOM      7  C   UNL     1       7.021  27.269  16.827  1.00  0.00    -0.028 C 
ATOM      8  C   UNL     1       6.874  28.599  17.040  1.00  0.00    -0.070 CG0
ATOM      9  C   UNL     1       8.012  29.509  16.649  1.00  0.00     0.039 C 
ATOM     10  G   UNL     1       5.618  29.206  17.649  1.00  0.00     0.000 G0
ENDBRANCH   6   7
ENDBRANCH   5   6
ENDBRANCH   3   5
ENDBRANCH   1   3
BRANCH   1  11
ATOM     11  C   UNL     1       3.024  28.075  16.358  1.00  0.00     0.087 C 
BRANCH  11  12
ATOM     12  C   UNL     1       3.947  29.083  15.612  1.00  0.00     0.066 C 
BRANCH  12  13
ATOM     13  C   UNL     1       4.759  29.899  16.609  1.00  0.00     0.140 C 
ATOM     14  O   UNL     1       4.757  31.120  16.537  1.00  0.00    -0.299 OA
BRANCH  13  15
ATOM     15  C   UNL     1       5.621  29.217  17.642  1.00  0.00     0.106 CG0
ATOM     16  G   UNL     1       6.867  28.592  17.030  1.00  0.00     0.000 G0
ENDBRANCH  13  15
ENDBRANCH  12  13
BRANCH  12  17
ATOM     17  C   UNL     1       3.208  30.005  14.585  1.00  0.00    -0.006 C 
ATOM     18  C   UNL     1       1.820  30.454  15.079  1.00  0.00     0.008 C 
ATOM     19  C   UNL     1       3.041  29.289  13.230  1.00  0.00     0.008 C 
ENDBRANCH  12  17
ENDBRANCH  11  12
ENDBRANCH   1  11
TORSDOF 1
ENDMDL
