MODEL 1
REMARK VINA RESULT:    -1.160      0.000      0.000
REMARK INTER + INTRA:          -2.380
REMARK INTER:                  -1.635
REMARK INTRA:                  -0.745
REMARK UNBOUND:                -0.745
REMARK SMILES CCCCCCCCC(=O)[O-]
REMARK SMILES IDX 6 1 7 2 8 3 9 4 10 5 11 6 5 7 4 8 3 9 2 10 1 11
REMARK H PARENT
REMARK Flexibility Score: inf
ROOT
ATOM      1  C   UNL     1     -14.004 -22.180  84.864  1.00  0.00     0.000 C 
ENDROOT
BRANCH   1   2
ATOM      2  C   UNL     1     -13.463 -23.430  85.575  1.00  0.00     0.006 C 
BRANCH   2   3
ATOM      3  C   UNL     1     -12.875 -24.456  84.598  1.00  0.00     0.053 C 
BRANCH   3   4
ATOM      4  C   UNL     1     -13.816 -25.605  84.419  1.00  0.00     0.041 C 
ATOM      5  O   UNL     1     -13.535 -26.536  83.618  1.00  0.00    -0.550 OA
ATOM      6  O   UNL     1     -14.980 -25.674  85.173  1.00  0.00    -0.550 OA
ENDBRANCH   3   4
ENDBRANCH   2   3
ENDBRANCH   1   2
BRANCH   1   7
ATOM      7  C   UNL     1     -12.902 -21.395  84.131  1.00  0.00     0.000 C 
BRANCH   7   8
ATOM      8  C   UNL     1     -13.316 -20.990  82.707  1.00  0.00    -0.000 C 
BRANCH   8   9
ATOM      9  C   UNL     1     -14.459 -21.860  82.155  1.00  0.00    -0.000 C 
BRANCH   9  10
ATOM     10  C   UNL     1     -13.952 -22.999  81.258  1.00  0.00    -0.003 C 
ATOM     11  C   UNL     1     -14.919 -24.181  81.200  1.00  0.00     0.004 C 
ENDBRANCH   9  10
ENDBRANCH   8   9
ENDBRANCH   7   8
ENDBRANCH   1   7
TORSDOF 7
ENDMDL
MODEL 2
REMARK VINA RESULT:    -1.135      2.042      2.453
REMARK INTER + INTRA:          -2.345
REMARK INTER:                  -1.400
REMARK INTRA:                  -0.945
REMARK UNBOUND:                -0.745
REMARK SMILES CCCCCCCCC(=O)[O-]
REMARK SMILES IDX 6 1 7 2 8 3 9 4 10 5 11 6 5 7 4 8 3 9 2 10 1 11
REMARK H PARENT
REMARK Flexibility Score: inf
ROOT
ATOM      1  C   UNL     1     -13.516 -22.426  85.001  1.00  0.00     0.000 C 
ENDROOT
BRANCH   1   2
ATOM      2  C   UNL     1     -14.951 -22.497  85.546  1.00  0.00     0.006 C 
BRANCH   2   3
ATOM      3  C   UNL     1     -15.616 -23.854  85.280  1.00  0.00     0.053 C 
BRANCH   3   4
ATOM      4  C   UNL     1     -16.636 -23.730  84.192  1.00  0.00     0.041 C 
ATOM      5  O   UNL     1     -16.964 -22.595  83.757  1.00  0.00    -0.550 OA
ATOM      6  O   UNL     1     -17.188 -24.871  83.626  1.00  0.00    -0.550 OA
ENDBRANCH   3   4
ENDBRANCH   2   3
ENDBRANCH   1   2
BRANCH   1   7
ATOM      7  C   UNL     1     -13.401 -21.530  83.754  1.00  0.00     0.000 C 
BRANCH   7   8
ATOM      8  C   UNL     1     -12.995 -22.319  82.499  1.00  0.00    -0.000 C 
BRANCH   8   9
ATOM      9  C   UNL     1     -14.171 -22.534  81.531  1.00  0.00    -0.000 C 
BRANCH   9  10
ATOM     10  C   UNL     1     -14.444 -24.021  81.257  1.00  0.00    -0.003 C 
ATOM     11  C   UNL     1     -13.667 -24.946  82.194  1.00  0.00     0.004 C 
ENDBRANCH   9  10
ENDBRANCH   8   9
ENDBRANCH   7   8
ENDBRANCH   1   7
TORSDOF 7
ENDMDL
MODEL 3
REMARK VINA RESULT:    -1.097      2.041      3.068
REMARK INTER + INTRA:          -2.290
REMARK INTER:                  -1.497
REMARK INTRA:                  -0.793
REMARK UNBOUND:                -0.745
REMARK SMILES CCCCCCCCC(=O)[O-]
REMARK SMILES IDX 6 1 7 2 8 3 9 4 10 5 11 6 5 7 4 8 3 9 2 10 1 11
REMARK H PARENT
REMARK Flexibility Score: inf
ROOT
ATOM      1  C   UNL     1     -15.908 -22.911  84.636  1.00  0.00     0.000 C 
ENDROOT
BRANCH   1   2
ATOM      2  C   UNL     1     -15.495 -24.135  83.804  1.00  0.00     0.006 C 
BRANCH   2   3
ATOM      3  C   UNL     1     -16.053 -24.091  82.376  1.00  0.00     0.053 C 
BRANCH   3   4
ATOM      4  C   UNL     1     -15.271 -25.002  81.483  1.00  0.00     0.041 C 
ATOM      5  O   UNL     1     -15.717 -26.144  81.195  1.00  0.00    -0.550 OA
ATOM      6  O   UNL     1     -14.072 -24.573  80.930  1.00  0.00    -0.550 OA
ENDBRANCH   3   4
ENDBRANCH   2   3
ENDBRANCH   1   2
BRANCH   1   7
ATOM      7  C   UNL     1     -14.767 -22.391  85.529  1.00  0.00     0.000 C 
BRANCH   7   8
ATOM      8  C   UNL     1     -13.394 -22.488  84.845  1.00  0.00    -0.000 C 
BRANCH   8   9
ATOM      9  C   UNL     1     -13.077 -21.254  83.980  1.00  0.00    -0.000 C 
BRANCH   9  10
ATOM     10  C   UNL     1     -13.011 -21.586  82.482  1.00  0.00    -0.003 C 
ATOM     11  C   UNL     1     -14.149 -20.949  81.685  1.00  0.00     0.004 C 
ENDBRANCH   9  10
ENDBRANCH   8   9
ENDBRANCH   7   8
ENDBRANCH   1   7
TORSDOF 7
ENDMDL
MODEL 4
REMARK VINA RESULT:    -1.092      2.703      3.358
REMARK INTER + INTRA:          -2.284
REMARK INTER:                  -1.517
REMARK INTRA:                  -0.767
REMARK UNBOUND:                -0.745
REMARK SMILES CCCCCCCCC(=O)[O-]
REMARK SMILES IDX 6 1 7 2 8 3 9 4 10 5 11 6 5 7 4 8 3 9 2 10 1 11
REMARK H PARENT
REMARK Flexibility Score: inf
ROOT
ATOM      1  C   UNL     1     -16.258 -22.308  86.123  1.00  0.00     0.000 C 
ENDROOT
BRANCH   1   2
ATOM      2  C   UNL     1     -14.799 -22.789  86.077  1.00  0.00     0.006 C 
BRANCH   2   3
ATOM      3  C   UNL     1     -14.035 -22.239  84.866  1.00  0.00     0.053 C 
BRANCH   3   4
ATOM      4  C   UNL     1     -13.545 -23.360  84.005  1.00  0.00     0.041 C 
ATOM      5  O   UNL     1     -13.769 -24.555  84.332  1.00  0.00    -0.550 OA
ATOM      6  O   UNL     1     -12.882 -23.085  82.816  1.00  0.00    -0.550 OA
ENDBRANCH   3   4
ENDBRANCH   2   3
ENDBRANCH   1   2
BRANCH   1   7
ATOM      7  C   UNL     1     -17.161 -23.067  85.135  1.00  0.00     0.000 C 
BRANCH   7   8
ATOM      8  C   UNL     1     -18.242 -22.167  84.515  1.00  0.00    -0.000 C 
BRANCH   8   9
ATOM      9  C   UNL     1     -18.150 -22.104  82.980  1.00  0.00    -0.000 C 
BRANCH   9  10
ATOM     10  C   UNL     1     -16.878 -22.775  82.439  1.00  0.00    -0.003 C 
ATOM     11  C   UNL     1     -16.027 -21.831  81.590  1.00  0.00     0.004 C 
ENDBRANCH   9  10
ENDBRANCH   8   9
ENDBRANCH   7   8
ENDBRANCH   1   7
TORSDOF 7
ENDMDL
MODEL 5
REMARK VINA RESULT:    -1.089      1.732      2.602
REMARK INTER + INTRA:          -2.279
REMARK INTER:                  -1.353
REMARK INTRA:                  -0.926
REMARK UNBOUND:                -0.745
REMARK SMILES CCCCCCCCC(=O)[O-]
REMARK SMILES IDX 6 1 7 2 8 3 9 4 10 5 11 6 5 7 4 8 3 9 2 10 1 11
REMARK H PARENT
REMARK Flexibility Score: inf
ROOT
ATOM      1  C   UNL     1     -16.416 -22.910  84.402  1.00  0.00     0.000 C 
ENDROOT
BRANCH   1   2
ATOM      2  C   UNL     1     -16.720 -24.406  84.221  1.00  0.00     0.006 C 
BRANCH   2   3
ATOM      3  C   UNL     1     -15.942 -25.028  83.055  1.00  0.00     0.053 C 
BRANCH   3   4
ATOM      4  C   UNL     1     -14.815 -25.868  83.569  1.00  0.00     0.041 C 
ATOM      5  O   UNL     1     -13.911 -26.263  82.786  1.00  0.00    -0.550 OA
ATOM      6  O   UNL     1     -14.737 -26.172  84.921  1.00  0.00    -0.550 OA
ENDBRANCH   3   4
ENDBRANCH   2   3
ENDBRANCH   1   2
BRANCH   1   7
ATOM      7  C   UNL     1     -15.651 -22.616  85.705  1.00  0.00     0.000 C 
BRANCH   7   8
ATOM      8  C   UNL     1     -14.128 -22.725  85.529  1.00  0.00    -0.000 C 
BRANCH   8   9
ATOM      9  C   UNL     1     -13.609 -21.895  84.341  1.00  0.00    -0.000 C 
BRANCH   9  10
ATOM     10  C   UNL     1     -12.875 -22.753  83.300  1.00  0.00    -0.003 C 
ATOM     11  C   UNL     1     -13.431 -22.574  81.888  1.00  0.00     0.004 C 
ENDBRANCH   9  10
ENDBRANCH   8   9
ENDBRANCH   7   8
ENDBRANCH   1   7
TORSDOF 7
ENDMDL
MODEL 6
REMARK VINA RESULT:    -1.076      2.473      3.499
REMARK INTER + INTRA:          -2.262
REMARK INTER:                  -1.402
REMARK INTRA:                  -0.860
REMARK UNBOUND:                -0.745
REMARK SMILES CCCCCCCCC(=O)[O-]
REMARK SMILES IDX 6 1 7 2 8 3 9 4 10 5 11 6 5 7 4 8 3 9 2 10 1 11
REMARK H PARENT
REMARK Flexibility Score: inf
ROOT
ATOM      1  C   UNL     1     -16.036 -22.933  82.508  1.00  0.00     0.000 C 
ENDROOT
BRANCH   1   2
ATOM      2  C   UNL     1     -15.127 -23.901  83.283  1.00  0.00     0.006 C 
BRANCH   2   3
ATOM      3  C   UNL     1     -13.717 -23.338  83.501  1.00  0.00     0.053 C 
BRANCH   3   4
ATOM      4  C   UNL     1     -13.754 -22.194  84.463  1.00  0.00     0.041 C 
ATOM      5  O   UNL     1     -13.111 -21.139  84.220  1.00  0.00    -0.550 OA
ATOM      6  O   UNL     1     -14.538 -22.274  85.607  1.00  0.00    -0.550 OA
ENDBRANCH   3   4
ENDBRANCH   2   3
ENDBRANCH   1   2
BRANCH   1   7
ATOM      7  C   UNL     1     -16.054 -23.223  80.997  1.00  0.00     0.000 C 
BRANCH   7   8
ATOM      8  C   UNL     1     -15.504 -22.053  80.167  1.00  0.00    -0.000 C 
BRANCH   8   9
ATOM      9  C   UNL     1     -15.355 -20.762  80.992  1.00  0.00    -0.000 C 
BRANCH   9  10
ATOM     10  C   UNL     1     -13.919 -20.218  80.981  1.00  0.00    -0.003 C 
ATOM     11  C   UNL     1     -12.899 -21.251  80.504  1.00  0.00     0.004 C 
ENDBRANCH   9  10
ENDBRANCH   8   9
ENDBRANCH   7   8
ENDBRANCH   1   7
TORSDOF 7
ENDMDL
MODEL 7
REMARK VINA RESULT:    -1.052      3.298      4.961
REMARK INTER + INTRA:          -2.227
REMARK INTER:                  -1.674
REMARK INTRA:                  -0.553
REMARK UNBOUND:                -0.745
REMARK SMILES CCCCCCCCC(=O)[O-]
REMARK SMILES IDX 6 1 7 2 8 3 9 4 10 5 11 6 5 7 4 8 3 9 2 10 1 11
REMARK H PARENT
REMARK Flexibility Score: inf
ROOT
ATOM      1  C   UNL     1     -16.803 -22.702  82.164  1.00  0.00     0.000 C 
ENDROOT
BRANCH   1   2
ATOM      2  C   UNL     1     -15.883 -21.607  81.600  1.00  0.00     0.006 C 
BRANCH   2   3
ATOM      3  C   UNL     1     -14.396 -21.944  81.765  1.00  0.00     0.053 C 
BRANCH   3   4
ATOM      4  C   UNL     1     -13.588 -20.691  81.885  1.00  0.00     0.041 C 
ATOM      5  O   UNL     1     -13.537 -19.875  80.928  1.00  0.00    -0.550 OA
ATOM      6  O   UNL     1     -12.929 -20.401  83.072  1.00  0.00    -0.550 OA
ENDBRANCH   3   4
ENDBRANCH   2   3
ENDBRANCH   1   2
BRANCH   1   7
ATOM      7  C   UNL     1     -16.275 -23.295  83.483  1.00  0.00     0.000 C 
BRANCH   7   8
ATOM      8  C   UNL     1     -16.949 -22.674  84.717  1.00  0.00    -0.000 C 
BRANCH   8   9
ATOM      9  C   UNL     1     -15.959 -22.426  85.869  1.00  0.00    -0.000 C 
BRANCH   9  10
ATOM     10  C   UNL     1     -14.494 -22.530  85.419  1.00  0.00    -0.003 C 
ATOM     11  C   UNL     1     -13.754 -23.694  86.077  1.00  0.00     0.004 C 
ENDBRANCH   9  10
ENDBRANCH   8   9
ENDBRANCH   7   8
ENDBRANCH   1   7
TORSDOF 7
ENDMDL
MODEL 8
REMARK VINA RESULT:    -1.030      3.478      4.988
REMARK INTER + INTRA:          -2.197
REMARK INTER:                  -1.500
REMARK INTRA:                  -0.696
REMARK UNBOUND:                -0.745
REMARK SMILES CCCCCCCCC(=O)[O-]
REMARK SMILES IDX 6 1 7 2 8 3 9 4 10 5 11 6 5 7 4 8 3 9 2 10 1 11
REMARK H PARENT
REMARK Flexibility Score: inf
ROOT
ATOM      1  C   UNL     1     -17.233 -22.640  83.760  1.00  0.00     0.000 C 
ENDROOT
BRANCH   1   2
ATOM      2  C   UNL     1     -16.983 -23.209  82.354  1.00  0.00     0.006 C 
BRANCH   2   3
ATOM      3  C   UNL     1     -15.701 -22.660  81.716  1.00  0.00     0.053 C 
BRANCH   3   4
ATOM      4  C   UNL     1     -15.947 -21.305  81.133  1.00  0.00     0.041 C 
ATOM      5  O   UNL     1     -17.078 -21.013  80.663  1.00  0.00    -0.550 OA
ATOM      6  O   UNL     1     -14.941 -20.348  81.152  1.00  0.00    -0.550 OA
ENDBRANCH   3   4
ENDBRANCH   2   3
ENDBRANCH   1   2
BRANCH   1   7
ATOM      7  C   UNL     1     -17.098 -23.706  84.862  1.00  0.00     0.000 C 
BRANCH   7   8
ATOM      8  C   UNL     1     -15.665 -23.808  85.408  1.00  0.00    -0.000 C 
BRANCH   8   9
ATOM      9  C   UNL     1     -14.951 -22.445  85.451  1.00  0.00    -0.000 C 
BRANCH   9  10
ATOM     10  C   UNL     1     -13.484 -22.534  85.006  1.00  0.00    -0.003 C 
ATOM     11  C   UNL     1     -13.086 -21.410  84.050  1.00  0.00     0.004 C 
ENDBRANCH   9  10
ENDBRANCH   8   9
ENDBRANCH   7   8
ENDBRANCH   1   7
TORSDOF 7
ENDMDL
MODEL 9
REMARK VINA RESULT:    -1.025      1.964      3.598
REMARK INTER + INTRA:          -2.189
REMARK INTER:                  -1.322
REMARK INTRA:                  -0.867
REMARK UNBOUND:                -0.745
REMARK SMILES CCCCCCCCC(=O)[O-]
REMARK SMILES IDX 6 1 7 2 8 3 9 4 10 5 11 6 5 7 4 8 3 9 2 10 1 11
REMARK H PARENT
REMARK Flexibility Score: inf
ROOT
ATOM      1  C   UNL     1     -14.570 -22.350  83.219  1.00  0.00     0.000 C 
ENDROOT
BRANCH   1   2
ATOM      2  C   UNL     1     -15.898 -23.045  83.554  1.00  0.00     0.006 C 
BRANCH   2   3
ATOM      3  C   UNL     1     -16.067 -24.381  82.818  1.00  0.00     0.053 C 
BRANCH   3   4
ATOM      4  C   UNL     1     -16.937 -25.306  83.609  1.00  0.00     0.041 C 
ATOM      5  O   UNL     1     -17.125 -25.105  84.838  1.00  0.00    -0.550 OA
ATOM      6  O   UNL     1     -17.581 -26.362  82.978  1.00  0.00    -0.550 OA
ENDBRANCH   3   4
ENDBRANCH   2   3
ENDBRANCH   1   2
BRANCH   1   7
ATOM      7  C   UNL     1     -13.708 -22.090  84.468  1.00  0.00     0.000 C 
BRANCH   7   8
ATOM      8  C   UNL     1     -14.208 -22.863  85.699  1.00  0.00    -0.000 C 
BRANCH   8   9
ATOM      9  C   UNL     1     -13.248 -23.990  86.119  1.00  0.00    -0.000 C 
BRANCH   9  10
ATOM     10  C   UNL     1     -13.686 -25.364  85.591  1.00  0.00    -0.003 C 
ATOM     11  C   UNL     1     -12.942 -25.773  84.320  1.00  0.00     0.004 C 
ENDBRANCH   9  10
ENDBRANCH   8   9
ENDBRANCH   7   8
ENDBRANCH   1   7
TORSDOF 7
ENDMDL
