MODEL 1
REMARK VINA RESULT:    -5.628      0.000      0.000
REMARK INTER + INTRA:          -6.244
REMARK INTER:                  -5.957
REMARK INTRA:                  -0.287
REMARK UNBOUND:                -0.287
REMARK SMILES c1ccc(-c2ccccc2)cc1
REMARK SMILES IDX 1 1 2 2 3 3 4 4 11 5 12 6 5 7 6 8 10 9 7 10 9 11 8 12
REMARK H PARENT
REMARK Flexibility Score: inf
ROOT
ATOM      1  C   UNL     1      -4.912 -14.592   0.498  1.00  0.00     0.000 A 
ATOM      2  C   UNL     1      -4.306 -15.182  -0.612  1.00  0.00     0.001 A 
ATOM      3  C   UNL     1      -5.069 -15.931  -1.512  1.00  0.00     0.009 A 
ATOM      4  C   UNL     1      -6.452 -16.098  -1.309  1.00  0.00    -0.018 A 
ATOM      5  C   UNL     1      -7.052 -15.497  -0.185  1.00  0.00     0.009 A 
ATOM      6  C   UNL     1      -6.284 -14.749   0.712  1.00  0.00     0.001 A 
ENDROOT
BRANCH   4   7
ATOM      7  C   UNL     1      -7.266 -16.894  -2.264  1.00  0.00    -0.018 A 
ATOM      8  C   UNL     1      -7.301 -18.300  -2.177  1.00  0.00     0.009 A 
ATOM      9  C   UNL     1      -8.016 -16.256  -3.271  1.00  0.00     0.009 A 
ATOM     10  C   UNL     1      -8.068 -19.046  -3.077  1.00  0.00     0.001 A 
ATOM     11  C   UNL     1      -8.782 -17.008  -4.168  1.00  0.00     0.001 A 
ATOM     12  C   UNL     1      -8.807 -18.401  -4.071  1.00  0.00     0.000 A 
ENDBRANCH   4   7
TORSDOF 1
ENDMDL
MODEL 2
REMARK VINA RESULT:    -5.352      1.776      5.147
REMARK INTER + INTRA:          -5.953
REMARK INTER:                  -5.630
REMARK INTRA:                  -0.323
REMARK UNBOUND:                -0.287
REMARK SMILES c1ccc(-c2ccccc2)cc1
REMARK SMILES IDX 1 1 2 2 3 3 4 4 11 5 12 6 5 7 6 8 10 9 7 10 9 11 8 12
REMARK H PARENT
REMARK Flexibility Score: inf
ROOT
ATOM      1  C   UNL     1      -7.605 -15.923  -3.397  1.00  0.00     0.000 A 
ATOM      2  C   UNL     1      -8.453 -16.592  -2.512  1.00  0.00     0.001 A 
ATOM      3  C   UNL     1      -8.264 -16.467  -1.132  1.00  0.00     0.009 A 
ATOM      4  C   UNL     1      -7.222 -15.670  -0.623  1.00  0.00    -0.018 A 
ATOM      5  C   UNL     1      -6.374 -15.000  -1.527  1.00  0.00     0.009 A 
ATOM      6  C   UNL     1      -6.567 -15.128  -2.905  1.00  0.00     0.001 A 
ENDROOT
BRANCH   4   7
ATOM      7  C   UNL     1      -7.019 -15.536   0.843  1.00  0.00    -0.018 A 
ATOM      8  C   UNL     1      -7.898 -16.162   1.748  1.00  0.00     0.009 A 
ATOM      9  C   UNL     1      -5.944 -14.780   1.351  1.00  0.00     0.009 A 
ATOM     10  C   UNL     1      -7.704 -16.034   3.126  1.00  0.00     0.001 A 
ATOM     11  C   UNL     1      -5.755 -14.656   2.731  1.00  0.00     0.001 A 
ATOM     12  C   UNL     1      -6.635 -15.282   3.617  1.00  0.00     0.000 A 
ENDBRANCH   4   7
TORSDOF 1
ENDMDL
MODEL 3
REMARK VINA RESULT:    -5.343      1.795      3.006
REMARK INTER + INTRA:          -5.943
REMARK INTER:                  -5.620
REMARK INTRA:                  -0.323
REMARK UNBOUND:                -0.287
REMARK SMILES c1ccc(-c2ccccc2)cc1
REMARK SMILES IDX 1 1 2 2 3 3 4 4 11 5 12 6 5 7 6 8 10 9 7 10 9 11 8 12
REMARK H PARENT
REMARK Flexibility Score: inf
ROOT
ATOM      1  C   UNL     1      -6.609 -15.222   3.670  1.00  0.00     0.000 A 
ATOM      2  C   UNL     1      -5.744 -14.592   2.773  1.00  0.00     0.001 A 
ATOM      3  C   UNL     1      -5.935 -14.737   1.396  1.00  0.00     0.009 A 
ATOM      4  C   UNL     1      -6.997 -15.518   0.901  1.00  0.00    -0.018 A 
ATOM      5  C   UNL     1      -7.862 -16.148   1.817  1.00  0.00     0.009 A 
ATOM      6  C   UNL     1      -7.667 -15.999   3.192  1.00  0.00     0.001 A 
ENDROOT
BRANCH   4   7
ATOM      7  C   UNL     1      -7.202 -15.674  -0.563  1.00  0.00    -0.018 A 
ATOM      8  C   UNL     1      -6.372 -14.998  -1.478  1.00  0.00     0.009 A 
ATOM      9  C   UNL     1      -8.229 -16.501  -1.057  1.00  0.00     0.009 A 
ATOM     10  C   UNL     1      -6.568 -15.148  -2.854  1.00  0.00     0.001 A 
ATOM     11  C   UNL     1      -8.420 -16.647  -2.435  1.00  0.00     0.001 A 
ATOM     12  C   UNL     1      -7.590 -15.971  -3.332  1.00  0.00     0.000 A 
ENDBRANCH   4   7
TORSDOF 1
ENDMDL
MODEL 4
REMARK VINA RESULT:    -5.227      2.040      4.890
REMARK INTER + INTRA:          -5.820
REMARK INTER:                  -5.511
REMARK INTRA:                  -0.309
REMARK UNBOUND:                -0.287
REMARK SMILES c1ccc(-c2ccccc2)cc1
REMARK SMILES IDX 1 1 2 2 3 3 4 4 11 5 12 6 5 7 6 8 10 9 7 10 9 11 8 12
REMARK H PARENT
REMARK Flexibility Score: inf
ROOT
ATOM      1  C   UNL     1      -7.810 -21.857  -1.722  1.00  0.00     0.000 A 
ATOM      2  C   UNL     1      -8.711 -20.838  -1.405  1.00  0.00     0.001 A 
ATOM      3  C   UNL     1      -8.360 -19.502  -1.616  1.00  0.00     0.009 A 
ATOM      4  C   UNL     1      -7.099 -19.169  -2.146  1.00  0.00    -0.018 A 
ATOM      5  C   UNL     1      -6.199 -20.207  -2.461  1.00  0.00     0.009 A 
ATOM      6  C   UNL     1      -6.555 -21.541  -2.250  1.00  0.00     0.001 A 
ENDROOT
BRANCH   4   7
ATOM      7  C   UNL     1      -6.723 -17.749  -2.371  1.00  0.00    -0.018 A 
ATOM      8  C   UNL     1      -5.410 -17.307  -2.116  1.00  0.00     0.009 A 
ATOM      9  C   UNL     1      -7.673 -16.823  -2.842  1.00  0.00     0.009 A 
ATOM     10  C   UNL     1      -5.060 -15.971  -2.328  1.00  0.00     0.001 A 
ATOM     11  C   UNL     1      -7.317 -15.488  -3.053  1.00  0.00     0.001 A 
ATOM     12  C   UNL     1      -6.012 -15.062  -2.796  1.00  0.00     0.000 A 
ENDBRANCH   4   7
TORSDOF 1
ENDMDL
MODEL 5
REMARK VINA RESULT:    -5.158      8.040      9.774
REMARK INTER + INTRA:          -5.747
REMARK INTER:                  -5.431
REMARK INTRA:                  -0.316
REMARK UNBOUND:                -0.287
REMARK SMILES c1ccc(-c2ccccc2)cc1
REMARK SMILES IDX 1 1 2 2 3 3 4 4 11 5 12 6 5 7 6 8 10 9 7 10 9 11 8 12
REMARK H PARENT
REMARK Flexibility Score: inf
ROOT
ATOM      1  C   UNL     1      -6.345 -19.847  -8.893  1.00  0.00     0.000 A 
ATOM      2  C   UNL     1      -5.015 -19.857  -9.317  1.00  0.00     0.001 A 
ATOM      3  C   UNL     1      -4.463 -18.722  -9.919  1.00  0.00     0.009 A 
ATOM      4  C   UNL     1      -5.240 -17.563 -10.106  1.00  0.00    -0.018 A 
ATOM      5  C   UNL     1      -6.581 -17.567  -9.674  1.00  0.00     0.009 A 
ATOM      6  C   UNL     1      -7.128 -18.704  -9.072  1.00  0.00     0.001 A 
ENDROOT
BRANCH   4   7
ATOM      7  C   UNL     1      -4.656 -16.356 -10.746  1.00  0.00    -0.018 A 
ATOM      8  C   UNL     1      -5.170 -15.076 -10.463  1.00  0.00     0.009 A 
ATOM      9  C   UNL     1      -3.579 -16.473 -11.646  1.00  0.00     0.009 A 
ATOM     10  C   UNL     1      -4.618 -13.942 -11.067  1.00  0.00     0.001 A 
ATOM     11  C   UNL     1      -3.030 -15.336 -12.246  1.00  0.00     0.001 A 
ATOM     12  C   UNL     1      -3.550 -14.072 -11.957  1.00  0.00     0.000 A 
ENDBRANCH   4   7
TORSDOF 1
ENDMDL
MODEL 6
REMARK VINA RESULT:    -5.152      8.011      9.430
REMARK INTER + INTRA:          -5.741
REMARK INTER:                  -5.424
REMARK INTRA:                  -0.317
REMARK UNBOUND:                -0.287
REMARK SMILES c1ccc(-c2ccccc2)cc1
REMARK SMILES IDX 1 1 2 2 3 3 4 4 11 5 12 6 5 7 6 8 10 9 7 10 9 11 8 12
REMARK H PARENT
REMARK Flexibility Score: inf
ROOT
ATOM      1  C   UNL     1      -3.488 -14.126 -11.968  1.00  0.00     0.000 A 
ATOM      2  C   UNL     1      -4.575 -13.969 -11.107  1.00  0.00     0.001 A 
ATOM      3  C   UNL     1      -5.154 -15.086 -10.497  1.00  0.00     0.009 A 
ATOM      4  C   UNL     1      -4.649 -16.377 -10.746  1.00  0.00    -0.018 A 
ATOM      5  C   UNL     1      -3.552 -16.521 -11.618  1.00  0.00     0.009 A 
ATOM      6  C   UNL     1      -2.977 -15.401 -12.224  1.00  0.00     0.001 A 
ENDROOT
BRANCH   4   7
ATOM      7  C   UNL     1      -5.262 -17.566 -10.100  1.00  0.00    -0.018 A 
ATOM      8  C   UNL     1      -6.600 -17.533  -9.661  1.00  0.00     0.009 A 
ATOM      9  C   UNL     1      -4.515 -18.746  -9.917  1.00  0.00     0.009 A 
ATOM     10  C   UNL     1      -7.174 -18.654  -9.054  1.00  0.00     0.001 A 
ATOM     11  C   UNL     1      -5.095 -19.864  -9.310  1.00  0.00     0.001 A 
ATOM     12  C   UNL     1      -6.422 -19.818  -8.879  1.00  0.00     0.000 A 
ENDBRANCH   4   7
TORSDOF 1
ENDMDL
MODEL 7
REMARK VINA RESULT:    -5.132      2.127      3.153
REMARK INTER + INTRA:          -5.720
REMARK INTER:                  -5.401
REMARK INTRA:                  -0.318
REMARK UNBOUND:                -0.287
REMARK SMILES c1ccc(-c2ccccc2)cc1
REMARK SMILES IDX 1 1 2 2 3 3 4 4 11 5 12 6 5 7 6 8 10 9 7 10 9 11 8 12
REMARK H PARENT
REMARK Flexibility Score: inf
ROOT
ATOM      1  C   UNL     1      -6.549 -15.111  -1.407  1.00  0.00     0.000 A 
ATOM      2  C   UNL     1      -5.288 -15.605  -1.747  1.00  0.00     0.001 A 
ATOM      3  C   UNL     1      -5.135 -16.947  -2.108  1.00  0.00     0.009 A 
ATOM      4  C   UNL     1      -6.247 -17.811  -2.131  1.00  0.00    -0.018 A 
ATOM      5  C   UNL     1      -7.512 -17.300  -1.785  1.00  0.00     0.009 A 
ATOM      6  C   UNL     1      -7.660 -15.957  -1.425  1.00  0.00     0.001 A 
ENDROOT
BRANCH   4   7
ATOM      7  C   UNL     1      -6.087 -19.238  -2.513  1.00  0.00    -0.018 A 
ATOM      8  C   UNL     1      -4.828 -19.864  -2.434  1.00  0.00     0.009 A 
ATOM      9  C   UNL     1      -7.193 -19.987  -2.961  1.00  0.00     0.009 A 
ATOM     10  C   UNL     1      -4.681 -21.207  -2.795  1.00  0.00     0.001 A 
ATOM     11  C   UNL     1      -7.040 -21.330  -3.319  1.00  0.00     0.001 A 
ATOM     12  C   UNL     1      -5.786 -21.939  -3.237  1.00  0.00     0.000 A 
ENDBRANCH   4   7
TORSDOF 1
ENDMDL
MODEL 8
REMARK VINA RESULT:    -5.131      2.129      5.094
REMARK INTER + INTRA:          -5.718
REMARK INTER:                  -5.397
REMARK INTRA:                  -0.320
REMARK UNBOUND:                -0.287
REMARK SMILES c1ccc(-c2ccccc2)cc1
REMARK SMILES IDX 1 1 2 2 3 3 4 4 11 5 12 6 5 7 6 8 10 9 7 10 9 11 8 12
REMARK H PARENT
REMARK Flexibility Score: inf
ROOT
ATOM      1  C   UNL     1      -5.834 -21.967  -3.145  1.00  0.00     0.000 A 
ATOM      2  C   UNL     1      -7.091 -21.360  -3.148  1.00  0.00     0.001 A 
ATOM      3  C   UNL     1      -7.215 -20.005  -2.824  1.00  0.00     0.009 A 
ATOM      4  C   UNL     1      -6.079 -19.243  -2.491  1.00  0.00    -0.018 A 
ATOM      5  C   UNL     1      -4.817 -19.869  -2.492  1.00  0.00     0.009 A 
ATOM      6  C   UNL     1      -4.698 -21.223  -2.817  1.00  0.00     0.001 A 
ENDROOT
BRANCH   4   7
ATOM      7  C   UNL     1      -6.208 -17.804  -2.146  1.00  0.00    -0.018 A 
ATOM      8  C   UNL     1      -7.464 -17.255  -1.821  1.00  0.00     0.009 A 
ATOM      9  C   UNL     1      -5.076 -16.965  -2.137  1.00  0.00     0.009 A 
ATOM     10  C   UNL     1      -7.582 -15.901  -1.497  1.00  0.00     0.001 A 
ATOM     11  C   UNL     1      -5.201 -15.611  -1.810  1.00  0.00     0.001 A 
ATOM     12  C   UNL     1      -6.452 -15.080  -1.491  1.00  0.00     0.000 A 
ENDBRANCH   4   7
TORSDOF 1
ENDMDL
MODEL 9
REMARK VINA RESULT:    -5.044      2.241      4.163
REMARK INTER + INTRA:          -5.626
REMARK INTER:                  -5.326
REMARK INTRA:                  -0.300
REMARK UNBOUND:                -0.287
REMARK SMILES c1ccc(-c2ccccc2)cc1
REMARK SMILES IDX 1 1 2 2 3 3 4 4 11 5 12 6 5 7 6 8 10 9 7 10 9 11 8 12
REMARK H PARENT
REMARK Flexibility Score: inf
ROOT
ATOM      1  C   UNL     1      -6.677 -13.407   4.328  1.00  0.00     0.000 A 
ATOM      2  C   UNL     1      -7.224 -12.716   3.245  1.00  0.00     0.001 A 
ATOM      3  C   UNL     1      -7.020 -13.182   1.942  1.00  0.00     0.009 A 
ATOM      4  C   UNL     1      -6.264 -14.346   1.710  1.00  0.00    -0.018 A 
ATOM      5  C   UNL     1      -5.718 -15.033   2.812  1.00  0.00     0.009 A 
ATOM      6  C   UNL     1      -5.925 -14.564   4.112  1.00  0.00     0.001 A 
ENDROOT
BRANCH   4   7
ATOM      7  C   UNL     1      -6.047 -14.843   0.327  1.00  0.00    -0.018 A 
ATOM      8  C   UNL     1      -4.747 -15.124  -0.137  1.00  0.00     0.009 A 
ATOM      9  C   UNL     1      -7.136 -15.040  -0.543  1.00  0.00     0.009 A 
ATOM     10  C   UNL     1      -4.545 -15.591  -1.439  1.00  0.00     0.001 A 
ATOM     11  C   UNL     1      -6.928 -15.509  -1.844  1.00  0.00     0.001 A 
ATOM     12  C   UNL     1      -5.634 -15.783  -2.291  1.00  0.00     0.000 A 
ENDBRANCH   4   7
TORSDOF 1
ENDMDL
