MODEL 1
REMARK VINA RESULT:    -5.694      0.000      0.000
REMARK INTER + INTRA:          -6.147
REMARK INTER:                  -6.027
REMARK INTRA:                  -0.120
REMARK UNBOUND:                -0.120
REMARK SMILES C=C(C)[C@@H]1CC=C(C)CC1
REMARK SMILES IDX 8 1 7 2 6 3 5 4 4 5 10 6 9 7 2 8 1 9 3 10
REMARK H PARENT
REMARK Flexibility Score: inf
ROOT
ATOM      1  C   UNL     1      11.190  19.250  -3.310  1.00  0.00     0.039 C 
ATOM      2  C   UNL     1      12.135  20.241  -2.688  1.00  0.00    -0.077 C 
ATOM      3  C   UNL     1      11.822  20.785  -1.492  1.00  0.00    -0.027 C 
ATOM      4  C   UNL     1      12.728  21.747  -0.763  1.00  0.00     0.035 C 
ATOM      5  C   UNL     1      13.715  22.449  -1.712  1.00  0.00     0.018 C 
ATOM      6  C   UNL     1      14.391  21.413  -2.621  1.00  0.00     0.013 C 
ATOM      7  C   UNL     1      13.342  20.699  -3.483  1.00  0.00     0.031 C 
ENDROOT
BRANCH   5   8
ATOM      8  C   UNL     1      14.738  23.270  -0.940  1.00  0.00    -0.077 C 
ATOM      9  C   UNL     1      14.789  24.602  -1.097  1.00  0.00     0.008 C 
ATOM     10  C   UNL     1      15.704  22.620   0.021  1.00  0.00     0.039 C 
ENDBRANCH   5   8
TORSDOF 1
ENDMDL
MODEL 2
REMARK VINA RESULT:    -5.624      0.540      1.947
REMARK INTER + INTRA:          -6.073
REMARK INTER:                  -5.951
REMARK INTRA:                  -0.123
REMARK UNBOUND:                -0.120
REMARK SMILES C=C(C)[C@@H]1CC=C(C)CC1
REMARK SMILES IDX 8 1 7 2 6 3 5 4 4 5 10 6 9 7 2 8 1 9 3 10
REMARK H PARENT
REMARK Flexibility Score: inf
ROOT
ATOM      1  C   UNL     1      11.304  19.377  -3.795  1.00  0.00     0.039 C 
ATOM      2  C   UNL     1      12.202  20.302  -3.019  1.00  0.00    -0.077 C 
ATOM      3  C   UNL     1      13.115  21.041  -3.686  1.00  0.00    -0.027 C 
ATOM      4  C   UNL     1      14.024  22.034  -3.004  1.00  0.00     0.035 C 
ATOM      5  C   UNL     1      14.201  21.729  -1.507  1.00  0.00     0.018 C 
ATOM      6  C   UNL     1      12.830  21.486  -0.858  1.00  0.00     0.013 C 
ATOM      7  C   UNL     1      12.146  20.275  -1.504  1.00  0.00     0.031 C 
ENDROOT
BRANCH   5   8
ATOM      8  C   UNL     1      14.966  22.840  -0.801  1.00  0.00    -0.077 C 
ATOM      9  C   UNL     1      15.872  22.539   0.143  1.00  0.00     0.008 C 
ATOM     10  C   UNL     1      14.739  24.292  -1.144  1.00  0.00     0.039 C 
ENDBRANCH   5   8
TORSDOF 1
ENDMDL
MODEL 3
REMARK VINA RESULT:    -5.397      1.223      4.546
REMARK INTER + INTRA:          -5.833
REMARK INTER:                  -5.702
REMARK INTRA:                  -0.130
REMARK UNBOUND:                -0.120
REMARK SMILES C=C(C)[C@@H]1CC=C(C)CC1
REMARK SMILES IDX 8 1 7 2 6 3 5 4 4 5 10 6 9 7 2 8 1 9 3 10
REMARK H PARENT
REMARK Flexibility Score: inf
ROOT
ATOM      1  C   UNL     1      15.951  23.138   0.709  1.00  0.00     0.039 C 
ATOM      2  C   UNL     1      15.000  22.388  -0.182  1.00  0.00    -0.077 C 
ATOM      3  C   UNL     1      15.274  22.290  -1.500  1.00  0.00    -0.027 C 
ATOM      4  C   UNL     1      14.410  21.515  -2.465  1.00  0.00     0.035 C 
ATOM      5  C   UNL     1      12.973  21.339  -1.946  1.00  0.00     0.018 C 
ATOM      6  C   UNL     1      13.000  20.848  -0.491  1.00  0.00     0.013 C 
ATOM      7  C   UNL     1      13.696  21.880   0.404  1.00  0.00     0.031 C 
ENDROOT
BRANCH   5   8
ATOM      8  C   UNL     1      12.171  20.401  -2.839  1.00  0.00    -0.077 C 
ATOM      9  C   UNL     1      12.520  20.235  -4.125  1.00  0.00     0.008 C 
ATOM     10  C   UNL     1      10.985  19.634  -2.309  1.00  0.00     0.039 C 
ENDBRANCH   5   8
TORSDOF 1
ENDMDL
MODEL 4
REMARK VINA RESULT:    -5.338      1.098      4.534
REMARK INTER + INTRA:          -5.770
REMARK INTER:                  -5.640
REMARK INTRA:                  -0.129
REMARK UNBOUND:                -0.120
REMARK SMILES C=C(C)[C@@H]1CC=C(C)CC1
REMARK SMILES IDX 8 1 7 2 6 3 5 4 4 5 10 6 9 7 2 8 1 9 3 10
REMARK H PARENT
REMARK Flexibility Score: inf
ROOT
ATOM      1  C   UNL     1      14.761  24.920  -0.596  1.00  0.00     0.039 C 
ATOM      2  C   UNL     1      14.142  23.651  -1.115  1.00  0.00    -0.077 C 
ATOM      3  C   UNL     1      14.887  22.822  -1.879  1.00  0.00    -0.027 C 
ATOM      4  C   UNL     1      14.374  21.503  -2.402  1.00  0.00     0.035 C 
ATOM      5  C   UNL     1      12.837  21.458  -2.461  1.00  0.00     0.018 C 
ATOM      6  C   UNL     1      12.250  21.952  -1.131  1.00  0.00     0.013 C 
ATOM      7  C   UNL     1      12.665  23.406  -0.876  1.00  0.00     0.031 C 
ENDROOT
BRANCH   5   8
ATOM      8  C   UNL     1      12.336  20.064  -2.811  1.00  0.00    -0.077 C 
ATOM      9  C   UNL     1      11.204  19.597  -2.260  1.00  0.00     0.008 C 
ATOM     10  C   UNL     1      13.080  19.182  -3.784  1.00  0.00     0.039 C 
ENDBRANCH   5   8
TORSDOF 1
ENDMDL
MODEL 5
REMARK VINA RESULT:    -5.156      1.151      4.276
REMARK INTER + INTRA:          -5.577
REMARK INTER:                  -5.448
REMARK INTRA:                  -0.129
REMARK UNBOUND:                -0.120
REMARK SMILES C=C(C)[C@@H]1CC=C(C)CC1
REMARK SMILES IDX 8 1 7 2 6 3 5 4 4 5 10 6 9 7 2 8 1 9 3 10
REMARK H PARENT
REMARK Flexibility Score: inf
ROOT
ATOM      1  C   UNL     1      15.885  23.259   0.681  1.00  0.00     0.039 C 
ATOM      2  C   UNL     1      14.943  22.540  -0.245  1.00  0.00    -0.077 C 
ATOM      3  C   UNL     1      13.659  22.359   0.135  1.00  0.00    -0.027 C 
ATOM      4  C   UNL     1      12.627  21.698  -0.745  1.00  0.00     0.035 C 
ATOM      5  C   UNL     1      13.265  20.794  -1.813  1.00  0.00     0.018 C 
ATOM      6  C   UNL     1      14.400  21.546  -2.523  1.00  0.00     0.013 C 
ATOM      7  C   UNL     1      15.495  21.925  -1.517  1.00  0.00     0.031 C 
ENDROOT
BRANCH   5   8
ATOM      8  C   UNL     1      12.226  20.286  -2.803  1.00  0.00    -0.077 C 
ATOM      9  C   UNL     1      12.449  20.384  -4.124  1.00  0.00     0.008 C 
ATOM     10  C   UNL     1      10.938  19.653  -2.336  1.00  0.00     0.039 C 
ENDBRANCH   5   8
TORSDOF 1
ENDMDL
MODEL 6
REMARK VINA RESULT:    -4.312      1.417      2.136
REMARK INTER + INTRA:          -4.684
REMARK INTER:                  -4.552
REMARK INTRA:                  -0.132
REMARK UNBOUND:                -0.120
REMARK SMILES C=C(C)[C@@H]1CC=C(C)CC1
REMARK SMILES IDX 8 1 7 2 6 3 5 4 4 5 10 6 9 7 2 8 1 9 3 10
REMARK H PARENT
REMARK Flexibility Score: inf
ROOT
ATOM      1  C   UNL     1      12.378  18.875  -0.713  1.00  0.00     0.039 C 
ATOM      2  C   UNL     1      12.832  20.254  -1.106  1.00  0.00    -0.077 C 
ATOM      3  C   UNL     1      13.276  21.096  -0.149  1.00  0.00    -0.027 C 
ATOM      4  C   UNL     1      13.801  22.479  -0.449  1.00  0.00     0.035 C 
ATOM      5  C   UNL     1      13.282  23.019  -1.793  1.00  0.00     0.018 C 
ATOM      6  C   UNL     1      13.462  21.957  -2.887  1.00  0.00     0.013 C 
ATOM      7  C   UNL     1      12.651  20.701  -2.544  1.00  0.00     0.031 C 
ENDROOT
BRANCH   5   8
ATOM      8  C   UNL     1      13.965  24.328  -2.165  1.00  0.00    -0.077 C 
ATOM      9  C   UNL     1      14.856  24.885  -1.328  1.00  0.00     0.008 C 
ATOM     10  C   UNL     1      13.674  25.023  -3.473  1.00  0.00     0.039 C 
ENDBRANCH   5   8
TORSDOF 1
ENDMDL
MODEL 7
REMARK VINA RESULT:    -4.010      2.061      3.610
REMARK INTER + INTRA:          -4.365
REMARK INTER:                  -4.245
REMARK INTRA:                  -0.120
REMARK UNBOUND:                -0.120
REMARK SMILES C=C(C)[C@@H]1CC=C(C)CC1
REMARK SMILES IDX 8 1 7 2 6 3 5 4 4 5 10 6 9 7 2 8 1 9 3 10
REMARK H PARENT
REMARK Flexibility Score: inf
ROOT
ATOM      1  C   UNL     1      13.138  25.523  -4.125  1.00  0.00     0.039 C 
ATOM      2  C   UNL     1      13.650  24.596  -3.057  1.00  0.00    -0.077 C 
ATOM      3  C   UNL     1      14.211  25.121  -1.946  1.00  0.00    -0.027 C 
ATOM      4  C   UNL     1      14.706  24.277  -0.798  1.00  0.00     0.035 C 
ATOM      5  C   UNL     1      15.016  22.833  -1.228  1.00  0.00     0.018 C 
ATOM      6  C   UNL     1      13.846  22.270  -2.047  1.00  0.00     0.013 C 
ATOM      7  C   UNL     1      13.641  23.102  -3.319  1.00  0.00     0.031 C 
ENDROOT
BRANCH   5   8
ATOM      8  C   UNL     1      15.334  21.953  -0.027  1.00  0.00    -0.077 C 
ATOM      9  C   UNL     1      16.602  21.823   0.396  1.00  0.00     0.008 C 
ATOM     10  C   UNL     1      14.247  21.220   0.720  1.00  0.00     0.039 C 
ENDBRANCH   5   8
TORSDOF 1
ENDMDL
MODEL 8
REMARK VINA RESULT:    -3.345     13.639     16.196
REMARK INTER + INTRA:          -3.661
REMARK INTER:                  -3.531
REMARK INTRA:                  -0.130
REMARK UNBOUND:                -0.120
REMARK SMILES C=C(C)[C@@H]1CC=C(C)CC1
REMARK SMILES IDX 8 1 7 2 6 3 5 4 4 5 10 6 9 7 2 8 1 9 3 10
REMARK H PARENT
REMARK Flexibility Score: inf
ROOT
ATOM      1  C   UNL     1      20.766  24.853   9.020  1.00  0.00     0.039 C 
ATOM      2  C   UNL     1      20.720  24.129  10.337  1.00  0.00    -0.077 C 
ATOM      3  C   UNL     1      21.125  24.772  11.454  1.00  0.00    -0.027 C 
ATOM      4  C   UNL     1      21.068  24.149  12.827  1.00  0.00     0.035 C 
ATOM      5  C   UNL     1      21.045  22.612  12.769  1.00  0.00     0.018 C 
ATOM      6  C   UNL     1      19.995  22.144  11.752  1.00  0.00     0.013 C 
ATOM      7  C   UNL     1      20.348  22.659  10.351  1.00  0.00     0.031 C 
ENDROOT
BRANCH   5   8
ATOM      8  C   UNL     1      20.801  22.008  14.145  1.00  0.00    -0.077 C 
ATOM      9  C   UNL     1      20.387  20.736  14.258  1.00  0.00     0.008 C 
ATOM     10  C   UNL     1      21.025  22.807  15.406  1.00  0.00     0.039 C 
ENDBRANCH   5   8
TORSDOF 1
ENDMDL
MODEL 9
REMARK VINA RESULT:    -2.903     13.899     16.625
REMARK INTER + INTRA:          -3.193
REMARK INTER:                  -3.063
REMARK INTRA:                  -0.129
REMARK UNBOUND:                -0.120
REMARK SMILES C=C(C)[C@@H]1CC=C(C)CC1
REMARK SMILES IDX 8 1 7 2 6 3 5 4 4 5 10 6 9 7 2 8 1 9 3 10
REMARK H PARENT
REMARK Flexibility Score: inf
ROOT
ATOM      1  C   UNL     1      20.575  24.147   9.328  1.00  0.00     0.039 C 
ATOM      2  C   UNL     1      20.723  23.593  10.718  1.00  0.00    -0.077 C 
ATOM      3  C   UNL     1      20.838  22.258  10.884  1.00  0.00    -0.027 C 
ATOM      4  C   UNL     1      21.043  21.611  12.231  1.00  0.00     0.035 C 
ATOM      5  C   UNL     1      20.564  22.507  13.386  1.00  0.00     0.018 C 
ATOM      6  C   UNL     1      21.119  23.928  13.208  1.00  0.00     0.013 C 
ATOM      7  C   UNL     1      20.603  24.538  11.899  1.00  0.00     0.031 C 
ENDROOT
BRANCH   5   8
ATOM      8  C   UNL     1      20.947  21.922  14.739  1.00  0.00    -0.077 C 
ATOM      9  C   UNL     1      21.123  22.730  15.797  1.00  0.00     0.008 C 
ATOM     10  C   UNL     1      21.125  20.435  14.930  1.00  0.00     0.039 C 
ENDBRANCH   5   8
TORSDOF 1
ENDMDL
