MODEL 1
REMARK VINA RESULT:    -4.596      0.000      0.000
REMARK INTER + INTRA:         -10.159
REMARK INTER:                  -8.895
REMARK INTRA:                  -1.264
REMARK UNBOUND:                -1.264
REMARK SMILES CCCCCCCCCCCCCCCCCC(=O)[O-]
REMARK SMILES IDX 10 1 11 2 12 3 13 4 14 5 15 6 16 7 17 8 18 9 19 10 20 11
REMARK SMILES IDX 9 12 8 13 7 14 6 15 5 16 4 17 3 18 2 19 1 20
REMARK H PARENT
REMARK Flexibility Score: inf
ROOT
ATOM      1  C   UNL     1      44.504  28.394   3.018  1.00  0.00     0.000 C 
ENDROOT
BRANCH   1   2
ATOM      2  C   UNL     1      45.185  28.958   1.757  1.00  0.00     0.000 C 
BRANCH   2   3
ATOM      3  C   UNL     1      45.577  27.866   0.750  1.00  0.00     0.000 C 
BRANCH   3   4
ATOM      4  C   UNL     1      46.164  28.482  -0.526  1.00  0.00     0.000 C 
BRANCH   4   5
ATOM      5  C   UNL     1      45.171  29.457  -1.173  1.00  0.00     0.000 C 
BRANCH   5   6
ATOM      6  C   UNL     1      44.825  29.086  -2.626  1.00  0.00     0.000 C 
BRANCH   6   7
ATOM      7  C   UNL     1      45.012  27.596  -2.983  1.00  0.00     0.006 C 
BRANCH   7   8
ATOM      8  C   UNL     1      43.724  26.877  -3.416  1.00  0.00     0.053 C 
BRANCH   8   9
ATOM      9  C   UNL     1      42.974  27.652  -4.455  1.00  0.00     0.041 C 
ATOM     10  O   UNL     1      41.837  28.128  -4.195  1.00  0.00    -0.550 OA
ATOM     11  O   UNL     1      43.517  27.820  -5.723  1.00  0.00    -0.550 OA
ENDBRANCH   8   9
ENDBRANCH   7   8
ENDBRANCH   6   7
ENDBRANCH   5   6
ENDBRANCH   4   5
ENDBRANCH   3   4
ENDBRANCH   2   3
ENDBRANCH   1   2
BRANCH   1  12
ATOM     12  C   UNL     1      44.190  26.887   2.968  1.00  0.00     0.000 C 
BRANCH  12  13
ATOM     13  C   UNL     1      44.930  26.030   4.014  1.00  0.00    -0.000 C 
BRANCH  13  14
ATOM     14  C   UNL     1      46.448  26.301   4.080  1.00  0.00    -0.000 C 
BRANCH  14  15
ATOM     15  C   UNL     1      46.904  26.771   5.473  1.00  0.00    -0.000 C 
BRANCH  15  16
ATOM     16  C   UNL     1      45.761  26.770   6.502  1.00  0.00    -0.000 C 
BRANCH  16  17
ATOM     17  C   UNL     1      46.027  27.728   7.675  1.00  0.00    -0.000 C 
BRANCH  17  18
ATOM     18  C   UNL     1      45.445  27.211   9.001  1.00  0.00    -0.000 C 
BRANCH  18  19
ATOM     19  C   UNL     1      44.758  28.317   9.817  1.00  0.00    -0.003 C 
ATOM     20  C   UNL     1      44.871  29.667   9.113  1.00  0.00     0.004 C 
ENDBRANCH  18  19
ENDBRANCH  17  18
ENDBRANCH  16  17
ENDBRANCH  15  16
ENDBRANCH  14  15
ENDBRANCH  13  14
ENDBRANCH  12  13
ENDBRANCH   1  12
TORSDOF 16
ENDMDL
MODEL 2
REMARK VINA RESULT:    -4.393      4.680      9.981
REMARK INTER + INTRA:          -9.766
REMARK INTER:                  -8.530
REMARK INTRA:                  -1.236
REMARK UNBOUND:                -1.264
REMARK SMILES CCCCCCCCCCCCCCCCCC(=O)[O-]
REMARK SMILES IDX 10 1 11 2 12 3 13 4 14 5 15 6 16 7 17 8 18 9 19 10 20 11
REMARK SMILES IDX 9 12 8 13 7 14 6 15 5 16 4 17 3 18 2 19 1 20
REMARK H PARENT
REMARK Flexibility Score: inf
ROOT
ATOM      1  C   UNL     1      44.687  28.468   2.984  1.00  0.00     0.000 C 
ENDROOT
BRANCH   1   2
ATOM      2  C   UNL     1      44.177  27.017   2.917  1.00  0.00     0.000 C 
BRANCH   2   3
ATOM      3  C   UNL     1      44.788  26.118   4.003  1.00  0.00     0.000 C 
BRANCH   3   4
ATOM      4  C   UNL     1      46.314  26.057   3.869  1.00  0.00     0.000 C 
BRANCH   4   5
ATOM      5  C   UNL     1      46.999  26.582   5.139  1.00  0.00     0.000 C 
BRANCH   5   6
ATOM      6  C   UNL     1      46.010  26.850   6.288  1.00  0.00     0.000 C 
BRANCH   6   7
ATOM      7  C   UNL     1      46.395  28.014   7.224  1.00  0.00     0.006 C 
BRANCH   7   8
ATOM      8  C   UNL     1      45.263  28.494   8.146  1.00  0.00     0.053 C 
BRANCH   8   9
ATOM      9  C   UNL     1      45.232  27.734   9.436  1.00  0.00     0.041 C 
ATOM     10  O   UNL     1      45.478  28.320  10.524  1.00  0.00    -0.550 OA
ATOM     11  O   UNL     1      44.966  26.371   9.434  1.00  0.00    -0.550 OA
ENDBRANCH   8   9
ENDBRANCH   7   8
ENDBRANCH   6   7
ENDBRANCH   5   6
ENDBRANCH   4   5
ENDBRANCH   3   4
ENDBRANCH   2   3
ENDBRANCH   1   2
BRANCH   1  12
ATOM     12  C   UNL     1      45.292  29.005   1.673  1.00  0.00     0.000 C 
BRANCH  12  13
ATOM     13  C   UNL     1      45.754  27.925   0.675  1.00  0.00    -0.000 C 
BRANCH  13  14
ATOM     14  C   UNL     1      46.140  28.483  -0.711  1.00  0.00    -0.000 C 
BRANCH  14  15
ATOM     15  C   UNL     1      45.115  29.499  -1.246  1.00  0.00    -0.000 C 
BRANCH  15  16
ATOM     16  C   UNL     1      44.582  29.127  -2.639  1.00  0.00    -0.000 C 
BRANCH  16  17
ATOM     17  C   UNL     1      44.748  27.630  -2.950  1.00  0.00    -0.000 C 
BRANCH  17  18
ATOM     18  C   UNL     1      43.598  27.076  -3.808  1.00  0.00    -0.000 C 
BRANCH  18  19
ATOM     19  C   UNL     1      42.541  28.141  -4.139  1.00  0.00    -0.003 C 
ATOM     20  C   UNL     1      42.556  28.484  -5.626  1.00  0.00     0.004 C 
ENDBRANCH  18  19
ENDBRANCH  17  18
ENDBRANCH  16  17
ENDBRANCH  15  16
ENDBRANCH  14  15
ENDBRANCH  13  14
ENDBRANCH  12  13
ENDBRANCH   1  12
TORSDOF 16
ENDMDL
MODEL 3
REMARK VINA RESULT:    -4.269      1.158      2.141
REMARK INTER + INTRA:          -9.526
REMARK INTER:                  -8.321
REMARK INTRA:                  -1.206
REMARK UNBOUND:                -1.264
REMARK SMILES CCCCCCCCCCCCCCCCCC(=O)[O-]
REMARK SMILES IDX 10 1 11 2 12 3 13 4 14 5 15 6 16 7 17 8 18 9 19 10 20 11
REMARK SMILES IDX 9 12 8 13 7 14 6 15 5 16 4 17 3 18 2 19 1 20
REMARK H PARENT
REMARK Flexibility Score: inf
ROOT
ATOM      1  C   UNL     1      44.843  26.118   3.819  1.00  0.00     0.000 C 
ENDROOT
BRANCH   1   2
ATOM      2  C   UNL     1      44.181  27.081   2.817  1.00  0.00     0.000 C 
BRANCH   2   3
ATOM      3  C   UNL     1      44.689  28.525   2.951  1.00  0.00     0.000 C 
BRANCH   3   4
ATOM      4  C   UNL     1      45.159  29.068   1.596  1.00  0.00     0.000 C 
BRANCH   4   5
ATOM      5  C   UNL     1      45.573  27.925   0.659  1.00  0.00     0.000 C 
BRANCH   5   6
ATOM      6  C   UNL     1      45.792  28.387  -0.793  1.00  0.00     0.000 C 
BRANCH   6   7
ATOM      7  C   UNL     1      45.050  27.558  -1.862  1.00  0.00     0.006 C 
BRANCH   7   8
ATOM      8  C   UNL     1      44.463  28.383  -3.017  1.00  0.00     0.053 C 
BRANCH   8   9
ATOM      9  C   UNL     1      43.453  27.606  -3.803  1.00  0.00     0.041 C 
ATOM     10  O   UNL     1      43.310  26.370  -3.607  1.00  0.00    -0.550 OA
ATOM     11  O   UNL     1      42.691  28.240  -4.776  1.00  0.00    -0.550 OA
ENDBRANCH   8   9
ENDBRANCH   7   8
ENDBRANCH   6   7
ENDBRANCH   5   6
ENDBRANCH   4   5
ENDBRANCH   3   4
ENDBRANCH   2   3
ENDBRANCH   1   2
BRANCH   1  12
ATOM     12  C   UNL     1      46.383  26.140   3.821  1.00  0.00     0.000 C 
BRANCH  12  13
ATOM     13  C   UNL     1      47.032  26.433   5.188  1.00  0.00    -0.000 C 
BRANCH  13  14
ATOM     14  C   UNL     1      46.039  26.951   6.250  1.00  0.00    -0.000 C 
BRANCH  14  15
ATOM     15  C   UNL     1      45.996  28.488   6.317  1.00  0.00    -0.000 C 
BRANCH  15  16
ATOM     16  C   UNL     1      45.649  29.010   7.721  1.00  0.00    -0.000 C 
BRANCH  16  17
ATOM     17  C   UNL     1      45.190  27.889   8.669  1.00  0.00    -0.000 C 
BRANCH  17  18
ATOM     18  C   UNL     1      44.961  28.388  10.105  1.00  0.00    -0.000 C 
BRANCH  18  19
ATOM     19  C   UNL     1      46.199  29.083  10.693  1.00  0.00    -0.003 C 
ATOM     20  C   UNL     1      45.831  29.903  11.927  1.00  0.00     0.004 C 
ENDBRANCH  18  19
ENDBRANCH  17  18
ENDBRANCH  16  17
ENDBRANCH  15  16
ENDBRANCH  14  15
ENDBRANCH  13  14
ENDBRANCH  12  13
ENDBRANCH   1  12
TORSDOF 16
ENDMDL
MODEL 4
REMARK VINA RESULT:    -4.219      4.802      9.785
REMARK INTER + INTRA:          -9.430
REMARK INTER:                  -7.955
REMARK INTRA:                  -1.475
REMARK UNBOUND:                -1.264
REMARK SMILES CCCCCCCCCCCCCCCCCC(=O)[O-]
REMARK SMILES IDX 10 1 11 2 12 3 13 4 14 5 15 6 16 7 17 8 18 9 19 10 20 11
REMARK SMILES IDX 9 12 8 13 7 14 6 15 5 16 4 17 3 18 2 19 1 20
REMARK H PARENT
REMARK Flexibility Score: inf
ROOT
ATOM      1  C   UNL     1      44.417  26.821   2.782  1.00  0.00     0.000 C 
ENDROOT
BRANCH   1   2
ATOM      2  C   UNL     1      44.881  26.006   4.004  1.00  0.00     0.000 C 
BRANCH   2   3
ATOM      3  C   UNL     1      46.402  25.798   4.041  1.00  0.00     0.000 C 
BRANCH   3   4
ATOM      4  C   UNL     1      47.044  26.637   5.152  1.00  0.00     0.000 C 
BRANCH   4   5
ATOM      5  C   UNL     1      46.025  26.963   6.254  1.00  0.00     0.000 C 
BRANCH   5   6
ATOM      6  C   UNL     1      45.820  28.475   6.455  1.00  0.00     0.000 C 
BRANCH   6   7
ATOM      7  C   UNL     1      46.152  28.997   7.868  1.00  0.00     0.006 C 
BRANCH   7   8
ATOM      8  C   UNL     1      45.047  28.767   8.910  1.00  0.00     0.053 C 
BRANCH   8   9
ATOM      9  C   UNL     1      45.395  27.661   9.858  1.00  0.00     0.041 C 
ATOM     10  O   UNL     1      45.983  27.915  10.943  1.00  0.00    -0.550 OA
ATOM     11  O   UNL     1      45.099  26.344   9.529  1.00  0.00    -0.550 OA
ENDBRANCH   8   9
ENDBRANCH   7   8
ENDBRANCH   6   7
ENDBRANCH   5   6
ENDBRANCH   4   5
ENDBRANCH   3   4
ENDBRANCH   2   3
ENDBRANCH   1   2
BRANCH   1  12
ATOM     12  C   UNL     1      44.472  28.349   2.961  1.00  0.00     0.000 C 
BRANCH  12  13
ATOM     13  C   UNL     1      45.309  29.102   1.907  1.00  0.00    -0.000 C 
BRANCH  13  14
ATOM     14  C   UNL     1      46.551  28.322   1.426  1.00  0.00    -0.000 C 
BRANCH  14  15
ATOM     15  C   UNL     1      46.670  28.289  -0.108  1.00  0.00    -0.000 C 
BRANCH  15  16
ATOM     16  C   UNL     1      45.349  27.910  -0.797  1.00  0.00    -0.000 C 
BRANCH  16  17
ATOM     17  C   UNL     1      45.368  28.202  -2.307  1.00  0.00    -0.000 C 
BRANCH  17  18
ATOM     18  C   UNL     1      44.291  29.215  -2.725  1.00  0.00    -0.000 C 
BRANCH  18  19
ATOM     19  C   UNL     1      43.373  28.678  -3.834  1.00  0.00    -0.003 C 
ATOM     20  C   UNL     1      43.559  27.174  -4.019  1.00  0.00     0.004 C 
ENDBRANCH  18  19
ENDBRANCH  17  18
ENDBRANCH  16  17
ENDBRANCH  15  16
ENDBRANCH  14  15
ENDBRANCH  13  14
ENDBRANCH  12  13
ENDBRANCH   1  12
TORSDOF 16
ENDMDL
MODEL 5
REMARK VINA RESULT:    -4.168      1.994      3.714
REMARK INTER + INTRA:          -9.330
REMARK INTER:                  -7.140
REMARK INTRA:                  -2.190
REMARK UNBOUND:                -1.264
REMARK SMILES CCCCCCCCCCCCCCCCCC(=O)[O-]
REMARK SMILES IDX 10 1 11 2 12 3 13 4 14 5 15 6 16 7 17 8 18 9 19 10 20 11
REMARK SMILES IDX 9 12 8 13 7 14 6 15 5 16 4 17 3 18 2 19 1 20
REMARK H PARENT
REMARK Flexibility Score: inf
ROOT
ATOM      1  C   UNL     1      45.664  26.391   5.222  1.00  0.00     0.000 C 
ENDROOT
BRANCH   1   2
ATOM      2  C   UNL     1      46.159  26.000   3.817  1.00  0.00     0.000 C 
BRANCH   2   3
ATOM      3  C   UNL     1      45.915  27.098   2.771  1.00  0.00     0.000 C 
BRANCH   3   4
ATOM      4  C   UNL     1      44.496  27.667   2.893  1.00  0.00     0.000 C 
BRANCH   4   5
ATOM      5  C   UNL     1      44.476  29.168   2.569  1.00  0.00     0.000 C 
BRANCH   5   6
ATOM      6  C   UNL     1      45.700  29.623   1.754  1.00  0.00     0.000 C 
BRANCH   6   7
ATOM      7  C   UNL     1      45.426  29.892   0.260  1.00  0.00     0.006 C 
BRANCH   7   8
ATOM      8  C   UNL     1      46.325  29.104  -0.706  1.00  0.00     0.053 C 
BRANCH   8   9
ATOM      9  C   UNL     1      45.594  27.964  -1.346  1.00  0.00     0.041 C 
ATOM     10  O   UNL     1      45.477  27.908  -2.599  1.00  0.00    -0.550 OA
ATOM     11  O   UNL     1      45.012  26.981  -0.556  1.00  0.00    -0.550 OA
ENDBRANCH   8   9
ENDBRANCH   7   8
ENDBRANCH   6   7
ENDBRANCH   5   6
ENDBRANCH   4   5
ENDBRANCH   3   4
ENDBRANCH   2   3
ENDBRANCH   1   2
BRANCH   1  12
ATOM     12  C   UNL     1      46.761  26.888   6.182  1.00  0.00     0.000 C 
BRANCH  12  13
ATOM     13  C   UNL     1      47.047  28.402   6.120  1.00  0.00    -0.000 C 
BRANCH  13  14
ATOM     14  C   UNL     1      45.776  29.276   6.098  1.00  0.00    -0.000 C 
BRANCH  14  15
ATOM     15  C   UNL     1      45.424  29.841   7.486  1.00  0.00    -0.000 C 
BRANCH  15  16
ATOM     16  C   UNL     1      46.578  29.704   8.492  1.00  0.00    -0.000 C 
BRANCH  16  17
ATOM     17  C   UNL     1      46.110  29.161   9.853  1.00  0.00    -0.000 C 
BRANCH  17  18
ATOM     18  C   UNL     1      44.863  28.270   9.735  1.00  0.00    -0.000 C 
BRANCH  18  19
ATOM     19  C   UNL     1      45.206  26.814   9.387  1.00  0.00    -0.003 C 
ATOM     20  C   UNL     1      46.443  26.346  10.148  1.00  0.00     0.004 C 
ENDBRANCH  18  19
ENDBRANCH  17  18
ENDBRANCH  16  17
ENDBRANCH  15  16
ENDBRANCH  14  15
ENDBRANCH  13  14
ENDBRANCH  12  13
ENDBRANCH   1  12
TORSDOF 16
ENDMDL
MODEL 6
REMARK VINA RESULT:    -4.034      1.349      2.598
REMARK INTER + INTRA:          -9.071
REMARK INTER:                  -8.044
REMARK INTRA:                  -1.027
REMARK UNBOUND:                -1.264
REMARK SMILES CCCCCCCCCCCCCCCCCC(=O)[O-]
REMARK SMILES IDX 10 1 11 2 12 3 13 4 14 5 15 6 16 7 17 8 18 9 19 10 20 11
REMARK SMILES IDX 9 12 8 13 7 14 6 15 5 16 4 17 3 18 2 19 1 20
REMARK H PARENT
REMARK Flexibility Score: inf
ROOT
ATOM      1  C   UNL     1      45.626  28.776   0.292  1.00  0.00     0.000 C 
ENDROOT
BRANCH   1   2
ATOM      2  C   UNL     1      45.733  28.156  -1.113  1.00  0.00     0.000 C 
BRANCH   2   3
ATOM      3  C   UNL     1      46.759  28.869  -2.005  1.00  0.00     0.000 C 
BRANCH   3   4
ATOM      4  C   UNL     1      46.268  28.942  -3.456  1.00  0.00     0.000 C 
BRANCH   4   5
ATOM      5  C   UNL     1      46.563  27.634  -4.203  1.00  0.00     0.000 C 
BRANCH   5   6
ATOM      6  C   UNL     1      45.942  27.592  -5.610  1.00  0.00     0.000 C 
BRANCH   6   7
ATOM      7  C   UNL     1      44.733  28.527  -5.819  1.00  0.00     0.006 C 
BRANCH   7   8
ATOM      8  C   UNL     1      43.366  27.825  -5.771  1.00  0.00     0.053 C 
BRANCH   8   9
ATOM      9  C   UNL     1      42.869  27.666  -4.367  1.00  0.00     0.041 C 
ATOM     10  O   UNL     1      43.158  26.635  -3.704  1.00  0.00    -0.550 OA
ATOM     11  O   UNL     1      42.058  28.642  -3.802  1.00  0.00    -0.550 OA
ENDBRANCH   8   9
ENDBRANCH   7   8
ENDBRANCH   6   7
ENDBRANCH   5   6
ENDBRANCH   4   5
ENDBRANCH   3   4
ENDBRANCH   2   3
ENDBRANCH   1   2
BRANCH   1  12
ATOM     12  C   UNL     1      46.131  27.880   1.438  1.00  0.00     0.000 C 
BRANCH  12  13
ATOM     13  C   UNL     1      45.399  28.062   2.783  1.00  0.00    -0.000 C 
BRANCH  13  14
ATOM     14  C   UNL     1      44.435  26.908   3.129  1.00  0.00    -0.000 C 
BRANCH  14  15
ATOM     15  C   UNL     1      44.944  26.043   4.295  1.00  0.00    -0.000 C 
BRANCH  15  16
ATOM     16  C   UNL     1      46.248  26.581   4.908  1.00  0.00    -0.000 C 
BRANCH  16  17
ATOM     17  C   UNL     1      46.140  26.789   6.428  1.00  0.00    -0.000 C 
BRANCH  17  18
ATOM     18  C   UNL     1      45.936  28.265   6.807  1.00  0.00    -0.000 C 
BRANCH  18  19
ATOM     19  C   UNL     1      45.309  28.437   8.199  1.00  0.00    -0.003 C 
ATOM     20  C   UNL     1      45.322  27.121   8.972  1.00  0.00     0.004 C 
ENDBRANCH  18  19
ENDBRANCH  17  18
ENDBRANCH  16  17
ENDBRANCH  15  16
ENDBRANCH  14  15
ENDBRANCH  13  14
ENDBRANCH  12  13
ENDBRANCH   1  12
TORSDOF 16
ENDMDL
MODEL 7
REMARK VINA RESULT:    -3.976      4.763     10.052
REMARK INTER + INTRA:          -8.959
REMARK INTER:                  -7.683
REMARK INTRA:                  -1.276
REMARK UNBOUND:                -1.264
REMARK SMILES CCCCCCCCCCCCCCCCCC(=O)[O-]
REMARK SMILES IDX 10 1 11 2 12 3 13 4 14 5 15 6 16 7 17 8 18 9 19 10 20 11
REMARK SMILES IDX 9 12 8 13 7 14 6 15 5 16 4 17 3 18 2 19 1 20
REMARK H PARENT
REMARK Flexibility Score: inf
ROOT
ATOM      1  C   UNL     1      45.218  28.915   1.819  1.00  0.00     0.000 C 
ENDROOT
BRANCH   1   2
ATOM      2  C   UNL     1      44.594  28.303   3.087  1.00  0.00     0.000 C 
BRANCH   2   3
ATOM      3  C   UNL     1      44.379  26.786   2.974  1.00  0.00     0.000 C 
BRANCH   3   4
ATOM      4  C   UNL     1      44.921  26.062   4.213  1.00  0.00     0.000 C 
BRANCH   4   5
ATOM      5  C   UNL     1      46.419  26.340   4.401  1.00  0.00     0.000 C 
BRANCH   5   6
ATOM      6  C   UNL     1      46.724  27.152   5.673  1.00  0.00     0.000 C 
BRANCH   6   7
ATOM      7  C   UNL     1      45.799  26.861   6.872  1.00  0.00     0.006 C 
BRANCH   7   8
ATOM      8  C   UNL     1      45.642  28.030   7.857  1.00  0.00     0.053 C 
BRANCH   8   9
ATOM      9  C   UNL     1      45.139  27.573   9.191  1.00  0.00     0.041 C 
ATOM     10  O   UNL     1      44.788  28.416  10.060  1.00  0.00    -0.550 OA
ATOM     11  O   UNL     1      45.089  26.218   9.489  1.00  0.00    -0.550 OA
ENDBRANCH   8   9
ENDBRANCH   7   8
ENDBRANCH   6   7
ENDBRANCH   5   6
ENDBRANCH   4   5
ENDBRANCH   3   4
ENDBRANCH   2   3
ENDBRANCH   1   2
BRANCH   1  12
ATOM     12  C   UNL     1      45.449  27.923   0.664  1.00  0.00     0.000 C 
BRANCH  12  13
ATOM     13  C   UNL     1      46.562  28.318  -0.326  1.00  0.00    -0.000 C 
BRANCH  13  14
ATOM     14  C   UNL     1      46.107  28.332  -1.801  1.00  0.00    -0.000 C 
BRANCH  14  15
ATOM     15  C   UNL     1      45.700  29.737  -2.280  1.00  0.00    -0.000 C 
BRANCH  15  16
ATOM     16  C   UNL     1      44.176  29.917  -2.362  1.00  0.00    -0.000 C 
BRANCH  16  17
ATOM     17  C   UNL     1      43.649  29.819  -3.804  1.00  0.00    -0.000 C 
BRANCH  17  18
ATOM     18  C   UNL     1      42.684  28.639  -4.000  1.00  0.00    -0.000 C 
BRANCH  18  19
ATOM     19  C   UNL     1      43.295  27.510  -4.846  1.00  0.00    -0.003 C 
ATOM     20  C   UNL     1      44.580  27.971  -5.528  1.00  0.00     0.004 C 
ENDBRANCH  18  19
ENDBRANCH  17  18
ENDBRANCH  16  17
ENDBRANCH  15  16
ENDBRANCH  14  15
ENDBRANCH  13  14
ENDBRANCH  12  13
ENDBRANCH   1  12
TORSDOF 16
ENDMDL
MODEL 8
REMARK VINA RESULT:    -3.861      1.973      4.107
REMARK INTER + INTRA:          -8.737
REMARK INTER:                  -7.104
REMARK INTRA:                  -1.633
REMARK UNBOUND:                -1.264
REMARK SMILES CCCCCCCCCCCCCCCCCC(=O)[O-]
REMARK SMILES IDX 10 1 11 2 12 3 13 4 14 5 15 6 16 7 17 8 18 9 19 10 20 11
REMARK SMILES IDX 9 12 8 13 7 14 6 15 5 16 4 17 3 18 2 19 1 20
REMARK H PARENT
REMARK Flexibility Score: inf
ROOT
ATOM      1  C   UNL     1      46.283  28.105  -1.729  1.00  0.00     0.000 C 
ENDROOT
BRANCH   1   2
ATOM      2  C   UNL     1      44.830  28.130  -2.239  1.00  0.00     0.000 C 
BRANCH   2   3
ATOM      3  C   UNL     1      44.347  29.543  -2.598  1.00  0.00     0.000 C 
BRANCH   3   4
ATOM      4  C   UNL     1      43.130  29.487  -3.530  1.00  0.00     0.000 C 
BRANCH   4   5
ATOM      5  C   UNL     1      42.886  28.056  -4.029  1.00  0.00     0.000 C 
BRANCH   5   6
ATOM      6  C   UNL     1      43.271  27.860  -5.506  1.00  0.00     0.000 C 
BRANCH   6   7
ATOM      7  C   UNL     1      43.848  29.110  -6.202  1.00  0.00     0.006 C 
BRANCH   7   8
ATOM      8  C   UNL     1      45.263  28.928  -6.773  1.00  0.00     0.053 C 
BRANCH   8   9
ATOM      9  C   UNL     1      46.309  28.981  -5.703  1.00  0.00     0.041 C 
ATOM     10  O   UNL     1      46.674  30.089  -5.227  1.00  0.00    -0.550 OA
ATOM     11  O   UNL     1      46.906  27.810  -5.255  1.00  0.00    -0.550 OA
ENDBRANCH   8   9
ENDBRANCH   7   8
ENDBRANCH   6   7
ENDBRANCH   5   6
ENDBRANCH   4   5
ENDBRANCH   3   4
ENDBRANCH   2   3
ENDBRANCH   1   2
BRANCH   1  12
ATOM     12  C   UNL     1      46.484  28.676  -0.314  1.00  0.00     0.000 C 
BRANCH  12  13
ATOM     13  C   UNL     1      45.526  28.121   0.758  1.00  0.00    -0.000 C 
BRANCH  13  14
ATOM     14  C   UNL     1      45.174  29.136   1.866  1.00  0.00    -0.000 C 
BRANCH  14  15
ATOM     15  C   UNL     1      44.410  28.492   3.037  1.00  0.00    -0.000 C 
BRANCH  15  16
ATOM     16  C   UNL     1      44.167  26.988   2.831  1.00  0.00    -0.000 C 
BRANCH  16  17
ATOM     17  C   UNL     1      44.899  26.126   3.873  1.00  0.00    -0.000 C 
BRANCH  17  18
ATOM     18  C   UNL     1      46.078  26.866   4.526  1.00  0.00    -0.000 C 
BRANCH  18  19
ATOM     19  C   UNL     1      45.985  26.888   6.060  1.00  0.00    -0.003 C 
ATOM     20  C   UNL     1      45.898  28.319   6.583  1.00  0.00     0.004 C 
ENDBRANCH  18  19
ENDBRANCH  17  18
ENDBRANCH  16  17
ENDBRANCH  15  16
ENDBRANCH  14  15
ENDBRANCH  13  14
ENDBRANCH  12  13
ENDBRANCH   1  12
TORSDOF 16
ENDMDL
MODEL 9
REMARK VINA RESULT:    -3.842      1.302      1.983
REMARK INTER + INTRA:          -8.701
REMARK INTER:                  -7.410
REMARK INTRA:                  -1.290
REMARK UNBOUND:                -1.264
REMARK SMILES CCCCCCCCCCCCCCCCCC(=O)[O-]
REMARK SMILES IDX 10 1 11 2 12 3 13 4 14 5 15 6 16 7 17 8 18 9 19 10 20 11
REMARK SMILES IDX 9 12 8 13 7 14 6 15 5 16 4 17 3 18 2 19 1 20
REMARK H PARENT
REMARK Flexibility Score: inf
ROOT
ATOM      1  C   UNL     1      44.507  28.120   2.929  1.00  0.00     0.000 C 
ENDROOT
BRANCH   1   2
ATOM      2  C   UNL     1      45.748  27.442   2.318  1.00  0.00     0.000 C 
BRANCH   2   3
ATOM      3  C   UNL     1      46.272  28.169   1.070  1.00  0.00     0.000 C 
BRANCH   3   4
ATOM      4  C   UNL     1      45.297  28.017  -0.103  1.00  0.00     0.000 C 
BRANCH   4   5
ATOM      5  C   UNL     1      46.025  28.170  -1.447  1.00  0.00     0.000 C 
BRANCH   5   6
ATOM      6  C   UNL     1      45.082  28.555  -2.601  1.00  0.00     0.000 C 
BRANCH   6   7
ATOM      7  C   UNL     1      44.354  27.372  -3.272  1.00  0.00     0.006 C 
BRANCH   7   8
ATOM      8  C   UNL     1      44.087  27.556  -4.774  1.00  0.00     0.053 C 
BRANCH   8   9
ATOM      9  C   UNL     1      42.745  28.170  -5.032  1.00  0.00     0.041 C 
ATOM     10  O   UNL     1      42.525  28.784  -6.110  1.00  0.00    -0.550 OA
ATOM     11  O   UNL     1      41.748  28.092  -4.068  1.00  0.00    -0.550 OA
ENDBRANCH   8   9
ENDBRANCH   7   8
ENDBRANCH   6   7
ENDBRANCH   5   6
ENDBRANCH   4   5
ENDBRANCH   3   4
ENDBRANCH   2   3
ENDBRANCH   1   2
BRANCH   1  12
ATOM     12  C   UNL     1      44.656  29.629   3.196  1.00  0.00     0.000 C 
BRANCH  12  13
ATOM     13  C   UNL     1      45.867  30.023   4.065  1.00  0.00    -0.000 C 
BRANCH  13  14
ATOM     14  C   UNL     1      45.612  29.896   5.582  1.00  0.00    -0.000 C 
BRANCH  14  15
ATOM     15  C   UNL     1      46.737  29.139   6.309  1.00  0.00    -0.000 C 
BRANCH  15  16
ATOM     16  C   UNL     1      46.807  27.656   5.913  1.00  0.00    -0.000 C 
BRANCH  16  17
ATOM     17  C   UNL     1      45.914  26.769   6.797  1.00  0.00    -0.000 C 
BRANCH  17  18
ATOM     18  C   UNL     1      46.380  26.738   8.262  1.00  0.00    -0.000 C 
BRANCH  18  19
ATOM     19  C   UNL     1      45.220  26.898   9.256  1.00  0.00    -0.003 C 
ATOM     20  C   UNL     1      44.955  28.370   9.557  1.00  0.00     0.004 C 
ENDBRANCH  18  19
ENDBRANCH  17  18
ENDBRANCH  16  17
ENDBRANCH  15  16
ENDBRANCH  14  15
ENDBRANCH  13  14
ENDBRANCH  12  13
ENDBRANCH   1  12
TORSDOF 16
ENDMDL
