MODEL 1
REMARK VINA RESULT:    -5.716      0.000      0.000
REMARK INTER + INTRA:          -6.050
REMARK INTER:                  -6.050
REMARK INTRA:                   0.000
REMARK UNBOUND:                 0.000
REMARK SMILES O=c1ccc2cc(O)c(O)cc2o1
REMARK SMILES IDX 4 1 3 2 2 3 1 4 13 5 12 6 11 7 9 8 7 9 6 10 5 11 8 12 10 14
REMARK H PARENT 8 13 10 15
REMARK Flexibility Score: inf
ROOT
ATOM      1  C   UNL     1      14.732 -27.409  27.555  1.00  0.00     0.019 A 
ATOM      2  C   UNL     1      14.127 -27.160  26.324  1.00  0.00     0.094 A 
ATOM      3  C   UNL     1      14.591 -26.095  25.544  1.00  0.00     0.336 A 
ATOM      4  O   UNL     1      14.060 -25.854  24.428  1.00  0.00    -0.246 OA
ATOM      5  O   UNL     1      15.595 -25.333  25.973  1.00  0.00    -0.423 OA
ATOM      6  C   UNL     1      16.198 -25.536  27.141  1.00  0.00     0.142 A 
ATOM      7  C   UNL     1      17.247 -24.702  27.541  1.00  0.00     0.098 A 
ATOM      8  C   UNL     1      17.887 -24.912  28.771  1.00  0.00     0.161 A 
ATOM      9  C   UNL     1      17.475 -25.961  29.606  1.00  0.00     0.158 A 
ATOM     10  C   UNL     1      16.423 -26.801  29.211  1.00  0.00     0.062 A 
ATOM     11  C   UNL     1      15.783 -26.592  27.982  1.00  0.00     0.022 A 
ENDROOT
BRANCH   9  12
ATOM     12  O   UNL     1      18.116 -26.162  30.827  1.00  0.00    -0.504 OA
ATOM     13  H   UNL     1      18.346 -27.092  31.159  1.00  0.00     0.293 HD
ENDBRANCH   9  12
BRANCH   8  14
ATOM     14  O   UNL     1      18.933 -24.082  29.172  1.00  0.00    -0.504 OA
ATOM     15  H   UNL     1      18.785 -23.098  29.361  1.00  0.00     0.293 HD
ENDBRANCH   8  14
TORSDOF 2
ENDMDL
MODEL 2
REMARK VINA RESULT:    -5.687      2.650      5.309
REMARK INTER + INTRA:          -6.020
REMARK INTER:                  -6.020
REMARK INTRA:                   0.000
REMARK UNBOUND:                 0.000
REMARK SMILES O=c1ccc2cc(O)c(O)cc2o1
REMARK SMILES IDX 4 1 3 2 2 3 1 4 13 5 12 6 11 7 9 8 7 9 6 10 5 11 8 12 10 14
REMARK H PARENT 8 13 10 15
REMARK Flexibility Score: inf
ROOT
ATOM      1  C   UNL     1      15.518 -23.311  31.252  1.00  0.00     0.019 A 
ATOM      2  C   UNL     1      15.525 -23.630  32.609  1.00  0.00     0.094 A 
ATOM      3  C   UNL     1      16.286 -24.721  33.044  1.00  0.00     0.336 A 
ATOM      4  O   UNL     1      16.307 -25.026  34.266  1.00  0.00    -0.246 OA
ATOM      5  O   UNL     1      16.991 -25.441  32.174  1.00  0.00    -0.423 OA
ATOM      6  C   UNL     1      17.011 -25.170  30.872  1.00  0.00     0.142 A 
ATOM      7  C   UNL     1      17.770 -25.962  30.004  1.00  0.00     0.098 A 
ATOM      8  C   UNL     1      17.795 -25.680  28.631  1.00  0.00     0.161 A 
ATOM      9  C   UNL     1      17.057 -24.601  28.122  1.00  0.00     0.158 A 
ATOM     10  C   UNL     1      16.292 -23.804  28.987  1.00  0.00     0.062 A 
ATOM     11  C   UNL     1      16.267 -24.084  30.360  1.00  0.00     0.022 A 
ENDROOT
BRANCH   9  12
ATOM     12  O   UNL     1      17.086 -24.329  26.756  1.00  0.00    -0.504 OA
ATOM     13  H   UNL     1      17.925 -23.990  26.300  1.00  0.00     0.293 HD
ENDBRANCH   9  12
BRANCH   8  14
ATOM     14  O   UNL     1      18.551 -26.468  27.764  1.00  0.00    -0.504 OA
ATOM     15  H   UNL     1      18.116 -27.146  27.150  1.00  0.00     0.293 HD
ENDBRANCH   8  14
TORSDOF 2
ENDMDL
MODEL 3
REMARK VINA RESULT:    -5.421      6.942      8.852
REMARK INTER + INTRA:          -5.738
REMARK INTER:                  -5.738
REMARK INTRA:                   0.000
REMARK UNBOUND:                 0.000
REMARK SMILES O=c1ccc2cc(O)c(O)cc2o1
REMARK SMILES IDX 4 1 3 2 2 3 1 4 13 5 12 6 11 7 9 8 7 9 6 10 5 11 8 12 10 14
REMARK H PARENT 8 13 10 15
REMARK Flexibility Score: inf
ROOT
ATOM      1  C   UNL     1      10.146 -29.464  31.512  1.00  0.00     0.019 A 
ATOM      2  C   UNL     1       9.089 -29.986  32.256  1.00  0.00     0.094 A 
ATOM      3  C   UNL     1       7.875 -30.251  31.614  1.00  0.00     0.336 A 
ATOM      4  O   UNL     1       6.908 -30.723  32.268  1.00  0.00    -0.246 OA
ATOM      5  O   UNL     1       7.733 -30.008  30.313  1.00  0.00    -0.423 OA
ATOM      6  C   UNL     1       8.715 -29.510  29.567  1.00  0.00     0.142 A 
ATOM      7  C   UNL     1       8.508 -29.275  28.204  1.00  0.00     0.098 A 
ATOM      8  C   UNL     1       9.542 -28.751  27.414  1.00  0.00     0.161 A 
ATOM      9  C   UNL     1      10.787 -28.460  27.989  1.00  0.00     0.158 A 
ATOM     10  C   UNL     1      11.001 -28.693  29.356  1.00  0.00     0.062 A 
ATOM     11  C   UNL     1       9.970 -29.217  30.147  1.00  0.00     0.022 A 
ENDROOT
BRANCH   9  12
ATOM     12  O   UNL     1      11.808 -27.939  27.196  1.00  0.00    -0.504 OA
ATOM     13  H   UNL     1      11.901 -28.190  26.218  1.00  0.00     0.293 HD
ENDBRANCH   9  12
BRANCH   8  14
ATOM     14  O   UNL     1       9.338 -28.515  26.055  1.00  0.00    -0.504 OA
ATOM     15  H   UNL     1       8.834 -27.699  25.729  1.00  0.00     0.293 HD
ENDBRANCH   8  14
TORSDOF 2
ENDMDL
MODEL 4
REMARK VINA RESULT:    -5.401      7.079      8.501
REMARK INTER + INTRA:          -5.717
REMARK INTER:                  -5.717
REMARK INTRA:                   0.000
REMARK UNBOUND:                 0.000
REMARK SMILES O=c1ccc2cc(O)c(O)cc2o1
REMARK SMILES IDX 4 1 3 2 2 3 1 4 13 5 12 6 11 7 9 8 7 9 6 10 5 11 8 12 10 14
REMARK H PARENT 8 13 10 15
REMARK Flexibility Score: inf
ROOT
ATOM      1  C   UNL     1      10.754 -28.466  28.439  1.00  0.00     0.019 A 
ATOM      2  C   UNL     1      10.182 -28.406  27.169  1.00  0.00     0.094 A 
ATOM      3  C   UNL     1       8.889 -28.908  26.984  1.00  0.00     0.336 A 
ATOM      4  O   UNL     1       8.354 -28.863  25.844  1.00  0.00    -0.246 OA
ATOM      5  O   UNL     1       8.217 -29.433  28.006  1.00  0.00    -0.423 OA
ATOM      6  C   UNL     1       8.726 -29.510  29.232  1.00  0.00     0.142 A 
ATOM      7  C   UNL     1       7.974 -30.073  30.268  1.00  0.00     0.098 A 
ATOM      8  C   UNL     1       8.506 -30.154  31.563  1.00  0.00     0.161 A 
ATOM      9  C   UNL     1       9.796 -29.672  31.824  1.00  0.00     0.158 A 
ATOM     10  C   UNL     1      10.557 -29.107  30.789  1.00  0.00     0.062 A 
ATOM     11  C   UNL     1      10.026 -29.023  29.494  1.00  0.00     0.022 A 
ENDROOT
BRANCH   9  12
ATOM     12  O   UNL     1      10.317 -29.758  33.113  1.00  0.00    -0.504 OA
ATOM     13  H   UNL     1      11.158 -30.288  33.312  1.00  0.00     0.293 HD
ENDBRANCH   9  12
BRANCH   8  14
ATOM     14  O   UNL     1       7.758 -30.715  32.597  1.00  0.00    -0.504 OA
ATOM     15  H   UNL     1       7.323 -30.141  33.309  1.00  0.00     0.293 HD
ENDBRANCH   8  14
TORSDOF 2
ENDMDL
MODEL 5
REMARK VINA RESULT:    -5.226      7.340      8.599
REMARK INTER + INTRA:          -5.532
REMARK INTER:                  -5.532
REMARK INTRA:                   0.000
REMARK UNBOUND:                 0.000
REMARK SMILES O=c1ccc2cc(O)c(O)cc2o1
REMARK SMILES IDX 4 1 3 2 2 3 1 4 13 5 12 6 11 7 9 8 7 9 6 10 5 11 8 12 10 14
REMARK H PARENT 8 13 10 15
REMARK Flexibility Score: inf
ROOT
ATOM      1  C   UNL     1       7.615 -29.962  27.849  1.00  0.00     0.019 A 
ATOM      2  C   UNL     1       8.275 -29.495  26.713  1.00  0.00     0.094 A 
ATOM      3  C   UNL     1       9.552 -28.939  26.852  1.00  0.00     0.336 A 
ATOM      4  O   UNL     1      10.165 -28.511  25.838  1.00  0.00    -0.246 OA
ATOM      5  O   UNL     1      10.125 -28.858  28.050  1.00  0.00    -0.423 OA
ATOM      6  C   UNL     1       9.530 -29.292  29.158  1.00  0.00     0.142 A 
ATOM      7  C   UNL     1      10.181 -29.181  30.391  1.00  0.00     0.098 A 
ATOM      8  C   UNL     1       9.558 -29.638  31.562  1.00  0.00     0.161 A 
ATOM      9  C   UNL     1       8.278 -30.207  31.499  1.00  0.00     0.158 A 
ATOM     10  C   UNL     1       7.619 -30.320  30.266  1.00  0.00     0.062 A 
ATOM     11  C   UNL     1       8.240 -29.865  29.095  1.00  0.00     0.022 A 
ENDROOT
BRANCH   9  12
ATOM     12  O   UNL     1       7.666 -30.657  32.668  1.00  0.00    -0.504 OA
ATOM     13  H   UNL     1       6.692 -30.939  32.683  1.00  0.00     0.293 HD
ENDBRANCH   9  12
BRANCH   8  14
ATOM     14  O   UNL     1      10.205 -29.528  32.792  1.00  0.00    -0.504 OA
ATOM     15  H   UNL     1      10.868 -30.226  33.105  1.00  0.00     0.293 HD
ENDBRANCH   8  14
TORSDOF 2
ENDMDL
MODEL 6
REMARK VINA RESULT:    -5.140      6.117      8.999
REMARK INTER + INTRA:          -5.440
REMARK INTER:                  -5.440
REMARK INTRA:                   0.000
REMARK UNBOUND:                 0.000
REMARK SMILES O=c1ccc2cc(O)c(O)cc2o1
REMARK SMILES IDX 4 1 3 2 2 3 1 4 13 5 12 6 11 7 9 8 7 9 6 10 5 11 8 12 10 14
REMARK H PARENT 8 13 10 15
REMARK Flexibility Score: inf
ROOT
ATOM      1  C   UNL     1      11.395 -24.651  21.182  1.00  0.00     0.019 A 
ATOM      2  C   UNL     1      12.484 -25.320  21.739  1.00  0.00     0.094 A 
ATOM      3  C   UNL     1      12.580 -25.415  23.132  1.00  0.00     0.336 A 
ATOM      4  O   UNL     1      13.555 -26.015  23.656  1.00  0.00    -0.246 OA
ATOM      5  O   UNL     1      11.646 -24.874  23.910  1.00  0.00    -0.423 OA
ATOM      6  C   UNL     1      10.592 -24.228  23.419  1.00  0.00     0.142 A 
ATOM      7  C   UNL     1       9.641 -23.679  24.286  1.00  0.00     0.098 A 
ATOM      8  C   UNL     1       8.528 -22.997  23.773  1.00  0.00     0.161 A 
ATOM      9  C   UNL     1       8.365 -22.863  22.386  1.00  0.00     0.158 A 
ATOM     10  C   UNL     1       9.316 -23.410  21.511  1.00  0.00     0.062 A 
ATOM     11  C   UNL     1      10.429 -24.092  22.023  1.00  0.00     0.022 A 
ENDROOT
BRANCH   9  12
ATOM     12  O   UNL     1       7.257 -22.183  21.885  1.00  0.00    -0.504 OA
ATOM     13  H   UNL     1       6.376 -22.655  21.717  1.00  0.00     0.293 HD
ENDBRANCH   9  12
BRANCH   8  14
ATOM     14  O   UNL     1       7.579 -22.449  24.635  1.00  0.00    -0.504 OA
ATOM     15  H   UNL     1       7.023 -23.032  25.249  1.00  0.00     0.293 HD
ENDBRANCH   8  14
TORSDOF 2
ENDMDL
MODEL 7
REMARK VINA RESULT:    -5.067      2.930      5.200
REMARK INTER + INTRA:          -5.363
REMARK INTER:                  -5.363
REMARK INTRA:                   0.000
REMARK UNBOUND:                 0.000
REMARK SMILES O=c1ccc2cc(O)c(O)cc2o1
REMARK SMILES IDX 4 1 3 2 2 3 1 4 13 5 12 6 11 7 9 8 7 9 6 10 5 11 8 12 10 14
REMARK H PARENT 8 13 10 15
REMARK Flexibility Score: inf
ROOT
ATOM      1  C   UNL     1      17.337 -25.486  32.442  1.00  0.00     0.019 A 
ATOM      2  C   UNL     1      16.652 -24.714  33.380  1.00  0.00     0.094 A 
ATOM      3  C   UNL     1      15.926 -23.602  32.942  1.00  0.00     0.336 A 
ATOM      4  O   UNL     1      15.301 -22.892  33.773  1.00  0.00    -0.246 OA
ATOM      5  O   UNL     1      15.891 -23.286  31.650  1.00  0.00    -0.423 OA
ATOM      6  C   UNL     1      16.530 -23.996  30.723  1.00  0.00     0.142 A 
ATOM      7  C   UNL     1      16.457 -23.616  29.379  1.00  0.00     0.098 A 
ATOM      8  C   UNL     1      17.129 -24.362  28.398  1.00  0.00     0.161 A 
ATOM      9  C   UNL     1      17.876 -25.490  28.764  1.00  0.00     0.158 A 
ATOM     10  C   UNL     1      17.954 -25.875  30.110  1.00  0.00     0.062 A 
ATOM     11  C   UNL     1      17.283 -25.132  31.092  1.00  0.00     0.022 A 
ENDROOT
BRANCH   9  12
ATOM     12  O   UNL     1      18.541 -26.224  27.783  1.00  0.00    -0.504 OA
ATOM     13  H   UNL     1      18.136 -26.373  26.866  1.00  0.00     0.293 HD
ENDBRANCH   9  12
BRANCH   8  14
ATOM     14  O   UNL     1      17.058 -23.986  27.058  1.00  0.00    -0.504 OA
ATOM     15  H   UNL     1      16.779 -24.641  26.338  1.00  0.00     0.293 HD
ENDBRANCH   8  14
TORSDOF 2
ENDMDL
MODEL 8
REMARK VINA RESULT:    -5.062      8.528      8.805
REMARK INTER + INTRA:          -5.358
REMARK INTER:                  -5.358
REMARK INTRA:                   0.000
REMARK UNBOUND:                 0.000
REMARK SMILES O=c1ccc2cc(O)c(O)cc2o1
REMARK SMILES IDX 4 1 3 2 2 3 1 4 13 5 12 6 11 7 9 8 7 9 6 10 5 11 8 12 10 14
REMARK H PARENT 8 13 10 15
REMARK Flexibility Score: inf
ROOT
ATOM      1  C   UNL     1       9.877 -24.748  31.583  1.00  0.00     0.019 A 
ATOM      2  C   UNL     1       9.630 -24.103  30.371  1.00  0.00     0.094 A 
ATOM      3  C   UNL     1       9.514 -22.709  30.357  1.00  0.00     0.336 A 
ATOM      4  O   UNL     1       9.292 -22.107  29.274  1.00  0.00    -0.246 OA
ATOM      5  O   UNL     1       9.637 -22.011  31.484  1.00  0.00    -0.423 OA
ATOM      6  C   UNL     1       9.872 -22.587  32.660  1.00  0.00     0.142 A 
ATOM      7  C   UNL     1       9.993 -21.802  33.812  1.00  0.00     0.098 A 
ATOM      8  C   UNL     1      10.241 -22.405  35.053  1.00  0.00     0.161 A 
ATOM      9  C   UNL     1      10.370 -23.799  35.144  1.00  0.00     0.158 A 
ATOM     10  C   UNL     1      10.249 -24.591  33.993  1.00  0.00     0.062 A 
ATOM     11  C   UNL     1      10.001 -23.991  32.751  1.00  0.00     0.022 A 
ENDROOT
BRANCH   9  12
ATOM     12  O   UNL     1      10.615 -24.389  36.382  1.00  0.00    -0.504 OA
ATOM     13  H   UNL     1      11.041 -25.306  36.458  1.00  0.00     0.293 HD
ENDBRANCH   9  12
BRANCH   8  14
ATOM     14  O   UNL     1      10.361 -21.626  36.203  1.00  0.00    -0.504 OA
ATOM     15  H   UNL     1      11.267 -21.372  36.579  1.00  0.00     0.293 HD
ENDBRANCH   8  14
TORSDOF 2
ENDMDL
MODEL 9
REMARK VINA RESULT:    -5.002      7.438      8.317
REMARK INTER + INTRA:          -5.295
REMARK INTER:                  -5.295
REMARK INTRA:                   0.000
REMARK UNBOUND:                 0.000
REMARK SMILES O=c1ccc2cc(O)c(O)cc2o1
REMARK SMILES IDX 4 1 3 2 2 3 1 4 13 5 12 6 11 7 9 8 7 9 6 10 5 11 8 12 10 14
REMARK H PARENT 8 13 10 15
REMARK Flexibility Score: inf
ROOT
ATOM      1  C   UNL     1       9.491 -28.150  29.601  1.00  0.00     0.019 A 
ATOM      2  C   UNL     1       9.543 -29.251  30.455  1.00  0.00     0.094 A 
ATOM      3  C   UNL     1       9.604 -29.035  31.836  1.00  0.00     0.336 A 
ATOM      4  O   UNL     1       9.650 -30.015  32.625  1.00  0.00    -0.246 OA
ATOM      5  O   UNL     1       9.613 -27.796  32.324  1.00  0.00    -0.423 OA
ATOM      6  C   UNL     1       9.566 -26.720  31.544  1.00  0.00     0.142 A 
ATOM      7  C   UNL     1       9.579 -25.442  32.114  1.00  0.00     0.098 A 
ATOM      8  C   UNL     1       9.529 -24.304  31.295  1.00  0.00     0.161 A 
ATOM      9  C   UNL     1       9.466 -24.444  29.902  1.00  0.00     0.158 A 
ATOM     10  C   UNL     1       9.454 -25.723  29.324  1.00  0.00     0.062 A 
ATOM     11  C   UNL     1       9.503 -26.861  30.140  1.00  0.00     0.022 A 
ENDROOT
BRANCH   9  12
ATOM     12  O   UNL     1       9.418 -23.308  29.096  1.00  0.00    -0.504 OA
ATOM     13  H   UNL     1       9.902 -23.267  28.206  1.00  0.00     0.293 HD
ENDBRANCH   9  12
BRANCH   8  14
ATOM     14  O   UNL     1       9.542 -23.030  31.861  1.00  0.00    -0.504 OA
ATOM     15  H   UNL     1      10.031 -22.260  31.420  1.00  0.00     0.293 HD
ENDBRANCH   8  14
TORSDOF 2
ENDMDL
