MODEL 1
REMARK VINA RESULT:    -5.083      0.000      0.000
REMARK INTER + INTRA:          -6.232
REMARK INTER:                  -6.123
REMARK INTRA:                  -0.109
REMARK UNBOUND:                -0.109
REMARK SMILES OCCc1ccc(O)c(O)c1
REMARK SMILES IDX 3 1 4 2 5 3 6 4 7 5 11 6 9 7 8 8 10 10 2 12 1 13
REMARK H PARENT 8 9 10 11 1 14
REMARK Flexibility Score: inf
ROOT
ATOM      1  C   UNL     1       6.718  35.242  77.662  1.00  0.00     0.064 C 
ENDROOT
BRANCH   1   2
ATOM      2  C   UNL     1       5.702  34.489  78.477  1.00  0.00    -0.042 A 
ATOM      3  C   UNL     1       5.740  33.089  78.538  1.00  0.00     0.008 A 
ATOM      4  C   UNL     1       4.815  32.393  79.318  1.00  0.00     0.050 A 
ATOM      5  C   UNL     1       3.844  33.079  80.058  1.00  0.00     0.157 A 
ATOM      6  C   UNL     1       4.740  35.183  79.227  1.00  0.00     0.054 A 
ATOM      7  C   UNL     1       3.808  34.493  80.014  1.00  0.00     0.157 A 
BRANCH   5   8
ATOM      8  O   UNL     1       2.947  32.324  80.815  1.00  0.00    -0.504 OA
ATOM      9  H   UNL     1       3.134  31.387  81.145  1.00  0.00     0.293 HD
ENDBRANCH   5   8
BRANCH   7  10
ATOM     10  O   UNL     1       2.875  35.246  80.730  1.00  0.00    -0.504 OA
ATOM     11  H   UNL     1       3.119  35.911  81.450  1.00  0.00     0.293 HD
ENDBRANCH   7  10
ENDBRANCH   1   2
BRANCH   1  12
ATOM     12  C   UNL     1       8.138  34.895  78.115  1.00  0.00     0.161 C 
BRANCH  12  13
ATOM     13  O   UNL     1       8.481  35.639  79.252  1.00  0.00    -0.396 OA
ATOM     14  H   UNL     1       8.454  35.011  80.021  1.00  0.00     0.210 HD
ENDBRANCH  12  13
ENDBRANCH   1  12
TORSDOF 5
ENDMDL
MODEL 2
REMARK VINA RESULT:    -5.056      2.478      4.541
REMARK INTER + INTRA:          -6.199
REMARK INTER:                  -6.114
REMARK INTRA:                  -0.085
REMARK UNBOUND:                -0.109
REMARK SMILES OCCc1ccc(O)c(O)c1
REMARK SMILES IDX 3 1 4 2 5 3 6 4 7 5 11 6 9 7 8 8 10 10 2 12 1 13
REMARK H PARENT 8 9 10 11 1 14
REMARK Flexibility Score: inf
ROOT
ATOM      1  C   UNL     1       4.106  35.195  78.082  1.00  0.00     0.064 C 
ENDROOT
BRANCH   1   2
ATOM      2  C   UNL     1       5.519  34.691  77.961  1.00  0.00    -0.042 A 
ATOM      3  C   UNL     1       6.567  35.580  77.688  1.00  0.00     0.008 A 
ATOM      4  C   UNL     1       7.881  35.115  77.606  1.00  0.00     0.050 A 
ATOM      5  C   UNL     1       8.174  33.761  77.804  1.00  0.00     0.157 A 
ATOM      6  C   UNL     1       5.807  33.334  78.175  1.00  0.00     0.054 A 
ATOM      7  C   UNL     1       7.123  32.858  78.095  1.00  0.00     0.157 A 
BRANCH   5   8
ATOM      8  O   UNL     1       9.507  33.360  77.705  1.00  0.00    -0.504 OA
ATOM      9  H   UNL     1       9.802  32.399  77.607  1.00  0.00     0.293 HD
ENDBRANCH   5   8
BRANCH   7  10
ATOM     10  O   UNL     1       7.338  31.496  78.312  1.00  0.00    -0.504 OA
ATOM     11  H   UNL     1       7.452  30.817  77.574  1.00  0.00     0.293 HD
ENDBRANCH   7  10
ENDBRANCH   1   2
BRANCH   1  12
ATOM     12  C   UNL     1       3.833  36.291  77.050  1.00  0.00     0.161 C 
BRANCH  12  13
ATOM     13  O   UNL     1       3.622  37.519  77.690  1.00  0.00    -0.396 OA
ATOM     14  H   UNL     1       2.639  37.627  77.780  1.00  0.00     0.210 HD
ENDBRANCH  12  13
ENDBRANCH   1  12
TORSDOF 5
ENDMDL
MODEL 3
REMARK VINA RESULT:    -4.821      2.556      3.798
REMARK INTER + INTRA:          -5.917
REMARK INTER:                  -5.861
REMARK INTRA:                  -0.056
REMARK UNBOUND:                -0.109
REMARK SMILES OCCc1ccc(O)c(O)c1
REMARK SMILES IDX 3 1 4 2 5 3 6 4 7 5 11 6 9 7 8 8 10 10 2 12 1 13
REMARK H PARENT 8 9 10 11 1 14
REMARK Flexibility Score: inf
ROOT
ATOM      1  C   UNL     1       5.490  32.312  79.176  1.00  0.00     0.064 C 
ENDROOT
BRANCH   1   2
ATOM      2  C   UNL     1       4.976  33.663  78.760  1.00  0.00    -0.042 A 
ATOM      3  C   UNL     1       3.822  34.195  79.351  1.00  0.00     0.008 A 
ATOM      4  C   UNL     1       3.364  35.462  78.986  1.00  0.00     0.050 A 
ATOM      5  C   UNL     1       4.051  36.224  78.034  1.00  0.00     0.157 A 
ATOM      6  C   UNL     1       5.678  34.428  77.815  1.00  0.00     0.054 A 
ATOM      7  C   UNL     1       5.226  35.701  77.442  1.00  0.00     0.157 A 
BRANCH   5   8
ATOM      8  O   UNL     1       3.539  37.481  77.711  1.00  0.00    -0.504 OA
ATOM      9  H   UNL     1       3.132  38.116  78.383  1.00  0.00     0.293 HD
ENDBRANCH   5   8
BRANCH   7  10
ATOM     10  O   UNL     1       5.969  36.404  76.493  1.00  0.00    -0.504 OA
ATOM     11  H   UNL     1       6.131  37.401  76.527  1.00  0.00     0.293 HD
ENDBRANCH   7  10
ENDBRANCH   1   2
BRANCH   1  12
ATOM     12  C   UNL     1       6.069  31.560  77.976  1.00  0.00     0.161 C 
BRANCH  12  13
ATOM     13  O   UNL     1       7.468  31.520  78.058  1.00  0.00    -0.396 OA
ATOM     14  H   UNL     1       7.772  30.850  77.391  1.00  0.00     0.210 HD
ENDBRANCH  12  13
ENDBRANCH   1  12
TORSDOF 5
ENDMDL
MODEL 4
REMARK VINA RESULT:    -4.819      2.123      4.710
REMARK INTER + INTRA:          -5.914
REMARK INTER:                  -5.800
REMARK INTRA:                  -0.114
REMARK UNBOUND:                -0.109
REMARK SMILES OCCc1ccc(O)c(O)c1
REMARK SMILES IDX 3 1 4 2 5 3 6 4 7 5 11 6 9 7 8 8 10 10 2 12 1 13
REMARK H PARENT 8 9 10 11 1 14
REMARK Flexibility Score: inf
ROOT
ATOM      1  C   UNL     1       3.949  34.205  80.295  1.00  0.00     0.064 C 
ENDROOT
BRANCH   1   2
ATOM      2  C   UNL     1       4.346  34.966  79.059  1.00  0.00    -0.042 A 
ATOM      3  C   UNL     1       3.419  35.792  78.408  1.00  0.00     0.008 A 
ATOM      4  C   UNL     1       3.798  36.521  77.280  1.00  0.00     0.050 A 
ATOM      5  C   UNL     1       5.106  36.449  76.788  1.00  0.00     0.157 A 
ATOM      6  C   UNL     1       5.663  34.900  78.580  1.00  0.00     0.054 A 
ATOM      7  C   UNL     1       6.053  35.629  77.448  1.00  0.00     0.157 A 
BRANCH   5   8
ATOM      8  O   UNL     1       5.419  37.201  75.654  1.00  0.00    -0.504 OA
ATOM      9  H   UNL     1       6.039  37.999  75.658  1.00  0.00     0.293 HD
ENDBRANCH   5   8
BRANCH   7  10
ATOM     10  O   UNL     1       7.377  35.513  77.022  1.00  0.00    -0.504 OA
ATOM     11  H   UNL     1       8.022  36.288  76.964  1.00  0.00     0.293 HD
ENDBRANCH   7  10
ENDBRANCH   1   2
BRANCH   1  12
ATOM     12  C   UNL     1       4.205  32.707  80.113  1.00  0.00     0.161 C 
BRANCH  12  13
ATOM     13  O   UNL     1       3.357  32.187  79.125  1.00  0.00    -0.396 OA
ATOM     14  H   UNL     1       2.764  32.931  78.839  1.00  0.00     0.210 HD
ENDBRANCH  12  13
ENDBRANCH   1  12
TORSDOF 5
ENDMDL
MODEL 5
REMARK VINA RESULT:    -4.735      2.434      4.243
REMARK INTER + INTRA:          -5.813
REMARK INTER:                  -5.735
REMARK INTRA:                  -0.078
REMARK UNBOUND:                -0.109
REMARK SMILES OCCc1ccc(O)c(O)c1
REMARK SMILES IDX 3 1 4 2 5 3 6 4 7 5 11 6 9 7 8 8 10 10 2 12 1 13
REMARK H PARENT 8 9 10 11 1 14
REMARK Flexibility Score: inf
ROOT
ATOM      1  C   UNL     1       3.994  35.250  78.630  1.00  0.00     0.064 C 
ENDROOT
BRANCH   1   2
ATOM      2  C   UNL     1       5.331  34.590  78.426  1.00  0.00    -0.042 A 
ATOM      3  C   UNL     1       5.421  33.197  78.300  1.00  0.00     0.008 A 
ATOM      4  C   UNL     1       6.658  32.589  78.080  1.00  0.00     0.050 A 
ATOM      5  C   UNL     1       7.823  33.358  77.972  1.00  0.00     0.157 A 
ATOM      6  C   UNL     1       6.493  35.367  78.305  1.00  0.00     0.054 A 
ATOM      7  C   UNL     1       7.739  34.766  78.083  1.00  0.00     0.157 A 
BRANCH   5   8
ATOM      8  O   UNL     1       9.029  32.688  77.755  1.00  0.00    -0.504 OA
ATOM      9  H   UNL     1       9.592  32.794  76.923  1.00  0.00     0.293 HD
ENDBRANCH   5   8
BRANCH   7  10
ATOM     10  O   UNL     1       8.855  35.599  77.978  1.00  0.00    -0.504 OA
ATOM     11  H   UNL     1       9.193  36.188  78.726  1.00  0.00     0.293 HD
ENDBRANCH   7  10
ENDBRANCH   1   2
BRANCH   1  12
ATOM     12  C   UNL     1       3.606  36.078  77.403  1.00  0.00     0.161 C 
BRANCH  12  13
ATOM     13  O   UNL     1       3.704  37.446  77.691  1.00  0.00    -0.396 OA
ATOM     14  H   UNL     1       4.029  37.517  78.627  1.00  0.00     0.210 HD
ENDBRANCH  12  13
ENDBRANCH   1  12
TORSDOF 5
ENDMDL
MODEL 6
REMARK VINA RESULT:    -4.732     10.469     11.489
REMARK INTER + INTRA:          -5.809
REMARK INTER:                  -5.717
REMARK INTRA:                  -0.092
REMARK UNBOUND:                -0.109
REMARK SMILES OCCc1ccc(O)c(O)c1
REMARK SMILES IDX 3 1 4 2 5 3 6 4 7 5 11 6 9 7 8 8 10 10 2 12 1 13
REMARK H PARENT 8 9 10 11 1 14
REMARK Flexibility Score: inf
ROOT
ATOM      1  C   UNL     1       8.449  30.542  71.732  1.00  0.00     0.064 C 
ENDROOT
BRANCH   1   2
ATOM      2  C   UNL     1       8.122  29.808  70.459  1.00  0.00    -0.042 A 
ATOM      3  C   UNL     1       7.656  28.486  70.504  1.00  0.00     0.008 A 
ATOM      4  C   UNL     1       7.325  27.818  69.325  1.00  0.00     0.050 A 
ATOM      5  C   UNL     1       7.442  28.455  68.084  1.00  0.00     0.157 A 
ATOM      6  C   UNL     1       8.229  30.457  69.220  1.00  0.00     0.054 A 
ATOM      7  C   UNL     1       7.898  29.794  68.031  1.00  0.00     0.157 A 
BRANCH   5   8
ATOM      8  O   UNL     1       7.098  27.729  66.942  1.00  0.00    -0.504 OA
ATOM      9  H   UNL     1       6.704  26.799  66.961  1.00  0.00     0.293 HD
ENDBRANCH   5   8
BRANCH   7  10
ATOM     10  O   UNL     1       8.033  30.498  66.832  1.00  0.00    -0.504 OA
ATOM     11  H   UNL     1       7.386  31.206  66.517  1.00  0.00     0.293 HD
ENDBRANCH   7  10
ENDBRANCH   1   2
BRANCH   1  12
ATOM     12  C   UNL     1       7.600  30.017  72.892  1.00  0.00     0.161 C 
BRANCH  12  13
ATOM     13  O   UNL     1       8.421  29.643  73.964  1.00  0.00    -0.396 OA
ATOM     14  H   UNL     1       7.931  29.883  74.794  1.00  0.00     0.210 HD
ENDBRANCH  12  13
ENDBRANCH   1  12
TORSDOF 5
ENDMDL
MODEL 7
REMARK VINA RESULT:    -4.688      8.979      9.766
REMARK INTER + INTRA:          -5.756
REMARK INTER:                  -5.665
REMARK INTRA:                  -0.091
REMARK UNBOUND:                -0.109
REMARK SMILES OCCc1ccc(O)c(O)c1
REMARK SMILES IDX 3 1 4 2 5 3 6 4 7 5 11 6 9 7 8 8 10 10 2 12 1 13
REMARK H PARENT 8 9 10 11 1 14
REMARK Flexibility Score: inf
ROOT
ATOM      1  C   UNL     1       8.555  30.378  69.152  1.00  0.00     0.064 C 
ENDROOT
BRANCH   1   2
ATOM      2  C   UNL     1       7.723  30.272  70.401  1.00  0.00    -0.042 A 
ATOM      3  C   UNL     1       6.324  30.243  70.319  1.00  0.00     0.008 A 
ATOM      4  C   UNL     1       5.554  30.115  71.476  1.00  0.00     0.050 A 
ATOM      5  C   UNL     1       6.162  30.002  72.731  1.00  0.00     0.157 A 
ATOM      6  C   UNL     1       8.340  30.145  71.655  1.00  0.00     0.054 A 
ATOM      7  C   UNL     1       7.575  30.015  72.822  1.00  0.00     0.157 A 
BRANCH   5   8
ATOM      8  O   UNL     1       5.335  29.879  73.849  1.00  0.00    -0.504 OA
ATOM      9  H   UNL     1       4.936  29.006  74.164  1.00  0.00     0.293 HD
ENDBRANCH   5   8
BRANCH   7  10
ATOM     10  O   UNL     1       8.253  29.899  74.037  1.00  0.00    -0.504 OA
ATOM     11  H   UNL     1       7.848  29.510  74.876  1.00  0.00     0.293 HD
ENDBRANCH   7  10
ENDBRANCH   1   2
BRANCH   1  12
ATOM     12  C   UNL     1       7.802  29.805  67.950  1.00  0.00     0.161 C 
BRANCH  12  13
ATOM     13  O   UNL     1       7.807  30.724  66.892  1.00  0.00    -0.396 OA
ATOM     14  H   UNL     1       8.710  30.678  66.480  1.00  0.00     0.210 HD
ENDBRANCH  12  13
ENDBRANCH   1  12
TORSDOF 5
ENDMDL
MODEL 8
REMARK VINA RESULT:    -4.573      2.436      3.111
REMARK INTER + INTRA:          -5.618
REMARK INTER:                  -5.533
REMARK INTRA:                  -0.085
REMARK UNBOUND:                -0.109
REMARK SMILES OCCc1ccc(O)c(O)c1
REMARK SMILES IDX 3 1 4 2 5 3 6 4 7 5 11 6 9 7 8 8 10 10 2 12 1 13
REMARK H PARENT 8 9 10 11 1 14
REMARK Flexibility Score: inf
ROOT
ATOM      1  C   UNL     1       3.758  36.610  77.429  1.00  0.00     0.064 C 
ENDROOT
BRANCH   1   2
ATOM      2  C   UNL     1       3.735  35.459  78.398  1.00  0.00    -0.042 A 
ATOM      3  C   UNL     1       3.208  35.628  79.686  1.00  0.00     0.008 A 
ATOM      4  C   UNL     1       3.159  34.551  80.572  1.00  0.00     0.050 A 
ATOM      5  C   UNL     1       3.624  33.288  80.190  1.00  0.00     0.157 A 
ATOM      6  C   UNL     1       4.190  34.192  78.003  1.00  0.00     0.054 A 
ATOM      7  C   UNL     1       4.145  33.105  78.886  1.00  0.00     0.157 A 
BRANCH   5   8
ATOM      8  O   UNL     1       3.551  32.254  81.125  1.00  0.00    -0.504 OA
ATOM      9  H   UNL     1       4.159  32.174  81.927  1.00  0.00     0.293 HD
ENDBRANCH   5   8
BRANCH   7  10
ATOM     10  O   UNL     1       4.619  31.874  78.430  1.00  0.00    -0.504 OA
ATOM     11  H   UNL     1       5.237  31.764  77.638  1.00  0.00     0.293 HD
ENDBRANCH   7  10
ENDBRANCH   1   2
BRANCH   1  12
ATOM     12  C   UNL     1       4.495  36.223  76.146  1.00  0.00     0.161 C 
BRANCH  12  13
ATOM     13  O   UNL     1       5.511  37.149  75.872  1.00  0.00    -0.396 OA
ATOM     14  H   UNL     1       5.160  37.755  75.167  1.00  0.00     0.210 HD
ENDBRANCH  12  13
ENDBRANCH   1  12
TORSDOF 5
ENDMDL
MODEL 9
REMARK VINA RESULT:    -4.546      1.414      2.379
REMARK INTER + INTRA:          -5.586
REMARK INTER:                  -5.489
REMARK INTRA:                  -0.096
REMARK UNBOUND:                -0.109
REMARK SMILES OCCc1ccc(O)c(O)c1
REMARK SMILES IDX 3 1 4 2 5 3 6 4 7 5 11 6 9 7 8 8 10 10 2 12 1 13
REMARK H PARENT 8 9 10 11 1 14
REMARK Flexibility Score: inf
ROOT
ATOM      1  C   UNL     1       7.346  35.512  77.759  1.00  0.00     0.064 C 
ENDROOT
BRANCH   1   2
ATOM      2  C   UNL     1       6.235  34.603  78.209  1.00  0.00    -0.042 A 
ATOM      3  C   UNL     1       5.031  35.138  78.687  1.00  0.00     0.008 A 
ATOM      4  C   UNL     1       3.990  34.294  79.075  1.00  0.00     0.050 A 
ATOM      5  C   UNL     1       4.126  32.904  78.984  1.00  0.00     0.157 A 
ATOM      6  C   UNL     1       6.373  33.210  78.102  1.00  0.00     0.054 A 
ATOM      7  C   UNL     1       5.333  32.354  78.489  1.00  0.00     0.157 A 
BRANCH   5   8
ATOM      8  O   UNL     1       3.049  32.114  79.392  1.00  0.00    -0.504 OA
ATOM      9  H   UNL     1       2.448  31.607  78.758  1.00  0.00     0.293 HD
ENDBRANCH   5   8
BRANCH   7  10
ATOM     10  O   UNL     1       5.539  30.979  78.362  1.00  0.00    -0.504 OA
ATOM     11  H   UNL     1       6.374  30.567  77.971  1.00  0.00     0.293 HD
ENDBRANCH   7  10
ENDBRANCH   1   2
BRANCH   1  12
ATOM     12  C   UNL     1       8.710  34.867  78.014  1.00  0.00     0.161 C 
BRANCH  12  13
ATOM     13  O   UNL     1       9.153  35.165  79.310  1.00  0.00    -0.396 OA
ATOM     14  H   UNL     1       9.688  34.386  79.613  1.00  0.00     0.210 HD
ENDBRANCH  12  13
ENDBRANCH   1  12
TORSDOF 5
ENDMDL
