MODEL 1
REMARK VINA RESULT:    -3.119      0.000      0.000
REMARK INTER + INTRA:          -7.243
REMARK INTER:                  -5.490
REMARK INTRA:                  -1.753
REMARK UNBOUND:                -1.753
REMARK SMILES CCCCCCC=CCCCCCCCC(=O)[O-]
REMARK SMILES IDX 10 1 11 2 12 3 13 4 14 5 15 6 16 7 17 8 18 9 9 10 8 11 7 12
REMARK SMILES IDX 6 13 5 14 4 15 3 16 2 17 1 18
REMARK H PARENT
REMARK Flexibility Score: inf
ROOT
ATOM      1  C   UNL     1      30.859 -37.081   8.614  1.00  0.00     0.004 C 
ENDROOT
BRANCH   1   2
ATOM      2  C   UNL     1      31.613 -35.880   9.209  1.00  0.00     0.000 C 
BRANCH   2   3
ATOM      3  C   UNL     1      33.140 -36.096   9.312  1.00  0.00     0.000 C 
BRANCH   3   4
ATOM      4  C   UNL     1      33.568 -37.569   9.163  1.00  0.00     0.000 C 
BRANCH   4   5
ATOM      5  C   UNL     1      34.412 -38.118  10.330  1.00  0.00     0.006 C 
BRANCH   5   6
ATOM      6  C   UNL     1      34.359 -37.261  11.605  1.00  0.00     0.053 C 
BRANCH   6   7
ATOM      7  C   UNL     1      34.417 -38.100  12.845  1.00  0.00     0.041 C 
ATOM      8  O   UNL     1      34.746 -37.584  13.945  1.00  0.00    -0.550 OA
ATOM      9  O   UNL     1      34.077 -39.445  12.790  1.00  0.00    -0.550 OA
ENDBRANCH   6   7
ENDBRANCH   5   6
ENDBRANCH   4   5
ENDBRANCH   3   4
ENDBRANCH   2   3
ENDBRANCH   1   2
BRANCH   1  10
ATOM     10  C   UNL     1      29.876 -36.666   7.510  1.00  0.00     0.027 C 
BRANCH  10  11
ATOM     11  C   UNL     1      30.406 -37.027   6.149  1.00  0.00    -0.031 C 
ATOM     12  C   UNL     1      31.719 -36.955   5.884  1.00  0.00    -0.031 C 
BRANCH  12  13
ATOM     13  C   UNL     1      32.274 -37.337   4.539  1.00  0.00     0.027 C 
BRANCH  13  14
ATOM     14  C   UNL     1      33.776 -37.028   4.449  1.00  0.00     0.004 C 
BRANCH  14  15
ATOM     15  C   UNL     1      34.249 -36.096   5.585  1.00  0.00     0.000 C 
BRANCH  15  16
ATOM     16  C   UNL     1      35.594 -36.514   6.210  1.00  0.00    -0.000 C 
BRANCH  16  17
ATOM     17  C   UNL     1      36.023 -37.958   5.905  1.00  0.00    -0.003 C 
ATOM     18  C   UNL     1      36.973 -38.529   6.958  1.00  0.00     0.004 C 
ENDBRANCH  16  17
ENDBRANCH  15  16
ENDBRANCH  14  15
ENDBRANCH  13  14
ENDBRANCH  12  13
ENDBRANCH  10  11
ENDBRANCH   1  10
TORSDOF 13
ENDMDL
MODEL 2
REMARK VINA RESULT:    -3.096     10.560     12.630
REMARK INTER + INTRA:          -7.203
REMARK INTER:                  -5.750
REMARK INTRA:                  -1.453
REMARK UNBOUND:                -1.753
REMARK SMILES CCCCCCC=CCCCCCCCC(=O)[O-]
REMARK SMILES IDX 10 1 11 2 12 3 13 4 14 5 15 6 16 7 17 8 18 9 9 10 8 11 7 12
REMARK SMILES IDX 6 13 5 14 4 15 3 16 2 17 1 18
REMARK H PARENT
REMARK Flexibility Score: inf
ROOT
ATOM      1  C   UNL     1      33.933 -40.432  -3.652  1.00  0.00     0.004 C 
ENDROOT
BRANCH   1   2
ATOM      2  C   UNL     1      34.982 -39.858  -2.685  1.00  0.00     0.000 C 
BRANCH   2   3
ATOM      3  C   UNL     1      36.419 -39.865  -3.254  1.00  0.00     0.000 C 
BRANCH   3   4
ATOM      4  C   UNL     1      37.400 -38.969  -2.474  1.00  0.00     0.000 C 
BRANCH   4   5
ATOM      5  C   UNL     1      38.359 -38.143  -3.353  1.00  0.00     0.006 C 
BRANCH   5   6
ATOM      6  C   UNL     1      38.499 -36.672  -2.928  1.00  0.00     0.053 C 
BRANCH   6   7
ATOM      7  C   UNL     1      38.901 -36.542  -1.491  1.00  0.00     0.041 C 
ATOM      8  O   UNL     1      38.106 -36.040  -0.653  1.00  0.00    -0.550 OA
ATOM      9  O   UNL     1      40.142 -37.004  -1.072  1.00  0.00    -0.550 OA
ENDBRANCH   6   7
ENDBRANCH   5   6
ENDBRANCH   4   5
ENDBRANCH   3   4
ENDBRANCH   2   3
ENDBRANCH   1   2
BRANCH   1  10
ATOM     10  C   UNL     1      34.402 -41.733  -4.317  1.00  0.00     0.027 C 
BRANCH  10  11
ATOM     11  C   UNL     1      33.369 -42.817  -4.174  1.00  0.00    -0.031 C 
ATOM     12  C   UNL     1      32.060 -42.528  -4.228  1.00  0.00    -0.031 C 
BRANCH  12  13
ATOM     13  C   UNL     1      31.010 -43.599  -4.114  1.00  0.00     0.027 C 
BRANCH  13  14
ATOM     14  C   UNL     1      30.791 -44.008  -2.650  1.00  0.00     0.004 C 
BRANCH  14  15
ATOM     15  C   UNL     1      29.959 -42.967  -1.871  1.00  0.00     0.000 C 
BRANCH  15  16
ATOM     16  C   UNL     1      30.597 -42.534  -0.538  1.00  0.00    -0.000 C 
BRANCH  16  17
ATOM     17  C   UNL     1      31.716 -41.487  -0.671  1.00  0.00    -0.003 C 
ATOM     18  C   UNL     1      33.102 -42.057  -0.366  1.00  0.00     0.004 C 
ENDBRANCH  16  17
ENDBRANCH  15  16
ENDBRANCH  14  15
ENDBRANCH  13  14
ENDBRANCH  12  13
ENDBRANCH  10  11
ENDBRANCH   1  10
TORSDOF 13
ENDMDL
MODEL 3
REMARK VINA RESULT:    -3.087      9.982     12.305
REMARK INTER + INTRA:          -7.186
REMARK INTER:                  -5.491
REMARK INTRA:                  -1.695
REMARK UNBOUND:                -1.753
REMARK SMILES CCCCCCC=CCCCCCCCC(=O)[O-]
REMARK SMILES IDX 10 1 11 2 12 3 13 4 14 5 15 6 16 7 17 8 18 9 9 10 8 11 7 12
REMARK SMILES IDX 6 13 5 14 4 15 3 16 2 17 1 18
REMARK H PARENT
REMARK Flexibility Score: inf
ROOT
ATOM      1  C   UNL     1      37.798 -40.611  -3.817  1.00  0.00     0.004 C 
ENDROOT
BRANCH   1   2
ATOM      2  C   UNL     1      37.444 -39.134  -3.570  1.00  0.00     0.000 C 
BRANCH   2   3
ATOM      3  C   UNL     1      38.543 -38.353  -2.815  1.00  0.00     0.000 C 
BRANCH   3   4
ATOM      4  C   UNL     1      38.555 -36.844  -3.125  1.00  0.00     0.000 C 
BRANCH   4   5
ATOM      5  C   UNL     1      38.576 -35.929  -1.884  1.00  0.00     0.006 C 
BRANCH   5   6
ATOM      6  C   UNL     1      38.242 -36.645  -0.566  1.00  0.00     0.053 C 
BRANCH   6   7
ATOM      7  C   UNL     1      39.357 -36.535   0.428  1.00  0.00     0.041 C 
ATOM      8  O   UNL     1      40.514 -36.929   0.129  1.00  0.00    -0.550 OA
ATOM      9  O   UNL     1      39.123 -35.967   1.674  1.00  0.00    -0.550 OA
ENDBRANCH   6   7
ENDBRANCH   5   6
ENDBRANCH   4   5
ENDBRANCH   3   4
ENDBRANCH   2   3
ENDBRANCH   1   2
BRANCH   1  10
ATOM     10  C   UNL     1      37.116 -41.173  -5.073  1.00  0.00     0.027 C 
BRANCH  10  11
ATOM     11  C   UNL     1      35.640 -41.356  -4.850  1.00  0.00    -0.031 C 
ATOM     12  C   UNL     1      35.154 -42.525  -4.405  1.00  0.00    -0.031 C 
BRANCH  12  13
ATOM     13  C   UNL     1      33.684 -42.722  -4.151  1.00  0.00     0.027 C 
BRANCH  13  14
ATOM     14  C   UNL     1      32.971 -41.377  -3.944  1.00  0.00     0.004 C 
BRANCH  14  15
ATOM     15  C   UNL     1      32.921 -40.966  -2.458  1.00  0.00     0.000 C 
BRANCH  15  16
ATOM     16  C   UNL     1      33.931 -39.864  -2.085  1.00  0.00    -0.000 C 
BRANCH  16  17
ATOM     17  C   UNL     1      34.820 -40.191  -0.874  1.00  0.00    -0.003 C 
ATOM     18  C   UNL     1      35.509 -41.550  -0.992  1.00  0.00     0.004 C 
ENDBRANCH  16  17
ENDBRANCH  15  16
ENDBRANCH  14  15
ENDBRANCH  13  14
ENDBRANCH  12  13
ENDBRANCH  10  11
ENDBRANCH   1  10
TORSDOF 13
ENDMDL
MODEL 4
REMARK VINA RESULT:    -3.044      7.611     10.382
REMARK INTER + INTRA:          -7.112
REMARK INTER:                  -5.242
REMARK INTRA:                  -1.869
REMARK UNBOUND:                -1.753
REMARK SMILES CCCCCCC=CCCCCCCCC(=O)[O-]
REMARK SMILES IDX 10 1 11 2 12 3 13 4 14 5 15 6 16 7 17 8 18 9 9 10 8 11 7 12
REMARK SMILES IDX 6 13 5 14 4 15 3 16 2 17 1 18
REMARK H PARENT
REMARK Flexibility Score: inf
ROOT
ATOM      1  C   UNL     1      39.743 -35.875  -1.590  1.00  0.00     0.004 C 
ENDROOT
BRANCH   1   2
ATOM      2  C   UNL     1      40.373 -36.101  -0.205  1.00  0.00     0.000 C 
BRANCH   2   3
ATOM      3  C   UNL     1      39.348 -36.078   0.952  1.00  0.00     0.000 C 
BRANCH   3   4
ATOM      4  C   UNL     1      37.886 -35.948   0.482  1.00  0.00     0.000 C 
BRANCH   4   5
ATOM      5  C   UNL     1      36.862 -36.719   1.337  1.00  0.00     0.006 C 
BRANCH   5   6
ATOM      6  C   UNL     1      36.263 -35.904   2.495  1.00  0.00     0.053 C 
BRANCH   6   7
ATOM      7  C   UNL     1      35.383 -36.740   3.371  1.00  0.00     0.041 C 
ATOM      8  O   UNL     1      35.840 -37.249   4.428  1.00  0.00    -0.550 OA
ATOM      9  O   UNL     1      34.049 -36.931   3.037  1.00  0.00    -0.550 OA
ENDBRANCH   6   7
ENDBRANCH   5   6
ENDBRANCH   4   5
ENDBRANCH   3   4
ENDBRANCH   2   3
ENDBRANCH   1   2
BRANCH   1  10
ATOM     10  C   UNL     1      40.123 -36.975  -2.592  1.00  0.00     0.027 C 
BRANCH  10  11
ATOM     11  C   UNL     1      38.899 -37.562  -3.240  1.00  0.00    -0.031 C 
ATOM     12  C   UNL     1      38.818 -38.879  -3.484  1.00  0.00    -0.031 C 
BRANCH  12  13
ATOM     13  C   UNL     1      37.593 -39.492  -4.107  1.00  0.00     0.027 C 
BRANCH  13  14
ATOM     14  C   UNL     1      36.482 -39.693  -3.066  1.00  0.00     0.004 C 
BRANCH  14  15
ATOM     15  C   UNL     1      36.950 -40.550  -1.871  1.00  0.00     0.000 C 
BRANCH  15  16
ATOM     16  C   UNL     1      36.801 -39.846  -0.508  1.00  0.00    -0.000 C 
BRANCH  16  17
ATOM     17  C   UNL     1      37.929 -40.140   0.494  1.00  0.00    -0.003 C 
ATOM     18  C   UNL     1      39.307 -39.733  -0.028  1.00  0.00     0.004 C 
ENDBRANCH  16  17
ENDBRANCH  15  16
ENDBRANCH  14  15
ENDBRANCH  13  14
ENDBRANCH  12  13
ENDBRANCH  10  11
ENDBRANCH   1  10
TORSDOF 13
ENDMDL
MODEL 5
REMARK VINA RESULT:    -3.041     10.437     13.220
REMARK INTER + INTRA:          -7.106
REMARK INTER:                  -5.371
REMARK INTRA:                  -1.735
REMARK UNBOUND:                -1.753
REMARK SMILES CCCCCCC=CCCCCCCCC(=O)[O-]
REMARK SMILES IDX 10 1 11 2 12 3 13 4 14 5 15 6 16 7 17 8 18 9 9 10 8 11 7 12
REMARK SMILES IDX 6 13 5 14 4 15 3 16 2 17 1 18
REMARK H PARENT
REMARK Flexibility Score: inf
ROOT
ATOM      1  C   UNL     1      37.517 -41.053  -3.402  1.00  0.00     0.004 C 
ENDROOT
BRANCH   1   2
ATOM      2  C   UNL     1      36.658 -42.084  -4.154  1.00  0.00     0.000 C 
BRANCH   2   3
ATOM      3  C   UNL     1      35.518 -41.451  -4.985  1.00  0.00     0.000 C 
BRANCH   3   4
ATOM      4  C   UNL     1      34.109 -41.778  -4.455  1.00  0.00     0.000 C 
BRANCH   4   5
ATOM      5  C   UNL     1      33.537 -40.747  -3.463  1.00  0.00     0.006 C 
BRANCH   5   6
ATOM      6  C   UNL     1      33.669 -41.151  -1.986  1.00  0.00     0.053 C 
BRANCH   6   7
ATOM      7  C   UNL     1      33.924 -39.968  -1.103  1.00  0.00     0.041 C 
ATOM      8  O   UNL     1      35.092 -39.712  -0.708  1.00  0.00    -0.550 OA
ATOM      9  O   UNL     1      32.876 -39.130  -0.743  1.00  0.00    -0.550 OA
ENDBRANCH   6   7
ENDBRANCH   5   6
ENDBRANCH   4   5
ENDBRANCH   3   4
ENDBRANCH   2   3
ENDBRANCH   1   2
BRANCH   1  10
ATOM     10  C   UNL     1      37.092 -39.608  -3.701  1.00  0.00     0.027 C 
BRANCH  10  11
ATOM     11  C   UNL     1      37.924 -38.627  -2.922  1.00  0.00    -0.031 C 
ATOM     12  C   UNL     1      38.879 -37.905  -3.528  1.00  0.00    -0.031 C 
BRANCH  12  13
ATOM     13  C   UNL     1      39.705 -36.900  -2.774  1.00  0.00     0.027 C 
BRANCH  13  14
ATOM     14  C   UNL     1      41.206 -37.122  -3.013  1.00  0.00     0.004 C 
BRANCH  14  15
ATOM     15  C   UNL     1      41.482 -37.872  -4.334  1.00  0.00     0.000 C 
BRANCH  15  16
ATOM     16  C   UNL     1      42.337 -39.141  -4.160  1.00  0.00    -0.000 C 
BRANCH  16  17
ATOM     17  C   UNL     1      41.541 -40.456  -4.144  1.00  0.00    -0.003 C 
ATOM     18  C   UNL     1      41.101 -40.867  -2.738  1.00  0.00     0.004 C 
ENDBRANCH  16  17
ENDBRANCH  15  16
ENDBRANCH  14  15
ENDBRANCH  13  14
ENDBRANCH  12  13
ENDBRANCH  10  11
ENDBRANCH   1  10
TORSDOF 13
ENDMDL
MODEL 6
REMARK VINA RESULT:    -3.019      9.760     12.313
REMARK INTER + INTRA:          -7.067
REMARK INTER:                  -5.437
REMARK INTRA:                  -1.630
REMARK UNBOUND:                -1.753
REMARK SMILES CCCCCCC=CCCCCCCCC(=O)[O-]
REMARK SMILES IDX 10 1 11 2 12 3 13 4 14 5 15 6 16 7 17 8 18 9 9 10 8 11 7 12
REMARK SMILES IDX 6 13 5 14 4 15 3 16 2 17 1 18
REMARK H PARENT
REMARK Flexibility Score: inf
ROOT
ATOM      1  C   UNL     1      37.498 -40.870  -3.163  1.00  0.00     0.004 C 
ENDROOT
BRANCH   1   2
ATOM      2  C   UNL     1      36.720 -42.080  -3.708  1.00  0.00     0.000 C 
BRANCH   2   3
ATOM      3  C   UNL     1      35.674 -41.710  -4.783  1.00  0.00     0.000 C 
BRANCH   3   4
ATOM      4  C   UNL     1      34.219 -41.964  -4.345  1.00  0.00     0.000 C 
BRANCH   4   5
ATOM      5  C   UNL     1      33.466 -40.713  -3.850  1.00  0.00     0.006 C 
BRANCH   5   6
ATOM      6  C   UNL     1      32.990 -40.799  -2.391  1.00  0.00     0.053 C 
BRANCH   6   7
ATOM      7  C   UNL     1      34.138 -40.862  -1.431  1.00  0.00     0.041 C 
ATOM      8  O   UNL     1      34.807 -39.827  -1.174  1.00  0.00    -0.550 OA
ATOM      9  O   UNL     1      34.447 -42.058  -0.796  1.00  0.00    -0.550 OA
ENDBRANCH   6   7
ENDBRANCH   5   6
ENDBRANCH   4   5
ENDBRANCH   3   4
ENDBRANCH   2   3
ENDBRANCH   1   2
BRANCH   1  10
ATOM     10  C   UNL     1      37.201 -39.584  -3.946  1.00  0.00     0.027 C 
BRANCH  10  11
ATOM     11  C   UNL     1      37.729 -38.375  -3.223  1.00  0.00    -0.031 C 
ATOM     12  C   UNL     1      39.029 -38.050  -3.289  1.00  0.00    -0.031 C 
BRANCH  12  13
ATOM     13  C   UNL     1      39.573 -36.831  -2.595  1.00  0.00     0.027 C 
BRANCH  13  14
ATOM     14  C   UNL     1      38.441 -35.969  -2.017  1.00  0.00     0.004 C 
BRANCH  14  15
ATOM     15  C   UNL     1      38.507 -35.875  -0.478  1.00  0.00     0.000 C 
BRANCH  15  16
ATOM     16  C   UNL     1      37.770 -37.019   0.245  1.00  0.00    -0.000 C 
BRANCH  16  17
ATOM     17  C   UNL     1      38.688 -38.043   0.932  1.00  0.00    -0.003 C 
ATOM     18  C   UNL     1      39.675 -37.396   1.905  1.00  0.00     0.004 C 
ENDBRANCH  16  17
ENDBRANCH  15  16
ENDBRANCH  14  15
ENDBRANCH  13  14
ENDBRANCH  12  13
ENDBRANCH  10  11
ENDBRANCH   1  10
TORSDOF 13
ENDMDL
MODEL 7
REMARK VINA RESULT:    -2.981      4.172      6.740
REMARK INTER + INTRA:          -7.001
REMARK INTER:                  -4.752
REMARK INTRA:                  -2.248
REMARK UNBOUND:                -1.753
REMARK SMILES CCCCCCC=CCCCCCCCC(=O)[O-]
REMARK SMILES IDX 10 1 11 2 12 3 13 4 14 5 15 6 16 7 17 8 18 9 9 10 8 11 7 12
REMARK SMILES IDX 6 13 5 14 4 15 3 16 2 17 1 18
REMARK H PARENT
REMARK Flexibility Score: inf
ROOT
ATOM      1  C   UNL     1      36.284 -40.184   7.722  1.00  0.00     0.004 C 
ENDROOT
BRANCH   1   2
ATOM      2  C   UNL     1      36.928 -38.850   7.303  1.00  0.00     0.000 C 
BRANCH   2   3
ATOM      3  C   UNL     1      36.379 -38.289   5.972  1.00  0.00     0.000 C 
BRANCH   3   4
ATOM      4  C   UNL     1      35.740 -36.893   6.105  1.00  0.00     0.000 C 
BRANCH   4   5
ATOM      5  C   UNL     1      35.548 -36.141   4.774  1.00  0.00     0.006 C 
BRANCH   5   6
ATOM      6  C   UNL     1      34.866 -36.969   3.673  1.00  0.00     0.053 C 
BRANCH   6   7
ATOM      7  C   UNL     1      35.585 -36.860   2.364  1.00  0.00     0.041 C 
ATOM      8  O   UNL     1      36.367 -35.897   2.149  1.00  0.00    -0.550 OA
ATOM      9  O   UNL     1      35.416 -37.839   1.394  1.00  0.00    -0.550 OA
ENDBRANCH   6   7
ENDBRANCH   5   6
ENDBRANCH   4   5
ENDBRANCH   3   4
ENDBRANCH   2   3
ENDBRANCH   1   2
BRANCH   1  10
ATOM     10  C   UNL     1      35.417 -40.044   8.981  1.00  0.00     0.027 C 
BRANCH  10  11
ATOM     11  C   UNL     1      35.146 -38.598   9.294  1.00  0.00    -0.031 C 
ATOM     12  C   UNL     1      33.889 -38.152   9.436  1.00  0.00    -0.031 C 
BRANCH  12  13
ATOM     13  C   UNL     1      33.596 -36.716   9.775  1.00  0.00     0.027 C 
BRANCH  13  14
ATOM     14  C   UNL     1      33.227 -35.913   8.519  1.00  0.00     0.004 C 
BRANCH  14  15
ATOM     15  C   UNL     1      31.998 -36.498   7.792  1.00  0.00     0.000 C 
BRANCH  15  16
ATOM     16  C   UNL     1      32.131 -36.505   6.257  1.00  0.00    -0.000 C 
BRANCH  16  17
ATOM     17  C   UNL     1      31.788 -37.846   5.588  1.00  0.00    -0.003 C 
ATOM     18  C   UNL     1      32.661 -38.998   6.085  1.00  0.00     0.004 C 
ENDBRANCH  16  17
ENDBRANCH  15  16
ENDBRANCH  14  15
ENDBRANCH  13  14
ENDBRANCH  12  13
ENDBRANCH  10  11
ENDBRANCH   1  10
TORSDOF 13
ENDMDL
MODEL 8
REMARK VINA RESULT:    -2.967      1.709      3.162
REMARK INTER + INTRA:          -6.975
REMARK INTER:                  -5.476
REMARK INTRA:                  -1.499
REMARK UNBOUND:                -1.753
REMARK SMILES CCCCCCC=CCCCCCCCC(=O)[O-]
REMARK SMILES IDX 10 1 11 2 12 3 13 4 14 5 15 6 16 7 17 8 18 9 9 10 8 11 7 12
REMARK SMILES IDX 6 13 5 14 4 15 3 16 2 17 1 18
REMARK H PARENT
REMARK Flexibility Score: inf
ROOT
ATOM      1  C   UNL     1      33.641 -36.625  10.029  1.00  0.00     0.004 C 
ENDROOT
BRANCH   1   2
ATOM      2  C   UNL     1      34.373 -37.703  10.846  1.00  0.00     0.000 C 
BRANCH   2   3
ATOM      3  C   UNL     1      33.773 -37.928  12.252  1.00  0.00     0.000 C 
BRANCH   3   4
ATOM      4  C   UNL     1      34.766 -37.660  13.399  1.00  0.00     0.000 C 
BRANCH   4   5
ATOM      5  C   UNL     1      34.779 -38.732  14.507  1.00  0.00     0.006 C 
BRANCH   5   6
ATOM      6  C   UNL     1      35.840 -39.827  14.314  1.00  0.00     0.053 C 
BRANCH   6   7
ATOM      7  C   UNL     1      35.222 -41.180  14.138  1.00  0.00     0.041 C 
ATOM      8  O   UNL     1      35.718 -42.183  14.715  1.00  0.00    -0.550 OA
ATOM      9  O   UNL     1      34.080 -41.327  13.362  1.00  0.00    -0.550 OA
ENDBRANCH   6   7
ENDBRANCH   5   6
ENDBRANCH   4   5
ENDBRANCH   3   4
ENDBRANCH   2   3
ENDBRANCH   1   2
BRANCH   1  10
ATOM     10  C   UNL     1      32.115 -36.717  10.174  1.00  0.00     0.027 C 
BRANCH  10  11
ATOM     11  C   UNL     1      31.454 -36.894   8.834  1.00  0.00    -0.031 C 
ATOM     12  C   UNL     1      31.827 -37.887   8.012  1.00  0.00    -0.031 C 
BRANCH  12  13
ATOM     13  C   UNL     1      31.162 -38.099   6.680  1.00  0.00     0.027 C 
BRANCH  13  14
ATOM     14  C   UNL     1      31.512 -36.970   5.698  1.00  0.00     0.004 C 
BRANCH  14  15
ATOM     15  C   UNL     1      33.000 -36.993   5.289  1.00  0.00     0.000 C 
BRANCH  15  16
ATOM     16  C   UNL     1      33.838 -35.875   5.937  1.00  0.00    -0.000 C 
BRANCH  16  17
ATOM     17  C   UNL     1      35.201 -36.329   6.485  1.00  0.00    -0.003 C 
ATOM     18  C   UNL     1      35.235 -37.817   6.833  1.00  0.00     0.004 C 
ENDBRANCH  16  17
ENDBRANCH  15  16
ENDBRANCH  14  15
ENDBRANCH  13  14
ENDBRANCH  12  13
ENDBRANCH  10  11
ENDBRANCH   1  10
TORSDOF 13
ENDMDL
MODEL 9
REMARK VINA RESULT:    -2.952      2.712      5.301
REMARK INTER + INTRA:          -6.949
REMARK INTER:                  -4.799
REMARK INTRA:                  -2.150
REMARK UNBOUND:                -1.753
REMARK SMILES CCCCCCC=CCCCCCCCC(=O)[O-]
REMARK SMILES IDX 10 1 11 2 12 3 13 4 14 5 15 6 16 7 17 8 18 9 9 10 8 11 7 12
REMARK SMILES IDX 6 13 5 14 4 15 3 16 2 17 1 18
REMARK H PARENT
REMARK Flexibility Score: inf
ROOT
ATOM      1  C   UNL     1      32.030 -37.378   4.390  1.00  0.00     0.004 C 
ENDROOT
BRANCH   1   2
ATOM      2  C   UNL     1      33.028 -37.358   3.219  1.00  0.00     0.000 C 
BRANCH   2   3
ATOM      3  C   UNL     1      34.495 -37.581   3.652  1.00  0.00     0.000 C 
BRANCH   3   4
ATOM      4  C   UNL     1      35.129 -36.360   4.345  1.00  0.00     0.000 C 
BRANCH   4   5
ATOM      5  C   UNL     1      35.497 -36.576   5.826  1.00  0.00     0.006 C 
BRANCH   5   6
ATOM      6  C   UNL     1      35.697 -38.049   6.218  1.00  0.00     0.053 C 
BRANCH   6   7
ATOM      7  C   UNL     1      37.147 -38.396   6.368  1.00  0.00     0.041 C 
ATOM      8  O   UNL     1      37.954 -38.166   5.430  1.00  0.00    -0.550 OA
ATOM      9  O   UNL     1      37.611 -38.943   7.557  1.00  0.00    -0.550 OA
ENDBRANCH   6   7
ENDBRANCH   5   6
ENDBRANCH   4   5
ENDBRANCH   3   4
ENDBRANCH   2   3
ENDBRANCH   1   2
BRANCH   1  10
ATOM     10  C   UNL     1      32.075 -38.698   5.174  1.00  0.00     0.027 C 
BRANCH  10  11
ATOM     11  C   UNL     1      32.108 -38.446   6.656  1.00  0.00    -0.031 C 
ATOM     12  C   UNL     1      32.015 -37.199   7.142  1.00  0.00    -0.031 C 
BRANCH  12  13
ATOM     13  C   UNL     1      32.018 -36.926   8.621  1.00  0.00     0.027 C 
BRANCH  13  14
ATOM     14  C   UNL     1      33.309 -36.213   9.052  1.00  0.00     0.004 C 
BRANCH  14  15
ATOM     15  C   UNL     1      34.069 -36.992  10.146  1.00  0.00     0.000 C 
BRANCH  15  16
ATOM     16  C   UNL     1      34.773 -38.261   9.629  1.00  0.00    -0.000 C 
BRANCH  16  17
ATOM     17  C   UNL     1      34.516 -39.525  10.465  1.00  0.00    -0.003 C 
ATOM     18  C   UNL     1      34.345 -39.227  11.955  1.00  0.00     0.004 C 
ENDBRANCH  16  17
ENDBRANCH  15  16
ENDBRANCH  14  15
ENDBRANCH  13  14
ENDBRANCH  12  13
ENDBRANCH  10  11
ENDBRANCH   1  10
TORSDOF 13
ENDMDL
