MODEL 1
REMARK VINA RESULT:    -5.512      0.000      0.000
REMARK INTER + INTRA:          -5.834
REMARK INTER:                  -5.834
REMARK INTRA:                   0.000
REMARK UNBOUND:                 0.000
REMARK SMILES Cc1cc(O)c(C)c(C)c1O
REMARK SMILES IDX 1 1 2 2 3 3 4 4 6 5 8 6 10 7 9 8 7 9 11 10 5 12
REMARK H PARENT 11 11 5 13
REMARK Flexibility Score: inf
ROOT
ATOM      1  C   UNL     1       2.253   4.370 -29.859  1.00  0.00     0.048 C 
ATOM      2  C   UNL     1       3.611   4.578 -30.471  1.00  0.00    -0.005 A 
ATOM      3  C   UNL     1       4.372   5.695 -30.117  1.00  0.00     0.053 A 
ATOM      4  C   UNL     1       5.618   5.927 -30.698  1.00  0.00     0.119 A 
ATOM      5  C   UNL     1       6.125   5.034 -31.673  1.00  0.00    -0.003 A 
ATOM      6  C   UNL     1       5.414   3.830 -31.945  1.00  0.00    -0.002 A 
ATOM      7  C   UNL     1       4.121   3.647 -31.391  1.00  0.00     0.121 A 
ATOM      8  C   UNL     1       6.012   2.755 -32.826  1.00  0.00     0.049 C 
ATOM      9  C   UNL     1       7.413   5.363 -32.393  1.00  0.00     0.049 C 
ENDROOT
BRANCH   7  10
ATOM     10  O   UNL     1       3.317   2.558 -31.745  1.00  0.00    -0.507 OA
ATOM     11  H   UNL     1       2.374   2.647 -32.103  1.00  0.00     0.293 HD
ENDBRANCH   7  10
BRANCH   4  12
ATOM     12  O   UNL     1       6.330   7.051 -30.270  1.00  0.00    -0.508 OA
ATOM     13  H   UNL     1       5.892   7.919 -29.992  1.00  0.00     0.293 HD
ENDBRANCH   4  12
TORSDOF 2
ENDMDL
MODEL 2
REMARK VINA RESULT:    -5.356      0.966      3.193
REMARK INTER + INTRA:          -5.669
REMARK INTER:                  -5.669
REMARK INTRA:                   0.000
REMARK UNBOUND:                 0.000
REMARK SMILES Cc1cc(O)c(C)c(C)c1O
REMARK SMILES IDX 1 1 2 2 3 3 4 4 6 5 8 6 10 7 9 8 7 9 11 10 5 12
REMARK H PARENT 11 11 5 13
REMARK Flexibility Score: inf
ROOT
ATOM      1  C   UNL     1       2.250   5.732 -29.021  1.00  0.00     0.048 C 
ATOM      2  C   UNL     1       3.182   5.112 -30.025  1.00  0.00    -0.005 A 
ATOM      3  C   UNL     1       2.839   3.906 -30.643  1.00  0.00     0.053 A 
ATOM      4  C   UNL     1       3.703   3.295 -31.550  1.00  0.00     0.119 A 
ATOM      5  C   UNL     1       4.955   3.885 -31.847  1.00  0.00    -0.003 A 
ATOM      6  C   UNL     1       5.256   5.173 -31.320  1.00  0.00    -0.002 A 
ATOM      7  C   UNL     1       4.392   5.745 -30.351  1.00  0.00     0.121 A 
ATOM      8  C   UNL     1       6.488   5.929 -31.766  1.00  0.00     0.049 C 
ATOM      9  C   UNL     1       5.939   3.150 -32.729  1.00  0.00     0.049 C 
ENDROOT
BRANCH   7  10
ATOM     10  O   UNL     1       4.715   6.934 -29.687  1.00  0.00    -0.507 OA
ATOM     11  H   UNL     1       4.981   7.788 -30.160  1.00  0.00     0.293 HD
ENDBRANCH   7  10
BRANCH   4  12
ATOM     12  O   UNL     1       3.275   2.105 -32.148  1.00  0.00    -0.508 OA
ATOM     13  H   UNL     1       2.302   1.878 -32.309  1.00  0.00     0.293 HD
ENDBRANCH   4  12
TORSDOF 2
ENDMDL
MODEL 3
REMARK VINA RESULT:    -5.129      0.602      4.364
REMARK INTER + INTRA:          -5.429
REMARK INTER:                  -5.429
REMARK INTRA:                   0.000
REMARK UNBOUND:                 0.000
REMARK SMILES Cc1cc(O)c(C)c(C)c1O
REMARK SMILES IDX 1 1 2 2 3 3 4 4 6 5 8 6 10 7 9 8 7 9 11 10 5 12
REMARK H PARENT 11 11 5 13
REMARK Flexibility Score: inf
ROOT
ATOM      1  C   UNL     1       7.502   4.716 -32.748  1.00  0.00     0.048 C 
ATOM      2  C   UNL     1       6.185   4.625 -32.028  1.00  0.00    -0.005 A 
ATOM      3  C   UNL     1       5.361   3.512 -32.217  1.00  0.00     0.053 A 
ATOM      4  C   UNL     1       4.121   3.423 -31.588  1.00  0.00     0.119 A 
ATOM      5  C   UNL     1       3.670   4.474 -30.754  1.00  0.00    -0.003 A 
ATOM      6  C   UNL     1       4.554   5.550 -30.457  1.00  0.00    -0.002 A 
ATOM      7  C   UNL     1       5.784   5.651 -31.157  1.00  0.00     0.121 A 
ATOM      8  C   UNL     1       4.195   6.589 -29.418  1.00  0.00     0.049 C 
ATOM      9  C   UNL     1       2.271   4.430 -30.182  1.00  0.00     0.049 C 
ENDROOT
BRANCH   7  10
ATOM     10  O   UNL     1       6.620   6.765 -31.018  1.00  0.00    -0.507 OA
ATOM     11  H   UNL     1       7.512   6.742 -30.541  1.00  0.00     0.293 HD
ENDBRANCH   7  10
BRANCH   4  12
ATOM     12  O   UNL     1       3.369   2.264 -31.806  1.00  0.00    -0.508 OA
ATOM     13  H   UNL     1       3.515   1.399 -31.303  1.00  0.00     0.293 HD
ENDBRANCH   4  12
TORSDOF 2
ENDMDL
MODEL 4
REMARK VINA RESULT:    -5.097      2.236      2.967
REMARK INTER + INTRA:          -5.395
REMARK INTER:                  -5.395
REMARK INTRA:                   0.000
REMARK UNBOUND:                 0.000
REMARK SMILES Cc1cc(O)c(C)c(C)c1O
REMARK SMILES IDX 1 1 2 2 3 3 4 4 6 5 8 6 10 7 9 8 7 9 11 10 5 12
REMARK H PARENT 11 11 5 13
REMARK Flexibility Score: inf
ROOT
ATOM      1  C   UNL     1       2.333   5.238 -29.154  1.00  0.00     0.048 C 
ATOM      2  C   UNL     1       2.939   4.697 -30.420  1.00  0.00    -0.005 A 
ATOM      3  C   UNL     1       4.179   4.053 -30.379  1.00  0.00     0.053 A 
ATOM      4  C   UNL     1       4.777   3.575 -31.544  1.00  0.00     0.119 A 
ATOM      5  C   UNL     1       4.137   3.752 -32.795  1.00  0.00    -0.003 A 
ATOM      6  C   UNL     1       2.820   4.292 -32.829  1.00  0.00    -0.002 A 
ATOM      7  C   UNL     1       2.259   4.829 -31.641  1.00  0.00     0.121 A 
ATOM      8  C   UNL     1       2.020   4.315 -34.113  1.00  0.00     0.049 C 
ATOM      9  C   UNL     1       4.851   3.350 -34.065  1.00  0.00     0.049 C 
ENDROOT
BRANCH   7  10
ATOM     10  O   UNL     1       1.035   5.508 -31.647  1.00  0.00    -0.507 OA
ATOM     11  H   UNL     1       0.461   5.625 -32.472  1.00  0.00     0.293 HD
ENDBRANCH   7  10
BRANCH   4  12
ATOM     12  O   UNL     1       6.003   2.917 -31.416  1.00  0.00    -0.508 OA
ATOM     13  H   UNL     1       6.211   2.258 -30.678  1.00  0.00     0.293 HD
ENDBRANCH   4  12
TORSDOF 2
ENDMDL
MODEL 5
REMARK VINA RESULT:    -4.937      1.286      3.231
REMARK INTER + INTRA:          -5.225
REMARK INTER:                  -5.225
REMARK INTRA:                   0.000
REMARK UNBOUND:                 0.000
REMARK SMILES Cc1cc(O)c(C)c(C)c1O
REMARK SMILES IDX 1 1 2 2 3 3 4 4 6 5 8 6 10 7 9 8 7 9 11 10 5 12
REMARK H PARENT 11 11 5 13
REMARK Flexibility Score: inf
ROOT
ATOM      1  C   UNL     1       7.829   5.166 -32.296  1.00  0.00     0.048 C 
ATOM      2  C   UNL     1       6.431   5.099 -31.745  1.00  0.00    -0.005 A 
ATOM      3  C   UNL     1       5.913   6.178 -31.024  1.00  0.00     0.053 A 
ATOM      4  C   UNL     1       4.634   6.125 -30.473  1.00  0.00     0.119 A 
ATOM      5  C   UNL     1       3.842   4.961 -30.627  1.00  0.00    -0.003 A 
ATOM      6  C   UNL     1       4.312   3.910 -31.465  1.00  0.00    -0.002 A 
ATOM      7  C   UNL     1       5.640   3.959 -31.962  1.00  0.00     0.121 A 
ATOM      8  C   UNL     1       3.421   2.740 -31.821  1.00  0.00     0.049 C 
ATOM      9  C   UNL     1       2.511   4.861 -29.917  1.00  0.00     0.049 C 
ENDROOT
BRANCH   7  10
ATOM     10  O   UNL     1       6.204   2.886 -32.661  1.00  0.00    -0.507 OA
ATOM     11  H   UNL     1       6.191   2.803 -33.670  1.00  0.00     0.293 HD
ENDBRANCH   7  10
BRANCH   4  12
ATOM     12  O   UNL     1       4.177   7.256 -29.790  1.00  0.00    -0.508 OA
ATOM     13  H   UNL     1       3.356   7.781 -30.061  1.00  0.00     0.293 HD
ENDBRANCH   4  12
TORSDOF 2
ENDMDL
MODEL 6
REMARK VINA RESULT:    -4.765      1.068      3.004
REMARK INTER + INTRA:          -5.043
REMARK INTER:                  -5.043
REMARK INTRA:                   0.000
REMARK UNBOUND:                 0.000
REMARK SMILES Cc1cc(O)c(C)c(C)c1O
REMARK SMILES IDX 1 1 2 2 3 3 4 4 6 5 8 6 10 7 9 8 7 9 11 10 5 12
REMARK H PARENT 11 11 5 13
REMARK Flexibility Score: inf
ROOT
ATOM      1  C   UNL     1       4.991   3.192 -34.173  1.00  0.00     0.048 C 
ATOM      2  C   UNL     1       4.772   4.009 -32.930  1.00  0.00    -0.005 A 
ATOM      3  C   UNL     1       5.575   5.125 -32.679  1.00  0.00     0.053 A 
ATOM      4  C   UNL     1       5.414   5.877 -31.516  1.00  0.00     0.119 A 
ATOM      5  C   UNL     1       4.437   5.506 -30.560  1.00  0.00    -0.003 A 
ATOM      6  C   UNL     1       3.534   4.449 -30.867  1.00  0.00    -0.002 A 
ATOM      7  C   UNL     1       3.757   3.660 -32.024  1.00  0.00     0.121 A 
ATOM      8  C   UNL     1       2.353   4.149 -29.971  1.00  0.00     0.049 C 
ATOM      9  C   UNL     1       4.359   6.246 -29.243  1.00  0.00     0.049 C 
ENDROOT
BRANCH   7  10
ATOM     10  O   UNL     1       2.995   2.517 -32.294  1.00  0.00    -0.507 OA
ATOM     11  H   UNL     1       3.394   1.603 -32.466  1.00  0.00     0.293 HD
ENDBRANCH   7  10
BRANCH   4  12
ATOM     12  O   UNL     1       6.236   6.996 -31.351  1.00  0.00    -0.508 OA
ATOM     13  H   UNL     1       6.243   7.784 -31.985  1.00  0.00     0.293 HD
ENDBRANCH   4  12
TORSDOF 2
ENDMDL
MODEL 7
REMARK VINA RESULT:    -4.562      2.150      3.784
REMARK INTER + INTRA:          -4.828
REMARK INTER:                  -4.828
REMARK INTRA:                   0.000
REMARK UNBOUND:                 0.000
REMARK SMILES Cc1cc(O)c(C)c(C)c1O
REMARK SMILES IDX 1 1 2 2 3 3 4 4 6 5 8 6 10 7 9 8 7 9 11 10 5 12
REMARK H PARENT 11 11 5 13
REMARK Flexibility Score: inf
ROOT
ATOM      1  C   UNL     1       5.977   3.227 -31.887  1.00  0.00     0.048 C 
ATOM      2  C   UNL     1       4.638   3.853 -31.612  1.00  0.00    -0.005 A 
ATOM      3  C   UNL     1       4.324   4.290 -30.322  1.00  0.00     0.053 A 
ATOM      4  C   UNL     1       3.076   4.841 -30.035  1.00  0.00     0.119 A 
ATOM      5  C   UNL     1       2.098   4.952 -31.053  1.00  0.00    -0.003 A 
ATOM      6  C   UNL     1       2.454   4.627 -32.393  1.00  0.00    -0.002 A 
ATOM      7  C   UNL     1       3.705   4.010 -32.649  1.00  0.00     0.121 A 
ATOM      8  C   UNL     1       1.512   4.918 -33.541  1.00  0.00     0.049 C 
ATOM      9  C   UNL     1       0.705   5.427 -30.706  1.00  0.00     0.049 C 
ENDROOT
BRANCH   7  10
ATOM     10  O   UNL     1       4.043   3.532 -33.920  1.00  0.00    -0.507 OA
ATOM     11  H   UNL     1       4.991   3.491 -34.272  1.00  0.00     0.293 HD
ENDBRANCH   7  10
BRANCH   4  12
ATOM     12  O   UNL     1       2.849   5.280 -28.728  1.00  0.00    -0.508 OA
ATOM     13  H   UNL     1       2.510   6.205 -28.498  1.00  0.00     0.293 HD
ENDBRANCH   4  12
TORSDOF 2
ENDMDL
MODEL 8
REMARK VINA RESULT:    -4.426      1.806      3.832
REMARK INTER + INTRA:          -4.684
REMARK INTER:                  -4.684
REMARK INTRA:                   0.000
REMARK UNBOUND:                 0.000
REMARK SMILES Cc1cc(O)c(C)c(C)c1O
REMARK SMILES IDX 1 1 2 2 3 3 4 4 6 5 8 6 10 7 9 8 7 9 11 10 5 12
REMARK H PARENT 11 11 5 13
REMARK Flexibility Score: inf
ROOT
ATOM      1  C   UNL     1       4.689   3.232 -34.673  1.00  0.00     0.048 C 
ATOM      2  C   UNL     1       4.544   3.840 -33.305  1.00  0.00    -0.005 A 
ATOM      3  C   UNL     1       3.596   3.333 -32.413  1.00  0.00     0.053 A 
ATOM      4  C   UNL     1       3.419   3.904 -31.153  1.00  0.00     0.119 A 
ATOM      5  C   UNL     1       4.195   5.023 -30.766  1.00  0.00    -0.003 A 
ATOM      6  C   UNL     1       5.247   5.464 -31.617  1.00  0.00    -0.002 A 
ATOM      7  C   UNL     1       5.366   4.911 -32.918  1.00  0.00     0.121 A 
ATOM      8  C   UNL     1       6.227   6.522 -31.160  1.00  0.00     0.049 C 
ATOM      9  C   UNL     1       3.906   5.716 -29.453  1.00  0.00     0.049 C 
ENDROOT
BRANCH   7  10
ATOM     10  O   UNL     1       6.282   5.412 -33.850  1.00  0.00    -0.507 OA
ATOM     11  H   UNL     1       6.027   5.715 -34.782  1.00  0.00     0.293 HD
ENDBRANCH   7  10
BRANCH   4  12
ATOM     12  O   UNL     1       2.470   3.321 -30.308  1.00  0.00    -0.508 OA
ATOM     13  H   UNL     1       1.637   3.796 -29.989  1.00  0.00     0.293 HD
ENDBRANCH   4  12
TORSDOF 2
ENDMDL
MODEL 9
REMARK VINA RESULT:    -4.382      2.404      3.526
REMARK INTER + INTRA:          -4.638
REMARK INTER:                  -4.638
REMARK INTRA:                   0.000
REMARK UNBOUND:                 0.000
REMARK SMILES Cc1cc(O)c(C)c(C)c1O
REMARK SMILES IDX 1 1 2 2 3 3 4 4 6 5 8 6 10 7 9 8 7 9 11 10 5 12
REMARK H PARENT 11 11 5 13
REMARK Flexibility Score: inf
ROOT
ATOM      1  C   UNL     1       1.785   4.339 -34.535  1.00  0.00     0.048 C 
ATOM      2  C   UNL     1       2.283   4.546 -33.131  1.00  0.00    -0.005 A 
ATOM      3  C   UNL     1       1.458   5.153 -32.180  1.00  0.00     0.053 A 
ATOM      4  C   UNL     1       1.911   5.387 -30.883  1.00  0.00     0.119 A 
ATOM      5  C   UNL     1       3.228   5.022 -30.514  1.00  0.00    -0.003 A 
ATOM      6  C   UNL     1       4.028   4.291 -31.437  1.00  0.00    -0.002 A 
ATOM      7  C   UNL     1       3.571   4.121 -32.769  1.00  0.00     0.121 A 
ATOM      8  C   UNL     1       5.360   3.706 -31.020  1.00  0.00     0.049 C 
ATOM      9  C   UNL     1       3.755   5.398 -29.147  1.00  0.00     0.049 C 
ENDROOT
BRANCH   7  10
ATOM     10  O   UNL     1       4.380   3.545 -33.756  1.00  0.00    -0.507 OA
ATOM     11  H   UNL     1       4.019   3.031 -34.550  1.00  0.00     0.293 HD
ENDBRANCH   7  10
BRANCH   4  12
ATOM     12  O   UNL     1       1.016   5.973 -29.983  1.00  0.00    -0.508 OA
ATOM     13  H   UNL     1       0.562   6.863 -30.144  1.00  0.00     0.293 HD
ENDBRANCH   4  12
TORSDOF 2
ENDMDL
