MODEL 1
REMARK VINA RESULT:    -1.056      0.000      0.000
REMARK INTER + INTRA:          -2.807
REMARK INTER:                  -1.427
REMARK INTRA:                  -1.381
REMARK UNBOUND:                -1.381
REMARK SMILES O=c1c(-c2ccc(O)cc2)coc2c([C@@H]3O[C@H](CO)[C@@H](O)[C@@H](O)[C@H]3O)c(O)ccc12
REMARK SMILES IDX 3 1 11 2 12 3 13 4 30 5 2 6 1 7 29 8 28 9 26 10 14 11 4 12
REMARK SMILES IDX 5 13 6 14 7 15 10 16 9 17 8 18 15 20 24 21 16 22 22 23 17 24
REMARK SMILES IDX 20 25 25 26 23 28 18 30 19 31 21 33 27 35
REMARK H PARENT 8 19 25 27 23 29 19 32 21 34 27 36
REMARK Flexibility Score: inf
ROOT
ATOM      1  C   UNL     1     192.221 195.149 181.223  1.00  0.00     0.065 A 
ATOM      2  C   UNL     1     192.459 194.902 182.582  1.00  0.00     0.208 A 
ATOM      3  O   UNL     1     193.685 194.997 183.087  1.00  0.00    -0.463 OA
ATOM      4  C   UNL     1     194.754 195.333 182.365  1.00  0.00     0.147 A 
ATOM      5  C   UNL     1     194.597 195.618 180.988  1.00  0.00     0.066 A 
ATOM      6  C   UNL     1     193.312 195.523 180.417  1.00  0.00     0.200 A 
ATOM      7  O   UNL     1     193.132 195.799 179.198  1.00  0.00    -0.288 OA
ATOM      8  C   UNL     1     195.715 195.997 180.231  1.00  0.00     0.020 A 
ATOM      9  C   UNL     1     196.965 196.125 180.836  1.00  0.00     0.047 A 
ATOM     10  C   UNL     1     197.127 195.875 182.205  1.00  0.00     0.125 A 
ATOM     11  C   UNL     1     196.032 195.416 182.983  1.00  0.00     0.069 A 
ENDROOT
BRANCH   1  12
ATOM     12  C   UNL     1     190.847 195.014 180.680  1.00  0.00    -0.011 A 
ATOM     13  C   UNL     1     190.379 193.774 180.207  1.00  0.00     0.013 A 
ATOM     14  C   UNL     1     189.073 193.645 179.729  1.00  0.00     0.047 A 
ATOM     15  C   UNL     1     188.213 194.750 179.719  1.00  0.00     0.115 A 
ATOM     16  C   UNL     1     189.981 196.125 180.660  1.00  0.00     0.013 A 
ATOM     17  C   UNL     1     188.673 195.991 180.184  1.00  0.00     0.047 A 
BRANCH  15  18
ATOM     18  O   UNL     1     186.906 194.601 179.257  1.00  0.00    -0.508 OA
ATOM     19  H   UNL     1     186.657 193.875 178.595  1.00  0.00     0.293 HD
ENDBRANCH  15  18
ENDBRANCH   1  12
BRANCH  11  20
ATOM     20  C   UNL     1     196.147 195.144 184.484  1.00  0.00     0.188 C 
ATOM     21  C   UNL     1     196.610 193.719 184.856  1.00  0.00     0.179 C 
ATOM     22  O   UNL     1     196.992 196.125 185.063  1.00  0.00    -0.362 OA
ATOM     23  C   UNL     1     196.383 193.478 186.364  1.00  0.00     0.177 C 
ATOM     24  C   UNL     1     197.267 195.942 186.454  1.00  0.00     0.176 C 
ATOM     25  C   UNL     1     196.481 194.798 187.192  1.00  0.00     0.177 C 
BRANCH  21  26
ATOM     26  O   UNL     1     195.925 192.763 184.084  1.00  0.00    -0.387 OA
ATOM     27  H   UNL     1     196.603 192.111 183.771  1.00  0.00     0.211 HD
ENDBRANCH  21  26
BRANCH  23  28
ATOM     28  O   UNL     1     195.137 192.849 186.567  1.00  0.00    -0.387 OA
ATOM     29  H   UNL     1     194.434 193.525 186.383  1.00  0.00     0.211 HD
ENDBRANCH  23  28
BRANCH  24  30
ATOM     30  C   UNL     1     198.784 195.786 186.635  1.00  0.00     0.191 C 
BRANCH  30  31
ATOM     31  O   UNL     1     199.439 196.057 185.427  1.00  0.00    -0.394 OA
ATOM     32  H   UNL     1     198.736 196.091 184.726  1.00  0.00     0.210 HD
ENDBRANCH  30  31
ENDBRANCH  24  30
BRANCH  25  33
ATOM     33  O   UNL     1     195.203 195.229 187.617  1.00  0.00    -0.388 OA
ATOM     34  H   UNL     1     194.725 195.653 186.861  1.00  0.00     0.211 HD
ENDBRANCH  25  33
ENDBRANCH  11  20
BRANCH  10  35
ATOM     35  O   UNL     1     198.380 196.098 182.780  1.00  0.00    -0.507 OA
ATOM     36  H   UNL     1     199.020 195.336 182.979  1.00  0.00     0.293 HD
ENDBRANCH  10  35
TORSDOF 9
ENDMDL
MODEL 2
REMARK VINA RESULT:    -1.044      2.001      2.443
REMARK INTER + INTRA:          -2.791
REMARK INTER:                  -1.379
REMARK INTRA:                  -1.412
REMARK UNBOUND:                -1.381
REMARK SMILES O=c1c(-c2ccc(O)cc2)coc2c([C@@H]3O[C@H](CO)[C@@H](O)[C@@H](O)[C@H]3O)c(O)ccc12
REMARK SMILES IDX 3 1 11 2 12 3 13 4 30 5 2 6 1 7 29 8 28 9 26 10 14 11 4 12
REMARK SMILES IDX 5 13 6 14 7 15 10 16 9 17 8 18 15 20 24 21 16 22 22 23 17 24
REMARK SMILES IDX 20 25 25 26 23 28 18 30 19 31 21 33 27 35
REMARK H PARENT 8 19 25 27 23 29 19 32 21 34 27 36
REMARK Flexibility Score: inf
ROOT
ATOM      1  C   UNL     1     191.481 195.130 178.861  1.00  0.00     0.065 A 
ATOM      2  C   UNL     1     191.468 194.759 180.213  1.00  0.00     0.208 A 
ATOM      3  O   UNL     1     192.579 194.803 180.941  1.00  0.00    -0.463 OA
ATOM      4  C   UNL     1     193.758 195.201 180.463  1.00  0.00     0.147 A 
ATOM      5  C   UNL     1     193.853 195.611 179.111  1.00  0.00     0.066 A 
ATOM      6  C   UNL     1     192.696 195.573 178.307  1.00  0.00     0.200 A 
ATOM      7  O   UNL     1     192.739 195.960 177.107  1.00  0.00    -0.288 OA
ATOM      8  C   UNL     1     195.085 196.054 178.610  1.00  0.00     0.020 A 
ATOM      9  C   UNL     1     196.201 196.121 179.445  1.00  0.00     0.047 A 
ATOM     10  C   UNL     1     196.113 195.746 180.792  1.00  0.00     0.125 A 
ATOM     11  C   UNL     1     194.900 195.222 181.310  1.00  0.00     0.069 A 
ENDROOT
BRANCH   1  12
ATOM     12  C   UNL     1     190.232 195.051 178.065  1.00  0.00    -0.011 A 
ATOM     13  C   UNL     1     189.925 193.895 177.322  1.00  0.00     0.013 A 
ATOM     14  C   UNL     1     188.731 193.812 176.601  1.00  0.00     0.047 A 
ATOM     15  C   UNL     1     187.824 194.879 176.614  1.00  0.00     0.115 A 
ATOM     16  C   UNL     1     189.320 196.125 178.067  1.00  0.00     0.013 A 
ATOM     17  C   UNL     1     188.124 196.036 177.347  1.00  0.00     0.047 A 
BRANCH  15  18
ATOM     18  O   UNL     1     186.628 194.773 175.906  1.00  0.00    -0.508 OA
ATOM     19  H   UNL     1     185.847 195.394 176.086  1.00  0.00     0.293 HD
ENDBRANCH  15  18
ENDBRANCH   1  12
BRANCH  11  20
ATOM     20  C   UNL     1     194.740 194.813 182.776  1.00  0.00     0.188 C 
ATOM     21  C   UNL     1     195.356 193.447 183.143  1.00  0.00     0.179 C 
ATOM     22  O   UNL     1     195.260 195.846 183.597  1.00  0.00    -0.362 OA
ATOM     23  C   UNL     1     194.861 193.014 184.541  1.00  0.00     0.177 C 
ATOM     24  C   UNL     1     195.262 195.562 184.998  1.00  0.00     0.176 C 
ATOM     25  C   UNL     1     194.550 194.238 185.458  1.00  0.00     0.177 C 
BRANCH  21  26
ATOM     26  O   UNL     1     195.027 192.483 182.172  1.00  0.00    -0.387 OA
ATOM     27  H   UNL     1     195.406 191.622 182.485  1.00  0.00     0.211 HD
ENDBRANCH  21  26
BRANCH  23  28
ATOM     28  O   UNL     1     193.730 192.181 184.412  1.00  0.00    -0.387 OA
ATOM     29  H   UNL     1     193.130 192.603 183.742  1.00  0.00     0.211 HD
ENDBRANCH  23  28
BRANCH  24  30
ATOM     30  C   UNL     1     196.710 195.624 185.506  1.00  0.00     0.191 C 
BRANCH  30  31
ATOM     31  O   UNL     1     197.569 195.977 184.457  1.00  0.00    -0.394 OA
ATOM     32  H   UNL     1     197.030 195.930 183.624  1.00  0.00     0.210 HD
ENDBRANCH  30  31
ENDBRANCH  24  30
BRANCH  25  33
ATOM     33  O   UNL     1     193.156 194.418 185.612  1.00  0.00    -0.388 OA
ATOM     34  H   UNL     1     192.981 195.244 186.129  1.00  0.00     0.211 HD
ENDBRANCH  25  33
ENDBRANCH  11  20
BRANCH  10  35
ATOM     35  O   UNL     1     197.235 195.911 181.606  1.00  0.00    -0.507 OA
ATOM     36  H   UNL     1     197.739 195.118 181.988  1.00  0.00     0.293 HD
ENDBRANCH  10  35
TORSDOF 9
ENDMDL
MODEL 3
REMARK VINA RESULT:    -0.976      2.641      4.388
REMARK INTER + INTRA:          -2.699
REMARK INTER:                  -1.332
REMARK INTRA:                  -1.367
REMARK UNBOUND:                -1.381
REMARK SMILES O=c1c(-c2ccc(O)cc2)coc2c([C@@H]3O[C@H](CO)[C@@H](O)[C@@H](O)[C@H]3O)c(O)ccc12
REMARK SMILES IDX 3 1 11 2 12 3 13 4 30 5 2 6 1 7 29 8 28 9 26 10 14 11 4 12
REMARK SMILES IDX 5 13 6 14 7 15 10 16 9 17 8 18 15 20 24 21 16 22 22 23 17 24
REMARK SMILES IDX 20 25 25 26 23 28 18 30 19 31 21 33 27 35
REMARK H PARENT 8 19 25 27 23 29 19 32 21 34 27 36
REMARK Flexibility Score: inf
ROOT
ATOM      1  C   UNL     1     189.199 195.123 178.200  1.00  0.00     0.065 A 
ATOM      2  C   UNL     1     189.477 194.904 179.557  1.00  0.00     0.208 A 
ATOM      3  O   UNL     1     190.719 194.995 180.021  1.00  0.00    -0.463 OA
ATOM      4  C   UNL     1     191.769 195.302 179.260  1.00  0.00     0.147 A 
ATOM      5  C   UNL     1     191.572 195.558 177.882  1.00  0.00     0.066 A 
ATOM      6  C   UNL     1     190.269 195.466 177.353  1.00  0.00     0.200 A 
ATOM      7  O   UNL     1     190.055 195.717 176.134  1.00  0.00    -0.288 OA
ATOM      8  C   UNL     1     192.670 195.907 177.082  1.00  0.00     0.020 A 
ATOM      9  C   UNL     1     193.940 196.033 177.645  1.00  0.00     0.047 A 
ATOM     10  C   UNL     1     194.142 195.811 179.014  1.00  0.00     0.125 A 
ATOM     11  C   UNL     1     193.067 195.384 179.836  1.00  0.00     0.069 A 
ENDROOT
BRANCH   1  12
ATOM     12  C   UNL     1     187.808 194.993 177.703  1.00  0.00    -0.011 A 
ATOM     13  C   UNL     1     186.979 196.124 177.582  1.00  0.00     0.013 A 
ATOM     14  C   UNL     1     185.680 196.001 177.081  1.00  0.00     0.047 A 
ATOM     15  C   UNL     1     185.192 194.748 176.690  1.00  0.00     0.115 A 
ATOM     16  C   UNL     1     187.308 193.734 177.316  1.00  0.00     0.013 A 
ATOM     17  C   UNL     1     186.009 193.615 176.812  1.00  0.00     0.047 A 
BRANCH  15  18
ATOM     18  O   UNL     1     183.901 194.644 176.174  1.00  0.00    -0.508 OA
ATOM     19  H   UNL     1     183.714 194.754 175.184  1.00  0.00     0.293 HD
ENDBRANCH  15  18
ENDBRANCH   1  12
BRANCH  11  20
ATOM     20  C   UNL     1     193.225 195.143 181.338  1.00  0.00     0.188 C 
ATOM     21  C   UNL     1     193.680 193.721 181.728  1.00  0.00     0.179 C 
ATOM     22  O   UNL     1     194.101 196.125 181.867  1.00  0.00    -0.362 OA
ATOM     23  C   UNL     1     193.497 193.517 183.248  1.00  0.00     0.177 C 
ATOM     24  C   UNL     1     194.417 195.970 183.254  1.00  0.00     0.176 C 
ATOM     25  C   UNL     1     193.639 194.854 184.041  1.00  0.00     0.177 C 
BRANCH  21  26
ATOM     26  O   UNL     1     192.958 192.758 181.000  1.00  0.00    -0.387 OA
ATOM     27  H   UNL     1     193.110 192.952 180.040  1.00  0.00     0.211 HD
ENDBRANCH  21  26
BRANCH  23  28
ATOM     28  O   UNL     1     192.250 192.910 183.504  1.00  0.00    -0.387 OA
ATOM     29  H   UNL     1     192.225 192.062 182.986  1.00  0.00     0.211 HD
ENDBRANCH  23  28
BRANCH  24  30
ATOM     30  C   UNL     1     195.936 195.796 183.390  1.00  0.00     0.191 C 
BRANCH  30  31
ATOM     31  O   UNL     1     196.548 195.940 182.138  1.00  0.00    -0.394 OA
ATOM     32  H   UNL     1     197.319 195.314 182.127  1.00  0.00     0.210 HD
ENDBRANCH  30  31
ENDBRANCH  24  30
BRANCH  25  33
ATOM     33  O   UNL     1     192.381 195.313 184.496  1.00  0.00    -0.388 OA
ATOM     34  H   UNL     1     192.003 194.664 185.141  1.00  0.00     0.211 HD
ENDBRANCH  25  33
ENDBRANCH  11  20
BRANCH  10  35
ATOM     35  O   UNL     1     195.414 196.032 179.545  1.00  0.00    -0.507 OA
ATOM     36  H   UNL     1     195.918 196.898 179.383  1.00  0.00     0.293 HD
ENDBRANCH  10  35
TORSDOF 9
ENDMDL
MODEL 4
REMARK VINA RESULT:    -0.975      3.529      9.382
REMARK INTER + INTRA:          -2.697
REMARK INTER:                  -1.294
REMARK INTRA:                  -1.403
REMARK UNBOUND:                -1.381
REMARK SMILES O=c1c(-c2ccc(O)cc2)coc2c([C@@H]3O[C@H](CO)[C@@H](O)[C@@H](O)[C@H]3O)c(O)ccc12
REMARK SMILES IDX 3 1 11 2 12 3 13 4 30 5 2 6 1 7 29 8 28 9 26 10 14 11 4 12
REMARK SMILES IDX 5 13 6 14 7 15 10 16 9 17 8 18 15 20 24 21 16 22 22 23 17 24
REMARK SMILES IDX 20 25 25 26 23 28 18 30 19 31 21 33 27 35
REMARK H PARENT 8 19 25 27 23 29 19 32 21 34 27 36
REMARK Flexibility Score: inf
ROOT
ATOM      1  C   UNL     1     193.943 195.003 180.117  1.00  0.00     0.065 A 
ATOM      2  C   UNL     1     192.700 194.379 179.947  1.00  0.00     0.208 A 
ATOM      3  O   UNL     1     192.099 194.369 178.762  1.00  0.00    -0.463 OA
ATOM      4  C   UNL     1     192.619 194.926 177.668  1.00  0.00     0.147 A 
ATOM      5  C   UNL     1     193.882 195.560 177.749  1.00  0.00     0.066 A 
ATOM      6  C   UNL     1     194.547 195.594 178.992  1.00  0.00     0.200 A 
ATOM      7  O   UNL     1     195.687 196.125 179.092  1.00  0.00    -0.288 OA
ATOM      8  C   UNL     1     194.445 196.125 176.596  1.00  0.00     0.020 A 
ATOM      9  C   UNL     1     193.782 196.035 175.372  1.00  0.00     0.047 A 
ATOM     10  C   UNL     1     192.545 195.384 175.273  1.00  0.00     0.125 A 
ATOM     11  C   UNL     1     191.914 194.868 176.435  1.00  0.00     0.069 A 
ENDROOT
BRANCH   1  12
ATOM     12  C   UNL     1     194.582 195.019 181.456  1.00  0.00    -0.011 A 
ATOM     13  C   UNL     1     194.412 196.117 182.320  1.00  0.00     0.013 A 
ATOM     14  C   UNL     1     194.988 196.113 183.593  1.00  0.00     0.047 A 
ATOM     15  C   UNL     1     195.736 195.011 184.025  1.00  0.00     0.115 A 
ATOM     16  C   UNL     1     195.343 193.917 181.892  1.00  0.00     0.013 A 
ATOM     17  C   UNL     1     195.914 193.915 183.168  1.00  0.00     0.047 A 
BRANCH  15  18
ATOM     18  O   UNL     1     196.288 195.013 185.305  1.00  0.00    -0.508 OA
ATOM     19  H   UNL     1     195.750 195.301 186.114  1.00  0.00     0.293 HD
ENDBRANCH  15  18
ENDBRANCH   1  12
BRANCH  11  20
ATOM     20  C   UNL     1     190.572 194.133 176.385  1.00  0.00     0.188 C 
ATOM     21  C   UNL     1     189.331 195.046 176.294  1.00  0.00     0.179 C 
ATOM     22  O   UNL     1     190.603 193.202 175.316  1.00  0.00    -0.362 OA
ATOM     23  C   UNL     1     188.058 194.215 176.566  1.00  0.00     0.177 C 
ATOM     24  C   UNL     1     189.377 192.502 175.088  1.00  0.00     0.176 C 
ATOM     25  C   UNL     1     188.224 192.725 176.134  1.00  0.00     0.177 C 
BRANCH  21  26
ATOM     26  O   UNL     1     189.439 196.114 177.203  1.00  0.00    -0.387 OA
ATOM     27  H   UNL     1     188.647 196.065 177.796  1.00  0.00     0.211 HD
ENDBRANCH  21  26
BRANCH  23  28
ATOM     28  O   UNL     1     187.708 194.308 177.929  1.00  0.00    -0.387 OA
ATOM     29  H   UNL     1     187.960 193.447 178.356  1.00  0.00     0.211 HD
ENDBRANCH  23  28
BRANCH  24  30
ATOM     30  C   UNL     1     188.902 192.802 173.659  1.00  0.00     0.191 C 
BRANCH  30  31
ATOM     31  O   UNL     1     189.829 193.630 173.013  1.00  0.00    -0.394 OA
ATOM     32  H   UNL     1     190.661 193.098 172.913  1.00  0.00     0.210 HD
ENDBRANCH  30  31
ENDBRANCH  24  30
BRANCH  25  33
ATOM     33  O   UNL     1     188.366 191.881 177.259  1.00  0.00    -0.388 OA
ATOM     34  H   UNL     1     189.325 191.698 177.421  1.00  0.00     0.211 HD
ENDBRANCH  25  33
ENDBRANCH  11  20
BRANCH  10  35
ATOM     35  O   UNL     1     191.962 195.247 174.012  1.00  0.00    -0.507 OA
ATOM     36  H   UNL     1     192.515 195.280 173.161  1.00  0.00     0.293 HD
ENDBRANCH  10  35
TORSDOF 9
ENDMDL
MODEL 5
REMARK VINA RESULT:    -0.974      1.118      1.513
REMARK INTER + INTRA:          -2.696
REMARK INTER:                  -1.293
REMARK INTRA:                  -1.403
REMARK UNBOUND:                -1.381
REMARK SMILES O=c1c(-c2ccc(O)cc2)coc2c([C@@H]3O[C@H](CO)[C@@H](O)[C@@H](O)[C@H]3O)c(O)ccc12
REMARK SMILES IDX 3 1 11 2 12 3 13 4 30 5 2 6 1 7 29 8 28 9 26 10 14 11 4 12
REMARK SMILES IDX 5 13 6 14 7 15 10 16 9 17 8 18 15 20 24 21 16 22 22 23 17 24
REMARK SMILES IDX 20 25 25 26 23 28 18 30 19 31 21 33 27 35
REMARK H PARENT 8 19 25 27 23 29 19 32 21 34 27 36
REMARK Flexibility Score: inf
ROOT
ATOM      1  C   UNL     1     192.204 195.001 181.113  1.00  0.00     0.065 A 
ATOM      2  C   UNL     1     192.144 194.567 182.444  1.00  0.00     0.208 A 
ATOM      3  O   UNL     1     193.233 194.553 183.206  1.00  0.00    -0.463 OA
ATOM      4  C   UNL     1     194.434 194.947 182.781  1.00  0.00     0.147 A 
ATOM      5  C   UNL     1     194.577 195.419 181.454  1.00  0.00     0.066 A 
ATOM      6  C   UNL     1     193.444 195.444 180.616  1.00  0.00     0.200 A 
ATOM      7  O   UNL     1     193.531 195.886 179.437  1.00  0.00    -0.288 OA
ATOM      8  C   UNL     1     195.832 195.858 181.010  1.00  0.00     0.020 A 
ATOM      9  C   UNL     1     196.924 195.862 181.879  1.00  0.00     0.047 A 
ATOM     10  C   UNL     1     196.788 195.426 183.203  1.00  0.00     0.125 A 
ATOM     11  C   UNL     1     195.550 194.905 183.661  1.00  0.00     0.069 A 
ENDROOT
BRANCH   1  12
ATOM     12  C   UNL     1     190.978 194.986 180.278  1.00  0.00    -0.011 A 
ATOM     13  C   UNL     1     190.152 196.122 180.192  1.00  0.00     0.013 A 
ATOM     14  C   UNL     1     189.017 196.114 179.377  1.00  0.00     0.047 A 
ATOM     15  C   UNL     1     188.692 194.973 178.633  1.00  0.00     0.115 A 
ATOM     16  C   UNL     1     190.641 193.838 179.534  1.00  0.00     0.013 A 
ATOM     17  C   UNL     1     189.506 193.835 178.717  1.00  0.00     0.047 A 
BRANCH  15  18
ATOM     18  O   UNL     1     187.567 194.987 177.810  1.00  0.00    -0.508 OA
ATOM     19  H   UNL     1     186.666 195.306 178.147  1.00  0.00     0.293 HD
ENDBRANCH  15  18
ENDBRANCH   1  12
BRANCH  11  20
ATOM     20  C   UNL     1     195.339 194.430 185.100  1.00  0.00     0.188 C 
ATOM     21  C   UNL     1     195.906 193.030 185.416  1.00  0.00     0.179 C 
ATOM     22  O   UNL     1     195.864 195.407 185.984  1.00  0.00    -0.362 OA
ATOM     23  C   UNL     1     195.361 192.546 186.778  1.00  0.00     0.177 C 
ATOM     24  C   UNL     1     195.820 195.056 187.369  1.00  0.00     0.176 C 
ATOM     25  C   UNL     1     195.058 193.733 187.745  1.00  0.00     0.177 C 
BRANCH  21  26
ATOM     26  O   UNL     1     195.577 192.124 184.391  1.00  0.00    -0.387 OA
ATOM     27  H   UNL     1     194.689 192.398 184.043  1.00  0.00     0.211 HD
ENDBRANCH  21  26
BRANCH  23  28
ATOM     28  O   UNL     1     194.211 191.754 186.579  1.00  0.00    -0.387 OA
ATOM     29  H   UNL     1     193.669 192.196 185.873  1.00  0.00     0.211 HD
ENDBRANCH  23  28
BRANCH  24  30
ATOM     30  C   UNL     1     197.254 195.051 187.917  1.00  0.00     0.191 C 
BRANCH  30  31
ATOM     31  O   UNL     1     198.153 195.409 186.904  1.00  0.00    -0.394 OA
ATOM     32  H   UNL     1     198.958 194.841 187.028  1.00  0.00     0.210 HD
ENDBRANCH  30  31
ENDBRANCH  24  30
BRANCH  25  33
ATOM     33  O   UNL     1     193.667 193.947 187.871  1.00  0.00    -0.388 OA
ATOM     34  H   UNL     1     193.475 194.918 187.853  1.00  0.00     0.211 HD
ENDBRANCH  25  33
ENDBRANCH  11  20
BRANCH  10  35
ATOM     35  O   UNL     1     197.889 195.529 184.056  1.00  0.00    -0.507 OA
ATOM     36  H   UNL     1     198.353 196.415 184.225  1.00  0.00     0.293 HD
ENDBRANCH  10  35
TORSDOF 9
ENDMDL
MODEL 6
REMARK VINA RESULT:    -0.967      1.855      2.584
REMARK INTER + INTRA:          -2.687
REMARK INTER:                  -1.280
REMARK INTRA:                  -1.406
REMARK UNBOUND:                -1.381
REMARK SMILES O=c1c(-c2ccc(O)cc2)coc2c([C@@H]3O[C@H](CO)[C@@H](O)[C@@H](O)[C@H]3O)c(O)ccc12
REMARK SMILES IDX 3 1 11 2 12 3 13 4 30 5 2 6 1 7 29 8 28 9 26 10 14 11 4 12
REMARK SMILES IDX 5 13 6 14 7 15 10 16 9 17 8 18 15 20 24 21 16 22 22 23 17 24
REMARK SMILES IDX 20 25 25 26 23 28 18 30 19 31 21 33 27 35
REMARK H PARENT 8 19 25 27 23 29 19 32 21 34 27 36
REMARK Flexibility Score: inf
ROOT
ATOM      1  C   UNL     1     193.922 195.044 181.608  1.00  0.00     0.065 A 
ATOM      2  C   UNL     1     193.521 194.767 182.922  1.00  0.00     0.208 A 
ATOM      3  O   UNL     1     194.395 194.799 183.922  1.00  0.00    -0.463 OA
ATOM      4  C   UNL     1     195.684 195.098 183.764  1.00  0.00     0.147 A 
ATOM      5  C   UNL     1     196.168 195.410 182.471  1.00  0.00     0.066 A 
ATOM      6  C   UNL     1     195.270 195.381 181.385  1.00  0.00     0.200 A 
ATOM      7  O   UNL     1     195.662 195.683 180.223  1.00  0.00    -0.288 OA
ATOM      8  C   UNL     1     197.518 195.750 182.303  1.00  0.00     0.020 A 
ATOM      9  C   UNL     1     198.370 195.813 183.405  1.00  0.00     0.047 A 
ATOM     10  C   UNL     1     197.897 195.536 184.694  1.00  0.00     0.125 A 
ATOM     11  C   UNL     1     196.555 195.115 184.888  1.00  0.00     0.069 A 
ENDROOT
BRANCH   1  12
ATOM     12  C   UNL     1     192.931 194.979 180.506  1.00  0.00    -0.011 A 
ATOM     13  C   UNL     1     192.214 196.125 180.116  1.00  0.00     0.013 A 
ATOM     14  C   UNL     1     191.306 196.066 179.055  1.00  0.00     0.047 A 
ATOM     15  C   UNL     1     191.104 194.864 178.366  1.00  0.00     0.115 A 
ATOM     16  C   UNL     1     192.718 193.769 179.815  1.00  0.00     0.013 A 
ATOM     17  C   UNL     1     191.811 193.716 178.752  1.00  0.00     0.047 A 
BRANCH  15  18
ATOM     18  O   UNL     1     190.210 194.825 177.297  1.00  0.00    -0.508 OA
ATOM     19  H   UNL     1     190.174 194.035 176.664  1.00  0.00     0.293 HD
ENDBRANCH  15  18
ENDBRANCH   1  12
BRANCH  11  20
ATOM     20  C   UNL     1     195.979 194.816 186.274  1.00  0.00     0.188 C 
ATOM     21  C   UNL     1     196.374 193.445 186.863  1.00  0.00     0.179 C 
ATOM     22  O   UNL     1     196.332 195.872 187.152  1.00  0.00    -0.362 OA
ATOM     23  C   UNL     1     195.492 193.137 188.092  1.00  0.00     0.177 C 
ATOM     24  C   UNL     1     195.938 195.684 188.514  1.00  0.00     0.176 C 
ATOM     25  C   UNL     1     195.035 194.436 188.828  1.00  0.00     0.177 C 
BRANCH  21  26
ATOM     26  O   UNL     1     196.248 192.438 185.888  1.00  0.00    -0.387 OA
ATOM     27  H   UNL     1     196.044 191.597 186.372  1.00  0.00     0.211 HD
ENDBRANCH  21  26
BRANCH  23  28
ATOM     28  O   UNL     1     194.379 192.362 187.703  1.00  0.00    -0.387 OA
ATOM     29  H   UNL     1     194.519 192.106 186.753  1.00  0.00     0.211 HD
ENDBRANCH  23  28
BRANCH  24  30
ATOM     30  C   UNL     1     197.197 195.699 189.392  1.00  0.00     0.191 C 
BRANCH  30  31
ATOM     31  O   UNL     1     198.299 196.124 188.640  1.00  0.00    -0.394 OA
ATOM     32  H   UNL     1     199.006 196.375 189.292  1.00  0.00     0.210 HD
ENDBRANCH  30  31
ENDBRANCH  24  30
BRANCH  25  33
ATOM     33  O   UNL     1     193.668 194.704 188.587  1.00  0.00    -0.388 OA
ATOM     34  H   UNL     1     193.108 194.131 189.169  1.00  0.00     0.211 HD
ENDBRANCH  25  33
ENDBRANCH  11  20
BRANCH  10  35
ATOM     35  O   UNL     1     198.768 195.694 185.773  1.00  0.00    -0.507 OA
ATOM     36  H   UNL     1     198.737 195.080 186.581  1.00  0.00     0.293 HD
ENDBRANCH  10  35
TORSDOF 9
ENDMDL
MODEL 7
REMARK VINA RESULT:    -0.956      4.458      6.061
REMARK INTER + INTRA:          -2.672
REMARK INTER:                  -1.275
REMARK INTRA:                  -1.397
REMARK UNBOUND:                -1.381
REMARK SMILES O=c1c(-c2ccc(O)cc2)coc2c([C@@H]3O[C@H](CO)[C@@H](O)[C@@H](O)[C@H]3O)c(O)ccc12
REMARK SMILES IDX 3 1 11 2 12 3 13 4 30 5 2 6 1 7 29 8 28 9 26 10 14 11 4 12
REMARK SMILES IDX 5 13 6 14 7 15 10 16 9 17 8 18 15 20 24 21 16 22 22 23 17 24
REMARK SMILES IDX 20 25 25 26 23 28 18 30 19 31 21 33 27 35
REMARK H PARENT 8 19 25 27 23 29 19 32 21 34 27 36
REMARK Flexibility Score: inf
ROOT
ATOM      1  C   UNL     1     192.267 195.156 183.272  1.00  0.00     0.065 A 
ATOM      2  C   UNL     1     191.125 194.881 184.037  1.00  0.00     0.208 A 
ATOM      3  O   UNL     1     191.159 194.959 185.364  1.00  0.00    -0.463 OA
ATOM      4  C   UNL     1     192.247 195.303 186.053  1.00  0.00     0.147 A 
ATOM      5  C   UNL     1     193.438 195.616 185.355  1.00  0.00     0.066 A 
ATOM      6  C   UNL     1     193.440 195.540 183.948  1.00  0.00     0.200 A 
ATOM      7  O   UNL     1     194.477 195.840 183.294  1.00  0.00    -0.288 OA
ATOM      8  C   UNL     1     194.577 196.003 186.075  1.00  0.00     0.020 A 
ATOM      9  C   UNL     1     194.528 196.111 187.465  1.00  0.00     0.047 A 
ATOM     10  C   UNL     1     193.347 195.833 188.165  1.00  0.00     0.125 A 
ATOM     11  C   UNL     1     192.199 195.366 187.473  1.00  0.00     0.069 A 
ENDROOT
BRANCH   1  12
ATOM     12  C   UNL     1     192.208 195.040 181.794  1.00  0.00    -0.011 A 
ATOM     13  C   UNL     1     192.606 193.854 181.150  1.00  0.00     0.013 A 
ATOM     14  C   UNL     1     192.516 193.738 179.760  1.00  0.00     0.047 A 
ATOM     15  C   UNL     1     192.025 194.802 178.994  1.00  0.00     0.115 A 
ATOM     16  C   UNL     1     191.723 196.111 181.018  1.00  0.00     0.013 A 
ATOM     17  C   UNL     1     191.632 195.990 179.628  1.00  0.00     0.047 A 
BRANCH  15  18
ATOM     18  O   UNL     1     191.923 194.664 177.611  1.00  0.00    -0.508 OA
ATOM     19  H   UNL     1     192.049 195.454 176.988  1.00  0.00     0.293 HD
ENDBRANCH  15  18
ENDBRANCH   1  12
BRANCH  11  20
ATOM     20  C   UNL     1     190.877 195.064 188.182  1.00  0.00     0.188 C 
ATOM     21  C   UNL     1     190.818 193.697 188.897  1.00  0.00     0.179 C 
ATOM     22  O   UNL     1     190.588 196.124 189.079  1.00  0.00    -0.362 OA
ATOM     23  C   UNL     1     189.358 193.383 189.292  1.00  0.00     0.177 C 
ATOM     24  C   UNL     1     189.421 195.934 189.884  1.00  0.00     0.176 C 
ATOM     25  C   UNL     1     188.531 194.679 189.563  1.00  0.00     0.177 C 
BRANCH  21  26
ATOM     26  O   UNL     1     191.344 192.688 188.071  1.00  0.00    -0.387 OA
ATOM     27  H   UNL     1     191.899 192.105 188.650  1.00  0.00     0.211 HD
ENDBRANCH  21  26
BRANCH  23  28
ATOM     28  O   UNL     1     188.749 192.598 188.292  1.00  0.00    -0.387 OA
ATOM     29  H   UNL     1     189.112 191.677 188.380  1.00  0.00     0.211 HD
ENDBRANCH  23  28
BRANCH  24  30
ATOM     30  C   UNL     1     189.839 195.962 191.361  1.00  0.00     0.191 C 
BRANCH  30  31
ATOM     31  O   UNL     1     191.229 196.108 191.462  1.00  0.00    -0.394 OA
ATOM     32  H   UNL     1     191.408 196.484 192.363  1.00  0.00     0.210 HD
ENDBRANCH  30  31
ENDBRANCH  24  30
BRANCH  25  33
ATOM     33  O   UNL     1     187.624 194.935 188.510  1.00  0.00    -0.388 OA
ATOM     34  H   UNL     1     186.958 195.607 188.798  1.00  0.00     0.211 HD
ENDBRANCH  25  33
ENDBRANCH  11  20
BRANCH  10  35
ATOM     35  O   UNL     1     193.325 196.037 189.546  1.00  0.00    -0.507 OA
ATOM     36  H   UNL     1     192.972 196.897 189.954  1.00  0.00     0.293 HD
ENDBRANCH  10  35
TORSDOF 9
ENDMDL
MODEL 8
REMARK VINA RESULT:    -0.950      2.063      8.100
REMARK INTER + INTRA:          -2.664
REMARK INTER:                  -1.288
REMARK INTRA:                  -1.377
REMARK UNBOUND:                -1.381
REMARK SMILES O=c1c(-c2ccc(O)cc2)coc2c([C@@H]3O[C@H](CO)[C@@H](O)[C@@H](O)[C@H]3O)c(O)ccc12
REMARK SMILES IDX 3 1 11 2 12 3 13 4 30 5 2 6 1 7 29 8 28 9 26 10 14 11 4 12
REMARK SMILES IDX 5 13 6 14 7 15 10 16 9 17 8 18 15 20 24 21 16 22 22 23 17 24
REMARK SMILES IDX 20 25 25 26 23 28 18 30 19 31 21 33 27 35
REMARK H PARENT 8 19 25 27 23 29 19 32 21 34 27 36
REMARK Flexibility Score: inf
ROOT
ATOM      1  C   UNL     1     194.163 194.901 183.433  1.00  0.00     0.065 A 
ATOM      2  C   UNL     1     192.954 194.306 183.050  1.00  0.00     0.208 A 
ATOM      3  O   UNL     1     192.546 194.344 181.785  1.00  0.00    -0.463 OA
ATOM      4  C   UNL     1     193.239 194.926 180.806  1.00  0.00     0.147 A 
ATOM      5  C   UNL     1     194.482 195.534 181.105  1.00  0.00     0.066 A 
ATOM      6  C   UNL     1     194.943 195.517 182.437  1.00  0.00     0.200 A 
ATOM      7  O   UNL     1     196.060 196.024 182.732  1.00  0.00    -0.288 OA
ATOM      8  C   UNL     1     195.225 196.125 180.074  1.00  0.00     0.020 A 
ATOM      9  C   UNL     1     194.761 196.085 178.759  1.00  0.00     0.047 A 
ATOM     10  C   UNL     1     193.547 195.460 178.446  1.00  0.00     0.125 A 
ATOM     11  C   UNL     1     192.735 194.919 179.476  1.00  0.00     0.069 A 
ENDROOT
BRANCH   1  12
ATOM     12  C   UNL     1     194.584 194.864 184.855  1.00  0.00    -0.011 A 
ATOM     13  C   UNL     1     195.369 193.804 185.345  1.00  0.00     0.013 A 
ATOM     14  C   UNL     1     195.791 193.792 186.677  1.00  0.00     0.047 A 
ATOM     15  C   UNL     1     195.440 194.838 187.538  1.00  0.00     0.115 A 
ATOM     16  C   UNL     1     194.225 195.911 185.728  1.00  0.00     0.013 A 
ATOM     17  C   UNL     1     194.653 195.896 187.059  1.00  0.00     0.047 A 
BRANCH  15  18
ATOM     18  O   UNL     1     195.884 194.821 188.859  1.00  0.00    -0.508 OA
ATOM     19  H   UNL     1     196.821 195.117 189.108  1.00  0.00     0.293 HD
ENDBRANCH  15  18
ENDBRANCH   1  12
BRANCH  11  20
ATOM     20  C   UNL     1     191.409 194.210 179.192  1.00  0.00     0.188 C 
ATOM     21  C   UNL     1     190.191 195.144 179.032  1.00  0.00     0.179 C 
ATOM     22  O   UNL     1     191.571 193.379 178.054  1.00  0.00    -0.362 OA
ATOM     23  C   UNL     1     188.891 194.309 179.066  1.00  0.00     0.177 C 
ATOM     24  C   UNL     1     190.382 192.720 177.612  1.00  0.00     0.176 C 
ATOM     25  C   UNL     1     189.108 192.862 178.522  1.00  0.00     0.177 C 
BRANCH  21  26
ATOM     26  O   UNL     1     190.187 196.123 180.042  1.00  0.00    -0.387 OA
ATOM     27  H   UNL     1     189.403 195.934 180.619  1.00  0.00     0.211 HD
ENDBRANCH  21  26
BRANCH  23  28
ATOM     28  O   UNL     1     188.374 194.282 180.378  1.00  0.00    -0.387 OA
ATOM     29  H   UNL     1     187.427 193.987 180.313  1.00  0.00     0.211 HD
ENDBRANCH  23  28
BRANCH  24  30
ATOM     30  C   UNL     1     190.090 193.156 176.169  1.00  0.00     0.191 C 
BRANCH  30  31
ATOM     31  O   UNL     1     191.087 194.034 175.725  1.00  0.00    -0.394 OA
ATOM     32  H   UNL     1     191.053 194.021 174.733  1.00  0.00     0.210 HD
ENDBRANCH  30  31
ENDBRANCH  24  30
BRANCH  25  33
ATOM     33  O   UNL     1     189.106 191.917 179.573  1.00  0.00    -0.388 OA
ATOM     34  H   UNL     1     188.226 191.924 180.027  1.00  0.00     0.211 HD
ENDBRANCH  25  33
ENDBRANCH  11  20
BRANCH  10  35
ATOM     35  O   UNL     1     193.168 195.373 177.105  1.00  0.00    -0.507 OA
ATOM     36  H   UNL     1     193.530 196.012 176.405  1.00  0.00     0.293 HD
ENDBRANCH  10  35
TORSDOF 9
ENDMDL
