MODEL 1
REMARK VINA RESULT:     0.553      0.000      0.000
REMARK INTER + INTRA:           0.375
REMARK INTER:                   0.617
REMARK INTRA:                  -0.243
REMARK UNBOUND:                -0.243
REMARK SMILES CC(=O)O[C@@H]1C[C@@H]2CC[C@@]1(C)C2(C)C
REMARK SMILES IDX 4 1 2 2 1 3 3 4 5 5 6 6 10 7 7 8 9 9 12 10 11 11 8 12 13 13
REMARK SMILES IDX 14 14
REMARK H PARENT
REMARK Flexibility Score: inf
ROOT
ATOM      1  O   UNL     1     177.542 178.343 172.321  1.00  0.00    -0.462 OA
ENDROOT
BRANCH   1   2
ATOM      2  C   UNL     1     176.807 179.488 171.997  1.00  0.00     0.302 C 
ATOM      3  C   UNL     1     175.944 180.121 173.034  1.00  0.00     0.139 C 
ATOM      4  O   UNL     1     176.822 179.956 170.826  1.00  0.00    -0.253 OA
ENDBRANCH   1   2
BRANCH   1   5
ATOM      5  C   UNL     1     178.821 178.375 172.961  1.00  0.00     0.183 C 
ATOM      6  C   UNL     1     179.491 179.751 172.752  1.00  0.00     0.050 C 
ATOM      7  C   UNL     1     179.856 177.402 172.309  1.00  0.00     0.010 C 
ATOM      8  C   UNL     1     180.821 179.390 172.046  1.00  0.00    -0.001 C 
ATOM      9  C   UNL     1     179.790 177.617 170.771  1.00  0.00     0.011 C 
ATOM     10  C   UNL     1     181.211 178.048 172.685  1.00  0.00    -0.024 C 
ATOM     11  C   UNL     1     179.688 175.935 172.725  1.00  0.00     0.016 C 
ATOM     12  C   UNL     1     180.447 179.000 170.595  1.00  0.00     0.005 C 
ATOM     13  C   UNL     1     181.514 178.139 174.213  1.00  0.00     0.012 C 
ATOM     14  C   UNL     1     182.475 177.393 172.041  1.00  0.00     0.012 C 
ENDBRANCH   1   5
TORSDOF 2
ENDMDL
MODEL 2
REMARK VINA RESULT:     0.580      1.950      4.497
REMARK INTER + INTRA:           0.405
REMARK INTER:                   0.619
REMARK INTRA:                  -0.214
REMARK UNBOUND:                -0.243
REMARK SMILES CC(=O)O[C@@H]1C[C@@H]2CC[C@@]1(C)C2(C)C
REMARK SMILES IDX 4 1 2 2 1 3 3 4 5 5 6 6 10 7 7 8 9 9 12 10 11 11 8 12 13 13
REMARK SMILES IDX 14 14
REMARK H PARENT
REMARK Flexibility Score: inf
ROOT
ATOM      1  O   UNL     1     180.599 178.958 172.620  1.00  0.00    -0.462 OA
ENDROOT
BRANCH   1   2
ATOM      2  C   UNL     1     181.295 177.764 172.410  1.00  0.00     0.302 C 
ATOM      3  C   UNL     1     182.029 177.135 173.545  1.00  0.00     0.139 C 
ATOM      4  O   UNL     1     181.356 177.243 171.263  1.00  0.00    -0.253 OA
ENDBRANCH   1   2
BRANCH   1   5
ATOM      5  C   UNL     1     179.234 179.017 173.045  1.00  0.00     0.183 C 
ATOM      6  C   UNL     1     178.484 177.735 172.624  1.00  0.00     0.050 C 
ATOM      7  C   UNL     1     178.415 180.133 172.319  1.00  0.00     0.010 C 
ATOM      8  C   UNL     1     177.328 178.277 171.748  1.00  0.00    -0.001 C 
ATOM      9  C   UNL     1     178.714 180.012 170.798  1.00  0.00     0.011 C 
ATOM     10  C   UNL     1     176.962 179.608 172.423  1.00  0.00    -0.024 C 
ATOM     11  C   UNL     1     178.646 181.544 172.873  1.00  0.00     0.016 C 
ATOM     12  C   UNL     1     177.970 178.719 170.410  1.00  0.00     0.005 C 
ATOM     13  C   UNL     1     176.405 179.451 173.871  1.00  0.00     0.012 C 
ATOM     14  C   UNL     1     175.888 180.431 171.642  1.00  0.00     0.012 C 
ENDBRANCH   1   5
TORSDOF 2
ENDMDL
MODEL 3
REMARK VINA RESULT:     1.165      1.768      4.355
REMARK INTER + INTRA:           1.059
REMARK INTER:                   1.353
REMARK INTRA:                  -0.294
REMARK UNBOUND:                -0.243
REMARK SMILES CC(=O)O[C@@H]1C[C@@H]2CC[C@@]1(C)C2(C)C
REMARK SMILES IDX 4 1 2 2 1 3 3 4 5 5 6 6 10 7 7 8 9 9 12 10 11 11 8 12 13 13
REMARK SMILES IDX 14 14
REMARK H PARENT
REMARK Flexibility Score: inf
ROOT
ATOM      1  O   UNL     1     178.829 177.161 172.451  1.00  0.00    -0.462 OA
ENDROOT
BRANCH   1   2
ATOM      2  C   UNL     1     180.059 176.501 172.548  1.00  0.00     0.302 C 
ATOM      3  C   UNL     1     181.317 177.300 172.573  1.00  0.00     0.139 C 
ATOM      4  O   UNL     1     180.119 175.242 172.556  1.00  0.00    -0.253 OA
ENDBRANCH   1   2
BRANCH   1   5
ATOM      5  C   UNL     1     178.653 178.553 172.725  1.00  0.00     0.183 C 
ATOM      6  C   UNL     1     177.365 178.780 173.547  1.00  0.00     0.050 C 
ATOM      7  C   UNL     1     178.378 179.401 171.441  1.00  0.00     0.010 C 
ATOM      8  C   UNL     1     176.544 179.742 172.653  1.00  0.00    -0.001 C 
ATOM      9  C   UNL     1     177.282 178.661 170.623  1.00  0.00     0.011 C 
ATOM     10  C   UNL     1     177.616 180.626 171.999  1.00  0.00    -0.024 C 
ATOM     11  C   UNL     1     179.633 179.724 170.620  1.00  0.00     0.016 C 
ATOM     12  C   UNL     1     176.017 178.889 171.473  1.00  0.00     0.005 C 
ATOM     13  C   UNL     1     178.410 181.509 173.012  1.00  0.00     0.012 C 
ATOM     14  C   UNL     1     177.047 181.614 170.932  1.00  0.00     0.012 C 
ENDBRANCH   1   5
TORSDOF 2
ENDMDL
MODEL 4
REMARK VINA RESULT:     1.304      1.603      2.193
REMARK INTER + INTRA:           1.213
REMARK INTER:                   1.457
REMARK INTRA:                  -0.243
REMARK UNBOUND:                -0.243
REMARK SMILES CC(=O)O[C@@H]1C[C@@H]2CC[C@@]1(C)C2(C)C
REMARK SMILES IDX 4 1 2 2 1 3 3 4 5 5 6 6 10 7 7 8 9 9 12 10 11 11 8 12 13 13
REMARK SMILES IDX 14 14
REMARK H PARENT
REMARK Flexibility Score: inf
ROOT
ATOM      1  O   UNL     1     179.266 180.472 172.546  1.00  0.00    -0.462 OA
ENDROOT
BRANCH   1   2
ATOM      2  C   UNL     1     178.060 181.177 172.593  1.00  0.00     0.302 C 
ATOM      3  C   UNL     1     176.778 180.448 172.373  1.00  0.00     0.139 C 
ATOM      4  O   UNL     1     178.046 182.427 172.763  1.00  0.00    -0.253 OA
ENDBRANCH   1   2
BRANCH   1   5
ATOM      5  C   UNL     1     179.377 179.071 172.811  1.00  0.00     0.183 C 
ATOM      6  C   UNL     1     180.617 178.786 173.688  1.00  0.00     0.050 C 
ATOM      7  C   UNL     1     179.678 178.227 171.530  1.00  0.00     0.010 C 
ATOM      8  C   UNL     1     181.441 177.803 172.820  1.00  0.00    -0.001 C 
ATOM      9  C   UNL     1     180.838 178.933 170.772  1.00  0.00     0.011 C 
ATOM     10  C   UNL     1     180.367 176.967 172.108  1.00  0.00    -0.024 C 
ATOM     11  C   UNL     1     178.451 177.961 170.650  1.00  0.00     0.016 C 
ATOM     12  C   UNL     1     182.054 178.648 171.676  1.00  0.00     0.005 C 
ATOM     13  C   UNL     1     179.495 176.105 173.072  1.00  0.00     0.012 C 
ATOM     14  C   UNL     1     180.946 175.970 171.055  1.00  0.00     0.012 C 
ENDBRANCH   1   5
TORSDOF 2
ENDMDL
MODEL 5
REMARK VINA RESULT:     1.704      1.153      2.268
REMARK INTER + INTRA:           1.660
REMARK INTER:                   1.437
REMARK INTRA:                   0.223
REMARK UNBOUND:                -0.243
REMARK SMILES CC(=O)O[C@@H]1C[C@@H]2CC[C@@]1(C)C2(C)C
REMARK SMILES IDX 4 1 2 2 1 3 3 4 5 5 6 6 10 7 7 8 9 9 12 10 11 11 8 12 13 13
REMARK SMILES IDX 14 14
REMARK H PARENT
REMARK Flexibility Score: inf
ROOT
ATOM      1  O   UNL     1     177.546 179.387 170.846  1.00  0.00    -0.462 OA
ENDROOT
BRANCH   1   2
ATOM      2  C   UNL     1     176.688 179.985 171.774  1.00  0.00     0.302 C 
ATOM      3  C   UNL     1     177.079 181.279 172.404  1.00  0.00     0.139 C 
ATOM      4  O   UNL     1     175.617 179.419 172.125  1.00  0.00    -0.253 OA
ENDBRANCH   1   2
BRANCH   1   5
ATOM      5  C   UNL     1     178.419 178.298 171.160  1.00  0.00     0.183 C 
ATOM      6  C   UNL     1     178.265 177.897 172.644  1.00  0.00     0.050 C 
ATOM      7  C   UNL     1     179.932 178.683 171.078  1.00  0.00     0.010 C 
ATOM      8  C   UNL     1     179.698 178.070 173.204  1.00  0.00    -0.001 C 
ATOM      9  C   UNL     1     180.112 180.023 171.845  1.00  0.00     0.011 C 
ATOM     10  C   UNL     1     180.595 177.656 172.027  1.00  0.00    -0.024 C 
ATOM     11  C   UNL     1     180.495 178.720 169.652  1.00  0.00     0.016 C 
ATOM     12  C   UNL     1     179.936 179.596 173.315  1.00  0.00     0.005 C 
ATOM     13  C   UNL     1     180.444 176.160 171.613  1.00  0.00     0.012 C 
ATOM     14  C   UNL     1     182.119 177.869 172.297  1.00  0.00     0.012 C 
ENDBRANCH   1   5
TORSDOF 2
ENDMDL
MODEL 6
REMARK VINA RESULT:     1.849      2.081      4.424
REMARK INTER + INTRA:           1.822
REMARK INTER:                   1.731
REMARK INTRA:                   0.092
REMARK UNBOUND:                -0.243
REMARK SMILES CC(=O)O[C@@H]1C[C@@H]2CC[C@@]1(C)C2(C)C
REMARK SMILES IDX 4 1 2 2 1 3 3 4 5 5 6 6 10 7 7 8 9 9 12 10 11 11 8 12 13 13
REMARK SMILES IDX 14 14
REMARK H PARENT
REMARK Flexibility Score: inf
ROOT
ATOM      1  O   UNL     1     180.489 178.291 170.854  1.00  0.00    -0.462 OA
ENDROOT
BRANCH   1   2
ATOM      2  C   UNL     1     181.343 177.649 171.756  1.00  0.00     0.302 C 
ATOM      3  C   UNL     1     180.917 176.364 172.379  1.00  0.00     0.139 C 
ATOM      4  O   UNL     1     182.441 178.171 172.092  1.00  0.00    -0.253 OA
ENDBRANCH   1   2
BRANCH   1   5
ATOM      5  C   UNL     1     179.632 179.379 171.210  1.00  0.00     0.183 C 
ATOM      6  C   UNL     1     179.722 179.661 172.726  1.00  0.00     0.050 C 
ATOM      7  C   UNL     1     178.115 179.049 171.025  1.00  0.00     0.010 C 
ATOM      8  C   UNL     1     178.258 179.490 173.202  1.00  0.00    -0.001 C 
ATOM      9  C   UNL     1     177.860 177.660 171.676  1.00  0.00     0.011 C 
ATOM     10  C   UNL     1     177.433 180.020 172.019  1.00  0.00    -0.024 C 
ATOM     11  C   UNL     1     177.624 179.139 169.575  1.00  0.00     0.016 C 
ATOM     12  C   UNL     1     177.973 177.968 173.182  1.00  0.00     0.005 C 
ATOM     13  C   UNL     1     177.647 181.539 171.731  1.00  0.00     0.012 C 
ATOM     14  C   UNL     1     175.893 179.835 172.198  1.00  0.00     0.012 C 
ENDBRANCH   1   5
TORSDOF 2
ENDMDL
MODEL 7
REMARK VINA RESULT:     2.677      1.947      4.356
REMARK INTER + INTRA:           2.747
REMARK INTER:                   2.773
REMARK INTRA:                  -0.026
REMARK UNBOUND:                -0.243
REMARK SMILES CC(=O)O[C@@H]1C[C@@H]2CC[C@@]1(C)C2(C)C
REMARK SMILES IDX 4 1 2 2 1 3 3 4 5 5 6 6 10 7 7 8 9 9 12 10 11 11 8 12 13 13
REMARK SMILES IDX 14 14
REMARK H PARENT
REMARK Flexibility Score: inf
ROOT
ATOM      1  O   UNL     1     181.033 178.474 171.491  1.00  0.00    -0.462 OA
ENDROOT
BRANCH   1   2
ATOM      2  C   UNL     1     181.635 177.434 172.206  1.00  0.00     0.302 C 
ATOM      3  C   UNL     1     182.106 177.680 173.598  1.00  0.00     0.139 C 
ATOM      4  O   UNL     1     181.835 176.310 171.669  1.00  0.00    -0.253 OA
ENDBRANCH   1   2
BRANCH   1   5
ATOM      5  C   UNL     1     179.664 178.464 171.078  1.00  0.00     0.183 C 
ATOM      6  C   UNL     1     179.316 179.775 170.340  1.00  0.00     0.050 C 
ATOM      7  C   UNL     1     178.663 178.485 172.278  1.00  0.00     0.010 C 
ATOM      8  C   UNL     1     178.153 180.354 171.183  1.00  0.00    -0.001 C 
ATOM      9  C   UNL     1     179.135 179.598 173.256  1.00  0.00     0.011 C 
ATOM     10  C   UNL     1     177.391 179.103 171.648  1.00  0.00    -0.024 C 
ATOM     11  C   UNL     1     178.465 177.124 172.956  1.00  0.00     0.016 C 
ATOM     12  C   UNL     1     178.792 180.889 172.488  1.00  0.00     0.005 C 
ATOM     13  C   UNL     1     176.750 178.286 170.484  1.00  0.00     0.012 C 
ATOM     14  C   UNL     1     176.226 179.414 172.640  1.00  0.00     0.012 C 
ENDBRANCH   1   5
TORSDOF 2
ENDMDL
MODEL 8
REMARK VINA RESULT:     3.500      2.026      4.351
REMARK INTER + INTRA:           3.666
REMARK INTER:                   3.723
REMARK INTRA:                  -0.057
REMARK UNBOUND:                -0.243
REMARK SMILES CC(=O)O[C@@H]1C[C@@H]2CC[C@@]1(C)C2(C)C
REMARK SMILES IDX 4 1 2 2 1 3 3 4 5 5 6 6 10 7 7 8 9 9 12 10 11 11 8 12 13 13
REMARK SMILES IDX 14 14
REMARK H PARENT
REMARK Flexibility Score: inf
ROOT
ATOM      1  O   UNL     1     180.417 179.175 173.465  1.00  0.00    -0.462 OA
ENDROOT
BRANCH   1   2
ATOM      2  C   UNL     1     181.543 178.393 173.744  1.00  0.00     0.302 C 
ATOM      3  C   UNL     1     182.119 177.532 172.673  1.00  0.00     0.139 C 
ATOM      4  O   UNL     1     182.040 178.365 174.903  1.00  0.00    -0.253 OA
ENDBRANCH   1   2
BRANCH   1   5
ATOM      5  C   UNL     1     179.770 179.206 172.190  1.00  0.00     0.183 C 
ATOM      6  C   UNL     1     179.044 180.554 171.988  1.00  0.00     0.050 C 
ATOM      7  C   UNL     1     178.597 178.180 172.074  1.00  0.00     0.010 C 
ATOM      8  C   UNL     1     177.573 180.129 171.754  1.00  0.00    -0.001 C 
ATOM      9  C   UNL     1     177.724 178.326 173.353  1.00  0.00     0.011 C 
ATOM     10  C   UNL     1     177.702 178.809 170.979  1.00  0.00    -0.024 C 
ATOM     11  C   UNL     1     179.046 176.738 171.808  1.00  0.00     0.016 C 
ATOM     12  C   UNL     1     177.028 179.683 173.133  1.00  0.00     0.005 C 
ATOM     13  C   UNL     1     178.364 178.962 169.575  1.00  0.00     0.012 C 
ATOM     14  C   UNL     1     176.336 178.095 170.728  1.00  0.00     0.012 C 
ENDBRANCH   1   5
TORSDOF 2
ENDMDL
