MODEL 1
REMARK VINA RESULT:    49.026      0.000      0.000
REMARK INTER + INTRA:          77.787
REMARK INTER:                  76.254
REMARK INTRA:                   1.533
REMARK UNBOUND:                 1.533
REMARK SMILES C[C@@]12C[C@@]3(O)O[C@@H](O1)[C@]1(COC(=O)c4ccccc4)[C@H]3C[C@@]12O[C@@H]1O[C@@H](CO)[C@@H](O)[C@@H](O)[C@@H]1O
REMARK SMILES IDX 1 1 2 2 3 3 4 4 20 5 21 6 22 7 9 8 7 9 8 10 6 11 23 12 24 13
REMARK SMILES IDX 33 14 25 15 31 16 26 17 29 18 34 19 32 21 27 23 28 24 30 26
REMARK SMILES IDX 5 28 10 30 11 31 12 32 13 33 14 34 15 35 19 36 16 37 18 38
REMARK SMILES IDX 17 39
REMARK H PARENT 34 20 32 22 28 25 30 27 5 29
REMARK Flexibility Score: inf
ROOT
ATOM      1  C   UNL     1      11.077  13.179  32.789  1.00  0.00     0.046 C 
ATOM      2  C   UNL     1      10.801  12.267  31.596  1.00  0.00     0.104 C 
ATOM      3  C   UNL     1      10.653  10.765  32.041  1.00  0.00     0.104 C 
ATOM      4  C   UNL     1      10.456   9.996  30.686  1.00  0.00     0.175 C 
ATOM      5  C   UNL     1      11.552  10.421  29.651  1.00  0.00     0.070 C 
ATOM      6  C   UNL     1      12.761  11.108  30.302  1.00  0.00     0.050 C 
ATOM      7  C   UNL     1      11.864  12.358  30.440  1.00  0.00     0.115 C 
ATOM      8  C   UNL     1      10.996  11.795  29.315  1.00  0.00     0.096 C 
ATOM      9  C   UNL     1       9.559  11.821  29.803  1.00  0.00     0.267 C 
ATOM     10  O   UNL     1       9.572  12.610  30.982  1.00  0.00    -0.342 OA
ATOM     11  O   UNL     1       9.243  10.480  30.144  1.00  0.00    -0.320 OA
ENDROOT
BRANCH   7  12
ATOM     12  O   UNL     1      12.386  13.640  30.116  1.00  0.00    -0.339 OA
BRANCH  12  13
ATOM     13  C   UNL     1      13.654  13.900  30.705  1.00  0.00     0.282 C 
ATOM     14  C   UNL     1      14.665  14.325  29.616  1.00  0.00     0.202 C 
ATOM     15  O   UNL     1      13.547  14.909  31.702  1.00  0.00    -0.341 OA
ATOM     16  C   UNL     1      14.260  15.682  29.010  1.00  0.00     0.179 C 
ATOM     17  C   UNL     1      13.056  16.132  31.168  1.00  0.00     0.178 C 
ATOM     18  C   UNL     1      14.040  16.711  30.129  1.00  0.00     0.177 C 
BRANCH  14  19
ATOM     19  O   UNL     1      14.717  13.347  28.611  1.00  0.00    -0.385 OA
ATOM     20  H   UNL     1      14.730  13.825  27.740  1.00  0.00     0.211 HD
ENDBRANCH  14  19
BRANCH  16  21
ATOM     21  O   UNL     1      15.255  16.143  28.133  1.00  0.00    -0.387 OA
ATOM     22  H   UNL     1      14.983  17.051  27.836  1.00  0.00     0.211 HD
ENDBRANCH  16  21
BRANCH  17  23
ATOM     23  C   UNL     1      12.828  17.125  32.313  1.00  0.00     0.191 C 
BRANCH  23  24
ATOM     24  O   UNL     1      13.826  16.967  33.283  1.00  0.00    -0.394 OA
ATOM     25  H   UNL     1      14.544  16.434  32.856  1.00  0.00     0.210 HD
ENDBRANCH  23  24
ENDBRANCH  17  23
BRANCH  18  26
ATOM     26  O   UNL     1      15.263  17.022  30.751  1.00  0.00    -0.387 OA
ATOM     27  H   UNL     1      15.944  17.097  30.033  1.00  0.00     0.211 HD
ENDBRANCH  18  26
ENDBRANCH  12  13
ENDBRANCH   7  12
BRANCH   4  28
ATOM     28  O   UNL     1      10.414   8.610  30.888  1.00  0.00    -0.365 OA
ATOM     29  H   UNL     1      10.233   8.467  31.852  1.00  0.00     0.214 HD
ENDBRANCH   4  28
BRANCH   8  30
ATOM     30  C   UNL     1      11.258  12.292  27.881  1.00  0.00     0.249 C 
BRANCH  30  31
ATOM     31  O   UNL     1      11.902  13.560  27.929  1.00  0.00    -0.461 OA
BRANCH  31  32
ATOM     32  C   UNL     1      12.265  14.276  26.786  1.00  0.00     0.338 C 
ATOM     33  O   UNL     1      13.466  14.618  26.607  1.00  0.00    -0.246 OA
BRANCH  32  34
ATOM     34  C   UNL     1      11.225  14.663  25.809  1.00  0.00     0.060 A 
ATOM     35  C   UNL     1      11.372  15.837  25.047  1.00  0.00     0.015 A 
ATOM     36  C   UNL     1      10.099  13.847  25.594  1.00  0.00     0.015 A 
ATOM     37  C   UNL     1      10.419  16.179  24.084  1.00  0.00     0.001 A 
ATOM     38  C   UNL     1       9.146  14.197  24.632  1.00  0.00     0.001 A 
ATOM     39  C   UNL     1       9.307  15.360  23.875  1.00  0.00     0.000 A 
ENDBRANCH  32  34
ENDBRANCH  31  32
ENDBRANCH  30  31
ENDBRANCH   8  30
TORSDOF 12
ENDMDL
