MODEL 1
REMARK VINA RESULT:    -4.382      0.000      0.000
REMARK INTER + INTRA:          -6.149
REMARK INTER:                  -5.790
REMARK INTRA:                  -0.359
REMARK UNBOUND:                -0.359
REMARK SMILES CCCCC=CC=CCO
REMARK SMILES IDX 5 1 6 2 4 3 3 4 2 5 1 6 7 7 8 8 9 9 10 10
REMARK H PARENT 10 11
REMARK Flexibility Score: inf
ROOT
ATOM      1  C   UNL     1      41.635  -9.574  14.331  1.00  0.00    -0.027 C 
ATOM      2  C   UNL     1      42.417  -9.704  15.406  1.00  0.00    -0.005 C 
ENDROOT
BRANCH   1   3
ATOM      3  C   UNL     1      41.316 -10.742  13.442  1.00  0.00     0.027 C 
BRANCH   3   4
ATOM      4  C   UNL     1      42.131 -10.726  12.140  1.00  0.00     0.004 C 
BRANCH   4   5
ATOM      5  C   UNL     1      43.397 -11.589  12.239  1.00  0.00    -0.003 C 
ATOM      6  C   UNL     1      44.619 -10.737  12.568  1.00  0.00     0.004 C 
ENDBRANCH   4   5
ENDBRANCH   3   4
ENDBRANCH   1   3
BRANCH   2   7
ATOM      7  C   UNL     1      42.715  -8.551  16.272  1.00  0.00    -0.002 C 
ATOM      8  C   UNL     1      42.235  -7.338  15.990  1.00  0.00     0.001 C 
BRANCH   8   9
ATOM      9  C   UNL     1      42.529  -6.162  16.873  1.00  0.00     0.183 C 
BRANCH   9  10
ATOM     10  O   UNL     1      41.697  -6.174  18.001  1.00  0.00    -0.392 OA
ATOM     11  H   UNL     1      41.982  -6.947  18.555  1.00  0.00     0.210 HD
ENDBRANCH   9  10
ENDBRANCH   8   9
ENDBRANCH   2   7
TORSDOF 6
ENDMDL
MODEL 2
REMARK VINA RESULT:    -4.290      1.626      2.112
REMARK INTER + INTRA:          -6.029
REMARK INTER:                  -5.672
REMARK INTRA:                  -0.357
REMARK UNBOUND:                -0.359
REMARK SMILES CCCCC=CC=CCO
REMARK SMILES IDX 5 1 6 2 4 3 3 4 2 5 1 6 7 7 8 8 9 9 10 10
REMARK H PARENT 10 11
REMARK Flexibility Score: inf
ROOT
ATOM      1  C   UNL     1      43.342  -8.904  13.131  1.00  0.00    -0.027 C 
ATOM      2  C   UNL     1      42.311  -8.081  13.337  1.00  0.00    -0.005 C 
ENDROOT
BRANCH   1   3
ATOM      3  C   UNL     1      43.458  -9.722  11.876  1.00  0.00     0.027 C 
BRANCH   3   4
ATOM      4  C   UNL     1      43.439 -11.232  12.159  1.00  0.00     0.004 C 
BRANCH   4   5
ATOM      5  C   UNL     1      43.493 -11.541  13.662  1.00  0.00    -0.003 C 
ATOM      6  C   UNL     1      42.549 -12.684  14.022  1.00  0.00     0.004 C 
ENDBRANCH   4   5
ENDBRANCH   3   4
ENDBRANCH   1   3
BRANCH   2   7
ATOM      7  C   UNL     1      42.214  -7.281  14.569  1.00  0.00    -0.002 C 
ATOM      8  C   UNL     1      42.563  -7.793  15.751  1.00  0.00     0.001 C 
BRANCH   8   9
ATOM      9  C   UNL     1      42.474  -6.979  17.007  1.00  0.00     0.183 C 
BRANCH   9  10
ATOM     10  O   UNL     1      43.720  -6.927  17.648  1.00  0.00    -0.392 OA
ATOM     11  H   UNL     1      44.356  -6.528  16.999  1.00  0.00     0.210 HD
ENDBRANCH   9  10
ENDBRANCH   8   9
ENDBRANCH   2   7
TORSDOF 6
ENDMDL
MODEL 3
REMARK VINA RESULT:    -4.281      4.157      6.688
REMARK INTER + INTRA:          -6.016
REMARK INTER:                  -5.661
REMARK INTRA:                  -0.355
REMARK UNBOUND:                -0.359
REMARK SMILES CCCCC=CC=CCO
REMARK SMILES IDX 5 1 6 2 4 3 3 4 2 5 1 6 7 7 8 8 9 9 10 10
REMARK H PARENT 10 11
REMARK Flexibility Score: inf
ROOT
ATOM      1  C   UNL     1      41.630  -4.174  13.128  1.00  0.00    -0.027 C 
ATOM      2  C   UNL     1      42.668  -4.499  13.904  1.00  0.00    -0.005 C 
ENDROOT
BRANCH   1   3
ATOM      3  C   UNL     1      41.649  -2.948  12.260  1.00  0.00     0.027 C 
BRANCH   3   4
ATOM      4  C   UNL     1      40.940  -1.755  12.917  1.00  0.00     0.004 C 
BRANCH   4   5
ATOM      5  C   UNL     1      41.891  -0.927  13.793  1.00  0.00    -0.003 C 
ATOM      6  C   UNL     1      41.550  -1.080  15.272  1.00  0.00     0.004 C 
ENDBRANCH   4   5
ENDBRANCH   3   4
ENDBRANCH   1   3
BRANCH   2   7
ATOM      7  C   UNL     1      42.637  -5.708  14.744  1.00  0.00    -0.002 C 
ATOM      8  C   UNL     1      42.613  -5.618  16.076  1.00  0.00     0.001 C 
BRANCH   8   9
ATOM      9  C   UNL     1      42.573  -6.846  16.937  1.00  0.00     0.183 C 
BRANCH   9  10
ATOM     10  O   UNL     1      41.874  -6.590  18.125  1.00  0.00    -0.392 OA
ATOM     11  H   UNL     1      41.464  -7.450  18.403  1.00  0.00     0.210 HD
ENDBRANCH   9  10
ENDBRANCH   8   9
ENDBRANCH   2   7
TORSDOF 6
ENDMDL
MODEL 4
REMARK VINA RESULT:    -4.238      1.193      1.937
REMARK INTER + INTRA:          -5.959
REMARK INTER:                  -5.641
REMARK INTRA:                  -0.318
REMARK UNBOUND:                -0.359
REMARK SMILES CCCCC=CC=CCO
REMARK SMILES IDX 5 1 6 2 4 3 3 4 2 5 1 6 7 7 8 8 9 9 10 10
REMARK H PARENT 10 11
REMARK Flexibility Score: inf
ROOT
ATOM      1  C   UNL     1      42.884 -10.870  14.187  1.00  0.00    -0.027 C 
ATOM      2  C   UNL     1      42.495  -9.641  14.537  1.00  0.00    -0.005 C 
ENDROOT
BRANCH   1   3
ATOM      3  C   UNL     1      42.771 -11.359  12.771  1.00  0.00     0.027 C 
BRANCH   3   4
ATOM      4  C   UNL     1      42.798 -10.211  11.752  1.00  0.00     0.004 C 
BRANCH   4   5
ATOM      5  C   UNL     1      41.527 -10.171  10.891  1.00  0.00    -0.003 C 
ATOM      6  C   UNL     1      40.332 -10.744  11.648  1.00  0.00     0.004 C 
ENDBRANCH   4   5
ENDBRANCH   3   4
ENDBRANCH   1   3
BRANCH   2   7
ATOM      7  C   UNL     1      42.618  -9.173  15.927  1.00  0.00    -0.002 C 
ATOM      8  C   UNL     1      42.542  -7.874  16.225  1.00  0.00     0.001 C 
BRANCH   8   9
ATOM      9  C   UNL     1      42.659  -7.393  17.640  1.00  0.00     0.183 C 
BRANCH   9  10
ATOM     10  O   UNL     1      41.836  -6.277  17.849  1.00  0.00    -0.392 OA
ATOM     11  H   UNL     1      41.141  -6.301  17.142  1.00  0.00     0.210 HD
ENDBRANCH   9  10
ENDBRANCH   8   9
ENDBRANCH   2   7
TORSDOF 6
ENDMDL
MODEL 5
REMARK VINA RESULT:    -4.223      1.511      1.720
REMARK INTER + INTRA:          -5.940
REMARK INTER:                  -5.602
REMARK INTRA:                  -0.337
REMARK UNBOUND:                -0.359
REMARK SMILES CCCCC=CC=CCO
REMARK SMILES IDX 5 1 6 2 4 3 3 4 2 5 1 6 7 7 8 8 9 9 10 10
REMARK H PARENT 10 11
REMARK Flexibility Score: inf
ROOT
ATOM      1  C   UNL     1      42.118 -10.076  14.896  1.00  0.00    -0.027 C 
ATOM      2  C   UNL     1      42.012  -8.766  15.129  1.00  0.00    -0.005 C 
ENDROOT
BRANCH   1   3
ATOM      3  C   UNL     1      41.464 -10.721  13.707  1.00  0.00     0.027 C 
BRANCH   3   4
ATOM      4  C   UNL     1      42.468 -11.484  12.830  1.00  0.00     0.004 C 
BRANCH   4   5
ATOM      5  C   UNL     1      43.752 -10.679  12.584  1.00  0.00    -0.003 C 
ATOM      6  C   UNL     1      43.504  -9.533  11.608  1.00  0.00     0.004 C 
ENDBRANCH   4   5
ENDBRANCH   3   4
ENDBRANCH   1   3
BRANCH   2   7
ATOM      7  C   UNL     1      42.665  -8.147  16.295  1.00  0.00    -0.002 C 
ATOM      8  C   UNL     1      43.138  -8.894  17.295  1.00  0.00     0.001 C 
BRANCH   8   9
ATOM      9  C   UNL     1      43.810  -8.270  18.480  1.00  0.00     0.183 C 
BRANCH   9  10
ATOM     10  O   UNL     1      44.376  -7.036  18.130  1.00  0.00    -0.392 OA
ATOM     11  H   UNL     1      43.623  -6.440  17.880  1.00  0.00     0.210 HD
ENDBRANCH   9  10
ENDBRANCH   8   9
ENDBRANCH   2   7
TORSDOF 6
ENDMDL
MODEL 6
REMARK VINA RESULT:    -4.175      1.823      2.007
REMARK INTER + INTRA:          -5.876
REMARK INTER:                  -5.678
REMARK INTRA:                  -0.198
REMARK UNBOUND:                -0.359
REMARK SMILES CCCCC=CC=CCO
REMARK SMILES IDX 5 1 6 2 4 3 3 4 2 5 1 6 7 7 8 8 9 9 10 10
REMARK H PARENT 10 11
REMARK Flexibility Score: inf
ROOT
ATOM      1  C   UNL     1      41.978  -9.655  14.868  1.00  0.00    -0.027 C 
ATOM      2  C   UNL     1      42.552  -8.746  15.660  1.00  0.00    -0.005 C 
ENDROOT
BRANCH   1   3
ATOM      3  C   UNL     1      41.538  -9.318  13.472  1.00  0.00     0.027 C 
BRANCH   3   4
ATOM      4  C   UNL     1      41.846 -10.443  12.474  1.00  0.00     0.004 C 
BRANCH   4   5
ATOM      5  C   UNL     1      43.220 -10.269  11.809  1.00  0.00    -0.003 C 
ATOM      6  C   UNL     1      44.312 -10.970  12.612  1.00  0.00     0.004 C 
ENDBRANCH   4   5
ENDBRANCH   3   4
ENDBRANCH   1   3
BRANCH   2   7
ATOM      7  C   UNL     1      42.985  -9.093  17.024  1.00  0.00    -0.002 C 
ATOM      8  C   UNL     1      43.258  -8.144  17.922  1.00  0.00     0.001 C 
BRANCH   8   9
ATOM      9  C   UNL     1      43.692  -8.493  19.314  1.00  0.00     0.183 C 
BRANCH   9  10
ATOM     10  O   UNL     1      44.853  -7.786  19.659  1.00  0.00    -0.392 OA
ATOM     11  H   UNL     1      45.305  -7.552  18.807  1.00  0.00     0.210 HD
ENDBRANCH   9  10
ENDBRANCH   8   9
ENDBRANCH   2   7
TORSDOF 6
ENDMDL
MODEL 7
REMARK VINA RESULT:    -4.171      4.538      7.054
REMARK INTER + INTRA:          -5.871
REMARK INTER:                  -5.517
REMARK INTRA:                  -0.354
REMARK UNBOUND:                -0.359
REMARK SMILES CCCCC=CC=CCO
REMARK SMILES IDX 5 1 6 2 4 3 3 4 2 5 1 6 7 7 8 8 9 9 10 10
REMARK H PARENT 10 11
REMARK Flexibility Score: inf
ROOT
ATOM      1  C   UNL     1      41.031  -3.788  12.622  1.00  0.00    -0.027 C 
ATOM      2  C   UNL     1      41.916  -4.421  13.397  1.00  0.00    -0.005 C 
ENDROOT
BRANCH   1   3
ATOM      3  C   UNL     1      41.052  -2.295  12.459  1.00  0.00     0.027 C 
BRANCH   3   4
ATOM      4  C   UNL     1      42.344  -1.666  13.000  1.00  0.00     0.004 C 
BRANCH   4   5
ATOM      5  C   UNL     1      42.065  -0.580  14.049  1.00  0.00    -0.003 C 
ATOM      6  C   UNL     1      41.636  -1.196  15.377  1.00  0.00     0.004 C 
ENDBRANCH   4   5
ENDBRANCH   3   4
ENDBRANCH   1   3
BRANCH   2   7
ATOM      7  C   UNL     1      41.887  -5.886  13.541  1.00  0.00    -0.002 C 
ATOM      8  C   UNL     1      42.630  -6.501  14.463  1.00  0.00     0.001 C 
BRANCH   8   9
ATOM      9  C   UNL     1      42.598  -7.992  14.620  1.00  0.00     0.183 C 
BRANCH   9  10
ATOM     10  O   UNL     1      43.309  -8.381  15.764  1.00  0.00    -0.392 OA
ATOM     11  H   UNL     1      42.669  -8.345  16.521  1.00  0.00     0.210 HD
ENDBRANCH   9  10
ENDBRANCH   8   9
ENDBRANCH   2   7
TORSDOF 6
ENDMDL
MODEL 8
REMARK VINA RESULT:    -4.098      2.959      5.491
REMARK INTER + INTRA:          -5.774
REMARK INTER:                  -5.471
REMARK INTRA:                  -0.303
REMARK UNBOUND:                -0.359
REMARK SMILES CCCCC=CC=CCO
REMARK SMILES IDX 5 1 6 2 4 3 3 4 2 5 1 6 7 7 8 8 9 9 10 10
REMARK H PARENT 10 11
REMARK Flexibility Score: inf
ROOT
ATOM      1  C   UNL     1      42.317  -8.475  15.610  1.00  0.00    -0.027 C 
ATOM      2  C   UNL     1      41.717  -8.647  14.430  1.00  0.00    -0.005 C 
ENDROOT
BRANCH   1   3
ATOM      3  C   UNL     1      42.394  -7.125  16.266  1.00  0.00     0.027 C 
BRANCH   3   4
ATOM      4  C   UNL     1      42.827  -7.213  17.736  1.00  0.00     0.004 C 
BRANCH   4   5
ATOM      5  C   UNL     1      43.405  -8.591  18.089  1.00  0.00    -0.003 C 
ATOM      6  C   UNL     1      44.469  -8.479  19.177  1.00  0.00     0.004 C 
ENDBRANCH   4   5
ENDBRANCH   3   4
ENDBRANCH   1   3
BRANCH   2   7
ATOM      7  C   UNL     1      41.644  -9.978  13.804  1.00  0.00    -0.002 C 
ATOM      8  C   UNL     1      42.346 -11.005  14.287  1.00  0.00     0.001 C 
BRANCH   8   9
ATOM      9  C   UNL     1      42.269 -12.364  13.658  1.00  0.00     0.183 C 
BRANCH   9  10
ATOM     10  O   UNL     1      41.101 -13.026  14.061  1.00  0.00    -0.392 OA
ATOM     11  H   UNL     1      40.897 -13.694  13.357  1.00  0.00     0.210 HD
ENDBRANCH   9  10
ENDBRANCH   8   9
ENDBRANCH   2   7
TORSDOF 6
ENDMDL
MODEL 9
REMARK VINA RESULT:    -4.005      2.654      2.890
REMARK INTER + INTRA:          -5.652
REMARK INTER:                  -5.325
REMARK INTRA:                  -0.327
REMARK UNBOUND:                -0.359
REMARK SMILES CCCCC=CC=CCO
REMARK SMILES IDX 5 1 6 2 4 3 3 4 2 5 1 6 7 7 8 8 9 9 10 10
REMARK H PARENT 10 11
REMARK Flexibility Score: inf
ROOT
ATOM      1  C   UNL     1      41.561  -8.281  14.157  1.00  0.00    -0.027 C 
ATOM      2  C   UNL     1      42.705  -7.593  14.138  1.00  0.00    -0.005 C 
ENDROOT
BRANCH   1   3
ATOM      3  C   UNL     1      41.525  -9.758  13.884  1.00  0.00     0.027 C 
BRANCH   3   4
ATOM      4  C   UNL     1      41.132 -10.076  12.434  1.00  0.00     0.004 C 
BRANCH   4   5
ATOM      5  C   UNL     1      42.359 -10.294  11.536  1.00  0.00    -0.003 C 
ATOM      6  C   UNL     1      43.342 -11.269  12.176  1.00  0.00     0.004 C 
ENDBRANCH   4   5
ENDBRANCH   3   4
ENDBRANCH   1   3
BRANCH   2   7
ATOM      7  C   UNL     1      42.724  -6.147  14.414  1.00  0.00    -0.002 C 
ATOM      8  C   UNL     1      42.156  -5.279  13.574  1.00  0.00     0.001 C 
BRANCH   8   9
ATOM      9  C   UNL     1      42.166  -3.806  13.855  1.00  0.00     0.183 C 
BRANCH   9  10
ATOM     10  O   UNL     1      43.302  -3.207  13.292  1.00  0.00    -0.392 OA
ATOM     11  H   UNL     1      43.946  -3.939  13.107  1.00  0.00     0.210 HD
ENDBRANCH   9  10
ENDBRANCH   8   9
ENDBRANCH   2   7
TORSDOF 6
ENDMDL
