MODEL 1
REMARK VINA RESULT:    -5.643      0.000      0.000
REMARK INTER + INTRA:         -10.243
REMARK INTER:                  -8.612
REMARK INTRA:                  -1.631
REMARK UNBOUND:                -1.631
REMARK SMILES COc1cc(C=CC(=O)CC(=O)C=Cc2ccc(O)c(OC)c2)ccc1O
REMARK SMILES IDX 10 1 8 2 9 3 7 4 6 5 5 6 3 7 26 8 4 9 25 10 24 11 2 12 1 13
REMARK SMILES IDX 27 14 11 16 12 17 13 18 14 19 15 20 23 21 16 22 20 23 17 24
REMARK SMILES IDX 18 25 21 26 22 27 19 28
REMARK H PARENT 27 15 19 29
REMARK Flexibility Score: inf
ROOT
ATOM      1  C   UNL     1      25.854   7.122   6.971  1.00  0.00     0.160 C 
ENDROOT
BRANCH   1   2
ATOM      2  C   UNL     1      26.997   7.540   7.859  1.00  0.00     0.163 C 
ATOM      3  O   UNL     1      27.738   6.646   8.349  1.00  0.00    -0.294 OA
BRANCH   2   4
ATOM      4  C   UNL     1      27.311   8.953   8.170  1.00  0.00     0.048 C 
ATOM      5  C   UNL     1      26.636   9.684   9.070  1.00  0.00     0.012 C 
BRANCH   5   6
ATOM      6  C   UNL     1      26.957  11.097   9.381  1.00  0.00    -0.022 A 
ATOM      7  C   UNL     1      27.005  13.024  10.895  1.00  0.00     0.161 A 
ATOM      8  C   UNL     1      27.636  13.783   9.893  1.00  0.00     0.157 A 
ATOM      9  C   UNL     1      26.673  11.679  10.634  1.00  0.00     0.058 A 
ATOM     10  C   UNL     1      27.935  13.201   8.659  1.00  0.00     0.051 A 
ATOM     11  C   UNL     1      27.604  11.869   8.406  1.00  0.00     0.012 A 
BRANCH   7  12
ATOM     12  O   UNL     1      26.729  13.631  12.131  1.00  0.00    -0.493 OA
ATOM     13  C   UNL     1      25.480  13.554  12.810  1.00  0.00     0.278 C 
ENDBRANCH   7  12
BRANCH   8  14
ATOM     14  O   UNL     1      27.979  15.118  10.109  1.00  0.00    -0.504 OA
ATOM     15  H   UNL     1      27.562  15.670  10.849  1.00  0.00     0.293 HD
ENDBRANCH   8  14
ENDBRANCH   5   6
ENDBRANCH   2   4
ENDBRANCH   1   2
BRANCH   1  16
ATOM     16  C   UNL     1      25.666   8.090   5.831  1.00  0.00     0.163 C 
ATOM     17  O   UNL     1      26.255   7.859   4.741  1.00  0.00    -0.294 OA
BRANCH  16  18
ATOM     18  C   UNL     1      24.803   9.291   5.916  1.00  0.00     0.048 C 
ATOM     19  C   UNL     1      25.192  10.514   5.527  1.00  0.00     0.012 C 
BRANCH  19  20
ATOM     20  C   UNL     1      24.324  11.715   5.612  1.00  0.00    -0.022 A 
ATOM     21  C   UNL     1      24.924  12.964   5.844  1.00  0.00     0.058 A 
ATOM     22  C   UNL     1      22.923  11.640   5.508  1.00  0.00     0.012 A 
ATOM     23  C   UNL     1      24.143  14.132   5.943  1.00  0.00     0.161 A 
ATOM     24  C   UNL     1      22.145  12.795   5.606  1.00  0.00     0.051 A 
ATOM     25  C   UNL     1      22.750  14.040   5.821  1.00  0.00     0.157 A 
BRANCH  23  26
ATOM     26  O   UNL     1      24.711  15.397   6.164  1.00  0.00    -0.493 OA
ATOM     27  C   UNL     1      25.296  16.206   5.149  1.00  0.00     0.278 C 
ENDBRANCH  23  26
BRANCH  25  28
ATOM     28  O   UNL     1      21.972  15.192   5.917  1.00  0.00    -0.504 OA
ATOM     29  H   UNL     1      21.577  15.494   6.801  1.00  0.00     0.293 HD
ENDBRANCH  25  28
ENDBRANCH  19  20
ENDBRANCH  16  18
ENDBRANCH   1  16
TORSDOF 10
ENDMDL
MODEL 2
REMARK VINA RESULT:    -5.492      0.391      5.493
REMARK INTER + INTRA:         -10.013
REMARK INTER:                  -8.332
REMARK INTRA:                  -1.680
REMARK UNBOUND:                -1.631
REMARK SMILES COc1cc(C=CC(=O)CC(=O)C=Cc2ccc(O)c(OC)c2)ccc1O
REMARK SMILES IDX 10 1 8 2 9 3 7 4 6 5 5 6 3 7 26 8 4 9 25 10 24 11 2 12 1 13
REMARK SMILES IDX 27 14 11 16 12 17 13 18 14 19 15 20 23 21 16 22 20 23 17 24
REMARK SMILES IDX 18 25 21 26 22 27 19 28
REMARK H PARENT 27 15 19 29
REMARK Flexibility Score: inf
ROOT
ATOM      1  C   UNL     1      25.755   7.356   6.891  1.00  0.00     0.160 C 
ENDROOT
BRANCH   1   2
ATOM      2  C   UNL     1      25.602   8.302   5.728  1.00  0.00     0.163 C 
ATOM      3  O   UNL     1      26.211   8.042   4.655  1.00  0.00    -0.294 OA
BRANCH   2   4
ATOM      4  C   UNL     1      24.753   9.514   5.771  1.00  0.00     0.048 C 
ATOM      5  C   UNL     1      25.231  10.761   5.643  1.00  0.00     0.012 C 
BRANCH   5   6
ATOM      6  C   UNL     1      24.376  11.971   5.683  1.00  0.00    -0.022 A 
ATOM      7  C   UNL     1      24.066  14.402   5.711  1.00  0.00     0.161 A 
ATOM      8  C   UNL     1      22.672  14.215   5.725  1.00  0.00     0.157 A 
ATOM      9  C   UNL     1      24.913  13.275   5.685  1.00  0.00     0.058 A 
ATOM     10  C   UNL     1      22.140  12.923   5.703  1.00  0.00     0.051 A 
ATOM     11  C   UNL     1      22.983  11.811   5.677  1.00  0.00     0.012 A 
BRANCH   7  12
ATOM     12  O   UNL     1      24.572  15.712   5.719  1.00  0.00    -0.493 OA
ATOM     13  C   UNL     1      25.636  16.164   6.550  1.00  0.00     0.278 C 
ENDBRANCH   7  12
BRANCH   8  14
ATOM     14  O   UNL     1      21.798  15.302   5.754  1.00  0.00    -0.504 OA
ATOM     15  H   UNL     1      21.439  15.683   6.621  1.00  0.00     0.293 HD
ENDBRANCH   8  14
ENDBRANCH   5   6
ENDBRANCH   2   4
ENDBRANCH   1   2
BRANCH   1  16
ATOM     16  C   UNL     1      26.908   7.756   7.773  1.00  0.00     0.163 C 
ATOM     17  O   UNL     1      27.648   6.852   8.245  1.00  0.00    -0.294 OA
BRANCH  16  18
ATOM     18  C   UNL     1      27.234   9.164   8.099  1.00  0.00     0.048 C 
ATOM     19  C   UNL     1      26.597   9.875   9.042  1.00  0.00     0.012 C 
BRANCH  19  20
ATOM     20  C   UNL     1      26.928  11.284   9.367  1.00  0.00    -0.022 A 
ATOM     21  C   UNL     1      26.688  11.748  10.672  1.00  0.00     0.058 A 
ATOM     22  C   UNL     1      27.435  12.180   8.408  1.00  0.00     0.012 A 
ATOM     23  C   UNL     1      26.975  13.081  11.028  1.00  0.00     0.161 A 
ATOM     24  C   UNL     1      27.720  13.502   8.756  1.00  0.00     0.051 A 
ATOM     25  C   UNL     1      27.493  13.953  10.062  1.00  0.00     0.157 A 
BRANCH  23  26
ATOM     26  O   UNL     1      26.756  13.573  12.324  1.00  0.00    -0.493 OA
ATOM     27  C   UNL     1      25.471  13.760  12.910  1.00  0.00     0.278 C 
ENDBRANCH  23  26
BRANCH  25  28
ATOM     28  O   UNL     1      27.780  15.273  10.408  1.00  0.00    -0.504 OA
ATOM     29  H   UNL     1      27.940  15.546  11.371  1.00  0.00     0.293 HD
ENDBRANCH  25  28
ENDBRANCH  19  20
ENDBRANCH  16  18
ENDBRANCH   1  16
TORSDOF 10
ENDMDL
MODEL 3
REMARK VINA RESULT:    -5.409     14.657     17.376
REMARK INTER + INTRA:          -9.885
REMARK INTER:                  -8.996
REMARK INTRA:                  -0.890
REMARK UNBOUND:                -1.631
REMARK SMILES COc1cc(C=CC(=O)CC(=O)C=Cc2ccc(O)c(OC)c2)ccc1O
REMARK SMILES IDX 10 1 8 2 9 3 7 4 6 5 5 6 3 7 26 8 4 9 25 10 24 11 2 12 1 13
REMARK SMILES IDX 27 14 11 16 12 17 13 18 14 19 15 20 23 21 16 22 20 23 17 24
REMARK SMILES IDX 18 25 21 26 22 27 19 28
REMARK H PARENT 27 15 19 29
REMARK Flexibility Score: inf
ROOT
ATOM      1  C   UNL     1      14.152   1.510  -2.642  1.00  0.00     0.160 C 
ENDROOT
BRANCH   1   2
ATOM      2  C   UNL     1      15.206   2.054  -1.714  1.00  0.00     0.163 C 
ATOM      3  O   UNL     1      15.805   3.115  -2.038  1.00  0.00    -0.294 OA
BRANCH   2   4
ATOM      4  C   UNL     1      15.562   1.420  -0.425  1.00  0.00     0.048 C 
ATOM      5  C   UNL     1      15.016   1.769   0.750  1.00  0.00     0.012 C 
BRANCH   5   6
ATOM      6  C   UNL     1      15.372   1.128   2.039  1.00  0.00    -0.022 A 
ATOM      7  C   UNL     1      16.055   1.229   4.390  1.00  0.00     0.161 A 
ATOM      8  C   UNL     1      15.999  -0.175   4.456  1.00  0.00     0.157 A 
ATOM      9  C   UNL     1      15.736   1.875   3.178  1.00  0.00     0.058 A 
ATOM     10  C   UNL     1      15.620  -0.914   3.333  1.00  0.00     0.051 A 
ATOM     11  C   UNL     1      15.304  -0.269   2.136  1.00  0.00     0.012 A 
BRANCH   7  12
ATOM     12  O   UNL     1      16.426   1.946   5.539  1.00  0.00    -0.493 OA
ATOM     13  C   UNL     1      17.625   2.704   5.669  1.00  0.00     0.278 C 
ENDBRANCH   7  12
BRANCH   8  14
ATOM     14  O   UNL     1      16.311  -0.854   5.634  1.00  0.00    -0.504 OA
ATOM     15  H   UNL     1      16.367  -1.865   5.677  1.00  0.00     0.293 HD
ENDBRANCH   8  14
ENDBRANCH   5   6
ENDBRANCH   2   4
ENDBRANCH   1   2
BRANCH   1  16
ATOM     16  C   UNL     1      12.795   1.512  -1.989  1.00  0.00     0.163 C 
ATOM     17  O   UNL     1      12.161   0.425  -1.912  1.00  0.00    -0.294 OA
BRANCH  16  18
ATOM     18  C   UNL     1      12.173   2.724  -1.408  1.00  0.00     0.048 C 
ATOM     19  C   UNL     1      10.854   2.857  -1.202  1.00  0.00     0.012 C 
BRANCH  19  20
ATOM     20  C   UNL     1      10.234   4.072  -0.617  1.00  0.00    -0.022 A 
ATOM     21  C   UNL     1       9.378   4.844  -1.420  1.00  0.00     0.058 A 
ATOM     22  C   UNL     1      10.506   4.498   0.696  1.00  0.00     0.012 A 
ATOM     23  C   UNL     1       8.774   6.012  -0.915  1.00  0.00     0.161 A 
ATOM     24  C   UNL     1       9.910   5.655   1.201  1.00  0.00     0.051 A 
ATOM     25  C   UNL     1       9.044   6.411   0.401  1.00  0.00     0.157 A 
BRANCH  23  26
ATOM     26  O   UNL     1       7.906   6.801  -1.687  1.00  0.00    -0.493 OA
ATOM     27  C   UNL     1       8.330   7.759  -2.651  1.00  0.00     0.278 C 
ENDBRANCH  23  26
BRANCH  25  28
ATOM     28  O   UNL     1       8.449   7.565   0.907  1.00  0.00    -0.504 OA
ATOM     29  H   UNL     1       8.766   8.489   0.636  1.00  0.00     0.293 HD
ENDBRANCH  25  28
ENDBRANCH  19  20
ENDBRANCH  16  18
ENDBRANCH   1  16
TORSDOF 10
ENDMDL
MODEL 4
REMARK VINA RESULT:    -5.409     15.956     18.887
REMARK INTER + INTRA:          -9.885
REMARK INTER:                  -9.174
REMARK INTRA:                  -0.712
REMARK UNBOUND:                -1.631
REMARK SMILES COc1cc(C=CC(=O)CC(=O)C=Cc2ccc(O)c(OC)c2)ccc1O
REMARK SMILES IDX 10 1 8 2 9 3 7 4 6 5 5 6 3 7 26 8 4 9 25 10 24 11 2 12 1 13
REMARK SMILES IDX 27 14 11 16 12 17 13 18 14 19 15 20 23 21 16 22 20 23 17 24
REMARK SMILES IDX 18 25 21 26 22 27 19 28
REMARK H PARENT 27 15 19 29
REMARK Flexibility Score: inf
ROOT
ATOM      1  C   UNL     1      12.346   3.916   2.768  1.00  0.00     0.160 C 
ENDROOT
BRANCH   1   2
ATOM      2  C   UNL     1      11.078   3.484   2.080  1.00  0.00     0.163 C 
ATOM      3  O   UNL     1      10.433   2.513   2.558  1.00  0.00    -0.294 OA
BRANCH   2   4
ATOM      4  C   UNL     1      10.533   4.158   0.880  1.00  0.00     0.048 C 
ATOM      5  C   UNL     1      10.196   5.456   0.846  1.00  0.00     0.012 C 
BRANCH   5   6
ATOM      6  C   UNL     1       9.654   6.128  -0.360  1.00  0.00    -0.022 A 
ATOM      7  C   UNL     1       8.663   8.057  -1.501  1.00  0.00     0.161 A 
ATOM      8  C   UNL     1       8.676   7.336  -2.710  1.00  0.00     0.157 A 
ATOM      9  C   UNL     1       9.158   7.448  -0.330  1.00  0.00     0.058 A 
ATOM     10  C   UNL     1       9.185   6.036  -2.742  1.00  0.00     0.051 A 
ATOM     11  C   UNL     1       9.675   5.438  -1.580  1.00  0.00     0.012 A 
BRANCH   7  12
ATOM     12  O   UNL     1       8.157   9.367  -1.502  1.00  0.00    -0.493 OA
ATOM     13  C   UNL     1       8.841  10.499  -2.030  1.00  0.00     0.278 C 
ENDBRANCH   7  12
BRANCH   8  14
ATOM     14  O   UNL     1       8.192   7.900  -3.890  1.00  0.00    -0.504 OA
ATOM     15  H   UNL     1       8.748   8.530  -4.456  1.00  0.00     0.293 HD
ENDBRANCH   8  14
ENDBRANCH   5   6
ENDBRANCH   2   4
ENDBRANCH   1   2
BRANCH   1  16
ATOM     16  C   UNL     1      13.369   2.810   2.773  1.00  0.00     0.163 C 
ATOM     17  O   UNL     1      13.962   2.542   3.853  1.00  0.00    -0.294 OA
BRANCH  16  18
ATOM     18  C   UNL     1      13.700   2.002   1.577  1.00  0.00     0.048 C 
ATOM     19  C   UNL     1      14.688   2.308   0.723  1.00  0.00     0.012 C 
BRANCH  19  20
ATOM     20  C   UNL     1      15.018   1.494  -0.473  1.00  0.00    -0.022 A 
ATOM     21  C   UNL     1      16.338   1.510  -0.954  1.00  0.00     0.058 A 
ATOM     22  C   UNL     1      14.050   0.743  -1.163  1.00  0.00     0.012 A 
ATOM     23  C   UNL     1      16.700   0.763  -2.093  1.00  0.00     0.161 A 
ATOM     24  C   UNL     1      14.404   0.001  -2.293  1.00  0.00     0.051 A 
ATOM     25  C   UNL     1      15.725   0.008  -2.757  1.00  0.00     0.157 A 
BRANCH  23  26
ATOM     26  O   UNL     1      18.012   0.748  -2.593  1.00  0.00    -0.493 OA
ATOM     27  C   UNL     1      19.165   1.116  -1.843  1.00  0.00     0.278 C 
ENDBRANCH  23  26
BRANCH  25  28
ATOM     28  O   UNL     1      16.076  -0.734  -3.884  1.00  0.00    -0.504 OA
ATOM     29  H   UNL     1      16.136  -0.310  -4.802  1.00  0.00     0.293 HD
ENDBRANCH  25  28
ENDBRANCH  19  20
ENDBRANCH  16  18
ENDBRANCH   1  16
TORSDOF 10
ENDMDL
MODEL 5
REMARK VINA RESULT:    -5.305     15.338     18.480
REMARK INTER + INTRA:          -9.727
REMARK INTER:                  -7.962
REMARK INTRA:                  -1.765
REMARK UNBOUND:                -1.631
REMARK SMILES COc1cc(C=CC(=O)CC(=O)C=Cc2ccc(O)c(OC)c2)ccc1O
REMARK SMILES IDX 10 1 8 2 9 3 7 4 6 5 5 6 3 7 26 8 4 9 25 10 24 11 2 12 1 13
REMARK SMILES IDX 27 14 11 16 12 17 13 18 14 19 15 20 23 21 16 22 20 23 17 24
REMARK SMILES IDX 18 25 21 26 22 27 19 28
REMARK H PARENT 27 15 19 29
REMARK Flexibility Score: inf
ROOT
ATOM      1  C   UNL     1      16.057   0.040   4.146  1.00  0.00     0.160 C 
ENDROOT
BRANCH   1   2
ATOM      2  C   UNL     1      14.631  -0.438   4.228  1.00  0.00     0.163 C 
ATOM      3  O   UNL     1      14.238  -0.982   5.295  1.00  0.00    -0.294 OA
BRANCH   2   4
ATOM      4  C   UNL     1      13.655  -0.281   3.126  1.00  0.00     0.048 C 
ATOM      5  C   UNL     1      13.692  -0.998   1.993  1.00  0.00     0.012 C 
BRANCH   5   6
ATOM      6  C   UNL     1      12.711  -0.839   0.893  1.00  0.00    -0.022 A 
ATOM      7  C   UNL     1      10.467  -0.323   0.052  1.00  0.00     0.161 A 
ATOM      8  C   UNL     1      10.924  -0.526  -1.263  1.00  0.00     0.157 A 
ATOM      9  C   UNL     1      11.368  -0.477   1.126  1.00  0.00     0.058 A 
ATOM     10  C   UNL     1      12.260  -0.865  -1.494  1.00  0.00     0.051 A 
ATOM     11  C   UNL     1      13.147  -1.016  -0.428  1.00  0.00     0.012 A 
BRANCH   7  12
ATOM     12  O   UNL     1       9.123   0.031   0.254  1.00  0.00    -0.493 OA
ATOM     13  C   UNL     1       8.606   0.595   1.454  1.00  0.00     0.278 C 
ENDBRANCH   7  12
BRANCH   8  14
ATOM     14  O   UNL     1      10.066  -0.387  -2.353  1.00  0.00    -0.504 OA
ATOM     15  H   UNL     1       9.443  -1.130  -2.649  1.00  0.00     0.293 HD
ENDBRANCH   8  14
ENDBRANCH   5   6
ENDBRANCH   2   4
ENDBRANCH   1   2
BRANCH   1  16
ATOM     16  C   UNL     1      16.122   1.523   3.883  1.00  0.00     0.163 C 
ATOM     17  O   UNL     1      16.711   2.258   4.721  1.00  0.00    -0.294 OA
BRANCH  16  18
ATOM     18  C   UNL     1      15.549   2.162   2.677  1.00  0.00     0.048 C 
ATOM     19  C   UNL     1      15.937   1.870   1.426  1.00  0.00     0.012 C 
BRANCH  19  20
ATOM     20  C   UNL     1      15.359   2.511   0.219  1.00  0.00    -0.022 A 
ATOM     21  C   UNL     1      13.966   2.475   0.040  1.00  0.00     0.058 A 
ATOM     22  C   UNL     1      16.158   3.115  -0.769  1.00  0.00     0.012 A 
ATOM     23  C   UNL     1      13.369   3.059  -1.095  1.00  0.00     0.161 A 
ATOM     24  C   UNL     1      15.571   3.694  -1.896  1.00  0.00     0.051 A 
ATOM     25  C   UNL     1      14.181   3.670  -2.060  1.00  0.00     0.157 A 
BRANCH  23  26
ATOM     26  O   UNL     1      11.980   3.050  -1.300  1.00  0.00    -0.493 OA
ATOM     27  C   UNL     1      11.014   3.299  -0.284  1.00  0.00     0.278 C 
ENDBRANCH  23  26
BRANCH  25  28
ATOM     28  O   UNL     1      13.597   4.251  -3.185  1.00  0.00    -0.504 OA
ATOM     29  H   UNL     1      13.911   4.026  -4.122  1.00  0.00     0.293 HD
ENDBRANCH  25  28
ENDBRANCH  19  20
ENDBRANCH  16  18
ENDBRANCH   1  16
TORSDOF 10
ENDMDL
MODEL 6
REMARK VINA RESULT:    -5.267     15.198     19.095
REMARK INTER + INTRA:          -9.668
REMARK INTER:                  -8.386
REMARK INTRA:                  -1.282
REMARK UNBOUND:                -1.631
REMARK SMILES COc1cc(C=CC(=O)CC(=O)C=Cc2ccc(O)c(OC)c2)ccc1O
REMARK SMILES IDX 10 1 8 2 9 3 7 4 6 5 5 6 3 7 26 8 4 9 25 10 24 11 2 12 1 13
REMARK SMILES IDX 27 14 11 16 12 17 13 18 14 19 15 20 23 21 16 22 20 23 17 24
REMARK SMILES IDX 18 25 21 26 22 27 19 28
REMARK H PARENT 27 15 19 29
REMARK Flexibility Score: inf
ROOT
ATOM      1  C   UNL     1       8.108   6.095  -0.575  1.00  0.00     0.160 C 
ENDROOT
BRANCH   1   2
ATOM      2  C   UNL     1       8.879   5.825  -1.841  1.00  0.00     0.163 C 
ATOM      3  O   UNL     1       8.578   6.473  -2.879  1.00  0.00    -0.294 OA
BRANCH   2   4
ATOM      4  C   UNL     1       9.992   4.853  -1.924  1.00  0.00     0.048 C 
ATOM      5  C   UNL     1       9.916   3.596  -1.462  1.00  0.00     0.012 C 
BRANCH   5   6
ATOM      6  C   UNL     1      11.033   2.624  -1.551  1.00  0.00    -0.022 A 
ATOM      7  C   UNL     1      13.419   2.071  -1.640  1.00  0.00     0.161 A 
ATOM      8  C   UNL     1      13.090   0.704  -1.687  1.00  0.00     0.157 A 
ATOM      9  C   UNL     1      12.384   3.026  -1.568  1.00  0.00     0.058 A 
ATOM     10  C   UNL     1      11.751   0.305  -1.651  1.00  0.00     0.051 A 
ATOM     11  C   UNL     1      10.732   1.255  -1.578  1.00  0.00     0.012 A 
BRANCH   7  12
ATOM     12  O   UNL     1      14.773   2.442  -1.664  1.00  0.00    -0.493 OA
ATOM     13  C   UNL     1      15.244   3.781  -1.765  1.00  0.00     0.278 C 
ENDBRANCH   7  12
BRANCH   8  14
ATOM     14  O   UNL     1      14.082  -0.274  -1.762  1.00  0.00    -0.504 OA
ATOM     15  H   UNL     1      14.507  -0.677  -0.936  1.00  0.00     0.293 HD
ENDBRANCH   8  14
ENDBRANCH   5   6
ENDBRANCH   2   4
ENDBRANCH   1   2
BRANCH   1  16
ATOM     16  C   UNL     1       9.027   6.503   0.548  1.00  0.00     0.163 C 
ATOM     17  O   UNL     1       8.622   7.363   1.376  1.00  0.00    -0.294 OA
BRANCH  16  18
ATOM     18  C   UNL     1      10.377   5.927   0.744  1.00  0.00     0.048 C 
ATOM     19  C   UNL     1      10.626   4.863   1.523  1.00  0.00     0.012 C 
BRANCH  19  20
ATOM     20  C   UNL     1      11.980   4.288   1.716  1.00  0.00    -0.022 A 
ATOM     21  C   UNL     1      12.089   2.951   2.135  1.00  0.00     0.058 A 
ATOM     22  C   UNL     1      13.152   5.043   1.533  1.00  0.00     0.012 A 
ATOM     23  C   UNL     1      13.352   2.362   2.342  1.00  0.00     0.161 A 
ATOM     24  C   UNL     1      14.406   4.464   1.738  1.00  0.00     0.051 A 
ATOM     25  C   UNL     1      14.509   3.126   2.140  1.00  0.00     0.157 A 
BRANCH  23  26
ATOM     26  O   UNL     1      13.498   1.026   2.751  1.00  0.00    -0.493 OA
ATOM     27  C   UNL     1      13.239  -0.103   1.922  1.00  0.00     0.278 C 
ENDBRANCH  23  26
BRANCH  25  28
ATOM     28  O   UNL     1      15.761   2.548   2.343  1.00  0.00    -0.504 OA
ATOM     29  H   UNL     1      15.863   1.646   2.793  1.00  0.00     0.293 HD
ENDBRANCH  25  28
ENDBRANCH  19  20
ENDBRANCH  16  18
ENDBRANCH   1  16
TORSDOF 10
ENDMDL
MODEL 7
REMARK VINA RESULT:    -5.246     15.350     18.050
REMARK INTER + INTRA:          -9.636
REMARK INTER:                  -9.083
REMARK INTRA:                  -0.554
REMARK UNBOUND:                -1.631
REMARK SMILES COc1cc(C=CC(=O)CC(=O)C=Cc2ccc(O)c(OC)c2)ccc1O
REMARK SMILES IDX 10 1 8 2 9 3 7 4 6 5 5 6 3 7 26 8 4 9 25 10 24 11 2 12 1 13
REMARK SMILES IDX 27 14 11 16 12 17 13 18 14 19 15 20 23 21 16 22 20 23 17 24
REMARK SMILES IDX 18 25 21 26 22 27 19 28
REMARK H PARENT 27 15 19 29
REMARK Flexibility Score: inf
ROOT
ATOM      1  C   UNL     1       9.095   7.273  -0.032  1.00  0.00     0.160 C 
ENDROOT
BRANCH   1   2
ATOM      2  C   UNL     1       9.077   5.832   0.409  1.00  0.00     0.163 C 
ATOM      3  O   UNL     1       7.966   5.288   0.645  1.00  0.00    -0.294 OA
BRANCH   2   4
ATOM      4  C   UNL     1      10.300   5.012   0.558  1.00  0.00     0.048 C 
ATOM      5  C   UNL     1      11.223   5.218   1.510  1.00  0.00     0.012 C 
BRANCH   5   6
ATOM      6  C   UNL     1      12.445   4.391   1.657  1.00  0.00    -0.022 A 
ATOM      7  C   UNL     1      14.765   3.840   1.094  1.00  0.00     0.161 A 
ATOM      8  C   UNL     1      14.732   2.789   2.028  1.00  0.00     0.157 A 
ATOM      9  C   UNL     1      13.618   4.641   0.916  1.00  0.00     0.058 A 
ATOM     10  C   UNL     1      13.575   2.554   2.775  1.00  0.00     0.051 A 
ATOM     11  C   UNL     1      12.443   3.350   2.596  1.00  0.00     0.012 A 
BRANCH   7  12
ATOM     12  O   UNL     1      15.946   4.061   0.367  1.00  0.00    -0.493 OA
ATOM     13  C   UNL     1      16.180   3.596  -0.958  1.00  0.00     0.278 C 
ENDBRANCH   7  12
BRANCH   8  14
ATOM     14  O   UNL     1      15.842   1.970   2.232  1.00  0.00    -0.504 OA
ATOM     15  H   UNL     1      16.555   2.187   2.919  1.00  0.00     0.293 HD
ENDBRANCH   8  14
ENDBRANCH   5   6
ENDBRANCH   2   4
ENDBRANCH   1   2
BRANCH   1  16
ATOM     16  C   UNL     1       8.910   7.390  -1.522  1.00  0.00     0.163 C 
ATOM     17  O   UNL     1       8.771   6.335  -2.197  1.00  0.00    -0.294 OA
BRANCH  16  18
ATOM     18  C   UNL     1       8.860   8.686  -2.237  1.00  0.00     0.048 C 
ATOM     19  C   UNL     1       9.248   9.850  -1.694  1.00  0.00     0.012 C 
BRANCH  19  20
ATOM     20  C   UNL     1       9.199  11.147  -2.414  1.00  0.00    -0.022 A 
ATOM     21  C   UNL     1      10.407  11.742  -2.811  1.00  0.00     0.058 A 
ATOM     22  C   UNL     1       7.990  11.817  -2.676  1.00  0.00     0.012 A 
ATOM     23  C   UNL     1      10.414  12.978  -3.487  1.00  0.00     0.161 A 
ATOM     24  C   UNL     1       7.992  13.043  -3.345  1.00  0.00     0.051 A 
ATOM     25  C   UNL     1       9.199  13.623  -3.753  1.00  0.00     0.157 A 
BRANCH  23  26
ATOM     26  O   UNL     1      11.603  13.596  -3.907  1.00  0.00    -0.493 OA
ATOM     27  C   UNL     1      12.291  13.283  -5.115  1.00  0.00     0.278 C 
ENDBRANCH  23  26
BRANCH  25  28
ATOM     28  O   UNL     1       9.199  14.845  -4.423  1.00  0.00    -0.504 OA
ATOM     29  H   UNL     1       9.435  15.710  -3.950  1.00  0.00     0.293 HD
ENDBRANCH  25  28
ENDBRANCH  19  20
ENDBRANCH  16  18
ENDBRANCH   1  16
TORSDOF 10
ENDMDL
MODEL 8
REMARK VINA RESULT:    -5.228     14.401     18.138
REMARK INTER + INTRA:          -9.609
REMARK INTER:                  -8.009
REMARK INTRA:                  -1.600
REMARK UNBOUND:                -1.631
REMARK SMILES COc1cc(C=CC(=O)CC(=O)C=Cc2ccc(O)c(OC)c2)ccc1O
REMARK SMILES IDX 10 1 8 2 9 3 7 4 6 5 5 6 3 7 26 8 4 9 25 10 24 11 2 12 1 13
REMARK SMILES IDX 27 14 11 16 12 17 13 18 14 19 15 20 23 21 16 22 20 23 17 24
REMARK SMILES IDX 18 25 21 26 22 27 19 28
REMARK H PARENT 27 15 19 29
REMARK Flexibility Score: inf
ROOT
ATOM      1  C   UNL     1       9.583   3.875   1.016  1.00  0.00     0.160 C 
ENDROOT
BRANCH   1   2
ATOM      2  C   UNL     1       9.939   3.634  -0.428  1.00  0.00     0.163 C 
ATOM      3  O   UNL     1       9.046   3.789  -1.303  1.00  0.00    -0.294 OA
BRANCH   2   4
ATOM      4  C   UNL     1      11.295   3.245  -0.878  1.00  0.00     0.048 C 
ATOM      5  C   UNL     1      11.703   1.973  -0.993  1.00  0.00     0.012 C 
BRANCH   5   6
ATOM      6  C   UNL     1      13.061   1.588  -1.448  1.00  0.00    -0.022 A 
ATOM      7  C   UNL     1      15.452   2.038  -1.744  1.00  0.00     0.161 A 
ATOM      8  C   UNL     1      15.612   0.758  -2.307  1.00  0.00     0.157 A 
ATOM      9  C   UNL     1      14.173   2.445  -1.312  1.00  0.00     0.058 A 
ATOM     10  C   UNL     1      14.514  -0.097  -2.424  1.00  0.00     0.051 A 
ATOM     11  C   UNL     1      13.250   0.311  -1.994  1.00  0.00     0.012 A 
BRANCH   7  12
ATOM     12  O   UNL     1      16.576   2.871  -1.627  1.00  0.00    -0.493 OA
ATOM     13  C   UNL     1      16.848   3.712  -0.511  1.00  0.00     0.278 C 
ENDBRANCH   7  12
BRANCH   8  14
ATOM     14  O   UNL     1      16.859   0.318  -2.751  1.00  0.00    -0.504 OA
ATOM     15  H   UNL     1      17.367  -0.425  -2.285  1.00  0.00     0.293 HD
ENDBRANCH   8  14
ENDBRANCH   5   6
ENDBRANCH   2   4
ENDBRANCH   1   2
BRANCH   1  16
ATOM     16  C   UNL     1      10.815   4.113   1.850  1.00  0.00     0.163 C 
ATOM     17  O   UNL     1      11.110   5.297   2.166  1.00  0.00    -0.294 OA
BRANCH  16  18
ATOM     18  C   UNL     1      11.689   3.022   2.340  1.00  0.00     0.048 C 
ATOM     19  C   UNL     1      13.024   3.023   2.209  1.00  0.00     0.012 C 
BRANCH  19  20
ATOM     20  C   UNL     1      13.896   1.929   2.704  1.00  0.00    -0.022 A 
ATOM     21  C   UNL     1      14.719   2.176   3.816  1.00  0.00     0.058 A 
ATOM     22  C   UNL     1      13.958   0.672   2.076  1.00  0.00     0.012 A 
ATOM     23  C   UNL     1      15.573   1.174   4.317  1.00  0.00     0.161 A 
ATOM     24  C   UNL     1      14.804  -0.324   2.568  1.00  0.00     0.051 A 
ATOM     25  C   UNL     1      15.609  -0.077   3.687  1.00  0.00     0.157 A 
BRANCH  23  26
ATOM     26  O   UNL     1      16.400   1.383   5.432  1.00  0.00    -0.493 OA
ATOM     27  C   UNL     1      17.510   2.276   5.456  1.00  0.00     0.278 C 
ENDBRANCH  23  26
BRANCH  25  28
ATOM     28  O   UNL     1      16.451  -1.073   4.179  1.00  0.00    -0.504 OA
ATOM     29  H   UNL     1      17.433  -0.896   4.361  1.00  0.00     0.293 HD
ENDBRANCH  25  28
ENDBRANCH  19  20
ENDBRANCH  16  18
ENDBRANCH   1  16
TORSDOF 10
ENDMDL
MODEL 9
REMARK VINA RESULT:    -5.150     14.971     17.629
REMARK INTER + INTRA:          -9.490
REMARK INTER:                  -8.572
REMARK INTRA:                  -0.918
REMARK UNBOUND:                -1.631
REMARK SMILES COc1cc(C=CC(=O)CC(=O)C=Cc2ccc(O)c(OC)c2)ccc1O
REMARK SMILES IDX 10 1 8 2 9 3 7 4 6 5 5 6 3 7 26 8 4 9 25 10 24 11 2 12 1 13
REMARK SMILES IDX 27 14 11 16 12 17 13 18 14 19 15 20 23 21 16 22 20 23 17 24
REMARK SMILES IDX 18 25 21 26 22 27 19 28
REMARK H PARENT 27 15 19 29
REMARK Flexibility Score: inf
ROOT
ATOM      1  C   UNL     1      16.865   0.820  -2.380  1.00  0.00     0.160 C 
ENDROOT
BRANCH   1   2
ATOM      2  C   UNL     1      16.522   1.789  -1.279  1.00  0.00     0.163 C 
ATOM      3  O   UNL     1      16.278   2.987  -1.584  1.00  0.00    -0.294 OA
BRANCH   2   4
ATOM      4  C   UNL     1      16.433   1.402   0.147  1.00  0.00     0.048 C 
ATOM      5  C   UNL     1      15.274   1.277   0.812  1.00  0.00     0.012 C 
BRANCH   5   6
ATOM      6  C   UNL     1      15.190   0.885   2.240  1.00  0.00    -0.022 A 
ATOM      7  C   UNL     1      15.725   1.212   4.609  1.00  0.00     0.161 A 
ATOM      8  C   UNL     1      14.943   0.087   4.930  1.00  0.00     0.157 A 
ATOM      9  C   UNL     1      15.840   1.608   3.260  1.00  0.00     0.058 A 
ATOM     10  C   UNL     1      14.284  -0.617   3.920  1.00  0.00     0.051 A 
ATOM     11  C   UNL     1      14.401  -0.220   2.588  1.00  0.00     0.012 A 
BRANCH   7  12
ATOM     12  O   UNL     1      16.366   1.909   5.646  1.00  0.00    -0.493 OA
ATOM     13  C   UNL     1      17.585   2.630   5.505  1.00  0.00     0.278 C 
ENDBRANCH   7  12
BRANCH   8  14
ATOM     14  O   UNL     1      14.806  -0.341   6.250  1.00  0.00    -0.504 OA
ATOM     15  H   UNL     1      14.149   0.087   6.892  1.00  0.00     0.293 HD
ENDBRANCH   8  14
ENDBRANCH   5   6
ENDBRANCH   2   4
ENDBRANCH   1   2
BRANCH   1  16
ATOM     16  C   UNL     1      15.649   0.053  -2.831  1.00  0.00     0.163 C 
ATOM     17  O   UNL     1      15.772  -0.767  -3.780  1.00  0.00    -0.294 OA
BRANCH  16  18
ATOM     18  C   UNL     1      14.317   0.194  -2.200  1.00  0.00     0.048 C 
ATOM     19  C   UNL     1      13.439   1.156  -2.524  1.00  0.00     0.012 C 
BRANCH  19  20
ATOM     20  C   UNL     1      12.104   1.293  -1.891  1.00  0.00    -0.022 A 
ATOM     21  C   UNL     1      11.870   2.390  -1.045  1.00  0.00     0.058 A 
ATOM     22  C   UNL     1      11.081   0.345  -2.077  1.00  0.00     0.012 A 
ATOM     23  C   UNL     1      10.622   2.559  -0.412  1.00  0.00     0.161 A 
ATOM     24  C   UNL     1       9.844   0.508  -1.452  1.00  0.00     0.051 A 
ATOM     25  C   UNL     1       9.611   1.612  -0.623  1.00  0.00     0.157 A 
BRANCH  23  26
ATOM     26  O   UNL     1      10.352   3.649   0.431  1.00  0.00    -0.493 OA
ATOM     27  C   UNL     1      10.048   4.964  -0.023  1.00  0.00     0.278 C 
ENDBRANCH  23  26
BRANCH  25  28
ATOM     28  O   UNL     1       8.374   1.775  -0.000  1.00  0.00    -0.504 OA
ATOM     29  H   UNL     1       7.760   0.987   0.174  1.00  0.00     0.293 HD
ENDBRANCH  25  28
ENDBRANCH  19  20
ENDBRANCH  16  18
ENDBRANCH   1  16
TORSDOF 10
ENDMDL
