MODEL 1
REMARK VINA RESULT:    -4.637      0.000      0.000
REMARK INTER + INTRA:          -6.973
REMARK INTER:                  -6.670
REMARK INTRA:                  -0.303
REMARK UNBOUND:                -0.303
REMARK SMILES CCCCCCCCCO
REMARK SMILES IDX 6 1 5 2 4 3 3 4 2 5 1 6 7 7 8 8 9 9 10 10
REMARK H PARENT 10 11
REMARK Flexibility Score: inf
ROOT
ATOM      1  C   UNL     1     -33.006  50.992 -51.181  1.00  0.00     0.000 C 
ENDROOT
BRANCH   1   2
ATOM      2  C   UNL     1     -33.032  50.942 -52.717  1.00  0.00     0.000 C 
BRANCH   2   3
ATOM      3  C   UNL     1     -34.239  50.166 -53.266  1.00  0.00    -0.000 C 
BRANCH   3   4
ATOM      4  C   UNL     1     -35.315  49.913 -52.196  1.00  0.00    -0.000 C 
BRANCH   4   5
ATOM      5  C   UNL     1     -36.471  49.045 -52.719  1.00  0.00    -0.003 C 
ATOM      6  C   UNL     1     -36.453  47.626 -52.151  1.00  0.00     0.004 C 
ENDBRANCH   4   5
ENDBRANCH   3   4
ENDBRANCH   2   3
ENDBRANCH   1   2
BRANCH   1   7
ATOM      7  C   UNL     1     -32.413  52.317 -50.685  1.00  0.00     0.002 C 
BRANCH   7   8
ATOM      8  C   UNL     1     -31.645  53.029 -51.804  1.00  0.00     0.028 C 
BRANCH   8   9
ATOM      9  C   UNL     1     -31.002  54.322 -51.295  1.00  0.00     0.156 C 
BRANCH   9  10
ATOM     10  O   UNL     1     -31.924  55.055 -50.537  1.00  0.00    -0.396 OA
ATOM     11  H   UNL     1     -32.268  54.443 -49.834  1.00  0.00     0.210 HD
ENDBRANCH   9  10
ENDBRANCH   8   9
ENDBRANCH   7   8
ENDBRANCH   1   7
TORSDOF 8
ENDMDL
MODEL 2
REMARK VINA RESULT:    -4.508      1.157      1.649
REMARK INTER + INTRA:          -6.786
REMARK INTER:                  -6.593
REMARK INTRA:                  -0.194
REMARK UNBOUND:                -0.303
REMARK SMILES CCCCCCCCCO
REMARK SMILES IDX 6 1 5 2 4 3 3 4 2 5 1 6 7 7 8 8 9 9 10 10
REMARK H PARENT 10 11
REMARK Flexibility Score: inf
ROOT
ATOM      1  C   UNL     1     -34.248  51.054 -51.759  1.00  0.00     0.000 C 
ENDROOT
BRANCH   1   2
ATOM      2  C   UNL     1     -34.217  49.661 -52.408  1.00  0.00     0.000 C 
BRANCH   2   3
ATOM      3  C   UNL     1     -35.534  49.305 -53.114  1.00  0.00    -0.000 C 
BRANCH   3   4
ATOM      4  C   UNL     1     -36.469  48.461 -52.232  1.00  0.00    -0.000 C 
BRANCH   4   5
ATOM      5  C   UNL     1     -37.938  48.900 -52.343  1.00  0.00    -0.003 C 
ATOM      6  C   UNL     1     -38.317  49.351 -53.754  1.00  0.00     0.004 C 
ENDBRANCH   4   5
ENDBRANCH   3   4
ENDBRANCH   2   3
ENDBRANCH   1   2
BRANCH   1   7
ATOM      7  C   UNL     1     -33.005  51.866 -52.143  1.00  0.00     0.002 C 
BRANCH   7   8
ATOM      8  C   UNL     1     -32.353  52.493 -50.906  1.00  0.00     0.028 C 
BRANCH   8   9
ATOM      9  C   UNL     1     -31.540  53.736 -51.281  1.00  0.00     0.156 C 
BRANCH   9  10
ATOM     10  O   UNL     1     -31.996  54.847 -50.559  1.00  0.00    -0.396 OA
ATOM     11  H   UNL     1     -31.635  55.652 -51.016  1.00  0.00     0.210 HD
ENDBRANCH   9  10
ENDBRANCH   8   9
ENDBRANCH   7   8
ENDBRANCH   1   7
TORSDOF 8
ENDMDL
MODEL 3
REMARK VINA RESULT:    -4.403      3.390      5.809
REMARK INTER + INTRA:          -6.636
REMARK INTER:                  -6.299
REMARK INTRA:                  -0.336
REMARK UNBOUND:                -0.303
REMARK SMILES CCCCCCCCCO
REMARK SMILES IDX 6 1 5 2 4 3 3 4 2 5 1 6 7 7 8 8 9 9 10 10
REMARK H PARENT 10 11
REMARK Flexibility Score: inf
ROOT
ATOM      1  C   UNL     1     -35.399  49.774 -52.491  1.00  0.00     0.000 C 
ENDROOT
BRANCH   1   2
ATOM      2  C   UNL     1     -34.391  50.245 -53.551  1.00  0.00     0.000 C 
BRANCH   2   3
ATOM      3  C   UNL     1     -33.385  51.268 -53.001  1.00  0.00    -0.000 C 
BRANCH   3   4
ATOM      4  C   UNL     1     -33.551  51.507 -51.490  1.00  0.00    -0.000 C 
BRANCH   4   5
ATOM      5  C   UNL     1     -32.395  50.911 -50.670  1.00  0.00    -0.003 C 
ATOM      6  C   UNL     1     -32.494  51.238 -49.180  1.00  0.00     0.004 C 
ENDBRANCH   4   5
ENDBRANCH   3   4
ENDBRANCH   2   3
ENDBRANCH   1   2
BRANCH   1   7
ATOM      7  C   UNL     1     -35.561  48.249 -52.527  1.00  0.00     0.002 C 
BRANCH   7   8
ATOM      8  C   UNL     1     -36.986  47.838 -52.139  1.00  0.00     0.028 C 
BRANCH   8   9
ATOM      9  C   UNL     1     -38.004  48.891 -52.586  1.00  0.00     0.156 C 
BRANCH   9  10
ATOM     10  O   UNL     1     -39.078  48.938 -51.687  1.00  0.00    -0.396 OA
ATOM     11  H   UNL     1     -39.343  49.892 -51.607  1.00  0.00     0.210 HD
ENDBRANCH   9  10
ENDBRANCH   8   9
ENDBRANCH   7   8
ENDBRANCH   1   7
TORSDOF 8
ENDMDL
MODEL 4
REMARK VINA RESULT:    -4.389     12.074     14.839
REMARK INTER + INTRA:          -6.616
REMARK INTER:                  -5.945
REMARK INTRA:                  -0.671
REMARK UNBOUND:                -0.303
REMARK SMILES CCCCCCCCCO
REMARK SMILES IDX 6 1 5 2 4 3 3 4 2 5 1 6 7 7 8 8 9 9 10 10
REMARK H PARENT 10 11
REMARK Flexibility Score: inf
ROOT
ATOM      1  C   UNL     1     -40.616  39.164 -50.306  1.00  0.00     0.000 C 
ENDROOT
BRANCH   1   2
ATOM      2  C   UNL     1     -41.249  37.893 -50.893  1.00  0.00     0.000 C 
BRANCH   2   3
ATOM      3  C   UNL     1     -42.528  37.470 -50.154  1.00  0.00    -0.000 C 
BRANCH   3   4
ATOM      4  C   UNL     1     -43.611  36.934 -51.106  1.00  0.00    -0.000 C 
BRANCH   4   5
ATOM      5  C   UNL     1     -44.130  38.012 -52.071  1.00  0.00    -0.003 C 
ATOM      6  C   UNL     1     -44.960  39.088 -51.370  1.00  0.00     0.004 C 
ENDBRANCH   4   5
ENDBRANCH   3   4
ENDBRANCH   2   3
ENDBRANCH   1   2
BRANCH   1   7
ATOM      7  C   UNL     1     -41.662  40.274 -50.144  1.00  0.00     0.002 C 
BRANCH   7   8
ATOM      8  C   UNL     1     -41.774  41.115 -51.421  1.00  0.00     0.028 C 
BRANCH   8   9
ATOM      9  C   UNL     1     -41.243  42.533 -51.195  1.00  0.00     0.156 C 
BRANCH   9  10
ATOM     10  O   UNL     1     -41.406  42.903 -49.854  1.00  0.00    -0.396 OA
ATOM     11  H   UNL     1     -41.941  42.186 -49.422  1.00  0.00     0.210 HD
ENDBRANCH   9  10
ENDBRANCH   8   9
ENDBRANCH   7   8
ENDBRANCH   1   7
TORSDOF 8
ENDMDL
MODEL 5
REMARK VINA RESULT:    -4.277      3.310      6.189
REMARK INTER + INTRA:          -6.455
REMARK INTER:                  -6.232
REMARK INTRA:                  -0.223
REMARK UNBOUND:                -0.303
REMARK SMILES CCCCCCCCCO
REMARK SMILES IDX 6 1 5 2 4 3 3 4 2 5 1 6 7 7 8 8 9 9 10 10
REMARK H PARENT 10 11
REMARK Flexibility Score: inf
ROOT
ATOM      1  C   UNL     1     -34.839  49.710 -52.215  1.00  0.00     0.000 C 
ENDROOT
BRANCH   1   2
ATOM      2  C   UNL     1     -34.125  51.070 -52.252  1.00  0.00     0.000 C 
BRANCH   2   3
ATOM      3  C   UNL     1     -32.721  50.988 -52.871  1.00  0.00    -0.000 C 
BRANCH   3   4
ATOM      4  C   UNL     1     -31.831  52.179 -52.478  1.00  0.00    -0.000 C 
BRANCH   4   5
ATOM      5  C   UNL     1     -32.207  52.767 -51.109  1.00  0.00    -0.003 C 
ATOM      6  C   UNL     1     -31.567  54.132 -50.853  1.00  0.00     0.004 C 
ENDBRANCH   4   5
ENDBRANCH   3   4
ENDBRANCH   2   3
ENDBRANCH   1   2
BRANCH   1   7
ATOM      7  C   UNL     1     -36.321  49.857 -52.580  1.00  0.00     0.002 C 
BRANCH   7   8
ATOM      8  C   UNL     1     -37.103  48.587 -52.227  1.00  0.00     0.028 C 
BRANCH   8   9
ATOM      9  C   UNL     1     -36.167  47.382 -52.095  1.00  0.00     0.156 C 
BRANCH   9  10
ATOM     10  O   UNL     1     -36.864  46.283 -51.575  1.00  0.00    -0.396 OA
ATOM     11  H   UNL     1     -37.199  46.555 -50.680  1.00  0.00     0.210 HD
ENDBRANCH   9  10
ENDBRANCH   8   9
ENDBRANCH   7   8
ENDBRANCH   1   7
TORSDOF 8
ENDMDL
MODEL 6
REMARK VINA RESULT:    -4.260      9.876     12.964
REMARK INTER + INTRA:          -6.430
REMARK INTER:                  -6.132
REMARK INTRA:                  -0.299
REMARK UNBOUND:                -0.303
REMARK SMILES CCCCCCCCCO
REMARK SMILES IDX 6 1 5 2 4 3 3 4 2 5 1 6 7 7 8 8 9 9 10 10
REMARK H PARENT 10 11
REMARK Flexibility Score: inf
ROOT
ATOM      1  C   UNL     1     -41.710  41.510 -51.269  1.00  0.00     0.000 C 
ENDROOT
BRANCH   1   2
ATOM      2  C   UNL     1     -41.689  40.808 -49.902  1.00  0.00     0.000 C 
BRANCH   2   3
ATOM      3  C   UNL     1     -40.881  39.501 -49.917  1.00  0.00    -0.000 C 
BRANCH   3   4
ATOM      4  C   UNL     1     -41.032  38.728 -51.238  1.00  0.00    -0.000 C 
BRANCH   4   5
ATOM      5  C   UNL     1     -41.594  37.312 -51.030  1.00  0.00    -0.003 C 
ATOM      6  C   UNL     1     -42.668  37.253 -49.945  1.00  0.00     0.004 C 
ENDBRANCH   4   5
ENDBRANCH   3   4
ENDBRANCH   2   3
ENDBRANCH   1   2
BRANCH   1   7
ATOM      7  C   UNL     1     -40.659  42.625 -51.329  1.00  0.00     0.002 C 
BRANCH   7   8
ATOM      8  C   UNL     1     -41.172  43.821 -52.139  1.00  0.00     0.028 C 
BRANCH   8   9
ATOM      9  C   UNL     1     -40.035  44.487 -52.920  1.00  0.00     0.156 C 
BRANCH   9  10
ATOM     10  O   UNL     1     -38.829  44.365 -52.217  1.00  0.00    -0.396 OA
ATOM     11  H   UNL     1     -38.113  44.699 -52.819  1.00  0.00     0.210 HD
ENDBRANCH   9  10
ENDBRANCH   8   9
ENDBRANCH   7   8
ENDBRANCH   1   7
TORSDOF 8
ENDMDL
MODEL 7
REMARK VINA RESULT:    -4.238      2.237      3.201
REMARK INTER + INTRA:          -6.398
REMARK INTER:                  -6.175
REMARK INTRA:                  -0.224
REMARK UNBOUND:                -0.303
REMARK SMILES CCCCCCCCCO
REMARK SMILES IDX 6 1 5 2 4 3 3 4 2 5 1 6 7 7 8 8 9 9 10 10
REMARK H PARENT 10 11
REMARK Flexibility Score: inf
ROOT
ATOM      1  C   UNL     1     -34.290  49.702 -52.423  1.00  0.00     0.000 C 
ENDROOT
BRANCH   1   2
ATOM      2  C   UNL     1     -35.545  49.305 -53.215  1.00  0.00     0.000 C 
BRANCH   2   3
ATOM      3  C   UNL     1     -36.477  48.373 -52.424  1.00  0.00    -0.000 C 
BRANCH   3   4
ATOM      4  C   UNL     1     -37.921  48.899 -52.358  1.00  0.00    -0.000 C 
BRANCH   4   5
ATOM      5  C   UNL     1     -38.739  48.529 -53.605  1.00  0.00    -0.003 C 
ATOM      6  C   UNL     1     -39.325  49.750 -54.315  1.00  0.00     0.004 C 
ENDBRANCH   4   5
ENDBRANCH   3   4
ENDBRANCH   2   3
ENDBRANCH   1   2
BRANCH   1   7
ATOM      7  C   UNL     1     -34.256  51.215 -52.169  1.00  0.00     0.002 C 
BRANCH   7   8
ATOM      8  C   UNL     1     -32.870  51.662 -51.691  1.00  0.00     0.028 C 
BRANCH   8   9
ATOM      9  C   UNL     1     -32.580  51.142 -50.280  1.00  0.00     0.156 C 
BRANCH   9  10
ATOM     10  O   UNL     1     -31.584  50.158 -50.322  1.00  0.00    -0.396 OA
ATOM     11  H   UNL     1     -30.718  50.631 -50.434  1.00  0.00     0.210 HD
ENDBRANCH   9  10
ENDBRANCH   8   9
ENDBRANCH   7   8
ENDBRANCH   1   7
TORSDOF 8
ENDMDL
MODEL 8
REMARK VINA RESULT:    -4.227      3.782      6.511
REMARK INTER + INTRA:          -6.383
REMARK INTER:                  -6.166
REMARK INTRA:                  -0.216
REMARK UNBOUND:                -0.303
REMARK SMILES CCCCCCCCCO
REMARK SMILES IDX 6 1 5 2 4 3 3 4 2 5 1 6 7 7 8 8 9 9 10 10
REMARK H PARENT 10 11
REMARK Flexibility Score: inf
ROOT
ATOM      1  C   UNL     1     -35.717  48.523 -52.459  1.00  0.00     0.000 C 
ENDROOT
BRANCH   1   2
ATOM      2  C   UNL     1     -35.281  49.987 -52.288  1.00  0.00     0.000 C 
BRANCH   2   3
ATOM      3  C   UNL     1     -33.754  50.159 -52.303  1.00  0.00    -0.000 C 
BRANCH   3   4
ATOM      4  C   UNL     1     -33.325  51.635 -52.271  1.00  0.00    -0.000 C 
BRANCH   4   5
ATOM      5  C   UNL     1     -32.286  51.922 -51.175  1.00  0.00    -0.003 C 
ATOM      6  C   UNL     1     -32.609  51.226 -49.853  1.00  0.00     0.004 C 
ENDBRANCH   4   5
ENDBRANCH   3   4
ENDBRANCH   2   3
ENDBRANCH   1   2
BRANCH   1   7
ATOM      7  C   UNL     1     -37.228  48.371 -52.242  1.00  0.00     0.002 C 
BRANCH   7   8
ATOM      8  C   UNL     1     -38.016  49.127 -53.317  1.00  0.00     0.028 C 
BRANCH   8   9
ATOM      9  C   UNL     1     -39.015  48.203 -54.021  1.00  0.00     0.156 C 
BRANCH   9  10
ATOM     10  O   UNL     1     -39.412  47.173 -53.158  1.00  0.00    -0.396 OA
ATOM     11  H   UNL     1     -40.404  47.196 -53.124  1.00  0.00     0.210 HD
ENDBRANCH   9  10
ENDBRANCH   8   9
ENDBRANCH   7   8
ENDBRANCH   1   7
TORSDOF 8
ENDMDL
MODEL 9
REMARK VINA RESULT:    -4.121      3.279      5.912
REMARK INTER + INTRA:          -6.230
REMARK INTER:                  -5.973
REMARK INTRA:                  -0.257
REMARK UNBOUND:                -0.303
REMARK SMILES CCCCCCCCCO
REMARK SMILES IDX 6 1 5 2 4 3 3 4 2 5 1 6 7 7 8 8 9 9 10 10
REMARK H PARENT 10 11
REMARK Flexibility Score: inf
ROOT
ATOM      1  C   UNL     1     -34.552  49.558 -52.375  1.00  0.00     0.000 C 
ENDROOT
BRANCH   1   2
ATOM      2  C   UNL     1     -34.263  51.025 -52.019  1.00  0.00     0.000 C 
BRANCH   2   3
ATOM      3  C   UNL     1     -32.987  51.193 -51.181  1.00  0.00    -0.000 C 
BRANCH   3   4
ATOM      4  C   UNL     1     -31.859  51.897 -51.956  1.00  0.00    -0.000 C 
BRANCH   4   5
ATOM      5  C   UNL     1     -32.037  51.788 -53.479  1.00  0.00    -0.003 C 
ATOM      6  C   UNL     1     -31.305  50.588 -54.079  1.00  0.00     0.004 C 
ENDBRANCH   4   5
ENDBRANCH   3   4
ENDBRANCH   2   3
ENDBRANCH   1   2
BRANCH   1   7
ATOM      7  C   UNL     1     -35.921  49.416 -53.051  1.00  0.00     0.002 C 
BRANCH   7   8
ATOM      8  C   UNL     1     -36.875  48.579 -52.192  1.00  0.00     0.028 C 
BRANCH   8   9
ATOM      9  C   UNL     1     -38.320  48.712 -52.681  1.00  0.00     0.156 C 
BRANCH   9  10
ATOM     10  O   UNL     1     -39.181  48.921 -51.596  1.00  0.00    -0.396 OA
ATOM     11  H   UNL     1     -38.802  48.416 -50.829  1.00  0.00     0.210 HD
ENDBRANCH   9  10
ENDBRANCH   8   9
ENDBRANCH   7   8
ENDBRANCH   1   7
TORSDOF 8
ENDMDL
