MODEL 1
REMARK VINA RESULT:    -3.272      0.000      0.000
REMARK INTER + INTRA:          -6.387
REMARK INTER:                  -5.185
REMARK INTRA:                  -1.202
REMARK UNBOUND:                -1.202
REMARK SMILES CCCCCCCCCCCC(=O)[O-]
REMARK SMILES IDX 7 1 8 2 9 3 10 4 11 5 12 6 13 7 14 8 6 9 5 10 4 11 3 12 2 13
REMARK SMILES IDX 1 14
REMARK H PARENT
REMARK Flexibility Score: inf
ROOT
ATOM      1  C   UNL     1    -101.723 -30.316 -15.433  1.00  0.00     0.000 C 
ENDROOT
BRANCH   1   2
ATOM      2  C   UNL     1    -102.587 -29.329 -16.235  1.00  0.00     0.000 C 
BRANCH   2   3
ATOM      3  C   UNL     1    -101.905 -27.965 -16.424  1.00  0.00     0.000 C 
BRANCH   3   4
ATOM      4  C   UNL     1    -102.658 -26.823 -15.725  1.00  0.00     0.006 C 
BRANCH   4   5
ATOM      5  C   UNL     1    -103.480 -26.013 -16.731  1.00  0.00     0.053 C 
BRANCH   5   6
ATOM      6  C   UNL     1    -104.464 -25.137 -16.022  1.00  0.00     0.041 C 
ATOM      7  O   UNL     1    -104.144 -24.567 -14.946  1.00  0.00    -0.550 OA
ATOM      8  O   UNL     1    -105.751 -24.990 -16.523  1.00  0.00    -0.550 OA
ENDBRANCH   5   6
ENDBRANCH   4   5
ENDBRANCH   3   4
ENDBRANCH   2   3
ENDBRANCH   1   2
BRANCH   1   9
ATOM      9  C   UNL     1    -100.292 -30.438 -15.983  1.00  0.00     0.000 C 
BRANCH   9  10
ATOM     10  C   UNL     1     -99.233 -30.742 -14.901  1.00  0.00    -0.000 C 
BRANCH  10  11
ATOM     11  C   UNL     1     -99.676 -30.267 -13.505  1.00  0.00    -0.000 C 
BRANCH  11  12
ATOM     12  C   UNL     1     -99.117 -28.880 -13.138  1.00  0.00    -0.000 C 
BRANCH  12  13
ATOM     13  C   UNL     1    -100.157 -27.745 -13.140  1.00  0.00    -0.003 C 
ATOM     14  C   UNL     1    -101.451 -28.117 -12.418  1.00  0.00     0.004 C 
ENDBRANCH  12  13
ENDBRANCH  11  12
ENDBRANCH  10  11
ENDBRANCH   9  10
ENDBRANCH   1   9
TORSDOF 10
ENDMDL
MODEL 2
REMARK VINA RESULT:    -3.249      4.184      6.212
REMARK INTER + INTRA:          -6.351
REMARK INTER:                  -4.827
REMARK INTRA:                  -1.523
REMARK UNBOUND:                -1.202
REMARK SMILES CCCCCCCCCCCC(=O)[O-]
REMARK SMILES IDX 7 1 8 2 9 3 10 4 11 5 12 6 13 7 14 8 6 9 5 10 4 11 3 12 2 13
REMARK SMILES IDX 1 14
REMARK H PARENT
REMARK Flexibility Score: inf
ROOT
ATOM      1  C   UNL     1    -102.579 -27.764 -13.901  1.00  0.00     0.000 C 
ENDROOT
BRANCH   1   2
ATOM      2  C   UNL     1    -101.617 -27.980 -12.721  1.00  0.00     0.000 C 
BRANCH   2   3
ATOM      3  C   UNL     1    -100.153 -28.115 -13.170  1.00  0.00     0.000 C 
BRANCH   3   4
ATOM      4  C   UNL     1     -99.428 -29.280 -12.481  1.00  0.00     0.006 C 
BRANCH   4   5
ATOM      5  C   UNL     1     -98.076 -29.553 -13.146  1.00  0.00     0.053 C 
BRANCH   5   6
ATOM      6  C   UNL     1     -97.036 -29.861 -12.115  1.00  0.00     0.041 C 
ATOM      7  O   UNL     1     -95.865 -30.163 -12.467  1.00  0.00    -0.550 OA
ATOM      8  O   UNL     1     -97.372 -29.863 -10.767  1.00  0.00    -0.550 OA
ENDBRANCH   5   6
ENDBRANCH   4   5
ENDBRANCH   3   4
ENDBRANCH   2   3
ENDBRANCH   1   2
BRANCH   1   9
ATOM      9  C   UNL     1    -101.861 -27.296 -15.179  1.00  0.00     0.000 C 
BRANCH   9  10
ATOM     10  C   UNL     1    -102.343 -28.009 -16.460  1.00  0.00    -0.000 C 
BRANCH  10  11
ATOM     11  C   UNL     1    -102.255 -29.541 -16.340  1.00  0.00    -0.000 C 
BRANCH  11  12
ATOM     12  C   UNL     1    -100.809 -30.051 -16.202  1.00  0.00    -0.000 C 
BRANCH  12  13
ATOM     13  C   UNL     1    -100.653 -31.330 -15.359  1.00  0.00    -0.003 C 
ATOM     14  C   UNL     1    -101.752 -31.492 -14.310  1.00  0.00     0.004 C 
ENDBRANCH  12  13
ENDBRANCH  11  12
ENDBRANCH  10  11
ENDBRANCH   9  10
ENDBRANCH   1   9
TORSDOF 10
ENDMDL
MODEL 3
REMARK VINA RESULT:    -3.109      0.772      2.586
REMARK INTER + INTRA:          -6.128
REMARK INTER:                  -4.950
REMARK INTRA:                  -1.179
REMARK UNBOUND:                -1.202
REMARK SMILES CCCCCCCCCCCC(=O)[O-]
REMARK SMILES IDX 7 1 8 2 9 3 10 4 11 5 12 6 13 7 14 8 6 9 5 10 4 11 3 12 2 13
REMARK SMILES IDX 1 14
REMARK H PARENT
REMARK Flexibility Score: inf
ROOT
ATOM      1  C   UNL     1    -102.260 -27.986 -13.835  1.00  0.00     0.000 C 
ENDROOT
BRANCH   1   2
ATOM      2  C   UNL     1    -101.697 -27.426 -15.151  1.00  0.00     0.000 C 
BRANCH   2   3
ATOM      3  C   UNL     1    -102.407 -28.000 -16.388  1.00  0.00     0.000 C 
BRANCH   3   4
ATOM      4  C   UNL     1    -103.719 -27.269 -16.710  1.00  0.00     0.006 C 
BRANCH   4   5
ATOM      5  C   UNL     1    -103.524 -25.751 -16.671  1.00  0.00     0.053 C 
BRANCH   5   6
ATOM      6  C   UNL     1    -104.530 -25.115 -15.765  1.00  0.00     0.041 C 
ATOM      7  O   UNL     1    -105.651 -24.758 -16.214  1.00  0.00    -0.550 OA
ATOM      8  O   UNL     1    -104.212 -24.870 -14.435  1.00  0.00    -0.550 OA
ENDBRANCH   5   6
ENDBRANCH   4   5
ENDBRANCH   3   4
ENDBRANCH   2   3
ENDBRANCH   1   2
BRANCH   1   9
ATOM      9  C   UNL     1    -101.179 -28.173 -12.756  1.00  0.00     0.000 C 
BRANCH   9  10
ATOM     10  C   UNL     1     -99.739 -27.995 -13.281  1.00  0.00    -0.000 C 
BRANCH  10  11
ATOM     11  C   UNL     1     -98.875 -29.247 -13.045  1.00  0.00    -0.000 C 
BRANCH  11  12
ATOM     12  C   UNL     1     -99.502 -30.528 -13.624  1.00  0.00    -0.000 C 
BRANCH  12  13
ATOM     13  C   UNL     1     -99.368 -30.679 -15.150  1.00  0.00    -0.003 C 
ATOM     14  C   UNL     1    -100.660 -31.144 -15.821  1.00  0.00     0.004 C 
ENDBRANCH  12  13
ENDBRANCH  11  12
ENDBRANCH  10  11
ENDBRANCH   9  10
ENDBRANCH   1   9
TORSDOF 10
ENDMDL
MODEL 4
REMARK VINA RESULT:    -3.090      1.417      2.495
REMARK INTER + INTRA:          -6.098
REMARK INTER:                  -4.480
REMARK INTRA:                  -1.617
REMARK UNBOUND:                -1.202
REMARK SMILES CCCCCCCCCCCC(=O)[O-]
REMARK SMILES IDX 7 1 8 2 9 3 10 4 11 5 12 6 13 7 14 8 6 9 5 10 4 11 3 12 2 13
REMARK SMILES IDX 1 14
REMARK H PARENT
REMARK Flexibility Score: inf
ROOT
ATOM      1  C   UNL     1    -100.256 -31.196 -14.072  1.00  0.00     0.000 C 
ENDROOT
BRANCH   1   2
ATOM      2  C   UNL     1    -100.960 -31.333 -15.432  1.00  0.00     0.000 C 
BRANCH   2   3
ATOM      3  C   UNL     1    -100.869 -30.052 -16.276  1.00  0.00     0.000 C 
BRANCH   3   4
ATOM      4  C   UNL     1    -102.210 -29.309 -16.373  1.00  0.00     0.006 C 
BRANCH   4   5
ATOM      5  C   UNL     1    -101.991 -27.798 -16.496  1.00  0.00     0.053 C 
BRANCH   5   6
ATOM      6  C   UNL     1    -103.303 -27.080 -16.545  1.00  0.00     0.041 C 
ATOM      7  O   UNL     1    -103.344 -25.855 -16.833  1.00  0.00    -0.550 OA
ATOM      8  O   UNL     1    -104.476 -27.751 -16.222  1.00  0.00    -0.550 OA
ENDBRANCH   5   6
ENDBRANCH   4   5
ENDBRANCH   3   4
ENDBRANCH   2   3
ENDBRANCH   1   2
BRANCH   1   9
ATOM      9  C   UNL     1     -99.169 -30.107 -14.070  1.00  0.00     0.000 C 
BRANCH   9  10
ATOM     10  C   UNL     1     -99.303 -29.096 -12.911  1.00  0.00    -0.000 C 
BRANCH  10  11
ATOM     11  C   UNL     1    -100.214 -27.910 -13.276  1.00  0.00    -0.000 C 
BRANCH  11  12
ATOM     12  C   UNL     1    -101.381 -27.723 -12.289  1.00  0.00    -0.000 C 
BRANCH  12  13
ATOM     13  C   UNL     1    -102.775 -28.012 -12.874  1.00  0.00    -0.003 C 
ATOM     14  C   UNL     1    -103.187 -29.477 -12.743  1.00  0.00     0.004 C 
ENDBRANCH  12  13
ENDBRANCH  11  12
ENDBRANCH  10  11
ENDBRANCH   9  10
ENDBRANCH   1   9
TORSDOF 10
ENDMDL
MODEL 5
REMARK VINA RESULT:    -3.071      3.133      6.043
REMARK INTER + INTRA:          -6.068
REMARK INTER:                  -5.080
REMARK INTRA:                  -0.988
REMARK UNBOUND:                -1.202
REMARK SMILES CCCCCCCCCCCC(=O)[O-]
REMARK SMILES IDX 7 1 8 2 9 3 10 4 11 5 12 6 13 7 14 8 6 9 5 10 4 11 3 12 2 13
REMARK SMILES IDX 1 14
REMARK H PARENT
REMARK Flexibility Score: inf
ROOT
ATOM      1  C   UNL     1    -102.579 -27.575 -13.942  1.00  0.00     0.000 C 
ENDROOT
BRANCH   1   2
ATOM      2  C   UNL     1    -101.569 -28.032 -12.877  1.00  0.00     0.000 C 
BRANCH   2   3
ATOM      3  C   UNL     1    -100.111 -27.814 -13.313  1.00  0.00     0.000 C 
BRANCH   3   4
ATOM      4  C   UNL     1     -99.226 -29.042 -13.055  1.00  0.00     0.006 C 
BRANCH   4   5
ATOM      5  C   UNL     1     -99.888 -30.317 -13.586  1.00  0.00     0.053 C 
BRANCH   5   6
ATOM      6  C   UNL     1     -99.497 -30.559 -15.009  1.00  0.00     0.041 C 
ATOM      7  O   UNL     1    -100.265 -30.215 -15.945  1.00  0.00    -0.550 OA
ATOM      8  O   UNL     1     -98.306 -31.212 -15.301  1.00  0.00    -0.550 OA
ENDBRANCH   5   6
ENDBRANCH   4   5
ENDBRANCH   3   4
ENDBRANCH   2   3
ENDBRANCH   1   2
BRANCH   1   9
ATOM      9  C   UNL     1    -101.927 -27.318 -15.312  1.00  0.00     0.000 C 
BRANCH   9  10
ATOM     10  C   UNL     1    -102.851 -27.627 -16.509  1.00  0.00    -0.000 C 
BRANCH  10  11
ATOM     11  C   UNL     1    -103.508 -26.358 -17.079  1.00  0.00    -0.000 C 
BRANCH  11  12
ATOM     12  C   UNL     1    -105.032 -26.320 -16.862  1.00  0.00    -0.000 C 
BRANCH  12  13
ATOM     13  C   UNL     1    -105.505 -25.338 -15.776  1.00  0.00    -0.003 C 
ATOM     14  C   UNL     1    -104.443 -24.309 -15.395  1.00  0.00     0.004 C 
ENDBRANCH  12  13
ENDBRANCH  11  12
ENDBRANCH  10  11
ENDBRANCH   9  10
ENDBRANCH   1   9
TORSDOF 10
ENDMDL
MODEL 6
REMARK VINA RESULT:    -3.019      3.899      5.874
REMARK INTER + INTRA:          -5.986
REMARK INTER:                  -4.700
REMARK INTRA:                  -1.286
REMARK UNBOUND:                -1.202
REMARK SMILES CCCCCCCCCCCC(=O)[O-]
REMARK SMILES IDX 7 1 8 2 9 3 10 4 11 5 12 6 13 7 14 8 6 9 5 10 4 11 3 12 2 13
REMARK SMILES IDX 1 14
REMARK H PARENT
REMARK Flexibility Score: inf
ROOT
ATOM      1  C   UNL     1    -101.584 -30.772 -15.961  1.00  0.00     0.000 C 
ENDROOT
BRANCH   1   2
ATOM      2  C   UNL     1    -100.137 -30.376 -15.626  1.00  0.00     0.000 C 
BRANCH   2   3
ATOM      3  C   UNL     1     -99.708 -30.838 -14.224  1.00  0.00     0.000 C 
BRANCH   3   4
ATOM      4  C   UNL     1     -98.203 -30.661 -13.976  1.00  0.00     0.006 C 
BRANCH   4   5
ATOM      5  C   UNL     1     -97.931 -29.430 -13.108  1.00  0.00     0.053 C 
BRANCH   5   6
ATOM      6  C   UNL     1     -97.458 -29.839 -11.749  1.00  0.00     0.041 C 
ATOM      7  O   UNL     1     -96.235 -30.050 -11.541  1.00  0.00    -0.550 OA
ATOM      8  O   UNL     1     -98.375 -30.036 -10.724  1.00  0.00    -0.550 OA
ENDBRANCH   5   6
ENDBRANCH   4   5
ENDBRANCH   3   4
ENDBRANCH   2   3
ENDBRANCH   1   2
BRANCH   1   9
ATOM      9  C   UNL     1    -102.468 -29.561 -16.307  1.00  0.00     0.000 C 
BRANCH   9  10
ATOM     10  C   UNL     1    -101.693 -28.229 -16.393  1.00  0.00    -0.000 C 
BRANCH  10  11
ATOM     11  C   UNL     1    -102.340 -27.123 -15.539  1.00  0.00    -0.000 C 
BRANCH  11  12
ATOM     12  C   UNL     1    -102.492 -27.519 -14.058  1.00  0.00    -0.000 C 
BRANCH  12  13
ATOM     13  C   UNL     1    -101.170 -27.613 -13.276  1.00  0.00    -0.003 C 
ATOM     14  C   UNL     1    -101.309 -28.366 -11.954  1.00  0.00     0.004 C 
ENDBRANCH  12  13
ENDBRANCH  11  12
ENDBRANCH  10  11
ENDBRANCH   9  10
ENDBRANCH   1   9
TORSDOF 10
ENDMDL
MODEL 7
REMARK VINA RESULT:    -3.016      3.922      6.290
REMARK INTER + INTRA:          -5.981
REMARK INTER:                  -5.071
REMARK INTRA:                  -0.909
REMARK UNBOUND:                -1.202
REMARK SMILES CCCCCCCCCCCC(=O)[O-]
REMARK SMILES IDX 7 1 8 2 9 3 10 4 11 5 12 6 13 7 14 8 6 9 5 10 4 11 3 12 2 13
REMARK SMILES IDX 1 14
REMARK H PARENT
REMARK Flexibility Score: inf
ROOT
ATOM      1  C   UNL     1    -101.795 -28.977 -14.872  1.00  0.00     0.000 C 
ENDROOT
BRANCH   1   2
ATOM      2  C   UNL     1    -101.273 -27.616 -14.384  1.00  0.00     0.000 C 
BRANCH   2   3
ATOM      3  C   UNL     1    -100.111 -27.752 -13.387  1.00  0.00     0.000 C 
BRANCH   3   4
ATOM      4  C   UNL     1     -99.830 -29.211 -13.000  1.00  0.00     0.006 C 
BRANCH   4   5
ATOM      5  C   UNL     1     -98.420 -29.629 -13.427  1.00  0.00     0.053 C 
BRANCH   5   6
ATOM      6  C   UNL     1     -97.524 -29.749 -12.235  1.00  0.00     0.041 C 
ATOM      7  O   UNL     1     -96.275 -29.790 -12.383  1.00  0.00    -0.550 OA
ATOM      8  O   UNL     1     -98.071 -29.868 -10.963  1.00  0.00    -0.550 OA
ENDBRANCH   5   6
ENDBRANCH   4   5
ENDBRANCH   3   4
ENDBRANCH   2   3
ENDBRANCH   1   2
BRANCH   1   9
ATOM      9  C   UNL     1    -102.689 -28.861 -16.118  1.00  0.00     0.000 C 
BRANCH   9  10
ATOM     10  C   UNL     1    -102.602 -27.488 -16.819  1.00  0.00    -0.000 C 
BRANCH  10  11
ATOM     11  C   UNL     1    -103.969 -26.781 -16.884  1.00  0.00    -0.000 C 
BRANCH  11  12
ATOM     12  C   UNL     1    -103.944 -25.370 -16.269  1.00  0.00    -0.000 C 
BRANCH  12  13
ATOM     13  C   UNL     1    -104.168 -25.325 -14.746  1.00  0.00    -0.003 C 
ATOM     14  C   UNL     1    -105.262 -26.280 -14.274  1.00  0.00     0.004 C 
ENDBRANCH  12  13
ENDBRANCH  11  12
ENDBRANCH  10  11
ENDBRANCH   9  10
ENDBRANCH   1   9
TORSDOF 10
ENDMDL
MODEL 8
REMARK VINA RESULT:    -3.006      1.517      3.023
REMARK INTER + INTRA:          -5.965
REMARK INTER:                  -4.319
REMARK INTRA:                  -1.646
REMARK UNBOUND:                -1.202
REMARK SMILES CCCCCCCCCCCC(=O)[O-]
REMARK SMILES IDX 7 1 8 2 9 3 10 4 11 5 12 6 13 7 14 8 6 9 5 10 4 11 3 12 2 13
REMARK SMILES IDX 1 14
REMARK H PARENT
REMARK Flexibility Score: inf
ROOT
ATOM      1  C   UNL     1     -99.748 -28.182 -13.281  1.00  0.00     0.000 C 
ENDROOT
BRANCH   1   2
ATOM      2  C   UNL     1    -101.160 -27.889 -12.748  1.00  0.00     0.000 C 
BRANCH   2   3
ATOM      3  C   UNL     1    -102.193 -27.719 -13.873  1.00  0.00     0.000 C 
BRANCH   3   4
ATOM      4  C   UNL     1    -101.542 -27.565 -15.256  1.00  0.00     0.006 C 
BRANCH   4   5
ATOM      5  C   UNL     1    -102.475 -28.073 -16.359  1.00  0.00     0.053 C 
BRANCH   5   6
ATOM      6  C   UNL     1    -103.605 -27.117 -16.574  1.00  0.00     0.041 C 
ATOM      7  O   UNL     1    -104.795 -27.526 -16.543  1.00  0.00    -0.550 OA
ATOM      8  O   UNL     1    -103.342 -25.783 -16.859  1.00  0.00    -0.550 OA
ENDBRANCH   5   6
ENDBRANCH   4   5
ENDBRANCH   3   4
ENDBRANCH   2   3
ENDBRANCH   1   2
BRANCH   1   9
ATOM      9  C   UNL     1     -99.109 -29.420 -12.629  1.00  0.00     0.000 C 
BRANCH   9  10
ATOM     10  C   UNL     1     -98.538 -30.434 -13.643  1.00  0.00    -0.000 C 
BRANCH  10  11
ATOM     11  C   UNL     1     -99.387 -30.514 -14.925  1.00  0.00    -0.000 C 
BRANCH  11  12
ATOM     12  C   UNL     1    -100.353 -31.714 -14.932  1.00  0.00    -0.000 C 
BRANCH  12  13
ATOM     13  C   UNL     1    -101.827 -31.358 -14.669  1.00  0.00    -0.003 C 
ATOM     14  C   UNL     1    -102.214 -31.459 -13.194  1.00  0.00     0.004 C 
ENDBRANCH  12  13
ENDBRANCH  11  12
ENDBRANCH  10  11
ENDBRANCH   9  10
ENDBRANCH   1   9
TORSDOF 10
ENDMDL
MODEL 9
REMARK VINA RESULT:    -2.926      3.712      5.638
REMARK INTER + INTRA:          -5.839
REMARK INTER:                  -4.289
REMARK INTRA:                  -1.550
REMARK UNBOUND:                -1.202
REMARK SMILES CCCCCCCCCCCC(=O)[O-]
REMARK SMILES IDX 7 1 8 2 9 3 10 4 11 5 12 6 13 7 14 8 6 9 5 10 4 11 3 12 2 13
REMARK SMILES IDX 1 14
REMARK H PARENT
REMARK Flexibility Score: inf
ROOT
ATOM      1  C   UNL     1    -103.446 -29.352 -13.086  1.00  0.00     0.000 C 
ENDROOT
BRANCH   1   2
ATOM      2  C   UNL     1    -102.078 -29.197 -12.401  1.00  0.00     0.000 C 
BRANCH   2   3
ATOM      3  C   UNL     1    -101.389 -27.869 -12.753  1.00  0.00     0.000 C 
BRANCH   3   4
ATOM      4  C   UNL     1    -100.000 -28.070 -13.378  1.00  0.00     0.006 C 
BRANCH   4   5
ATOM      5  C   UNL     1     -99.765 -29.543 -13.728  1.00  0.00     0.053 C 
BRANCH   5   6
ATOM      6  C   UNL     1     -98.376 -29.955 -13.357  1.00  0.00     0.041 C 
ATOM      7  O   UNL     1     -97.705 -30.689 -14.129  1.00  0.00    -0.550 OA
ATOM      8  O   UNL     1     -97.840 -29.572 -12.133  1.00  0.00    -0.550 OA
ENDBRANCH   5   6
ENDBRANCH   4   5
ENDBRANCH   3   4
ENDBRANCH   2   3
ENDBRANCH   1   2
BRANCH   1   9
ATOM      9  C   UNL     1    -103.415 -30.339 -14.265  1.00  0.00     0.000 C 
BRANCH   9  10
ATOM     10  C   UNL     1    -103.653 -29.676 -15.638  1.00  0.00    -0.000 C 
BRANCH  10  11
ATOM     11  C   UNL     1    -102.335 -29.368 -16.371  1.00  0.00    -0.000 C 
BRANCH  11  12
ATOM     12  C   UNL     1    -101.998 -27.866 -16.395  1.00  0.00    -0.000 C 
BRANCH  12  13
ATOM     13  C   UNL     1    -103.215 -26.933 -16.524  1.00  0.00    -0.003 C 
ATOM     14  C   UNL     1    -103.460 -26.092 -15.271  1.00  0.00     0.004 C 
ENDBRANCH  12  13
ENDBRANCH  11  12
ENDBRANCH  10  11
ENDBRANCH   9  10
ENDBRANCH   1   9
TORSDOF 10
ENDMDL
