MODEL 1
REMARK VINA RESULT:    -5.063      0.000      0.000
REMARK INTER + INTRA:          -9.626
REMARK INTER:                  -8.616
REMARK INTRA:                  -1.011
REMARK UNBOUND:                -1.011
REMARK SMILES CCCCCCCCCCCCCC(=O)[O-]
REMARK SMILES IDX 8 1 9 2 10 3 11 4 12 5 13 6 14 7 15 8 16 9 7 10 6 11 5 12
REMARK SMILES IDX 4 13 3 14 2 15 1 16
REMARK H PARENT
REMARK Flexibility Score: inf
ROOT
ATOM      1  C   UNL     1      29.865  -5.459  30.675  1.00  0.00     0.000 C 
ENDROOT
BRANCH   1   2
ATOM      2  C   UNL     1      30.139  -4.134  29.935  1.00  0.00     0.000 C 
BRANCH   2   3
ATOM      3  C   UNL     1      29.071  -3.040  30.133  1.00  0.00     0.000 C 
BRANCH   3   4
ATOM      4  C   UNL     1      29.604  -1.596  30.106  1.00  0.00     0.000 C 
BRANCH   4   5
ATOM      5  C   UNL     1      29.037  -0.774  28.937  1.00  0.00     0.006 C 
BRANCH   5   6
ATOM      6  C   UNL     1      27.510  -0.892  28.832  1.00  0.00     0.053 C 
BRANCH   6   7
ATOM      7  C   UNL     1      26.811   0.183  29.607  1.00  0.00     0.041 C 
ATOM      8  O   UNL     1      25.963  -0.119  30.485  1.00  0.00    -0.550 OA
ATOM      9  O   UNL     1      27.121   1.518  29.379  1.00  0.00    -0.550 OA
ENDBRANCH   6   7
ENDBRANCH   5   6
ENDBRANCH   4   5
ENDBRANCH   3   4
ENDBRANCH   2   3
ENDBRANCH   1   2
BRANCH   1  10
ATOM     10  C   UNL     1      28.375  -5.827  30.812  1.00  0.00     0.000 C 
BRANCH  10  11
ATOM     11  C   UNL     1      27.876  -6.718  29.662  1.00  0.00    -0.000 C 
BRANCH  11  12
ATOM     12  C   UNL     1      29.025  -7.399  28.900  1.00  0.00    -0.000 C 
BRANCH  12  13
ATOM     13  C   UNL     1      28.785  -8.905  28.696  1.00  0.00    -0.000 C 
BRANCH  13  14
ATOM     14  C   UNL     1      28.274  -9.598  29.969  1.00  0.00    -0.000 C 
BRANCH  14  15
ATOM     15  C   UNL     1      29.328  -9.641  31.085  1.00  0.00    -0.003 C 
ATOM     16  C   UNL     1      28.745  -9.159  32.411  1.00  0.00     0.004 C 
ENDBRANCH  14  15
ENDBRANCH  13  14
ENDBRANCH  12  13
ENDBRANCH  11  12
ENDBRANCH  10  11
ENDBRANCH   1  10
TORSDOF 12
ENDMDL
MODEL 2
REMARK VINA RESULT:    -5.054      3.837      7.746
REMARK INTER + INTRA:          -9.609
REMARK INTER:                  -8.281
REMARK INTRA:                  -1.328
REMARK UNBOUND:                -1.011
REMARK SMILES CCCCCCCCCCCCCC(=O)[O-]
REMARK SMILES IDX 8 1 9 2 10 3 11 4 12 5 13 6 14 7 15 8 16 9 7 10 6 11 5 12
REMARK SMILES IDX 4 13 3 14 2 15 1 16
REMARK H PARENT
REMARK Flexibility Score: inf
ROOT
ATOM      1  C   UNL     1      29.283  -3.130  29.908  1.00  0.00     0.000 C 
ENDROOT
BRANCH   1   2
ATOM      2  C   UNL     1      27.850  -3.354  30.433  1.00  0.00     0.000 C 
BRANCH   2   3
ATOM      3  C   UNL     1      27.568  -4.766  30.986  1.00  0.00     0.000 C 
BRANCH   3   4
ATOM      4  C   UNL     1      27.235  -5.828  29.923  1.00  0.00     0.000 C 
BRANCH   4   5
ATOM      5  C   UNL     1      28.358  -6.862  29.742  1.00  0.00     0.006 C 
BRANCH   5   6
ATOM      6  C   UNL     1      29.139  -7.102  31.041  1.00  0.00     0.053 C 
BRANCH   6   7
ATOM      7  C   UNL     1      29.096  -8.539  31.462  1.00  0.00     0.041 C 
ATOM      8  O   UNL     1      29.616  -9.427  30.737  1.00  0.00    -0.550 OA
ATOM      9  O   UNL     1      28.508  -8.893  32.670  1.00  0.00    -0.550 OA
ENDBRANCH   6   7
ENDBRANCH   5   6
ENDBRANCH   4   5
ENDBRANCH   3   4
ENDBRANCH   2   3
ENDBRANCH   1   2
BRANCH   1  10
ATOM     10  C   UNL     1      29.827  -1.703  30.107  1.00  0.00     0.000 C 
BRANCH  10  11
ATOM     11  C   UNL     1      29.377  -1.076  31.438  1.00  0.00    -0.000 C 
BRANCH  11  12
ATOM     12  C   UNL     1      29.358   0.460  31.392  1.00  0.00    -0.000 C 
BRANCH  12  13
ATOM     13  C   UNL     1      28.050   1.016  30.801  1.00  0.00    -0.000 C 
BRANCH  13  14
ATOM     14  C   UNL     1      26.816   0.212  31.240  1.00  0.00    -0.000 C 
BRANCH  14  15
ATOM     15  C   UNL     1      26.015  -0.340  30.052  1.00  0.00    -0.003 C 
ATOM     16  C   UNL     1      26.715  -0.038  28.729  1.00  0.00     0.004 C 
ENDBRANCH  14  15
ENDBRANCH  13  14
ENDBRANCH  12  13
ENDBRANCH  11  12
ENDBRANCH  10  11
ENDBRANCH   1  10
TORSDOF 12
ENDMDL
MODEL 3
REMARK VINA RESULT:    -5.010      1.308      1.993
REMARK INTER + INTRA:          -9.536
REMARK INTER:                  -8.408
REMARK INTRA:                  -1.128
REMARK UNBOUND:                -1.011
REMARK SMILES CCCCCCCCCCCCCC(=O)[O-]
REMARK SMILES IDX 8 1 9 2 10 3 11 4 12 5 13 6 14 7 15 8 16 9 7 10 6 11 5 12
REMARK SMILES IDX 4 13 3 14 2 15 1 16
REMARK H PARENT
REMARK Flexibility Score: inf
ROOT
ATOM      1  C   UNL     1      30.186  -4.128  29.796  1.00  0.00     0.000 C 
ENDROOT
BRANCH   1   2
ATOM      2  C   UNL     1      29.662  -2.777  30.327  1.00  0.00     0.000 C 
BRANCH   2   3
ATOM      3  C   UNL     1      28.510  -2.155  29.514  1.00  0.00     0.000 C 
BRANCH   3   4
ATOM      4  C   UNL     1      27.163  -2.069  30.253  1.00  0.00     0.000 C 
BRANCH   4   5
ATOM      5  C   UNL     1      26.586  -0.644  30.277  1.00  0.00     0.006 C 
BRANCH   5   6
ATOM      6  C   UNL     1      27.180   0.201  31.412  1.00  0.00     0.053 C 
BRANCH   6   7
ATOM      7  C   UNL     1      28.221   1.156  30.913  1.00  0.00     0.041 C 
ATOM      8  O   UNL     1      27.942   1.976  30.000  1.00  0.00    -0.550 OA
ATOM      9  O   UNL     1      29.490   1.160  31.478  1.00  0.00    -0.550 OA
ENDBRANCH   6   7
ENDBRANCH   5   6
ENDBRANCH   4   5
ENDBRANCH   3   4
ENDBRANCH   2   3
ENDBRANCH   1   2
BRANCH   1  10
ATOM     10  C   UNL     1      29.879  -5.339  30.695  1.00  0.00     0.000 C 
BRANCH  10  11
ATOM     11  C   UNL     1      28.370  -5.581  30.870  1.00  0.00    -0.000 C 
BRANCH  11  12
ATOM     12  C   UNL     1      27.763  -6.394  29.714  1.00  0.00    -0.000 C 
BRANCH  12  13
ATOM     13  C   UNL     1      28.711  -7.492  29.205  1.00  0.00    -0.000 C 
BRANCH  13  14
ATOM     14  C   UNL     1      28.450  -8.853  29.870  1.00  0.00    -0.000 C 
BRANCH  14  15
ATOM     15  C   UNL     1      29.429  -9.150  31.016  1.00  0.00    -0.003 C 
ATOM     16  C   UNL     1      28.725  -9.095  32.369  1.00  0.00     0.004 C 
ENDBRANCH  14  15
ENDBRANCH  13  14
ENDBRANCH  12  13
ENDBRANCH  11  12
ENDBRANCH  10  11
ENDBRANCH   1  10
TORSDOF 12
ENDMDL
MODEL 4
REMARK VINA RESULT:    -4.989      1.258      1.554
REMARK INTER + INTRA:          -9.499
REMARK INTER:                  -8.473
REMARK INTRA:                  -1.026
REMARK UNBOUND:                -1.011
REMARK SMILES CCCCCCCCCCCCCC(=O)[O-]
REMARK SMILES IDX 8 1 9 2 10 3 11 4 12 5 13 6 14 7 15 8 16 9 7 10 6 11 5 12
REMARK SMILES IDX 4 13 3 14 2 15 1 16
REMARK H PARENT
REMARK Flexibility Score: inf
ROOT
ATOM      1  C   UNL     1      29.846  -5.373  30.716  1.00  0.00     0.000 C 
ENDROOT
BRANCH   1   2
ATOM      2  C   UNL     1      29.879  -4.268  29.641  1.00  0.00     0.000 C 
BRANCH   2   3
ATOM      3  C   UNL     1      29.672  -2.834  30.168  1.00  0.00     0.000 C 
BRANCH   3   4
ATOM      4  C   UNL     1      28.207  -2.443  30.436  1.00  0.00     0.000 C 
BRANCH   4   5
ATOM      5  C   UNL     1      28.059  -1.455  31.605  1.00  0.00     0.006 C 
BRANCH   5   6
ATOM      6  C   UNL     1      27.179  -0.253  31.238  1.00  0.00     0.053 C 
BRANCH   6   7
ATOM      7  C   UNL     1      27.981   0.867  30.647  1.00  0.00     0.041 C 
ATOM      8  O   UNL     1      29.065   1.219  31.180  1.00  0.00    -0.550 OA
ATOM      9  O   UNL     1      27.545   1.499  29.490  1.00  0.00    -0.550 OA
ENDBRANCH   6   7
ENDBRANCH   5   6
ENDBRANCH   4   5
ENDBRANCH   3   4
ENDBRANCH   2   3
ENDBRANCH   1   2
BRANCH   1  10
ATOM     10  C   UNL     1      28.464  -6.012  30.945  1.00  0.00     0.000 C 
BRANCH  10  11
ATOM     11  C   UNL     1      27.872  -6.620  29.661  1.00  0.00    -0.000 C 
BRANCH  11  12
ATOM     12  C   UNL     1      28.754  -7.732  29.071  1.00  0.00    -0.000 C 
BRANCH  12  13
ATOM     13  C   UNL     1      28.581  -9.073  29.805  1.00  0.00    -0.000 C 
BRANCH  13  14
ATOM     14  C   UNL     1      29.886  -9.564  30.452  1.00  0.00    -0.000 C 
BRANCH  14  15
ATOM     15  C   UNL     1      29.701  -9.977  31.919  1.00  0.00    -0.003 C 
ATOM     16  C   UNL     1      28.536  -9.227  32.559  1.00  0.00     0.004 C 
ENDBRANCH  14  15
ENDBRANCH  13  14
ENDBRANCH  12  13
ENDBRANCH  11  12
ENDBRANCH  10  11
ENDBRANCH   1  10
TORSDOF 12
ENDMDL
MODEL 5
REMARK VINA RESULT:    -4.985      4.999     10.801
REMARK INTER + INTRA:          -9.493
REMARK INTER:                  -8.612
REMARK INTRA:                  -0.880
REMARK UNBOUND:                -1.011
REMARK SMILES CCCCCCCCCCCCCC(=O)[O-]
REMARK SMILES IDX 8 1 9 2 10 3 11 4 12 5 13 6 14 7 15 8 16 9 7 10 6 11 5 12
REMARK SMILES IDX 4 13 3 14 2 15 1 16
REMARK H PARENT
REMARK Flexibility Score: inf
ROOT
ATOM      1  C   UNL     1      28.052   2.343  29.651  1.00  0.00     0.000 C 
ENDROOT
BRANCH   1   2
ATOM      2  C   UNL     1      28.165   1.897  31.124  1.00  0.00     0.000 C 
BRANCH   2   3
ATOM      3  C   UNL     1      29.272   0.863  31.412  1.00  0.00     0.000 C 
BRANCH   3   4
ATOM      4  C   UNL     1      29.963   0.284  30.165  1.00  0.00     0.000 C 
BRANCH   4   5
ATOM      5  C   UNL     1      29.590  -1.184  29.904  1.00  0.00     0.006 C 
BRANCH   5   6
ATOM      6  C   UNL     1      28.343  -1.316  29.019  1.00  0.00     0.053 C 
BRANCH   6   7
ATOM      7  C   UNL     1      27.134  -1.711  29.810  1.00  0.00     0.041 C 
ATOM      8  O   UNL     1      27.045  -2.869  30.294  1.00  0.00    -0.550 OA
ATOM      9  O   UNL     1      26.120  -0.789  30.038  1.00  0.00    -0.550 OA
ENDBRANCH   6   7
ENDBRANCH   5   6
ENDBRANCH   4   5
ENDBRANCH   3   4
ENDBRANCH   2   3
ENDBRANCH   1   2
BRANCH   1  10
ATOM     10  C   UNL     1      27.599   3.801  29.451  1.00  0.00     0.000 C 
BRANCH  10  11
ATOM     11  C   UNL     1      27.768   4.655  30.719  1.00  0.00    -0.000 C 
BRANCH  11  12
ATOM     12  C   UNL     1      27.251   6.092  30.539  1.00  0.00    -0.000 C 
BRANCH  12  13
ATOM     13  C   UNL     1      28.348   7.058  30.061  1.00  0.00    -0.000 C 
BRANCH  13  14
ATOM     14  C   UNL     1      27.983   8.531  30.302  1.00  0.00    -0.000 C 
BRANCH  14  15
ATOM     15  C   UNL     1      26.621   8.699  30.992  1.00  0.00    -0.003 C 
ATOM     16  C   UNL     1      25.841   9.866  30.393  1.00  0.00     0.004 C 
ENDBRANCH  14  15
ENDBRANCH  13  14
ENDBRANCH  12  13
ENDBRANCH  11  12
ENDBRANCH  10  11
ENDBRANCH   1  10
TORSDOF 12
ENDMDL
MODEL 6
REMARK VINA RESULT:    -4.894      3.655      7.658
REMARK INTER + INTRA:          -9.338
REMARK INTER:                  -8.157
REMARK INTRA:                  -1.181
REMARK UNBOUND:                -1.011
REMARK SMILES CCCCCCCCCCCCCC(=O)[O-]
REMARK SMILES IDX 8 1 9 2 10 3 11 4 12 5 13 6 14 7 15 8 16 9 7 10 6 11 5 12
REMARK SMILES IDX 4 13 3 14 2 15 1 16
REMARK H PARENT
REMARK Flexibility Score: inf
ROOT
ATOM      1  C   UNL     1      27.850  -3.092  30.723  1.00  0.00     0.000 C 
ENDROOT
BRANCH   1   2
ATOM      2  C   UNL     1      29.217  -3.219  30.020  1.00  0.00     0.000 C 
BRANCH   2   3
ATOM      3  C   UNL     1      29.597  -4.647  29.580  1.00  0.00     0.000 C 
BRANCH   3   4
ATOM      4  C   UNL     1      29.533  -5.710  30.691  1.00  0.00     0.000 C 
BRANCH   4   5
ATOM      5  C   UNL     1      28.395  -6.722  30.481  1.00  0.00     0.006 C 
BRANCH   5   6
ATOM      6  C   UNL     1      28.907  -8.169  30.443  1.00  0.00     0.053 C 
BRANCH   6   7
ATOM      7  C   UNL     1      28.772  -8.774  29.079  1.00  0.00     0.041 C 
ATOM      8  O   UNL     1      29.299  -8.213  28.083  1.00  0.00    -0.550 OA
ATOM      9  O   UNL     1      28.090  -9.972  28.913  1.00  0.00    -0.550 OA
ENDBRANCH   6   7
ENDBRANCH   5   6
ENDBRANCH   4   5
ENDBRANCH   3   4
ENDBRANCH   2   3
ENDBRANCH   1   2
BRANCH   1  10
ATOM     10  C   UNL     1      26.823  -2.212  29.986  1.00  0.00     0.000 C 
BRANCH  10  11
ATOM     11  C   UNL     1      26.558  -0.879  30.708  1.00  0.00    -0.000 C 
BRANCH  11  12
ATOM     12  C   UNL     1      26.810   0.341  29.808  1.00  0.00    -0.000 C 
BRANCH  12  13
ATOM     13  C   UNL     1      28.069   1.126  30.218  1.00  0.00    -0.000 C 
BRANCH  13  14
ATOM     14  C   UNL     1      29.331   0.639  29.488  1.00  0.00    -0.000 C 
BRANCH  14  15
ATOM     15  C   UNL     1      30.384   0.063  30.445  1.00  0.00    -0.003 C 
ATOM     16  C   UNL     1      29.882   0.076  31.887  1.00  0.00     0.004 C 
ENDBRANCH  14  15
ENDBRANCH  13  14
ENDBRANCH  12  13
ENDBRANCH  11  12
ENDBRANCH  10  11
ENDBRANCH   1  10
TORSDOF 12
ENDMDL
MODEL 7
REMARK VINA RESULT:    -4.875      3.863      7.687
REMARK INTER + INTRA:          -9.306
REMARK INTER:                  -8.159
REMARK INTRA:                  -1.146
REMARK UNBOUND:                -1.011
REMARK SMILES CCCCCCCCCCCCCC(=O)[O-]
REMARK SMILES IDX 8 1 9 2 10 3 11 4 12 5 13 6 14 7 15 8 16 9 7 10 6 11 5 12
REMARK SMILES IDX 4 13 3 14 2 15 1 16
REMARK H PARENT
REMARK Flexibility Score: inf
ROOT
ATOM      1  C   UNL     1      27.355  -3.388  30.389  1.00  0.00     0.000 C 
ENDROOT
BRANCH   1   2
ATOM      2  C   UNL     1      28.857  -3.543  30.073  1.00  0.00     0.000 C 
BRANCH   2   3
ATOM      3  C   UNL     1      29.428  -4.960  30.281  1.00  0.00     0.000 C 
BRANCH   3   4
ATOM      4  C   UNL     1      29.104  -5.965  29.161  1.00  0.00     0.000 C 
BRANCH   4   5
ATOM      5  C   UNL     1      28.786  -7.371  29.696  1.00  0.00     0.006 C 
BRANCH   5   6
ATOM      6  C   UNL     1      28.727  -7.407  31.229  1.00  0.00     0.053 C 
BRANCH   6   7
ATOM      7  C   UNL     1      28.800  -8.807  31.758  1.00  0.00     0.041 C 
ATOM      8  O   UNL     1      28.394  -9.066  32.921  1.00  0.00    -0.550 OA
ATOM      9  O   UNL     1      29.286  -9.830  30.955  1.00  0.00    -0.550 OA
ENDBRANCH   6   7
ENDBRANCH   5   6
ENDBRANCH   4   5
ENDBRANCH   3   4
ENDBRANCH   2   3
ENDBRANCH   1   2
BRANCH   1  10
ATOM     10  C   UNL     1      26.860  -1.932  30.478  1.00  0.00     0.000 C 
BRANCH  10  11
ATOM     11  C   UNL     1      27.157  -1.126  29.202  1.00  0.00    -0.000 C 
BRANCH  11  12
ATOM     12  C   UNL     1      26.959   0.386  29.398  1.00  0.00    -0.000 C 
BRANCH  12  13
ATOM     13  C   UNL     1      28.267   1.109  29.764  1.00  0.00    -0.000 C 
BRANCH  13  14
ATOM     14  C   UNL     1      29.514   0.352  29.282  1.00  0.00    -0.000 C 
BRANCH  14  15
ATOM     15  C   UNL     1      30.408  -0.115  30.440  1.00  0.00    -0.003 C 
ATOM     16  C   UNL     1      29.740   0.142  31.789  1.00  0.00     0.004 C 
ENDBRANCH  14  15
ENDBRANCH  13  14
ENDBRANCH  12  13
ENDBRANCH  11  12
ENDBRANCH  10  11
ENDBRANCH   1  10
TORSDOF 12
ENDMDL
MODEL 8
REMARK VINA RESULT:    -4.787      1.469      2.316
REMARK INTER + INTRA:          -9.156
REMARK INTER:                  -8.221
REMARK INTRA:                  -0.935
REMARK UNBOUND:                -1.011
REMARK SMILES CCCCCCCCCCCCCC(=O)[O-]
REMARK SMILES IDX 8 1 9 2 10 3 11 4 12 5 13 6 14 7 15 8 16 9 7 10 6 11 5 12
REMARK SMILES IDX 4 13 3 14 2 15 1 16
REMARK H PARENT
REMARK Flexibility Score: inf
ROOT
ATOM      1  C   UNL     1      27.210  -4.415  30.998  1.00  0.00     0.000 C 
ENDROOT
BRANCH   1   2
ATOM      2  C   UNL     1      27.583  -3.034  30.421  1.00  0.00     0.000 C 
BRANCH   2   3
ATOM      3  C   UNL     1      28.053  -1.995  31.458  1.00  0.00     0.000 C 
BRANCH   3   4
ATOM      4  C   UNL     1      29.322  -1.215  31.071  1.00  0.00     0.000 C 
BRANCH   4   5
ATOM      5  C   UNL     1      29.163   0.305  31.244  1.00  0.00     0.006 C 
BRANCH   5   6
ATOM      6  C   UNL     1      27.707   0.758  31.070  1.00  0.00     0.053 C 
BRANCH   6   7
ATOM      7  C   UNL     1      27.422   1.200  29.668  1.00  0.00     0.041 C 
ATOM      8  O   UNL     1      27.814   2.327  29.267  1.00  0.00    -0.550 OA
ATOM      9  O   UNL     1      26.750   0.354  28.794  1.00  0.00    -0.550 OA
ENDBRANCH   6   7
ENDBRANCH   5   6
ENDBRANCH   4   5
ENDBRANCH   3   4
ENDBRANCH   2   3
ENDBRANCH   1   2
BRANCH   1  10
ATOM     10  C   UNL     1      27.337  -5.586  30.005  1.00  0.00     0.000 C 
BRANCH  10  11
ATOM     11  C   UNL     1      28.797  -5.893  29.633  1.00  0.00    -0.000 C 
BRANCH  11  12
ATOM     12  C   UNL     1      29.575  -6.552  30.784  1.00  0.00    -0.000 C 
BRANCH  12  13
ATOM     13  C   UNL     1      28.762  -7.649  31.493  1.00  0.00    -0.000 C 
BRANCH  13  14
ATOM     14  C   UNL     1      29.207  -9.064  31.093  1.00  0.00    -0.000 C 
BRANCH  14  15
ATOM     15  C   UNL     1      28.260  -9.718  30.075  1.00  0.00    -0.003 C 
ATOM     16  C   UNL     1      28.730  -9.465  28.645  1.00  0.00     0.004 C 
ENDBRANCH  14  15
ENDBRANCH  13  14
ENDBRANCH  12  13
ENDBRANCH  11  12
ENDBRANCH  10  11
ENDBRANCH   1  10
TORSDOF 12
ENDMDL
MODEL 9
REMARK VINA RESULT:    -4.776      1.723      2.518
REMARK INTER + INTRA:          -9.136
REMARK INTER:                  -8.076
REMARK INTRA:                  -1.061
REMARK UNBOUND:                -1.011
REMARK SMILES CCCCCCCCCCCCCC(=O)[O-]
REMARK SMILES IDX 8 1 9 2 10 3 11 4 12 5 13 6 14 7 15 8 16 9 7 10 6 11 5 12
REMARK SMILES IDX 4 13 3 14 2 15 1 16
REMARK H PARENT
REMARK Flexibility Score: inf
ROOT
ATOM      1  C   UNL     1      29.857  -4.698  30.014  1.00  0.00     0.000 C 
ENDROOT
BRANCH   1   2
ATOM      2  C   UNL     1      29.479  -3.202  30.019  1.00  0.00     0.000 C 
BRANCH   2   3
ATOM      3  C   UNL     1      28.027  -2.895  30.438  1.00  0.00     0.000 C 
BRANCH   3   4
ATOM      4  C   UNL     1      27.342  -1.772  29.638  1.00  0.00     0.000 C 
BRANCH   4   5
ATOM      5  C   UNL     1      26.781  -0.658  30.536  1.00  0.00     0.006 C 
BRANCH   5   6
ATOM      6  C   UNL     1      27.659  -0.412  31.771  1.00  0.00     0.053 C 
BRANCH   6   7
ATOM      7  C   UNL     1      28.820   0.482  31.462  1.00  0.00     0.041 C 
ATOM      8  O   UNL     1      28.625   1.662  31.072  1.00  0.00    -0.550 OA
ATOM      9  O   UNL     1      30.119   0.020  31.635  1.00  0.00    -0.550 OA
ENDBRANCH   6   7
ENDBRANCH   5   6
ENDBRANCH   4   5
ENDBRANCH   3   4
ENDBRANCH   2   3
ENDBRANCH   1   2
BRANCH   1  10
ATOM     10  C   UNL     1      28.896  -5.604  29.222  1.00  0.00     0.000 C 
BRANCH  10  11
ATOM     11  C   UNL     1      27.982  -6.439  30.134  1.00  0.00    -0.000 C 
BRANCH  11  12
ATOM     12  C   UNL     1      28.696  -6.920  31.408  1.00  0.00    -0.000 C 
BRANCH  12  13
ATOM     13  C   UNL     1      28.890  -8.446  31.435  1.00  0.00    -0.000 C 
BRANCH  13  14
ATOM     14  C   UNL     1      28.309  -9.137  30.191  1.00  0.00    -0.000 C 
BRANCH  14  15
ATOM     15  C   UNL     1      29.393  -9.748  29.292  1.00  0.00    -0.003 C 
ATOM     16  C   UNL     1      29.447  -9.043  27.938  1.00  0.00     0.004 C 
ENDBRANCH  14  15
ENDBRANCH  13  14
ENDBRANCH  12  13
ENDBRANCH  11  12
ENDBRANCH  10  11
ENDBRANCH   1  10
TORSDOF 12
ENDMDL
