MODEL 1
REMARK VINA RESULT:    -5.707      0.000      0.000
REMARK INTER + INTRA:          -8.486
REMARK INTER:                  -7.709
REMARK INTRA:                  -0.777
REMARK UNBOUND:                -0.777
REMARK SMILES CC(=O)CCC=C(C)CCC=C(C)C
REMARK SMILES IDX 7 1 6 2 8 3 9 4 10 5 11 6 13 7 12 8 14 9 5 10 4 11 2 12 3 13
REMARK SMILES IDX 1 14
REMARK H PARENT
REMARK Flexibility Score: inf
ROOT
ATOM      1  C   UNL     1     -12.935 -19.622  29.478  1.00  0.00    -0.077 C 
ATOM      2  C   UNL     1     -12.197 -18.576  29.043  1.00  0.00    -0.028 C 
ATOM      3  C   UNL     1     -14.002 -20.259  28.621  1.00  0.00     0.039 C 
ENDROOT
BRANCH   1   4
ATOM      4  C   UNL     1     -12.681 -20.180  30.863  1.00  0.00     0.034 C 
BRANCH   4   5
ATOM      5  C   UNL     1     -12.221 -19.094  31.843  1.00  0.00     0.032 C 
BRANCH   5   6
ATOM      6  C   UNL     1     -13.263 -18.009  31.991  1.00  0.00    -0.028 C 
ATOM      7  C   UNL     1     -11.599 -16.244  32.614  1.00  0.00     0.039 C 
ATOM      8  C   UNL     1     -12.996 -16.720  32.298  1.00  0.00    -0.080 C 
ATOM      9  C   UNL     1     -14.138 -15.738  32.322  1.00  0.00     0.039 C 
ENDBRANCH   5   6
ENDBRANCH   4   5
ENDBRANCH   1   4
BRANCH   2  10
ATOM     10  C   UNL     1     -12.306 -17.965  27.668  1.00  0.00     0.035 C 
BRANCH  10  11
ATOM     11  C   UNL     1     -11.335 -16.791  27.518  1.00  0.00     0.079 C 
BRANCH  11  12
ATOM     12  C   UNL     1     -11.540 -15.783  28.615  1.00  0.00     0.130 C 
ATOM     13  O   UNL     1     -10.615 -15.503  29.363  1.00  0.00    -0.300 OA
ATOM     14  C   UNL     1     -12.878 -15.138  28.812  1.00  0.00     0.087 C 
ENDBRANCH  11  12
ENDBRANCH  10  11
ENDBRANCH   2  10
TORSDOF 6
ENDMDL
MODEL 2
REMARK VINA RESULT:    -5.645      2.139      4.491
REMARK INTER + INTRA:          -8.401
REMARK INTER:                  -7.609
REMARK INTRA:                  -0.792
REMARK UNBOUND:                -0.777
REMARK SMILES CC(=O)CCC=C(C)CCC=C(C)C
REMARK SMILES IDX 7 1 6 2 8 3 9 4 10 5 11 6 13 7 12 8 14 9 5 10 4 11 2 12 3 13
REMARK SMILES IDX 1 14
REMARK H PARENT
REMARK Flexibility Score: inf
ROOT
ATOM      1  C   UNL     1     -12.108 -18.573  30.866  1.00  0.00    -0.077 C 
ATOM      2  C   UNL     1     -12.405 -17.333  31.319  1.00  0.00    -0.028 C 
ATOM      3  C   UNL     1     -12.719 -19.812  31.473  1.00  0.00     0.039 C 
ENDROOT
BRANCH   1   4
ATOM      4  C   UNL     1     -11.142 -18.726  29.709  1.00  0.00     0.034 C 
BRANCH   4   5
ATOM      5  C   UNL     1     -10.964 -17.413  28.935  1.00  0.00     0.032 C 
BRANCH   5   6
ATOM      6  C   UNL     1     -11.961 -17.302  27.804  1.00  0.00    -0.028 C 
ATOM      7  C   UNL     1     -12.918 -15.135  28.622  1.00  0.00     0.039 C 
ATOM      8  C   UNL     1     -12.816 -16.270  27.630  1.00  0.00    -0.080 C 
ATOM      9  C   UNL     1     -13.689 -16.262  26.402  1.00  0.00     0.039 C 
ENDBRANCH   5   6
ENDBRANCH   4   5
ENDBRANCH   1   4
BRANCH   2  10
ATOM     10  C   UNL     1     -13.392 -17.038  32.420  1.00  0.00     0.035 C 
BRANCH  10  11
ATOM     11  C   UNL     1     -12.911 -15.866  33.280  1.00  0.00     0.079 C 
BRANCH  11  12
ATOM     12  C   UNL     1     -13.983 -14.818  33.403  1.00  0.00     0.130 C 
ATOM     13  O   UNL     1     -13.955 -14.028  34.335  1.00  0.00    -0.300 OA
ATOM     14  C   UNL     1     -15.097 -14.751  32.404  1.00  0.00     0.087 C 
ENDBRANCH  11  12
ENDBRANCH  10  11
ENDBRANCH   2  10
TORSDOF 6
ENDMDL
MODEL 3
REMARK VINA RESULT:    -5.603      1.810      4.811
REMARK INTER + INTRA:          -8.345
REMARK INTER:                  -7.822
REMARK INTRA:                  -0.523
REMARK UNBOUND:                -0.777
REMARK SMILES CC(=O)CCC=C(C)CCC=C(C)C
REMARK SMILES IDX 7 1 6 2 8 3 9 4 10 5 11 6 13 7 12 8 14 9 5 10 4 11 2 12 3 13
REMARK SMILES IDX 1 14
REMARK H PARENT
REMARK Flexibility Score: inf
ROOT
ATOM      1  C   UNL     1     -13.115 -15.141  29.090  1.00  0.00    -0.077 C 
ATOM      2  C   UNL     1     -13.413 -15.257  30.404  1.00  0.00    -0.028 C 
ATOM      3  C   UNL     1     -13.967 -14.328  28.146  1.00  0.00     0.039 C 
ENDROOT
BRANCH   1   4
ATOM      4  C   UNL     1     -11.885 -15.839  28.547  1.00  0.00     0.034 C 
BRANCH   4   5
ATOM      5  C   UNL     1     -11.621 -17.172  29.259  1.00  0.00     0.032 C 
BRANCH   5   6
ATOM      6  C   UNL     1     -12.434 -18.291  28.650  1.00  0.00    -0.028 C 
ATOM      7  C   UNL     1     -13.044 -19.296  30.862  1.00  0.00     0.039 C 
ATOM      8  C   UNL     1     -13.108 -19.228  29.355  1.00  0.00    -0.080 C 
ATOM      9  C   UNL     1     -13.946 -20.227  28.602  1.00  0.00     0.039 C 
ENDBRANCH   5   6
ENDBRANCH   4   5
ENDBRANCH   1   4
BRANCH   2  10
ATOM     10  C   UNL     1     -14.570 -14.567  31.083  1.00  0.00     0.035 C 
BRANCH  10  11
ATOM     11  C   UNL     1     -14.452 -14.684  32.606  1.00  0.00     0.079 C 
BRANCH  11  12
ATOM     12  C   UNL     1     -13.729 -15.945  32.991  1.00  0.00     0.130 C 
ATOM     13  O   UNL     1     -14.363 -16.968  33.202  1.00  0.00    -0.300 OA
ATOM     14  C   UNL     1     -12.238 -15.949  33.141  1.00  0.00     0.087 C 
ENDBRANCH  11  12
ENDBRANCH  10  11
ENDBRANCH   2  10
TORSDOF 6
ENDMDL
MODEL 4
REMARK VINA RESULT:    -5.451      2.241      5.262
REMARK INTER + INTRA:          -8.139
REMARK INTER:                  -7.200
REMARK INTRA:                  -0.939
REMARK UNBOUND:                -0.777
REMARK SMILES CC(=O)CCC=C(C)CCC=C(C)C
REMARK SMILES IDX 7 1 6 2 8 3 9 4 10 5 11 6 13 7 12 8 14 9 5 10 4 11 2 12 3 13
REMARK SMILES IDX 1 14
REMARK H PARENT
REMARK Flexibility Score: inf
ROOT
ATOM      1  C   UNL     1     -12.467 -15.910  30.768  1.00  0.00    -0.077 C 
ATOM      2  C   UNL     1     -13.600 -15.836  31.503  1.00  0.00    -0.028 C 
ATOM      3  C   UNL     1     -11.114 -16.124  31.403  1.00  0.00     0.039 C 
ENDROOT
BRANCH   1   4
ATOM      4  C   UNL     1     -12.554 -15.785  29.261  1.00  0.00     0.034 C 
BRANCH   4   5
ATOM      5  C   UNL     1     -11.857 -16.950  28.548  1.00  0.00     0.032 C 
BRANCH   5   6
ATOM      6  C   UNL     1     -12.831 -18.061  28.227  1.00  0.00    -0.028 C 
ATOM      7  C   UNL     1     -12.126 -19.483  30.166  1.00  0.00     0.039 C 
ATOM      8  C   UNL     1     -12.990 -19.184  28.963  1.00  0.00    -0.080 C 
ATOM      9  C   UNL     1     -14.066 -20.158  28.562  1.00  0.00     0.039 C 
ENDBRANCH   5   6
ENDBRANCH   4   5
ENDBRANCH   1   4
BRANCH   2  10
ATOM     10  C   UNL     1     -13.660 -16.003  33.001  1.00  0.00     0.035 C 
BRANCH  10  11
ATOM     11  C   UNL     1     -14.010 -14.677  33.681  1.00  0.00     0.079 C 
BRANCH  11  12
ATOM     12  C   UNL     1     -12.917 -14.253  34.622  1.00  0.00     0.130 C 
ATOM     13  O   UNL     1     -11.811 -14.768  34.540  1.00  0.00    -0.300 OA
ATOM     14  C   UNL     1     -13.179 -13.219  35.675  1.00  0.00     0.087 C 
ENDBRANCH  11  12
ENDBRANCH  10  11
ENDBRANCH   2  10
TORSDOF 6
ENDMDL
MODEL 5
REMARK VINA RESULT:    -5.409      1.712      3.820
REMARK INTER + INTRA:          -8.083
REMARK INTER:                  -6.805
REMARK INTRA:                  -1.278
REMARK UNBOUND:                -0.777
REMARK SMILES CC(=O)CCC=C(C)CCC=C(C)C
REMARK SMILES IDX 7 1 6 2 8 3 9 4 10 5 11 6 13 7 12 8 14 9 5 10 4 11 2 12 3 13
REMARK SMILES IDX 1 14
REMARK H PARENT
REMARK Flexibility Score: inf
ROOT
ATOM      1  C   UNL     1     -12.162 -19.062  30.607  1.00  0.00    -0.077 C 
ATOM      2  C   UNL     1     -10.924 -18.589  30.880  1.00  0.00    -0.028 C 
ATOM      3  C   UNL     1     -13.185 -19.297  31.692  1.00  0.00     0.039 C 
ENDROOT
BRANCH   1   4
ATOM      4  C   UNL     1     -12.539 -19.358  29.170  1.00  0.00     0.034 C 
BRANCH   4   5
ATOM      5  C   UNL     1     -12.065 -18.255  28.215  1.00  0.00     0.032 C 
BRANCH   5   6
ATOM      6  C   UNL     1     -12.932 -17.022  28.326  1.00  0.00    -0.028 C 
ATOM      7  C   UNL     1     -11.030 -15.522  28.967  1.00  0.00     0.039 C 
ATOM      8  C   UNL     1     -12.478 -15.784  28.625  1.00  0.00    -0.080 C 
ATOM      9  C   UNL     1     -13.455 -14.638  28.611  1.00  0.00     0.039 C 
ENDBRANCH   5   6
ENDBRANCH   4   5
ENDBRANCH   1   4
BRANCH   2  10
ATOM     10  C   UNL     1     -10.442 -18.200  32.255  1.00  0.00     0.035 C 
BRANCH  10  11
ATOM     11  C   UNL     1     -10.085 -16.711  32.303  1.00  0.00     0.079 C 
BRANCH  11  12
ATOM     12  C   UNL     1     -11.058 -15.955  33.163  1.00  0.00     0.130 C 
ATOM     13  O   UNL     1     -10.659 -15.363  34.155  1.00  0.00    -0.300 OA
ATOM     14  C   UNL     1     -12.518 -15.941  32.825  1.00  0.00     0.087 C 
ENDBRANCH  11  12
ENDBRANCH  10  11
ENDBRANCH   2  10
TORSDOF 6
ENDMDL
MODEL 6
REMARK VINA RESULT:    -5.374      2.143      3.714
REMARK INTER + INTRA:          -8.036
REMARK INTER:                  -6.726
REMARK INTRA:                  -1.310
REMARK UNBOUND:                -0.777
REMARK SMILES CC(=O)CCC=C(C)CCC=C(C)C
REMARK SMILES IDX 7 1 6 2 8 3 9 4 10 5 11 6 13 7 12 8 14 9 5 10 4 11 2 12 3 13
REMARK SMILES IDX 1 14
REMARK H PARENT
REMARK Flexibility Score: inf
ROOT
ATOM      1  C   UNL     1     -10.650 -18.217  31.724  1.00  0.00    -0.077 C 
ATOM      2  C   UNL     1     -11.642 -19.108  31.951  1.00  0.00    -0.028 C 
ATOM      3  C   UNL     1      -9.946 -18.128  30.391  1.00  0.00     0.039 C 
ENDROOT
BRANCH   1   4
ATOM      4  C   UNL     1     -10.236 -17.273  32.834  1.00  0.00     0.034 C 
BRANCH   4   5
ATOM      5  C   UNL     1     -10.836 -15.873  32.648  1.00  0.00     0.032 C 
BRANCH   5   6
ATOM      6  C   UNL     1     -12.283 -15.833  33.081  1.00  0.00    -0.028 C 
ATOM      7  C   UNL     1     -13.169 -15.734  30.740  1.00  0.00     0.039 C 
ATOM      8  C   UNL     1     -13.340 -15.809  32.238  1.00  0.00    -0.080 C 
ATOM      9  C   UNL     1     -14.726 -15.860  32.825  1.00  0.00     0.039 C 
ENDBRANCH   5   6
ENDBRANCH   4   5
ENDBRANCH   1   4
BRANCH   2  10
ATOM     10  C   UNL     1     -12.189 -20.061  30.917  1.00  0.00     0.035 C 
BRANCH  10  11
ATOM     11  C   UNL     1     -13.547 -19.578  30.400  1.00  0.00     0.079 C 
BRANCH  11  12
ATOM     12  C   UNL     1     -13.552 -19.505  28.898  1.00  0.00     0.130 C 
ATOM     13  O   UNL     1     -14.063 -20.405  28.248  1.00  0.00    -0.300 OA
ATOM     14  C   UNL     1     -12.916 -18.347  28.192  1.00  0.00     0.087 C 
ENDBRANCH  11  12
ENDBRANCH  10  11
ENDBRANCH   2  10
TORSDOF 6
ENDMDL
MODEL 7
REMARK VINA RESULT:    -5.337      1.602      2.584
REMARK INTER + INTRA:          -7.986
REMARK INTER:                  -6.824
REMARK INTRA:                  -1.162
REMARK UNBOUND:                -0.777
REMARK SMILES CC(=O)CCC=C(C)CCC=C(C)C
REMARK SMILES IDX 7 1 6 2 8 3 9 4 10 5 11 6 13 7 12 8 14 9 5 10 4 11 2 12 3 13
REMARK SMILES IDX 1 14
REMARK H PARENT
REMARK Flexibility Score: inf
ROOT
ATOM      1  C   UNL     1     -11.827 -18.444  31.260  1.00  0.00    -0.077 C 
ATOM      2  C   UNL     1     -11.534 -18.160  29.971  1.00  0.00    -0.028 C 
ATOM      3  C   UNL     1     -12.856 -19.484  31.635  1.00  0.00     0.039 C 
ENDROOT
BRANCH   1   4
ATOM      4  C   UNL     1     -11.098 -17.708  32.364  1.00  0.00     0.034 C 
BRANCH   4   5
ATOM      5  C   UNL     1     -11.364 -16.198  32.319  1.00  0.00     0.032 C 
BRANCH   5   6
ATOM      6  C   UNL     1     -12.745 -15.868  32.837  1.00  0.00    -0.028 C 
ATOM      7  C   UNL     1     -13.621 -15.184  30.591  1.00  0.00     0.039 C 
ATOM      8  C   UNL     1     -13.777 -15.449  32.070  1.00  0.00    -0.080 C 
ATOM      9  C   UNL     1     -15.119 -15.246  32.722  1.00  0.00     0.039 C 
ENDBRANCH   5   6
ENDBRANCH   4   5
ENDBRANCH   1   4
BRANCH   2  10
ATOM     10  C   UNL     1     -12.141 -18.859  28.781  1.00  0.00     0.035 C 
BRANCH  10  11
ATOM     11  C   UNL     1     -13.253 -18.008  28.161  1.00  0.00     0.079 C 
BRANCH  11  12
ATOM     12  C   UNL     1     -12.679 -16.967  27.240  1.00  0.00     0.130 C 
ATOM     13  O   UNL     1     -13.248 -15.894  27.106  1.00  0.00    -0.300 OA
ATOM     14  C   UNL     1     -11.426 -17.246  26.466  1.00  0.00     0.087 C 
ENDBRANCH  11  12
ENDBRANCH  10  11
ENDBRANCH   2  10
TORSDOF 6
ENDMDL
MODEL 8
REMARK VINA RESULT:    -5.332      2.455      3.434
REMARK INTER + INTRA:          -7.979
REMARK INTER:                  -6.956
REMARK INTRA:                  -1.024
REMARK UNBOUND:                -0.777
REMARK SMILES CC(=O)CCC=C(C)CCC=C(C)C
REMARK SMILES IDX 7 1 6 2 8 3 9 4 10 5 11 6 13 7 12 8 14 9 5 10 4 11 2 12 3 13
REMARK SMILES IDX 1 14
REMARK H PARENT
REMARK Flexibility Score: inf
ROOT
ATOM      1  C   UNL     1     -10.222 -16.398  31.115  1.00  0.00    -0.077 C 
ATOM      2  C   UNL     1     -10.547 -15.605  30.068  1.00  0.00    -0.028 C 
ATOM      3  C   UNL     1     -10.145 -17.900  30.985  1.00  0.00     0.039 C 
ENDROOT
BRANCH   1   4
ATOM      4  C   UNL     1      -9.918 -15.765  32.456  1.00  0.00     0.034 C 
BRANCH   4   5
ATOM      5  C   UNL     1     -10.978 -16.115  33.509  1.00  0.00     0.032 C 
BRANCH   5   6
ATOM      6  C   UNL     1     -12.223 -15.276  33.335  1.00  0.00    -0.028 C 
ATOM      7  C   UNL     1     -13.578 -17.159  32.390  1.00  0.00     0.039 C 
ATOM      8  C   UNL     1     -13.406 -15.738  32.871  1.00  0.00    -0.080 C 
ATOM      9  C   UNL     1     -14.581 -14.797  32.840  1.00  0.00     0.039 C 
ENDBRANCH   5   6
ENDBRANCH   4   5
ENDBRANCH   1   4
BRANCH   2  10
ATOM     10  C   UNL     1     -10.813 -16.102  28.669  1.00  0.00     0.035 C 
BRANCH  10  11
ATOM     11  C   UNL     1     -12.314 -16.088  28.366  1.00  0.00     0.079 C 
BRANCH  11  12
ATOM     12  C   UNL     1     -12.581 -16.563  26.965  1.00  0.00     0.130 C 
ATOM     13  O   UNL     1     -13.703 -16.459  26.492  1.00  0.00    -0.300 OA
ATOM     14  C   UNL     1     -11.486 -17.184  26.152  1.00  0.00     0.087 C 
ENDBRANCH  11  12
ENDBRANCH  10  11
ENDBRANCH   2  10
TORSDOF 6
ENDMDL
MODEL 9
REMARK VINA RESULT:    -5.304      2.024      3.733
REMARK INTER + INTRA:          -7.941
REMARK INTER:                  -6.902
REMARK INTRA:                  -1.039
REMARK UNBOUND:                -0.777
REMARK SMILES CC(=O)CCC=C(C)CCC=C(C)C
REMARK SMILES IDX 7 1 6 2 8 3 9 4 10 5 11 6 13 7 12 8 14 9 5 10 4 11 2 12 3 13
REMARK SMILES IDX 1 14
REMARK H PARENT
REMARK Flexibility Score: inf
ROOT
ATOM      1  C   UNL     1     -10.766 -16.399  29.913  1.00  0.00    -0.077 C 
ATOM      2  C   UNL     1     -10.987 -17.680  29.539  1.00  0.00    -0.028 C 
ATOM      3  C   UNL     1     -11.268 -15.231  29.100  1.00  0.00     0.039 C 
ENDROOT
BRANCH   1   4
ATOM      4  C   UNL     1      -9.999 -16.124  31.190  1.00  0.00     0.034 C 
BRANCH   4   5
ATOM      5  C   UNL     1     -10.672 -16.764  32.411  1.00  0.00     0.032 C 
BRANCH   5   6
ATOM      6  C   UNL     1     -11.609 -15.794  33.094  1.00  0.00    -0.028 C 
ATOM      7  C   UNL     1     -13.671 -16.786  32.073  1.00  0.00     0.039 C 
ATOM      8  C   UNL     1     -12.956 -15.815  32.983  1.00  0.00    -0.080 C 
ATOM      9  C   UNL     1     -13.758 -14.834  33.798  1.00  0.00     0.039 C 
ENDBRANCH   5   6
ENDBRANCH   4   5
ENDBRANCH   1   4
BRANCH   2  10
ATOM     10  C   UNL     1     -11.784 -18.091  28.326  1.00  0.00     0.035 C 
BRANCH  10  11
ATOM     11  C   UNL     1     -13.246 -18.351  28.701  1.00  0.00     0.079 C 
BRANCH  11  12
ATOM     12  C   UNL     1     -13.435 -19.769  29.165  1.00  0.00     0.130 C 
ATOM     13  O   UNL     1     -13.947 -20.589  28.417  1.00  0.00    -0.300 OA
ATOM     14  C   UNL     1     -13.021 -20.177  30.545  1.00  0.00     0.087 C 
ENDBRANCH  11  12
ENDBRANCH  10  11
ENDBRANCH   2  10
TORSDOF 6
ENDMDL
