MODEL 1
REMARK VINA RESULT:    -2.746      0.000      0.000
REMARK INTER + INTRA:          -3.968
REMARK INTER:                  -3.549
REMARK INTRA:                  -0.419
REMARK UNBOUND:                -0.419
REMARK SMILES CCO[C@H]1O[C@H](CO)[C@H](O)[C@@H](O)[C@@H]1O
REMARK SMILES IDX 4 1 13 2 11 3 9 4 6 5 5 6 3 7 2 8 1 9 14 10 12 12 7 14 8 15
REMARK SMILES IDX 10 17
REMARK H PARENT 14 11 12 13 8 16 10 18
REMARK Flexibility Score: inf
ROOT
ATOM      1  C   UNL     1       2.319   7.098   3.529  1.00  0.00     0.281 C 
ATOM      2  C   UNL     1       2.336   8.589   3.923  1.00  0.00     0.202 C 
ATOM      3  C   UNL     1       3.503   9.335   3.241  1.00  0.00     0.179 C 
ATOM      4  C   UNL     1       4.823   8.555   3.421  1.00  0.00     0.177 C 
ATOM      5  C   UNL     1       4.610   7.081   3.005  1.00  0.00     0.178 C 
ATOM      6  O   UNL     1       3.579   6.483   3.774  1.00  0.00    -0.341 OA
ENDROOT
BRANCH   1   7
ATOM      7  O   UNL     1       1.927   6.957   2.172  1.00  0.00    -0.350 OA
BRANCH   7   8
ATOM      8  C   UNL     1       0.517   6.932   2.046  1.00  0.00     0.160 C 
ATOM      9  C   UNL     1      -0.076   5.896   2.993  1.00  0.00     0.035 C 
ENDBRANCH   7   8
ENDBRANCH   1   7
BRANCH   2  10
ATOM     10  O   UNL     1       2.447   8.692   5.320  1.00  0.00    -0.385 OA
ATOM     11  H   UNL     1       2.055   7.864   5.702  1.00  0.00     0.211 HD
ENDBRANCH   2  10
BRANCH   3  12
ATOM     12  O   UNL     1       3.218   9.497   1.875  1.00  0.00    -0.387 OA
ATOM     13  H   UNL     1       3.878  10.147   1.518  1.00  0.00     0.211 HD
ENDBRANCH   3  12
BRANCH   5  14
ATOM     14  C   UNL     1       5.898   6.253   3.146  1.00  0.00     0.191 C 
BRANCH  14  15
ATOM     15  O   UNL     1       6.279   6.115   4.490  1.00  0.00    -0.394 OA
ATOM     16  H   UNL     1       6.982   5.416   4.518  1.00  0.00     0.210 HD
ENDBRANCH  14  15
ENDBRANCH   5  14
BRANCH   4  17
ATOM     17  O   UNL     1       5.241   8.626   4.760  1.00  0.00    -0.387 OA
ATOM     18  H   UNL     1       4.570   9.178   5.242  1.00  0.00     0.211 HD
ENDBRANCH   4  17
TORSDOF 7
ENDMDL
MODEL 2
REMARK VINA RESULT:    -2.705      1.672      3.973
REMARK INTER + INTRA:          -3.915
REMARK INTER:                  -3.519
REMARK INTRA:                  -0.396
REMARK UNBOUND:                -0.419
REMARK SMILES CCO[C@H]1O[C@H](CO)[C@H](O)[C@@H](O)[C@@H]1O
REMARK SMILES IDX 4 1 13 2 11 3 9 4 6 5 5 6 3 7 2 8 1 9 14 10 12 12 7 14 8 15
REMARK SMILES IDX 10 17
REMARK H PARENT 14 11 12 13 8 16 10 18
REMARK Flexibility Score: inf
ROOT
ATOM      1  C   UNL     1       5.235   6.880   2.108  1.00  0.00     0.281 C 
ATOM      2  C   UNL     1       5.645   8.202   2.790  1.00  0.00     0.202 C 
ATOM      3  C   UNL     1       4.972   8.351   4.171  1.00  0.00     0.179 C 
ATOM      4  C   UNL     1       3.459   8.063   4.069  1.00  0.00     0.177 C 
ATOM      5  C   UNL     1       3.238   6.720   3.337  1.00  0.00     0.178 C 
ATOM      6  O   UNL     1       3.819   6.747   2.044  1.00  0.00    -0.341 OA
ENDROOT
BRANCH   1   7
ATOM      7  O   UNL     1       5.830   5.780   2.780  1.00  0.00    -0.350 OA
BRANCH   7   8
ATOM      8  C   UNL     1       6.150   4.739   1.875  1.00  0.00     0.160 C 
ATOM      9  C   UNL     1       5.615   3.410   2.393  1.00  0.00     0.035 C 
ENDBRANCH   7   8
ENDBRANCH   1   7
BRANCH   2  10
ATOM     10  O   UNL     1       5.286   9.276   1.958  1.00  0.00    -0.385 OA
ATOM     11  H   UNL     1       5.827  10.057   2.246  1.00  0.00     0.211 HD
ENDBRANCH   2  10
BRANCH   3  12
ATOM     12  O   UNL     1       5.573   7.466   5.081  1.00  0.00    -0.387 OA
ATOM     13  H   UNL     1       4.946   7.366   5.844  1.00  0.00     0.211 HD
ENDBRANCH   3  12
BRANCH   5  14
ATOM     14  C   UNL     1       1.746   6.367   3.220  1.00  0.00     0.191 C 
BRANCH  14  15
ATOM     15  O   UNL     1       0.985   7.009   4.208  1.00  0.00    -0.394 OA
ATOM     16  H   UNL     1       0.309   6.353   4.520  1.00  0.00     0.210 HD
ENDBRANCH  14  15
ENDBRANCH   5  14
BRANCH   4  17
ATOM     17  O   UNL     1       2.820   9.104   3.376  1.00  0.00    -0.387 OA
ATOM     18  H   UNL     1       3.299   9.211   2.513  1.00  0.00     0.211 HD
ENDBRANCH   4  17
TORSDOF 7
ENDMDL
MODEL 3
REMARK VINA RESULT:    -2.623      1.616      1.888
REMARK INTER + INTRA:          -3.809
REMARK INTER:                  -3.416
REMARK INTRA:                  -0.393
REMARK UNBOUND:                -0.419
REMARK SMILES CCO[C@H]1O[C@H](CO)[C@H](O)[C@@H](O)[C@@H]1O
REMARK SMILES IDX 4 1 13 2 11 3 9 4 6 5 5 6 3 7 2 8 1 9 14 10 12 12 7 14 8 15
REMARK SMILES IDX 10 17
REMARK H PARENT 14 11 12 13 8 16 10 18
REMARK Flexibility Score: inf
ROOT
ATOM      1  C   UNL     1       0.902   6.388   3.988  1.00  0.00     0.281 C 
ATOM      2  C   UNL     1       0.781   7.913   4.183  1.00  0.00     0.202 C 
ATOM      3  C   UNL     1       1.574   8.680   3.104  1.00  0.00     0.179 C 
ATOM      4  C   UNL     1       3.002   8.109   2.973  1.00  0.00     0.177 C 
ATOM      5  C   UNL     1       2.929   6.573   2.813  1.00  0.00     0.178 C 
ATOM      6  O   UNL     1       2.264   5.981   3.917  1.00  0.00    -0.341 OA
ENDROOT
BRANCH   1   7
ATOM      7  O   UNL     1       0.179   5.986   2.834  1.00  0.00    -0.350 OA
BRANCH   7   8
ATOM      8  C   UNL     1      -0.995   5.277   3.187  1.00  0.00     0.160 C 
ATOM      9  C   UNL     1      -0.744   4.430   4.428  1.00  0.00     0.035 C 
ENDBRANCH   7   8
ENDBRANCH   1   7
BRANCH   2  10
ATOM     10  O   UNL     1       1.256   8.249   5.463  1.00  0.00    -0.385 OA
ATOM     11  H   UNL     1       2.247   8.253   5.411  1.00  0.00     0.211 HD
ENDBRANCH   2  10
BRANCH   3  12
ATOM     12  O   UNL     1       0.900   8.586   1.875  1.00  0.00    -0.387 OA
ATOM     13  H   UNL     1       1.312   7.833   1.377  1.00  0.00     0.211 HD
ENDBRANCH   3  12
BRANCH   5  14
ATOM     14  C   UNL     1       4.324   5.944   2.660  1.00  0.00     0.191 C 
BRANCH  14  15
ATOM     15  O   UNL     1       4.887   5.629   3.906  1.00  0.00    -0.394 OA
ATOM     16  H   UNL     1       4.133   5.508   4.539  1.00  0.00     0.210 HD
ENDBRANCH  14  15
ENDBRANCH   5  14
BRANCH   4  17
ATOM     17  O   UNL     1       3.756   8.443   4.110  1.00  0.00    -0.387 OA
ATOM     18  H   UNL     1       3.272   9.177   4.571  1.00  0.00     0.211 HD
ENDBRANCH   4  17
TORSDOF 7
ENDMDL
MODEL 4
REMARK VINA RESULT:    -2.319      1.623      4.227
REMARK INTER + INTRA:          -3.416
REMARK INTER:                  -3.233
REMARK INTRA:                  -0.182
REMARK UNBOUND:                -0.419
REMARK SMILES CCO[C@H]1O[C@H](CO)[C@H](O)[C@@H](O)[C@@H]1O
REMARK SMILES IDX 4 1 13 2 11 3 9 4 6 5 5 6 3 7 2 8 1 9 14 10 12 12 7 14 8 15
REMARK SMILES IDX 10 17
REMARK H PARENT 14 11 12 13 8 16 10 18
REMARK Flexibility Score: inf
ROOT
ATOM      1  C   UNL     1       3.083   7.502   2.986  1.00  0.00     0.281 C 
ATOM      2  C   UNL     1       2.591   8.959   3.110  1.00  0.00     0.202 C 
ATOM      3  C   UNL     1       1.526   9.098   4.218  1.00  0.00     0.179 C 
ATOM      4  C   UNL     1       0.441   8.010   4.066  1.00  0.00     0.177 C 
ATOM      5  C   UNL     1       1.115   6.626   3.928  1.00  0.00     0.178 C 
ATOM      6  O   UNL     1       1.994   6.601   2.815  1.00  0.00    -0.341 OA
ENDROOT
BRANCH   1   7
ATOM      7  O   UNL     1       3.871   7.156   4.115  1.00  0.00    -0.350 OA
BRANCH   7   8
ATOM      8  C   UNL     1       5.228   7.512   3.920  1.00  0.00     0.160 C 
ATOM      9  C   UNL     1       6.041   6.284   3.529  1.00  0.00     0.035 C 
ENDBRANCH   7   8
ENDBRANCH   1   7
BRANCH   2  10
ATOM     10  O   UNL     1       2.061   9.369   1.875  1.00  0.00    -0.385 OA
ATOM     11  H   UNL     1       1.076   9.259   1.933  1.00  0.00     0.211 HD
ENDBRANCH   2  10
BRANCH   3  12
ATOM     12  O   UNL     1       2.145   8.992   5.475  1.00  0.00    -0.387 OA
ATOM     13  H   UNL     1       2.239   8.023   5.670  1.00  0.00     0.211 HD
ENDBRANCH   3  12
BRANCH   5  14
ATOM     14  C   UNL     1       0.083   5.495   3.789  1.00  0.00     0.191 C 
BRANCH  14  15
ATOM     15  O   UNL     1       0.265   4.507   4.768  1.00  0.00    -0.394 OA
ATOM     16  H   UNL     1      -0.638   4.193   5.031  1.00  0.00     0.210 HD
ENDBRANCH  14  15
ENDBRANCH   5  14
BRANCH   4  17
ATOM     17  O   UNL     1      -0.349   8.280   2.936  1.00  0.00    -0.387 OA
ATOM     18  H   UNL     1      -1.066   7.593   2.916  1.00  0.00     0.211 HD
ENDBRANCH   4  17
TORSDOF 7
ENDMDL
MODEL 5
REMARK VINA RESULT:    -2.262      1.960      4.729
REMARK INTER + INTRA:          -3.342
REMARK INTER:                  -2.983
REMARK INTRA:                  -0.359
REMARK UNBOUND:                -0.419
REMARK SMILES CCO[C@H]1O[C@H](CO)[C@H](O)[C@@H](O)[C@@H]1O
REMARK SMILES IDX 4 1 13 2 11 3 9 4 6 5 5 6 3 7 2 8 1 9 14 10 12 12 7 14 8 15
REMARK SMILES IDX 10 17
REMARK H PARENT 14 11 12 13 8 16 10 18
REMARK Flexibility Score: inf
ROOT
ATOM      1  C   UNL     1       5.623   8.187   3.287  1.00  0.00     0.281 C 
ATOM      2  C   UNL     1       6.323   6.959   3.903  1.00  0.00     0.202 C 
ATOM      3  C   UNL     1       6.039   5.682   3.084  1.00  0.00     0.179 C 
ATOM      4  C   UNL     1       4.528   5.548   2.798  1.00  0.00     0.177 C 
ATOM      5  C   UNL     1       3.994   6.876   2.213  1.00  0.00     0.178 C 
ATOM      6  O   UNL     1       4.230   7.953   3.106  1.00  0.00    -0.341 OA
ENDROOT
BRANCH   1   7
ATOM      7  O   UNL     1       6.252   8.546   2.066  1.00  0.00    -0.350 OA
BRANCH   7   8
ATOM      8  C   UNL     1       6.849   9.827   2.154  1.00  0.00     0.160 C 
ATOM      9  C   UNL     1       8.367   9.701   2.139  1.00  0.00     0.035 C 
ENDBRANCH   7   8
ENDBRANCH   1   7
BRANCH   2  10
ATOM     10  O   UNL     1       5.879   6.794   5.225  1.00  0.00    -0.385 OA
ATOM     11  H   UNL     1       4.887   6.838   5.204  1.00  0.00     0.211 HD
ENDBRANCH   2  10
BRANCH   3  12
ATOM     12  O   UNL     1       6.757   5.733   1.877  1.00  0.00    -0.387 OA
ATOM     13  H   UNL     1       7.580   6.259   2.053  1.00  0.00     0.211 HD
ENDBRANCH   3  12
BRANCH   5  14
ATOM     14  C   UNL     1       2.492   6.800   1.891  1.00  0.00     0.191 C 
BRANCH  14  15
ATOM     15  O   UNL     1       1.720   6.678   3.056  1.00  0.00    -0.394 OA
ATOM     16  H   UNL     1       0.778   6.846   2.795  1.00  0.00     0.210 HD
ENDBRANCH  14  15
ENDBRANCH   5  14
BRANCH   4  17
ATOM     17  O   UNL     1       3.844   5.231   3.984  1.00  0.00    -0.387 OA
ATOM     18  H   UNL     1       3.493   4.309   3.876  1.00  0.00     0.211 HD
ENDBRANCH   4  17
TORSDOF 7
ENDMDL
MODEL 6
REMARK VINA RESULT:    -2.220      2.186      2.969
REMARK INTER + INTRA:          -3.287
REMARK INTER:                  -2.885
REMARK INTRA:                  -0.402
REMARK UNBOUND:                -0.419
REMARK SMILES CCO[C@H]1O[C@H](CO)[C@H](O)[C@@H](O)[C@@H]1O
REMARK SMILES IDX 4 1 13 2 11 3 9 4 6 5 5 6 3 7 2 8 1 9 14 10 12 12 7 14 8 15
REMARK SMILES IDX 10 17
REMARK H PARENT 14 11 12 13 8 16 10 18
REMARK Flexibility Score: inf
ROOT
ATOM      1  C   UNL     1       4.416   8.880   4.447  1.00  0.00     0.281 C 
ATOM      2  C   UNL     1       4.616   9.568   3.080  1.00  0.00     0.202 C 
ATOM      3  C   UNL     1       4.218   8.632   1.919  1.00  0.00     0.179 C 
ATOM      4  C   UNL     1       4.866   7.242   2.098  1.00  0.00     0.177 C 
ATOM      5  C   UNL     1       4.587   6.724   3.527  1.00  0.00     0.178 C 
ATOM      6  O   UNL     1       5.088   7.627   4.500  1.00  0.00    -0.341 OA
ENDROOT
BRANCH   1   7
ATOM      7  O   UNL     1       3.030   8.738   4.722  1.00  0.00    -0.350 OA
BRANCH   7   8
ATOM      8  C   UNL     1       2.502   9.913   5.311  1.00  0.00     0.160 C 
ATOM      9  C   UNL     1       1.011   9.744   5.575  1.00  0.00     0.035 C 
ENDBRANCH   7   8
ENDBRANCH   1   7
BRANCH   2  10
ATOM     10  O   UNL     1       5.962   9.951   2.954  1.00  0.00    -0.385 OA
ATOM     11  H   UNL     1       6.159  10.565   3.708  1.00  0.00     0.211 HD
ENDBRANCH   2  10
BRANCH   3  12
ATOM     12  O   UNL     1       2.819   8.512   1.875  1.00  0.00    -0.387 OA
ATOM     13  H   UNL     1       2.534   8.790   0.965  1.00  0.00     0.211 HD
ENDBRANCH   3  12
BRANCH   5  14
ATOM     14  C   UNL     1       5.194   5.331   3.762  1.00  0.00     0.191 C 
BRANCH  14  15
ATOM     15  O   UNL     1       5.288   4.601   2.568  1.00  0.00    -0.394 OA
ATOM     16  H   UNL     1       6.210   4.237   2.526  1.00  0.00     0.210 HD
ENDBRANCH  14  15
ENDBRANCH   5  14
BRANCH   4  17
ATOM     17  O   UNL     1       6.250   7.329   1.875  1.00  0.00    -0.387 OA
ATOM     18  H   UNL     1       6.413   7.007   0.950  1.00  0.00     0.211 HD
ENDBRANCH   4  17
TORSDOF 7
ENDMDL
MODEL 7
REMARK VINA RESULT:    -2.213      1.482      2.026
REMARK INTER + INTRA:          -3.279
REMARK INTER:                  -2.867
REMARK INTRA:                  -0.412
REMARK UNBOUND:                -0.419
REMARK SMILES CCO[C@H]1O[C@H](CO)[C@H](O)[C@@H](O)[C@@H]1O
REMARK SMILES IDX 4 1 13 2 11 3 9 4 6 5 5 6 3 7 2 8 1 9 14 10 12 12 7 14 8 15
REMARK SMILES IDX 10 17
REMARK H PARENT 14 11 12 13 8 16 10 18
REMARK Flexibility Score: inf
ROOT
ATOM      1  C   UNL     1       3.331   7.469   3.860  1.00  0.00     0.281 C 
ATOM      2  C   UNL     1       4.408   8.539   4.134  1.00  0.00     0.202 C 
ATOM      3  C   UNL     1       5.393   8.658   2.952  1.00  0.00     0.179 C 
ATOM      4  C   UNL     1       5.895   7.263   2.524  1.00  0.00     0.177 C 
ATOM      5  C   UNL     1       4.687   6.320   2.321  1.00  0.00     0.178 C 
ATOM      6  O   UNL     1       3.919   6.221   3.509  1.00  0.00    -0.341 OA
ENDROOT
BRANCH   1   7
ATOM      7  O   UNL     1       2.438   7.923   2.853  1.00  0.00    -0.350 OA
BRANCH   7   8
ATOM      8  C   UNL     1       1.508   8.854   3.377  1.00  0.00     0.160 C 
ATOM      9  C   UNL     1       0.093   8.473   2.962  1.00  0.00     0.035 C 
ENDBRANCH   7   8
ENDBRANCH   1   7
BRANCH   2  10
ATOM     10  O   UNL     1       5.100   8.200   5.309  1.00  0.00    -0.385 OA
ATOM     11  H   UNL     1       4.963   8.946   5.950  1.00  0.00     0.211 HD
ENDBRANCH   2  10
BRANCH   3  12
ATOM     12  O   UNL     1       4.754   9.295   1.875  1.00  0.00    -0.387 OA
ATOM     13  H   UNL     1       5.468   9.619   1.266  1.00  0.00     0.211 HD
ENDBRANCH   3  12
BRANCH   5  14
ATOM     14  C   UNL     1       5.123   4.915   1.875  1.00  0.00     0.191 C 
BRANCH  14  15
ATOM     15  O   UNL     1       5.489   4.117   2.970  1.00  0.00    -0.394 OA
ATOM     16  H   UNL     1       4.848   3.360   3.000  1.00  0.00     0.210 HD
ENDBRANCH  14  15
ENDBRANCH   5  14
BRANCH   4  17
ATOM     17  O   UNL     1       6.756   6.744   3.504  1.00  0.00    -0.387 OA
ATOM     18  H   UNL     1       7.299   7.504   3.842  1.00  0.00     0.211 HD
ENDBRANCH   4  17
TORSDOF 7
ENDMDL
MODEL 8
REMARK VINA RESULT:    -2.014      1.583      3.426
REMARK INTER + INTRA:          -3.021
REMARK INTER:                  -2.912
REMARK INTRA:                  -0.109
REMARK UNBOUND:                -0.419
REMARK SMILES CCO[C@H]1O[C@H](CO)[C@H](O)[C@@H](O)[C@@H]1O
REMARK SMILES IDX 4 1 13 2 11 3 9 4 6 5 5 6 3 7 2 8 1 9 14 10 12 12 7 14 8 15
REMARK SMILES IDX 10 17
REMARK H PARENT 14 11 12 13 8 16 10 18
REMARK Flexibility Score: inf
ROOT
ATOM      1  C   UNL     1       3.662   8.451   4.472  1.00  0.00     0.281 C 
ATOM      2  C   UNL     1       5.164   8.249   4.187  1.00  0.00     0.202 C 
ATOM      3  C   UNL     1       5.430   8.091   2.675  1.00  0.00     0.179 C 
ATOM      4  C   UNL     1       4.461   7.058   2.060  1.00  0.00     0.177 C 
ATOM      5  C   UNL     1       3.012   7.401   2.472  1.00  0.00     0.178 C 
ATOM      6  O   UNL     1       2.878   7.418   3.885  1.00  0.00    -0.341 OA
ENDROOT
BRANCH   1   7
ATOM      7  O   UNL     1       3.249   9.734   4.025  1.00  0.00    -0.350 OA
BRANCH   7   8
ATOM      8  C   UNL     1       1.946  10.042   4.486  1.00  0.00     0.160 C 
ATOM      9  C   UNL     1       1.887   9.939   6.004  1.00  0.00     0.035 C 
ENDBRANCH   7   8
ENDBRANCH   1   7
BRANCH   2  10
ATOM     10  O   UNL     1       5.612   7.111   4.878  1.00  0.00    -0.385 OA
ATOM     11  H   UNL     1       6.598   7.191   4.958  1.00  0.00     0.211 HD
ENDBRANCH   2  10
BRANCH   3  12
ATOM     12  O   UNL     1       5.276   9.335   2.041  1.00  0.00    -0.387 OA
ATOM     13  H   UNL     1       4.381   9.332   1.611  1.00  0.00     0.211 HD
ENDBRANCH   3  12
BRANCH   5  14
ATOM     14  C   UNL     1       1.995   6.415   1.875  1.00  0.00     0.191 C 
BRANCH  14  15
ATOM     15  O   UNL     1       1.037   6.025   2.823  1.00  0.00    -0.394 OA
ATOM     16  H   UNL     1       0.404   6.783   2.920  1.00  0.00     0.210 HD
ENDBRANCH  14  15
ENDBRANCH   5  14
BRANCH   4  17
ATOM     17  O   UNL     1       4.798   5.767   2.501  1.00  0.00    -0.387 OA
ATOM     18  H   UNL     1       4.224   5.132   1.997  1.00  0.00     0.211 HD
ENDBRANCH   4  17
TORSDOF 7
ENDMDL
MODEL 9
REMARK VINA RESULT:    -0.606      1.923      3.550
REMARK INTER + INTRA:          -1.202
REMARK INTER:                  -0.865
REMARK INTRA:                  -0.337
REMARK UNBOUND:                -0.419
REMARK SMILES CCO[C@H]1O[C@H](CO)[C@H](O)[C@@H](O)[C@@H]1O
REMARK SMILES IDX 4 1 13 2 11 3 9 4 6 5 5 6 3 7 2 8 1 9 14 10 12 12 7 14 8 15
REMARK SMILES IDX 10 17
REMARK H PARENT 14 11 12 13 8 16 10 18
REMARK Flexibility Score: inf
ROOT
ATOM      1  C   UNL     1       3.690   7.715   2.974  1.00  0.00     0.281 C 
ATOM      2  C   UNL     1       4.375   6.388   3.362  1.00  0.00     0.202 C 
ATOM      3  C   UNL     1       5.775   6.636   3.963  1.00  0.00     0.179 C 
ATOM      4  C   UNL     1       6.584   7.600   3.069  1.00  0.00     0.177 C 
ATOM      5  C   UNL     1       5.735   8.854   2.763  1.00  0.00     0.178 C 
ATOM      6  O   UNL     1       4.519   8.498   2.123  1.00  0.00    -0.341 OA
ENDROOT
BRANCH   1   7
ATOM      7  O   UNL     1       3.320   8.432   4.143  1.00  0.00    -0.350 OA
BRANCH   7   8
ATOM      8  C   UNL     1       1.913   8.484   4.289  1.00  0.00     0.160 C 
ATOM      9  C   UNL     1       1.540   9.362   5.477  1.00  0.00     0.035 C 
ENDBRANCH   7   8
ENDBRANCH   1   7
BRANCH   2  10
ATOM     10  O   UNL     1       4.475   5.575   2.220  1.00  0.00    -0.385 OA
ATOM     11  H   UNL     1       4.958   6.102   1.532  1.00  0.00     0.211 HD
ENDBRANCH   2  10
BRANCH   3  12
ATOM     12  O   UNL     1       5.639   7.171   5.255  1.00  0.00    -0.387 OA
ATOM     13  H   UNL     1       6.301   7.907   5.333  1.00  0.00     0.211 HD
ENDBRANCH   3  12
BRANCH   5  14
ATOM     14  C   UNL     1       6.495   9.864   1.888  1.00  0.00     0.191 C 
BRANCH  14  15
ATOM     15  O   UNL     1       7.863   9.891   2.201  1.00  0.00    -0.394 OA
ATOM     16  H   UNL     1       8.323   9.328   1.525  1.00  0.00     0.210 HD
ENDBRANCH  14  15
ENDBRANCH   5  14
BRANCH   4  17
ATOM     17  O   UNL     1       6.945   6.954   1.875  1.00  0.00    -0.387 OA
ATOM     18  H   UNL     1       6.607   7.517   1.130  1.00  0.00     0.211 HD
ENDBRANCH   4  17
TORSDOF 7
ENDMDL
