MODEL 1
REMARK VINA RESULT:    -4.407      0.000      0.000
REMARK INTER + INTRA:          -4.664
REMARK INTER:                  -4.664
REMARK INTRA:                   0.000
REMARK UNBOUND:                 0.000
REMARK SMILES Cc1cc(O)c(C)c(C)c1O
REMARK SMILES IDX 1 1 2 2 3 3 4 4 6 5 8 6 10 7 9 8 7 9 11 10 5 12
REMARK H PARENT 11 11 5 13
REMARK Flexibility Score: inf
ROOT
ATOM      1  C   UNL     1      26.303  -3.098  33.590  1.00  0.00     0.048 C 
ATOM      2  C   UNL     1      25.356  -2.248  34.391  1.00  0.00    -0.005 A 
ATOM      3  C   UNL     1      23.975  -2.417  34.248  1.00  0.00     0.053 A 
ATOM      4  C   UNL     1      23.079  -1.665  35.005  1.00  0.00     0.119 A 
ATOM      5  C   UNL     1      23.561  -0.726  35.948  1.00  0.00    -0.003 A 
ATOM      6  C   UNL     1      24.957  -0.460  36.011  1.00  0.00    -0.002 A 
ATOM      7  C   UNL     1      25.853  -1.279  35.277  1.00  0.00     0.121 A 
ATOM      8  C   UNL     1      25.498   0.673  36.855  1.00  0.00     0.049 C 
ATOM      9  C   UNL     1      22.586  -0.012  36.859  1.00  0.00     0.049 C 
ENDROOT
BRANCH   7  10
ATOM     10  O   UNL     1      27.241  -1.163  35.418  1.00  0.00    -0.507 OA
ATOM     11  H   UNL     1      27.808  -0.516  34.887  1.00  0.00     0.293 HD
ENDBRANCH   7  10
BRANCH   4  12
ATOM     12  O   UNL     1      21.715  -1.872  34.783  1.00  0.00    -0.508 OA
ATOM     13  H   UNL     1      21.233  -2.730  35.017  1.00  0.00     0.293 HD
ENDBRANCH   4  12
TORSDOF 2
ENDMDL
MODEL 2
REMARK VINA RESULT:    -4.395      6.870      8.705
REMARK INTER + INTRA:          -4.652
REMARK INTER:                  -4.652
REMARK INTRA:                   0.000
REMARK UNBOUND:                 0.000
REMARK SMILES Cc1cc(O)c(C)c(C)c1O
REMARK SMILES IDX 1 1 2 2 3 3 4 4 6 5 8 6 10 7 9 8 7 9 11 10 5 12
REMARK H PARENT 11 11 5 13
REMARK Flexibility Score: inf
ROOT
ATOM      1  C   UNL     1      29.212  -5.692  34.223  1.00  0.00     0.048 C 
ATOM      2  C   UNL     1      30.558  -5.075  33.956  1.00  0.00    -0.005 A 
ATOM      3  C   UNL     1      31.222  -5.339  32.755  1.00  0.00     0.053 A 
ATOM      4  C   UNL     1      32.453  -4.750  32.471  1.00  0.00     0.119 A 
ATOM      5  C   UNL     1      33.042  -3.857  33.398  1.00  0.00    -0.003 A 
ATOM      6  C   UNL     1      32.436  -3.681  34.673  1.00  0.00    -0.002 A 
ATOM      7  C   UNL     1      31.154  -4.240  34.915  1.00  0.00     0.121 A 
ATOM      8  C   UNL     1      33.131  -2.899  35.766  1.00  0.00     0.049 C 
ATOM      9  C   UNL     1      34.311  -3.122  33.026  1.00  0.00     0.049 C 
ENDROOT
BRANCH   7  10
ATOM     10  O   UNL     1      30.445  -3.973  36.092  1.00  0.00    -0.507 OA
ATOM     11  H   UNL     1      29.918  -4.669  36.601  1.00  0.00     0.293 HD
ENDBRANCH   7  10
BRANCH   4  12
ATOM     12  O   UNL     1      33.065  -5.087  31.261  1.00  0.00    -0.508 OA
ATOM     13  H   UNL     1      33.041  -6.015  30.860  1.00  0.00     0.293 HD
ENDBRANCH   4  12
TORSDOF 2
ENDMDL
MODEL 3
REMARK VINA RESULT:    -4.285      1.903      3.514
REMARK INTER + INTRA:          -4.536
REMARK INTER:                  -4.536
REMARK INTRA:                   0.000
REMARK UNBOUND:                 0.000
REMARK SMILES Cc1cc(O)c(C)c(C)c1O
REMARK SMILES IDX 1 1 2 2 3 3 4 4 6 5 8 6 10 7 9 8 7 9 11 10 5 12
REMARK H PARENT 11 11 5 13
REMARK Flexibility Score: inf
ROOT
ATOM      1  C   UNL     1      22.580  -0.922  34.933  1.00  0.00     0.048 C 
ATOM      2  C   UNL     1      24.021  -1.271  35.187  1.00  0.00    -0.005 A 
ATOM      3  C   UNL     1      24.713  -2.080  34.281  1.00  0.00     0.053 A 
ATOM      4  C   UNL     1      26.058  -2.388  34.477  1.00  0.00     0.119 A 
ATOM      5  C   UNL     1      26.749  -1.866  35.597  1.00  0.00    -0.003 A 
ATOM      6  C   UNL     1      26.022  -1.147  36.587  1.00  0.00    -0.002 A 
ATOM      7  C   UNL     1      24.672  -0.793  36.336  1.00  0.00     0.121 A 
ATOM      8  C   UNL     1      26.672  -0.745  37.893  1.00  0.00     0.049 C 
ATOM      9  C   UNL     1      28.239  -2.095  35.731  1.00  0.00     0.049 C 
ENDROOT
BRANCH   7  10
ATOM     10  O   UNL     1      23.956   0.041  37.202  1.00  0.00    -0.507 OA
ATOM     11  H   UNL     1      24.388   0.712  37.822  1.00  0.00     0.293 HD
ENDBRANCH   7  10
BRANCH   4  12
ATOM     12  O   UNL     1      26.672  -3.226  33.542  1.00  0.00    -0.508 OA
ATOM     13  H   UNL     1      26.709  -3.027  32.551  1.00  0.00     0.293 HD
ENDBRANCH   4  12
TORSDOF 2
ENDMDL
MODEL 4
REMARK VINA RESULT:    -4.234      2.239      3.562
REMARK INTER + INTRA:          -4.482
REMARK INTER:                  -4.482
REMARK INTRA:                   0.000
REMARK UNBOUND:                 0.000
REMARK SMILES Cc1cc(O)c(C)c(C)c1O
REMARK SMILES IDX 1 1 2 2 3 3 4 4 6 5 8 6 10 7 9 8 7 9 11 10 5 12
REMARK H PARENT 11 11 5 13
REMARK Flexibility Score: inf
ROOT
ATOM      1  C   UNL     1      29.174  -3.539  35.344  1.00  0.00     0.048 C 
ATOM      2  C   UNL     1      27.941  -2.726  35.628  1.00  0.00    -0.005 A 
ATOM      3  C   UNL     1      27.846  -1.991  36.814  1.00  0.00     0.053 A 
ATOM      4  C   UNL     1      26.729  -1.203  37.082  1.00  0.00     0.119 A 
ATOM      5  C   UNL     1      25.674  -1.124  36.141  1.00  0.00    -0.003 A 
ATOM      6  C   UNL     1      25.705  -1.964  34.992  1.00  0.00    -0.002 A 
ATOM      7  C   UNL     1      26.879  -2.709  34.709  1.00  0.00     0.121 A 
ATOM      8  C   UNL     1      24.513  -2.063  34.066  1.00  0.00     0.049 C 
ATOM      9  C   UNL     1      24.528  -0.165  36.379  1.00  0.00     0.049 C 
ENDROOT
BRANCH   7  10
ATOM     10  O   UNL     1      27.023  -3.430  33.519  1.00  0.00    -0.507 OA
ATOM     11  H   UNL     1      26.717  -4.386  33.399  1.00  0.00     0.293 HD
ENDBRANCH   7  10
BRANCH   4  12
ATOM     12  O   UNL     1      26.697  -0.522  38.302  1.00  0.00    -0.508 OA
ATOM     13  H   UNL     1      26.360  -0.930  39.163  1.00  0.00     0.293 HD
ENDBRANCH   4  12
TORSDOF 2
ENDMDL
MODEL 5
REMARK VINA RESULT:    -4.205      5.178      7.452
REMARK INTER + INTRA:          -4.451
REMARK INTER:                  -4.451
REMARK INTRA:                   0.000
REMARK UNBOUND:                 0.000
REMARK SMILES Cc1cc(O)c(C)c(C)c1O
REMARK SMILES IDX 1 1 2 2 3 3 4 4 6 5 8 6 10 7 9 8 7 9 11 10 5 12
REMARK H PARENT 11 11 5 13
REMARK Flexibility Score: inf
ROOT
ATOM      1  C   UNL     1      33.804  -3.310  34.565  1.00  0.00     0.048 C 
ATOM      2  C   UNL     1      32.323  -3.575  34.572  1.00  0.00    -0.005 A 
ATOM      3  C   UNL     1      31.436  -2.574  34.981  1.00  0.00     0.053 A 
ATOM      4  C   UNL     1      30.059  -2.785  34.963  1.00  0.00     0.119 A 
ATOM      5  C   UNL     1      29.537  -4.019  34.508  1.00  0.00    -0.003 A 
ATOM      6  C   UNL     1      30.433  -5.084  34.209  1.00  0.00    -0.002 A 
ATOM      7  C   UNL     1      31.828  -4.828  34.175  1.00  0.00     0.121 A 
ATOM      8  C   UNL     1      29.919  -6.476  33.916  1.00  0.00     0.049 C 
ATOM      9  C   UNL     1      28.040  -4.192  34.366  1.00  0.00     0.049 C 
ENDROOT
BRANCH   7  10
ATOM     10  O   UNL     1      32.743  -5.793  33.740  1.00  0.00    -0.507 OA
ATOM     11  H   UNL     1      32.486  -6.735  33.480  1.00  0.00     0.293 HD
ENDBRANCH   7  10
BRANCH   4  12
ATOM     12  O   UNL     1      29.241  -1.746  35.415  1.00  0.00    -0.508 OA
ATOM     13  H   UNL     1      28.231  -1.799  35.441  1.00  0.00     0.293 HD
ENDBRANCH   4  12
TORSDOF 2
ENDMDL
MODEL 6
REMARK VINA RESULT:    -4.182      1.728      3.714
REMARK INTER + INTRA:          -4.427
REMARK INTER:                  -4.427
REMARK INTRA:                   0.000
REMARK UNBOUND:                 0.000
REMARK SMILES Cc1cc(O)c(C)c(C)c1O
REMARK SMILES IDX 1 1 2 2 3 3 4 4 6 5 8 6 10 7 9 8 7 9 11 10 5 12
REMARK H PARENT 11 11 5 13
REMARK Flexibility Score: inf
ROOT
ATOM      1  C   UNL     1      26.469   0.636  37.748  1.00  0.00     0.048 C 
ATOM      2  C   UNL     1      25.796  -0.248  36.733  1.00  0.00    -0.005 A 
ATOM      3  C   UNL     1      26.559  -1.125  35.957  1.00  0.00     0.053 A 
ATOM      4  C   UNL     1      25.955  -1.979  35.036  1.00  0.00     0.119 A 
ATOM      5  C   UNL     1      24.547  -1.979  34.887  1.00  0.00    -0.003 A 
ATOM      6  C   UNL     1      23.776  -1.005  35.581  1.00  0.00    -0.002 A 
ATOM      7  C   UNL     1      24.404  -0.189  36.557  1.00  0.00     0.121 A 
ATOM      8  C   UNL     1      22.299  -0.835  35.301  1.00  0.00     0.049 C 
ATOM      9  C   UNL     1      23.890  -2.999  33.983  1.00  0.00     0.049 C 
ENDROOT
BRANCH   7  10
ATOM     10  O   UNL     1      23.671   0.676  37.376  1.00  0.00    -0.507 OA
ATOM     11  H   UNL     1      24.005   1.580  37.682  1.00  0.00     0.293 HD
ENDBRANCH   7  10
BRANCH   4  12
ATOM     12  O   UNL     1      26.789  -2.805  34.277  1.00  0.00    -0.508 OA
ATOM     13  H   UNL     1      27.671  -3.169  34.612  1.00  0.00     0.293 HD
ENDBRANCH   4  12
TORSDOF 2
ENDMDL
MODEL 7
REMARK VINA RESULT:    -4.172      1.690      2.869
REMARK INTER + INTRA:          -4.416
REMARK INTER:                  -4.416
REMARK INTRA:                   0.000
REMARK UNBOUND:                 0.000
REMARK SMILES Cc1cc(O)c(C)c(C)c1O
REMARK SMILES IDX 1 1 2 2 3 3 4 4 6 5 8 6 10 7 9 8 7 9 11 10 5 12
REMARK H PARENT 11 11 5 13
REMARK Flexibility Score: inf
ROOT
ATOM      1  C   UNL     1      27.882  -1.213  36.137  1.00  0.00     0.048 C 
ATOM      2  C   UNL     1      26.391  -1.200  35.938  1.00  0.00    -0.005 A 
ATOM      3  C   UNL     1      25.591  -0.349  36.706  1.00  0.00     0.053 A 
ATOM      4  C   UNL     1      24.212  -0.294  36.515  1.00  0.00     0.119 A 
ATOM      5  C   UNL     1      23.601  -1.096  35.521  1.00  0.00    -0.003 A 
ATOM      6  C   UNL     1      24.388  -2.055  34.823  1.00  0.00    -0.002 A 
ATOM      7  C   UNL     1      25.797  -2.048  34.989  1.00  0.00     0.121 A 
ATOM      8  C   UNL     1      23.747  -3.068  33.901  1.00  0.00     0.049 C 
ATOM      9  C   UNL     1      22.125  -0.934  35.230  1.00  0.00     0.049 C 
ENDROOT
BRANCH   7  10
ATOM     10  O   UNL     1      26.633  -2.863  34.216  1.00  0.00    -0.507 OA
ATOM     11  H   UNL     1      27.642  -2.855  34.280  1.00  0.00     0.293 HD
ENDBRANCH   7  10
BRANCH   4  12
ATOM     12  O   UNL     1      23.479   0.562  37.342  1.00  0.00    -0.508 OA
ATOM     13  H   UNL     1      23.630   0.642  38.339  1.00  0.00     0.293 HD
ENDBRANCH   4  12
TORSDOF 2
ENDMDL
MODEL 8
REMARK VINA RESULT:    -4.113      2.197      2.329
REMARK INTER + INTRA:          -4.353
REMARK INTER:                  -4.353
REMARK INTRA:                   0.000
REMARK UNBOUND:                 0.000
REMARK SMILES Cc1cc(O)c(C)c(C)c1O
REMARK SMILES IDX 1 1 2 2 3 3 4 4 6 5 8 6 10 7 9 8 7 9 11 10 5 12
REMARK H PARENT 11 11 5 13
REMARK Flexibility Score: inf
ROOT
ATOM      1  C   UNL     1      25.850  -2.743  33.852  1.00  0.00     0.048 C 
ATOM      2  C   UNL     1      24.881  -1.643  34.191  1.00  0.00    -0.005 A 
ATOM      3  C   UNL     1      23.983  -1.806  35.250  1.00  0.00     0.053 A 
ATOM      4  C   UNL     1      23.100  -0.787  35.604  1.00  0.00     0.119 A 
ATOM      5  C   UNL     1      23.115   0.441  34.899  1.00  0.00    -0.003 A 
ATOM      6  C   UNL     1      23.936   0.568  33.744  1.00  0.00    -0.002 A 
ATOM      7  C   UNL     1      24.870  -0.456  33.440  1.00  0.00     0.121 A 
ATOM      8  C   UNL     1      23.836   1.781  32.846  1.00  0.00     0.049 C 
ATOM      9  C   UNL     1      22.248   1.587  35.374  1.00  0.00     0.049 C 
ENDROOT
BRANCH   7  10
ATOM     10  O   UNL     1      25.806  -0.317  32.410  1.00  0.00    -0.507 OA
ATOM     11  H   UNL     1      25.582   0.039  31.491  1.00  0.00     0.293 HD
ENDBRANCH   7  10
BRANCH   4  12
ATOM     12  O   UNL     1      22.214  -1.037  36.655  1.00  0.00    -0.508 OA
ATOM     13  H   UNL     1      21.275  -0.664  36.697  1.00  0.00     0.293 HD
ENDBRANCH   4  12
TORSDOF 2
ENDMDL
MODEL 9
REMARK VINA RESULT:    -4.056      7.777      9.747
REMARK INTER + INTRA:          -4.293
REMARK INTER:                  -4.293
REMARK INTRA:                   0.000
REMARK UNBOUND:                 0.000
REMARK SMILES Cc1cc(O)c(C)c(C)c1O
REMARK SMILES IDX 1 1 2 2 3 3 4 4 6 5 8 6 10 7 9 8 7 9 11 10 5 12
REMARK H PARENT 11 11 5 13
REMARK Flexibility Score: inf
ROOT
ATOM      1  C   UNL     1      35.807  -4.426  32.021  1.00  0.00     0.048 C 
ATOM      2  C   UNL     1      34.583  -4.297  32.886  1.00  0.00    -0.005 A 
ATOM      3  C   UNL     1      34.701  -3.832  34.199  1.00  0.00     0.053 A 
ATOM      4  C   UNL     1      33.577  -3.671  35.007  1.00  0.00     0.119 A 
ATOM      5  C   UNL     1      32.289  -3.965  34.497  1.00  0.00    -0.003 A 
ATOM      6  C   UNL     1      32.172  -4.557  33.208  1.00  0.00    -0.002 A 
ATOM      7  C   UNL     1      33.321  -4.652  32.381  1.00  0.00     0.121 A 
ATOM      8  C   UNL     1      30.842  -5.072  32.705  1.00  0.00     0.049 C 
ATOM      9  C   UNL     1      31.066  -3.663  35.335  1.00  0.00     0.049 C 
ENDROOT
BRANCH   7  10
ATOM     10  O   UNL     1      33.238  -5.083  31.053  1.00  0.00    -0.507 OA
ATOM     11  H   UNL     1      32.959  -6.015  30.780  1.00  0.00     0.293 HD
ENDBRANCH   7  10
BRANCH   4  12
ATOM     12  O   UNL     1      33.781  -3.229  36.317  1.00  0.00    -0.508 OA
ATOM     13  H   UNL     1      34.132  -2.308  36.549  1.00  0.00     0.293 HD
ENDBRANCH   4  12
TORSDOF 2
ENDMDL
