MODEL 1
REMARK VINA RESULT:    -3.498      0.000      0.000
REMARK INTER + INTRA:          -6.414
REMARK INTER:                  -5.339
REMARK INTRA:                  -1.075
REMARK UNBOUND:                -1.075
REMARK SMILES CCCCCCCCCCC(=O)[O-]
REMARK SMILES IDX 7 1 8 2 9 3 10 4 11 5 12 6 13 7 6 8 5 9 4 10 3 11 2 12 1 13
REMARK H PARENT
REMARK Flexibility Score: inf
ROOT
ATOM      1  C   UNL     1       6.283   4.462  51.532  1.00  0.00     0.000 C 
ENDROOT
BRANCH   1   2
ATOM      2  C   UNL     1       6.115   5.658  50.571  1.00  0.00     0.000 C 
BRANCH   2   3
ATOM      3  C   UNL     1       7.423   6.199  49.967  1.00  0.00     0.006 C 
BRANCH   3   4
ATOM      4  C   UNL     1       7.442   6.142  48.434  1.00  0.00     0.053 C 
BRANCH   4   5
ATOM      5  C   UNL     1       8.032   7.396  47.872  1.00  0.00     0.041 C 
ATOM      6  O   UNL     1       7.295   8.385  47.618  1.00  0.00    -0.550 OA
ATOM      7  O   UNL     1       9.390   7.457  47.582  1.00  0.00    -0.550 OA
ENDBRANCH   4   5
ENDBRANCH   3   4
ENDBRANCH   2   3
ENDBRANCH   1   2
BRANCH   1   8
ATOM      8  C   UNL     1       7.427   3.495  51.179  1.00  0.00     0.000 C 
BRANCH   8   9
ATOM      9  C   UNL     1       7.051   2.002  51.228  1.00  0.00    -0.000 C 
BRANCH   9  10
ATOM     10  C   UNL     1       6.130   1.556  50.072  1.00  0.00    -0.000 C 
BRANCH  10  11
ATOM     11  C   UNL     1       6.901   1.337  48.759  1.00  0.00    -0.000 C 
BRANCH  11  12
ATOM     12  C   UNL     1       6.561   2.388  47.691  1.00  0.00    -0.003 C 
ATOM     13  C   UNL     1       5.255   3.127  47.982  1.00  0.00     0.004 C 
ENDBRANCH  11  12
ENDBRANCH  10  11
ENDBRANCH   9  10
ENDBRANCH   8   9
ENDBRANCH   1   8
TORSDOF 9
ENDMDL
MODEL 2
REMARK VINA RESULT:    -3.488      2.086      3.231
REMARK INTER + INTRA:          -6.398
REMARK INTER:                  -5.214
REMARK INTRA:                  -1.184
REMARK UNBOUND:                -1.075
REMARK SMILES CCCCCCCCCCC(=O)[O-]
REMARK SMILES IDX 7 1 8 2 9 3 10 4 11 5 12 6 13 7 6 8 5 9 4 10 3 11 2 12 1 13
REMARK H PARENT
REMARK Flexibility Score: inf
ROOT
ATOM      1  C   UNL     1       6.726   1.809  47.848  1.00  0.00     0.000 C 
ENDROOT
BRANCH   1   2
ATOM      2  C   UNL     1       5.875   3.095  47.931  1.00  0.00     0.000 C 
BRANCH   2   3
ATOM      3  C   UNL     1       6.659   4.379  48.250  1.00  0.00     0.006 C 
BRANCH   3   4
ATOM      4  C   UNL     1       6.834   4.614  49.756  1.00  0.00     0.053 C 
BRANCH   4   5
ATOM      5  C   UNL     1       7.284   6.016  50.017  1.00  0.00     0.041 C 
ATOM      6  O   UNL     1       7.697   6.348  51.159  1.00  0.00    -0.550 OA
ATOM      7  O   UNL     1       7.203   6.972  49.010  1.00  0.00    -0.550 OA
ENDBRANCH   4   5
ENDBRANCH   3   4
ENDBRANCH   2   3
ENDBRANCH   1   2
BRANCH   1   8
ATOM      8  C   UNL     1       6.305   0.684  48.810  1.00  0.00     0.000 C 
BRANCH   8   9
ATOM      9  C   UNL     1       6.534   0.989  50.302  1.00  0.00    -0.000 C 
BRANCH   9  10
ATOM     10  C   UNL     1       5.235   1.308  51.076  1.00  0.00    -0.000 C 
BRANCH  10  11
ATOM     11  C   UNL     1       3.980   0.793  50.352  1.00  0.00    -0.000 C 
BRANCH  11  12
ATOM     12  C   UNL     1       3.001   1.921  49.991  1.00  0.00    -0.003 C 
ATOM     13  C   UNL     1       3.366   3.254  50.644  1.00  0.00     0.004 C 
ENDBRANCH  11  12
ENDBRANCH  10  11
ENDBRANCH   9  10
ENDBRANCH   8   9
ENDBRANCH   1   8
TORSDOF 9
ENDMDL
MODEL 3
REMARK VINA RESULT:    -3.437      4.501      5.831
REMARK INTER + INTRA:          -6.320
REMARK INTER:                  -5.044
REMARK INTRA:                  -1.276
REMARK UNBOUND:                -1.075
REMARK SMILES CCCCCCCCCCC(=O)[O-]
REMARK SMILES IDX 7 1 8 2 9 3 10 4 11 5 12 6 13 7 6 8 5 9 4 10 3 11 2 12 1 13
REMARK H PARENT
REMARK Flexibility Score: inf
ROOT
ATOM      1  C   UNL     1       5.640   4.310  50.186  1.00  0.00     0.000 C 
ENDROOT
BRANCH   1   2
ATOM      2  C   UNL     1       4.103   4.198  50.112  1.00  0.00     0.000 C 
BRANCH   2   3
ATOM      3  C   UNL     1       3.503   2.962  50.805  1.00  0.00     0.006 C 
BRANCH   3   4
ATOM      4  C   UNL     1       2.847   1.985  49.821  1.00  0.00     0.053 C 
BRANCH   4   5
ATOM      5  C   UNL     1       2.170   0.875  50.561  1.00  0.00     0.041 C 
ATOM      6  O   UNL     1       2.690  -0.271  50.601  1.00  0.00    -0.550 OA
ATOM      7  O   UNL     1       0.938   1.093  51.167  1.00  0.00    -0.550 OA
ENDBRANCH   4   5
ENDBRANCH   3   4
ENDBRANCH   2   3
ENDBRANCH   1   2
BRANCH   1   8
ATOM      8  C   UNL     1       6.372   4.157  48.840  1.00  0.00     0.000 C 
BRANCH   8   9
ATOM      9  C   UNL     1       5.676   3.229  47.828  1.00  0.00    -0.000 C 
BRANCH   9  10
ATOM     10  C   UNL     1       6.567   2.067  47.337  1.00  0.00    -0.000 C 
BRANCH  10  11
ATOM     11  C   UNL     1       7.121   1.222  48.497  1.00  0.00    -0.000 C 
BRANCH  11  12
ATOM     12  C   UNL     1       6.031   0.401  49.203  1.00  0.00    -0.003 C 
ATOM     13  C   UNL     1       6.199   0.375  50.721  1.00  0.00     0.004 C 
ENDBRANCH  11  12
ENDBRANCH  10  11
ENDBRANCH   9  10
ENDBRANCH   8   9
ENDBRANCH   1   8
TORSDOF 9
ENDMDL
MODEL 4
REMARK VINA RESULT:    -3.396      1.163      2.746
REMARK INTER + INTRA:          -6.258
REMARK INTER:                  -5.464
REMARK INTRA:                  -0.795
REMARK UNBOUND:                -1.075
REMARK SMILES CCCCCCCCCCC(=O)[O-]
REMARK SMILES IDX 7 1 8 2 9 3 10 4 11 5 12 6 13 7 6 8 5 9 4 10 3 11 2 12 1 13
REMARK H PARENT
REMARK Flexibility Score: inf
ROOT
ATOM      1  C   UNL     1       5.550   3.156  47.882  1.00  0.00     0.000 C 
ENDROOT
BRANCH   1   2
ATOM      2  C   UNL     1       6.136   4.181  48.876  1.00  0.00     0.000 C 
BRANCH   2   3
ATOM      3  C   UNL     1       7.154   5.166  48.277  1.00  0.00     0.006 C 
BRANCH   3   4
ATOM      4  C   UNL     1       7.347   6.423  49.135  1.00  0.00     0.053 C 
BRANCH   4   5
ATOM      5  C   UNL     1       7.272   7.651  48.285  1.00  0.00     0.041 C 
ATOM      6  O   UNL     1       6.296   8.439  48.394  1.00  0.00    -0.550 OA
ATOM      7  O   UNL     1       8.257   7.902  47.337  1.00  0.00    -0.550 OA
ENDBRANCH   4   5
ENDBRANCH   3   4
ENDBRANCH   2   3
ENDBRANCH   1   2
BRANCH   1   8
ATOM      8  C   UNL     1       6.493   1.999  47.505  1.00  0.00     0.000 C 
BRANCH   8   9
ATOM      9  C   UNL     1       7.067   1.217  48.701  1.00  0.00    -0.000 C 
BRANCH   9  10
ATOM     10  C   UNL     1       5.989   0.534  49.571  1.00  0.00    -0.000 C 
BRANCH  10  11
ATOM     11  C   UNL     1       6.343   0.553  51.067  1.00  0.00    -0.000 C 
BRANCH  11  12
ATOM     12  C   UNL     1       5.990   1.888  51.741  1.00  0.00    -0.003 C 
ATOM     13  C   UNL     1       7.222   2.732  52.067  1.00  0.00     0.004 C 
ENDBRANCH  11  12
ENDBRANCH  10  11
ENDBRANCH   9  10
ENDBRANCH   8   9
ENDBRANCH   1   8
TORSDOF 9
ENDMDL
MODEL 5
REMARK VINA RESULT:    -3.351      3.246      5.389
REMARK INTER + INTRA:          -6.189
REMARK INTER:                  -5.458
REMARK INTRA:                  -0.731
REMARK UNBOUND:                -1.075
REMARK SMILES CCCCCCCCCCC(=O)[O-]
REMARK SMILES IDX 7 1 8 2 9 3 10 4 11 5 12 6 13 7 6 8 5 9 4 10 3 11 2 12 1 13
REMARK H PARENT
REMARK Flexibility Score: inf
ROOT
ATOM      1  C   UNL     1       4.584   4.035  49.740  1.00  0.00     0.000 C 
ENDROOT
BRANCH   1   2
ATOM      2  C   UNL     1       4.802   3.138  48.503  1.00  0.00     0.000 C 
BRANCH   2   3
ATOM      3  C   UNL     1       6.248   3.085  47.980  1.00  0.00     0.006 C 
BRANCH   3   4
ATOM      4  C   UNL     1       6.748   1.653  47.748  1.00  0.00     0.053 C 
BRANCH   4   5
ATOM      5  C   UNL     1       6.536   0.821  48.973  1.00  0.00     0.041 C 
ATOM      6  O   UNL     1       7.101   1.129  50.055  1.00  0.00    -0.550 OA
ATOM      7  O   UNL     1       5.752  -0.325  48.908  1.00  0.00    -0.550 OA
ENDBRANCH   4   5
ENDBRANCH   3   4
ENDBRANCH   2   3
ENDBRANCH   1   2
BRANCH   1   8
ATOM      8  C   UNL     1       5.867   4.430  50.495  1.00  0.00     0.000 C 
BRANCH   8   9
ATOM      9  C   UNL     1       6.129   5.945  50.577  1.00  0.00    -0.000 C 
BRANCH   9  10
ATOM     10  C   UNL     1       7.477   6.375  49.959  1.00  0.00    -0.000 C 
BRANCH  10  11
ATOM     11  C   UNL     1       7.439   6.393  48.422  1.00  0.00    -0.000 C 
BRANCH  11  12
ATOM     12  C   UNL     1       7.655   7.800  47.842  1.00  0.00    -0.003 C 
ATOM     13  C   UNL     1       9.120   8.088  47.515  1.00  0.00     0.004 C 
ENDBRANCH  11  12
ENDBRANCH  10  11
ENDBRANCH   9  10
ENDBRANCH   8   9
ENDBRANCH   1   8
TORSDOF 9
ENDMDL
MODEL 6
REMARK VINA RESULT:    -3.345      4.425      6.185
REMARK INTER + INTRA:          -6.181
REMARK INTER:                  -5.007
REMARK INTRA:                  -1.174
REMARK UNBOUND:                -1.075
REMARK SMILES CCCCCCCCCCC(=O)[O-]
REMARK SMILES IDX 7 1 8 2 9 3 10 4 11 5 12 6 13 7 6 8 5 9 4 10 3 11 2 12 1 13
REMARK H PARENT
REMARK Flexibility Score: inf
ROOT
ATOM      1  C   UNL     1       6.707   1.064  50.044  1.00  0.00     0.000 C 
ENDROOT
BRANCH   1   2
ATOM      2  C   UNL     1       5.459   1.026  50.952  1.00  0.00     0.000 C 
BRANCH   2   3
ATOM      3  C   UNL     1       4.165   0.555  50.267  1.00  0.00     0.006 C 
BRANCH   3   4
ATOM      4  C   UNL     1       3.097   1.653  50.187  1.00  0.00     0.053 C 
BRANCH   4   5
ATOM      5  C   UNL     1       1.739   1.079  50.440  1.00  0.00     0.041 C 
ATOM      6  O   UNL     1       1.057   1.472  51.422  1.00  0.00    -0.550 OA
ATOM      7  O   UNL     1       1.245   0.073  49.618  1.00  0.00    -0.550 OA
ENDBRANCH   4   5
ENDBRANCH   3   4
ENDBRANCH   2   3
ENDBRANCH   1   2
BRANCH   1   8
ATOM      8  C   UNL     1       6.436   0.807  48.550  1.00  0.00     0.000 C 
BRANCH   8   9
ATOM      9  C   UNL     1       6.717   2.006  47.626  1.00  0.00    -0.000 C 
BRANCH   9  10
ATOM     10  C   UNL     1       5.834   3.237  47.921  1.00  0.00    -0.000 C 
BRANCH  10  11
ATOM     11  C   UNL     1       6.661   4.471  48.321  1.00  0.00    -0.000 C 
BRANCH  11  12
ATOM     12  C   UNL     1       6.667   4.712  49.839  1.00  0.00    -0.003 C 
ATOM     13  C   UNL     1       5.263   4.728  50.442  1.00  0.00     0.004 C 
ENDBRANCH  11  12
ENDBRANCH  10  11
ENDBRANCH   9  10
ENDBRANCH   8   9
ENDBRANCH   1   8
TORSDOF 9
ENDMDL
MODEL 7
REMARK VINA RESULT:    -3.300      3.088      4.401
REMARK INTER + INTRA:          -6.111
REMARK INTER:                  -5.309
REMARK INTRA:                  -0.802
REMARK UNBOUND:                -1.075
REMARK SMILES CCCCCCCCCCC(=O)[O-]
REMARK SMILES IDX 7 1 8 2 9 3 10 4 11 5 12 6 13 7 6 8 5 9 4 10 3 11 2 12 1 13
REMARK H PARENT
REMARK Flexibility Score: inf
ROOT
ATOM      1  C   UNL     1       6.337   0.793  49.548  1.00  0.00     0.000 C 
ENDROOT
BRANCH   1   2
ATOM      2  C   UNL     1       7.011   1.222  48.227  1.00  0.00     0.000 C 
BRANCH   2   3
ATOM      3  C   UNL     1       6.380   2.444  47.538  1.00  0.00     0.006 C 
BRANCH   3   4
ATOM      4  C   UNL     1       5.747   3.429  48.529  1.00  0.00     0.053 C 
BRANCH   4   5
ATOM      5  C   UNL     1       6.764   4.416  49.006  1.00  0.00     0.041 C 
ATOM      6  O   UNL     1       7.199   4.358  50.186  1.00  0.00    -0.550 OA
ATOM      7  O   UNL     1       7.197   5.431  48.161  1.00  0.00    -0.550 OA
ENDBRANCH   4   5
ENDBRANCH   3   4
ENDBRANCH   2   3
ENDBRANCH   1   2
BRANCH   1   8
ATOM      8  C   UNL     1       5.415  -0.436  49.442  1.00  0.00     0.000 C 
BRANCH   8   9
ATOM      9  C   UNL     1       4.347  -0.540  50.546  1.00  0.00    -0.000 C 
BRANCH   9  10
ATOM     10  C   UNL     1       3.754   0.823  50.965  1.00  0.00    -0.000 C 
BRANCH  10  11
ATOM     11  C   UNL     1       2.629   1.288  50.026  1.00  0.00    -0.000 C 
BRANCH  11  12
ATOM     12  C   UNL     1       1.314   0.526  50.256  1.00  0.00    -0.003 C 
ATOM     13  C   UNL     1       0.917  -0.345  49.065  1.00  0.00     0.004 C 
ENDBRANCH  11  12
ENDBRANCH  10  11
ENDBRANCH   9  10
ENDBRANCH   8   9
ENDBRANCH   1   8
TORSDOF 9
ENDMDL
MODEL 8
REMARK VINA RESULT:    -3.292      1.164      2.269
REMARK INTER + INTRA:          -6.099
REMARK INTER:                  -5.348
REMARK INTRA:                  -0.751
REMARK UNBOUND:                -1.075
REMARK SMILES CCCCCCCCCCC(=O)[O-]
REMARK SMILES IDX 7 1 8 2 9 3 10 4 11 5 12 6 13 7 6 8 5 9 4 10 3 11 2 12 1 13
REMARK H PARENT
REMARK Flexibility Score: inf
ROOT
ATOM      1  C   UNL     1       5.375   4.385  49.697  1.00  0.00     0.000 C 
ENDROOT
BRANCH   1   2
ATOM      2  C   UNL     1       6.846   4.680  50.061  1.00  0.00     0.000 C 
BRANCH   2   3
ATOM      3  C   UNL     1       7.323   6.109  49.750  1.00  0.00     0.006 C 
BRANCH   3   4
ATOM      4  C   UNL     1       7.516   6.362  48.249  1.00  0.00     0.053 C 
BRANCH   4   5
ATOM      5  C   UNL     1       8.229   7.658  48.026  1.00  0.00     0.041 C 
ATOM      6  O   UNL     1       7.629   8.751  48.200  1.00  0.00    -0.550 OA
ATOM      7  O   UNL     1       9.545   7.659  47.577  1.00  0.00    -0.550 OA
ENDBRANCH   4   5
ENDBRANCH   3   4
ENDBRANCH   2   3
ENDBRANCH   1   2
BRANCH   1   8
ATOM      8  C   UNL     1       5.175   3.392  48.539  1.00  0.00     0.000 C 
BRANCH   8   9
ATOM      9  C   UNL     1       6.476   2.850  47.919  1.00  0.00    -0.000 C 
BRANCH   9  10
ATOM     10  C   UNL     1       6.678   1.333  48.129  1.00  0.00    -0.000 C 
BRANCH  10  11
ATOM     11  C   UNL     1       6.915   0.972  49.606  1.00  0.00    -0.000 C 
BRANCH  11  12
ATOM     12  C   UNL     1       5.773   0.132  50.199  1.00  0.00    -0.003 C 
ATOM     13  C   UNL     1       5.360  -1.028  49.294  1.00  0.00     0.004 C 
ENDBRANCH  11  12
ENDBRANCH  10  11
ENDBRANCH   9  10
ENDBRANCH   8   9
ENDBRANCH   1   8
TORSDOF 9
ENDMDL
MODEL 9
REMARK VINA RESULT:    -3.278      4.086      6.223
REMARK INTER + INTRA:          -6.078
REMARK INTER:                  -4.834
REMARK INTRA:                  -1.243
REMARK UNBOUND:                -1.075
REMARK SMILES CCCCCCCCCCC(=O)[O-]
REMARK SMILES IDX 7 1 8 2 9 3 10 4 11 5 12 6 13 7 6 8 5 9 4 10 3 11 2 12 1 13
REMARK H PARENT
REMARK Flexibility Score: inf
ROOT
ATOM      1  C   UNL     1       6.461   2.163  47.505  1.00  0.00     0.000 C 
ENDROOT
BRANCH   1   2
ATOM      2  C   UNL     1       6.981   1.259  48.643  1.00  0.00     0.000 C 
BRANCH   2   3
ATOM      3  C   UNL     1       6.011   0.153  49.095  1.00  0.00     0.006 C 
BRANCH   3   4
ATOM      4  C   UNL     1       5.064   0.610  50.212  1.00  0.00     0.053 C 
BRANCH   4   5
ATOM      5  C   UNL     1       5.330  -0.156  51.468  1.00  0.00     0.041 C 
ATOM      6  O   UNL     1       6.513  -0.365  51.845  1.00  0.00    -0.550 OA
ATOM      7  O   UNL     1       4.271  -0.684  52.199  1.00  0.00    -0.550 OA
ENDBRANCH   4   5
ENDBRANCH   3   4
ENDBRANCH   2   3
ENDBRANCH   1   2
BRANCH   1   8
ATOM      8  C   UNL     1       5.810   3.480  47.964  1.00  0.00     0.000 C 
BRANCH   8   9
ATOM      9  C   UNL     1       6.802   4.574  48.403  1.00  0.00    -0.000 C 
BRANCH   9  10
ATOM     10  C   UNL     1       6.561   5.088  49.839  1.00  0.00    -0.000 C 
BRANCH  10  11
ATOM     11  C   UNL     1       5.645   4.156  50.651  1.00  0.00    -0.000 C 
BRANCH  11  12
ATOM     12  C   UNL     1       6.297   3.680  51.959  1.00  0.00    -0.003 C 
ATOM     13  C   UNL     1       7.655   3.015  51.736  1.00  0.00     0.004 C 
ENDBRANCH  11  12
ENDBRANCH  10  11
ENDBRANCH   9  10
ENDBRANCH   8   9
ENDBRANCH   1   8
TORSDOF 9
ENDMDL
