MODEL 1
REMARK VINA RESULT:    -7.393      0.000      0.000
REMARK INTER + INTRA:         -14.997
REMARK INTER:                 -12.147
REMARK INTRA:                  -2.850
REMARK UNBOUND:                -2.850
REMARK SMILES C[C@H]1O[C@H](OC[C@@H]2O[C@@H](Oc3c(-c4ccc(O)c(O)c4)oc4cc(O)cc(O)c4c3=O)[C@@H](O)[C@@H](O)[C@@H]2O)[C@H](O)[C@@H](O)[C@H]1O
REMARK SMILES IDX 7 1 36 2 34 3 32 4 9 5 8 6 6 7 5 8 4 9 1 10 2 11 42 12 3 13
REMARK SMILES IDX 40 14 38 15 43 16 41 18 39 20 37 22 35 24 10 26 11 27 12 28
REMARK SMILES IDX 30 29 21 30 29 31 31 32 22 33 27 34 23 35 26 36 24 37 13 38
REMARK SMILES IDX 20 39 14 40 18 41 15 42 16 43 19 44 17 46 28 48 25 50 33 52
REMARK H PARENT 43 17 41 19 39 21 37 23 35 25 19 45 17 47 28 49 25 51 33 53
REMARK Flexibility Score: inf
ROOT
ATOM      1  C   UNL     1       1.136  41.386  81.951  1.00  0.00     0.180 C 
ATOM      2  C   UNL     1       0.182  40.270  81.418  1.00  0.00     0.177 C 
ATOM      3  C   UNL     1      -1.209  40.853  81.104  1.00  0.00     0.180 C 
ATOM      4  C   UNL     1      -1.122  42.337  80.699  1.00  0.00     0.214 C 
ATOM      5  C   UNL     1      -0.477  43.129  81.874  1.00  0.00     0.339 C 
ATOM      6  O   UNL     1       0.432  42.378  82.691  1.00  0.00    -0.332 OA
ENDROOT
BRANCH   1   7
ATOM      7  C   UNL     1       2.285  40.820  82.786  1.00  0.00     0.198 C 
BRANCH   7   8
ATOM      8  O   UNL     1       1.956  40.891  84.153  1.00  0.00    -0.347 OA
BRANCH   8   9
ATOM      9  C   UNL     1       2.866  41.727  84.854  1.00  0.00     0.281 C 
ATOM     10  C   UNL     1       5.971  42.462  84.431  1.00  0.00     0.041 C 
ATOM     11  C   UNL     1       4.651  43.240  84.448  1.00  0.00     0.150 C 
ATOM     12  C   UNL     1       4.299  43.892  85.824  1.00  0.00     0.174 C 
ATOM     13  O   UNL     1       3.608  42.457  83.886  1.00  0.00    -0.344 OA
ATOM     14  C   UNL     1       2.770  44.067  85.912  1.00  0.00     0.179 C 
ATOM     15  C   UNL     1       2.074  42.687  85.788  1.00  0.00     0.202 C 
BRANCH  12  16
ATOM     16  O   UNL     1       4.765  43.091  86.887  1.00  0.00    -0.388 OA
ATOM     17  H   UNL     1       4.954  42.187  86.522  1.00  0.00     0.211 HD
ENDBRANCH  12  16
BRANCH  14  18
ATOM     18  O   UNL     1       2.390  44.723  87.094  1.00  0.00    -0.387 OA
ATOM     19  H   UNL     1       1.831  45.508  86.862  1.00  0.00     0.211 HD
ENDBRANCH  14  18
BRANCH  15  20
ATOM     20  O   UNL     1       0.733  42.827  85.395  1.00  0.00    -0.385 OA
ATOM     21  H   UNL     1       0.720  43.433  84.612  1.00  0.00     0.211 HD
ENDBRANCH  15  20
ENDBRANCH   8   9
ENDBRANCH   7   8
ENDBRANCH   1   7
BRANCH   2  22
ATOM     22  O   UNL     1       0.061  39.228  82.356  1.00  0.00    -0.387 OA
ATOM     23  H   UNL     1      -0.884  38.908  82.298  1.00  0.00     0.211 HD
ENDBRANCH   2  22
BRANCH   3  24
ATOM     24  O   UNL     1      -1.860  40.082  80.123  1.00  0.00    -0.387 OA
ATOM     25  H   UNL     1      -2.054  39.195  80.524  1.00  0.00     0.211 HD
ENDBRANCH   3  24
BRANCH   5  26
ATOM     26  O   UNL     1       0.113  44.367  81.427  1.00  0.00    -0.454 OA
BRANCH  26  27
ATOM     27  C   UNL     1      -0.265  45.629  81.899  1.00  0.00     0.214 A 
ATOM     28  C   UNL     1      -1.195  46.444  81.215  1.00  0.00     0.180 A 
ATOM     29  C   UNL     1       0.190  46.030  83.144  1.00  0.00     0.239 A 
ATOM     30  O   UNL     1      -1.919  47.294  81.939  1.00  0.00    -0.452 OA
ATOM     31  C   UNL     1      -0.521  47.027  83.854  1.00  0.00     0.111 A 
ATOM     32  O   UNL     1       1.165  45.423  83.656  1.00  0.00    -0.285 OA
ATOM     33  C   UNL     1      -1.689  47.533  83.230  1.00  0.00     0.146 A 
ATOM     34  C   UNL     1      -0.194  47.486  85.177  1.00  0.00     0.134 A 
ATOM     35  C   UNL     1      -2.585  48.319  83.957  1.00  0.00     0.094 A 
ATOM     36  C   UNL     1      -1.138  48.235  85.889  1.00  0.00     0.093 A 
ATOM     37  C   UNL     1      -2.345  48.624  85.300  1.00  0.00     0.123 A 
BRANCH  28  38
ATOM     38  C   UNL     1      -1.338  46.500  79.716  1.00  0.00     0.025 A 
ATOM     39  C   UNL     1      -2.071  45.542  78.981  1.00  0.00     0.062 A 
ATOM     40  C   UNL     1      -0.523  47.396  78.973  1.00  0.00     0.016 A 
ATOM     41  C   UNL     1      -1.977  45.461  77.583  1.00  0.00     0.158 A 
ATOM     42  C   UNL     1      -0.393  47.289  77.580  1.00  0.00     0.051 A 
ATOM     43  C   UNL     1      -1.122  46.324  76.887  1.00  0.00     0.157 A 
BRANCH  41  44
ATOM     44  O   UNL     1      -2.682  44.488  76.881  1.00  0.00    -0.504 OA
ATOM     45  H   UNL     1      -3.269  44.733  76.104  1.00  0.00     0.293 HD
ENDBRANCH  41  44
BRANCH  43  46
ATOM     46  O   UNL     1      -0.967  46.179  75.504  1.00  0.00    -0.504 OA
ATOM     47  H   UNL     1      -0.763  46.970  74.912  1.00  0.00     0.293 HD
ENDBRANCH  43  46
ENDBRANCH  28  38
BRANCH  34  48
ATOM     48  O   UNL     1       1.025  47.253  85.803  1.00  0.00    -0.507 OA
ATOM     49  H   UNL     1       1.233  47.442  86.781  1.00  0.00     0.293 HD
ENDBRANCH  34  48
BRANCH  37  50
ATOM     50  O   UNL     1      -3.300  49.312  86.047  1.00  0.00    -0.508 OA
ATOM     51  H   UNL     1      -3.124  50.213  86.470  1.00  0.00     0.293 HD
ENDBRANCH  37  50
ENDBRANCH  26  27
ENDBRANCH   5  26
BRANCH   4  52
ATOM     52  O   UNL     1      -0.378  42.470  79.505  1.00  0.00    -0.384 OA
ATOM     53  H   UNL     1       0.559  42.664  79.769  1.00  0.00     0.211 HD
ENDBRANCH   4  52
TORSDOF 16
ENDMDL
MODEL 2
REMARK VINA RESULT:    -7.054      1.787      6.331
REMARK INTER + INTRA:         -14.440
REMARK INTER:                 -11.341
REMARK INTRA:                  -3.099
REMARK UNBOUND:                -2.850
REMARK SMILES C[C@H]1O[C@H](OC[C@@H]2O[C@@H](Oc3c(-c4ccc(O)c(O)c4)oc4cc(O)cc(O)c4c3=O)[C@@H](O)[C@@H](O)[C@@H]2O)[C@H](O)[C@@H](O)[C@H]1O
REMARK SMILES IDX 7 1 36 2 34 3 32 4 9 5 8 6 6 7 5 8 4 9 1 10 2 11 42 12 3 13
REMARK SMILES IDX 40 14 38 15 43 16 41 18 39 20 37 22 35 24 10 26 11 27 12 28
REMARK SMILES IDX 30 29 21 30 29 31 31 32 22 33 27 34 23 35 26 36 24 37 13 38
REMARK SMILES IDX 20 39 14 40 18 41 15 42 16 43 19 44 17 46 28 48 25 50 33 52
REMARK H PARENT 43 17 41 19 39 21 37 23 35 25 19 45 17 47 28 49 25 51 33 53
REMARK Flexibility Score: inf
ROOT
ATOM      1  C   UNL     1       0.260  43.921  84.832  1.00  0.00     0.180 C 
ATOM      2  C   UNL     1       0.572  45.224  85.635  1.00  0.00     0.177 C 
ATOM      3  C   UNL     1       0.582  46.446  84.696  1.00  0.00     0.180 C 
ATOM      4  C   UNL     1      -0.360  46.244  83.494  1.00  0.00     0.214 C 
ATOM      5  C   UNL     1       0.109  44.982  82.711  1.00  0.00     0.339 C 
ATOM      6  O   UNL     1       0.766  43.981  83.503  1.00  0.00    -0.332 OA
ENDROOT
BRANCH   1   7
ATOM      7  C   UNL     1       0.774  42.666  85.537  1.00  0.00     0.198 C 
BRANCH   7   8
ATOM      8  O   UNL     1       1.554  41.907  84.643  1.00  0.00    -0.347 OA
BRANCH   8   9
ATOM      9  C   UNL     1       2.819  41.593  85.210  1.00  0.00     0.281 C 
ATOM     10  C   UNL     1       3.947  39.055  86.836  1.00  0.00     0.041 C 
ATOM     11  C   UNL     1       4.286  39.751  85.514  1.00  0.00     0.150 C 
ATOM     12  C   UNL     1       5.443  40.797  85.608  1.00  0.00     0.174 C 
ATOM     13  O   UNL     1       3.104  40.237  84.893  1.00  0.00    -0.344 OA
ATOM     14  C   UNL     1       5.271  41.830  84.477  1.00  0.00     0.179 C 
ATOM     15  C   UNL     1       3.901  42.542  84.619  1.00  0.00     0.202 C 
BRANCH  12  16
ATOM     16  O   UNL     1       5.433  41.437  86.864  1.00  0.00    -0.388 OA
ATOM     17  H   UNL     1       4.805  40.939  87.450  1.00  0.00     0.211 HD
ENDBRANCH  12  16
BRANCH  14  18
ATOM     18  O   UNL     1       6.325  42.755  84.454  1.00  0.00    -0.387 OA
ATOM     19  H   UNL     1       5.973  43.652  84.687  1.00  0.00     0.211 HD
ENDBRANCH  14  18
BRANCH  15  20
ATOM     20  O   UNL     1       3.499  43.119  83.404  1.00  0.00    -0.385 OA
ATOM     21  H   UNL     1       3.489  44.101  83.535  1.00  0.00     0.211 HD
ENDBRANCH  15  20
ENDBRANCH   8   9
ENDBRANCH   7   8
ENDBRANCH   1   7
BRANCH   2  22
ATOM     22  O   UNL     1       1.811  45.119  86.293  1.00  0.00    -0.387 OA
ATOM     23  H   UNL     1       1.764  44.288  86.847  1.00  0.00     0.211 HD
ENDBRANCH   2  22
BRANCH   3  24
ATOM     24  O   UNL     1       0.273  47.620  85.409  1.00  0.00    -0.387 OA
ATOM     25  H   UNL     1       0.390  47.420  86.374  1.00  0.00     0.211 HD
ENDBRANCH   3  24
BRANCH   5  26
ATOM     26  O   UNL     1      -0.954  44.416  81.919  1.00  0.00    -0.454 OA
BRANCH  26  27
ATOM     27  C   UNL     1      -0.833  44.096  80.561  1.00  0.00     0.214 A 
ATOM     28  C   UNL     1      -0.743  42.761  80.105  1.00  0.00     0.180 A 
ATOM     29  C   UNL     1      -0.938  45.117  79.632  1.00  0.00     0.239 A 
ATOM     30  O   UNL     1      -1.198  42.497  78.883  1.00  0.00    -0.452 OA
ATOM     31  C   UNL     1      -1.303  44.808  78.300  1.00  0.00     0.111 A 
ATOM     32  O   UNL     1      -0.806  46.306  80.021  1.00  0.00    -0.285 OA
ATOM     33  C   UNL     1      -1.565  43.443  78.020  1.00  0.00     0.146 A 
ATOM     34  C   UNL     1      -1.508  45.777  77.257  1.00  0.00     0.134 A 
ATOM     35  C   UNL     1      -2.175  43.082  76.817  1.00  0.00     0.094 A 
ATOM     36  C   UNL     1      -2.163  45.384  76.084  1.00  0.00     0.093 A 
ATOM     37  C   UNL     1      -2.528  44.051  75.873  1.00  0.00     0.123 A 
BRANCH  28  38
ATOM     38  C   UNL     1      -0.063  41.648  80.858  1.00  0.00     0.025 A 
ATOM     39  C   UNL     1       1.327  41.632  81.109  1.00  0.00     0.062 A 
ATOM     40  C   UNL     1      -0.780  40.451  81.127  1.00  0.00     0.016 A 
ATOM     41  C   UNL     1       1.974  40.477  81.575  1.00  0.00     0.158 A 
ATOM     42  C   UNL     1      -0.129  39.282  81.551  1.00  0.00     0.051 A 
ATOM     43  C   UNL     1       1.246  39.298  81.777  1.00  0.00     0.157 A 
BRANCH  41  44
ATOM     44  O   UNL     1       3.350  40.472  81.784  1.00  0.00    -0.504 OA
ATOM     45  H   UNL     1       3.737  40.236  82.680  1.00  0.00     0.293 HD
ENDBRANCH  41  44
BRANCH  43  46
ATOM     46  O   UNL     1       1.913  38.129  82.157  1.00  0.00    -0.504 OA
ATOM     47  H   UNL     1       2.515  38.106  82.967  1.00  0.00     0.293 HD
ENDBRANCH  43  46
ENDBRANCH  28  38
BRANCH  34  48
ATOM     48  O   UNL     1      -1.075  47.096  77.324  1.00  0.00    -0.507 OA
ATOM     49  H   UNL     1      -1.459  47.871  76.789  1.00  0.00     0.293 HD
ENDBRANCH  34  48
BRANCH  37  50
ATOM     50  O   UNL     1      -3.239  43.692  74.728  1.00  0.00    -0.508 OA
ATOM     51  H   UNL     1      -4.123  43.202  74.760  1.00  0.00     0.293 HD
ENDBRANCH  37  50
ENDBRANCH  26  27
ENDBRANCH   5  26
BRANCH   4  52
ATOM     52  O   UNL     1      -1.694  46.120  83.940  1.00  0.00    -0.384 OA
ATOM     53  H   UNL     1      -2.001  47.031  84.187  1.00  0.00     0.211 HD
ENDBRANCH   4  52
TORSDOF 16
ENDMDL
MODEL 3
REMARK VINA RESULT:    -6.987      0.876      1.691
REMARK INTER + INTRA:         -14.330
REMARK INTER:                 -12.285
REMARK INTRA:                  -2.045
REMARK UNBOUND:                -2.850
REMARK SMILES C[C@H]1O[C@H](OC[C@@H]2O[C@@H](Oc3c(-c4ccc(O)c(O)c4)oc4cc(O)cc(O)c4c3=O)[C@@H](O)[C@@H](O)[C@@H]2O)[C@H](O)[C@@H](O)[C@H]1O
REMARK SMILES IDX 7 1 36 2 34 3 32 4 9 5 8 6 6 7 5 8 4 9 1 10 2 11 42 12 3 13
REMARK SMILES IDX 40 14 38 15 43 16 41 18 39 20 37 22 35 24 10 26 11 27 12 28
REMARK SMILES IDX 30 29 21 30 29 31 31 32 22 33 27 34 23 35 26 36 24 37 13 38
REMARK SMILES IDX 20 39 14 40 18 41 15 42 16 43 19 44 17 46 28 48 25 50 33 52
REMARK H PARENT 43 17 41 19 39 21 37 23 35 25 19 45 17 47 28 49 25 51 33 53
REMARK Flexibility Score: inf
ROOT
ATOM      1  C   UNL     1       1.466  41.636  82.011  1.00  0.00     0.180 C 
ATOM      2  C   UNL     1       0.579  40.498  81.413  1.00  0.00     0.177 C 
ATOM      3  C   UNL     1      -0.835  41.025  81.100  1.00  0.00     0.180 C 
ATOM      4  C   UNL     1      -0.817  42.527  80.760  1.00  0.00     0.214 C 
ATOM      5  C   UNL     1      -0.232  43.298  81.980  1.00  0.00     0.339 C 
ATOM      6  O   UNL     1       0.701  42.558  82.780  1.00  0.00    -0.332 OA
ENDROOT
BRANCH   1   7
ATOM      7  C   UNL     1       2.630  41.093  82.840  1.00  0.00     0.198 C 
BRANCH   7   8
ATOM      8  O   UNL     1       3.494  42.148  83.192  1.00  0.00    -0.347 OA
BRANCH   8   9
ATOM      9  C   UNL     1       3.490  42.363  84.596  1.00  0.00     0.281 C 
ATOM     10  C   UNL     1       1.489  41.495  86.963  1.00  0.00     0.041 C 
ATOM     11  C   UNL     1       2.962  41.243  86.622  1.00  0.00     0.150 C 
ATOM     12  C   UNL     1       3.966  42.215  87.322  1.00  0.00     0.174 C 
ATOM     13  O   UNL     1       3.132  41.136  85.216  1.00  0.00    -0.344 OA
ATOM     14  C   UNL     1       5.247  42.300  86.470  1.00  0.00     0.179 C 
ATOM     15  C   UNL     1       4.903  42.827  85.053  1.00  0.00     0.202 C 
BRANCH  12  16
ATOM     16  O   UNL     1       3.392  43.493  87.479  1.00  0.00    -0.388 OA
ATOM     17  H   UNL     1       4.134  44.146  87.573  1.00  0.00     0.211 HD
ENDBRANCH  12  16
BRANCH  14  18
ATOM     18  O   UNL     1       6.227  43.097  87.084  1.00  0.00    -0.387 OA
ATOM     19  H   UNL     1       6.089  43.078  88.065  1.00  0.00     0.211 HD
ENDBRANCH  14  18
BRANCH  15  20
ATOM     20  O   UNL     1       5.901  42.487  84.127  1.00  0.00    -0.385 OA
ATOM     21  H   UNL     1       6.120  43.308  83.617  1.00  0.00     0.211 HD
ENDBRANCH  15  20
ENDBRANCH   8   9
ENDBRANCH   7   8
ENDBRANCH   1   7
BRANCH   2  22
ATOM     22  O   UNL     1       0.497  39.412  82.303  1.00  0.00    -0.387 OA
ATOM     23  H   UNL     1       0.210  38.625  81.757  1.00  0.00     0.211 HD
ENDBRANCH   2  22
BRANCH   3  24
ATOM     24  O   UNL     1      -1.431  40.265  80.076  1.00  0.00    -0.387 OA
ATOM     25  H   UNL     1      -2.326  40.654  79.901  1.00  0.00     0.211 HD
ENDBRANCH   3  24
BRANCH   5  26
ATOM     26  O   UNL     1       0.302  44.582  81.597  1.00  0.00    -0.454 OA
BRANCH  26  27
ATOM     27  C   UNL     1      -0.197  45.806  82.060  1.00  0.00     0.214 A 
ATOM     28  C   UNL     1      -1.193  46.528  81.363  1.00  0.00     0.180 A 
ATOM     29  C   UNL     1       0.207  46.253  83.306  1.00  0.00     0.239 A 
ATOM     30  O   UNL     1      -1.999  47.309  82.077  1.00  0.00    -0.452 OA
ATOM     31  C   UNL     1      -0.600  47.182  84.005  1.00  0.00     0.111 A 
ATOM     32  O   UNL     1       1.230  45.742  83.830  1.00  0.00    -0.285 OA
ATOM     33  C   UNL     1      -1.804  47.574  83.368  1.00  0.00     0.146 A 
ATOM     34  C   UNL     1      -0.329  47.675  85.329  1.00  0.00     0.134 A 
ATOM     35  C   UNL     1      -2.776  48.276  84.083  1.00  0.00     0.094 A 
ATOM     36  C   UNL     1      -1.346  48.335  86.029  1.00  0.00     0.093 A 
ATOM     37  C   UNL     1      -2.578  48.608  85.427  1.00  0.00     0.123 A 
BRANCH  28  38
ATOM     38  C   UNL     1      -1.326  46.565  79.863  1.00  0.00     0.025 A 
ATOM     39  C   UNL     1      -2.069  45.607  79.138  1.00  0.00     0.062 A 
ATOM     40  C   UNL     1      -0.494  47.438  79.111  1.00  0.00     0.016 A 
ATOM     41  C   UNL     1      -1.969  45.504  77.741  1.00  0.00     0.158 A 
ATOM     42  C   UNL     1      -0.358  47.309  77.721  1.00  0.00     0.051 A 
ATOM     43  C   UNL     1      -1.097  46.344  77.038  1.00  0.00     0.157 A 
BRANCH  41  44
ATOM     44  O   UNL     1      -2.684  44.531  77.049  1.00  0.00    -0.504 OA
ATOM     45  H   UNL     1      -2.220  43.886  76.436  1.00  0.00     0.293 HD
ENDBRANCH  41  44
BRANCH  43  46
ATOM     46  O   UNL     1      -0.936  46.177  75.658  1.00  0.00    -0.504 OA
ATOM     47  H   UNL     1      -0.703  45.279  75.261  1.00  0.00     0.293 HD
ENDBRANCH  43  46
ENDBRANCH  28  38
BRANCH  34  48
ATOM     48  O   UNL     1       0.900  47.559  85.966  1.00  0.00    -0.507 OA
ATOM     49  H   UNL     1       1.505  48.334  86.227  1.00  0.00     0.293 HD
ENDBRANCH  34  48
BRANCH  37  50
ATOM     50  O   UNL     1      -3.600  49.207  86.163  1.00  0.00    -0.508 OA
ATOM     51  H   UNL     1      -4.524  48.804  86.250  1.00  0.00     0.293 HD
ENDBRANCH  37  50
ENDBRANCH  26  27
ENDBRANCH   5  26
BRANCH   4  52
ATOM     52  O   UNL     1      -0.063  42.749  79.587  1.00  0.00    -0.384 OA
ATOM     53  H   UNL     1       0.835  43.058  79.875  1.00  0.00     0.211 HD
ENDBRANCH   4  52
TORSDOF 16
ENDMDL
MODEL 4
REMARK VINA RESULT:    -6.962      1.914      6.725
REMARK INTER + INTRA:         -14.289
REMARK INTER:                 -12.186
REMARK INTRA:                  -2.103
REMARK UNBOUND:                -2.850
REMARK SMILES C[C@H]1O[C@H](OC[C@@H]2O[C@@H](Oc3c(-c4ccc(O)c(O)c4)oc4cc(O)cc(O)c4c3=O)[C@@H](O)[C@@H](O)[C@@H]2O)[C@H](O)[C@@H](O)[C@H]1O
REMARK SMILES IDX 7 1 36 2 34 3 32 4 9 5 8 6 6 7 5 8 4 9 1 10 2 11 42 12 3 13
REMARK SMILES IDX 40 14 38 15 43 16 41 18 39 20 37 22 35 24 10 26 11 27 12 28
REMARK SMILES IDX 30 29 21 30 29 31 31 32 22 33 27 34 23 35 26 36 24 37 13 38
REMARK SMILES IDX 20 39 14 40 18 41 15 42 16 43 19 44 17 46 28 48 25 50 33 52
REMARK H PARENT 43 17 41 19 39 21 37 23 35 25 19 45 17 47 28 49 25 51 33 53
REMARK Flexibility Score: inf
ROOT
ATOM      1  C   UNL     1       3.329  41.996  84.199  1.00  0.00     0.180 C 
ATOM      2  C   UNL     1       4.692  42.358  84.868  1.00  0.00     0.177 C 
ATOM      3  C   UNL     1       4.850  43.887  84.978  1.00  0.00     0.180 C 
ATOM      4  C   UNL     1       3.484  44.589  85.105  1.00  0.00     0.214 C 
ATOM      5  C   UNL     1       2.635  44.242  83.847  1.00  0.00     0.339 C 
ATOM      6  O   UNL     1       2.928  42.973  83.244  1.00  0.00    -0.332 OA
ENDROOT
BRANCH   1   7
ATOM      7  C   UNL     1       3.344  40.607  83.559  1.00  0.00     0.198 C 
BRANCH   7   8
ATOM      8  O   UNL     1       2.393  40.553  82.522  1.00  0.00    -0.347 OA
BRANCH   8   9
ATOM      9  C   UNL     1       1.867  39.241  82.381  1.00  0.00     0.281 C 
ATOM     10  C   UNL     1       1.955  36.611  84.234  1.00  0.00     0.041 C 
ATOM     11  C   UNL     1       0.859  37.521  83.670  1.00  0.00     0.150 C 
ATOM     12  C   UNL     1       0.216  37.015  82.338  1.00  0.00     0.174 C 
ATOM     13  O   UNL     1       1.306  38.868  83.632  1.00  0.00    -0.344 OA
ATOM     14  C   UNL     1      -0.351  38.227  81.572  1.00  0.00     0.179 C 
ATOM     15  C   UNL     1       0.787  39.233  81.261  1.00  0.00     0.202 C 
BRANCH  12  16
ATOM     16  O   UNL     1       1.170  36.338  81.552  1.00  0.00    -0.388 OA
ATOM     17  H   UNL     1       2.066  36.689  81.798  1.00  0.00     0.211 HD
ENDBRANCH  12  16
BRANCH  14  18
ATOM     18  O   UNL     1      -1.016  37.834  80.400  1.00  0.00    -0.387 OA
ATOM     19  H   UNL     1      -1.988  37.777  80.584  1.00  0.00     0.211 HD
ENDBRANCH  14  18
BRANCH  15  20
ATOM     20  O   UNL     1       0.276  40.515  81.005  1.00  0.00    -0.385 OA
ATOM     21  H   UNL     1      -0.711  40.436  80.972  1.00  0.00     0.211 HD
ENDBRANCH  15  20
ENDBRANCH   8   9
ENDBRANCH   7   8
ENDBRANCH   1   7
BRANCH   2  22
ATOM     22  O   UNL     1       5.765  41.820  84.134  1.00  0.00    -0.387 OA
ATOM     23  H   UNL     1       5.475  40.909  83.842  1.00  0.00     0.211 HD
ENDBRANCH   2  22
BRANCH   3  24
ATOM     24  O   UNL     1       5.709  44.221  86.041  1.00  0.00    -0.387 OA
ATOM     25  H   UNL     1       6.568  44.521  85.645  1.00  0.00     0.211 HD
ENDBRANCH   3  24
BRANCH   5  26
ATOM     26  O   UNL     1       1.223  44.396  84.094  1.00  0.00    -0.454 OA
BRANCH  26  27
ATOM     27  C   UNL     1       0.316  44.902  83.155  1.00  0.00     0.214 A 
ATOM     28  C   UNL     1       0.036  46.284  83.043  1.00  0.00     0.180 A 
ATOM     29  C   UNL     1      -0.221  44.032  82.222  1.00  0.00     0.239 A 
ATOM     30  O   UNL     1      -0.335  46.742  81.850  1.00  0.00    -0.452 OA
ATOM     31  C   UNL     1      -0.728  44.546  81.004  1.00  0.00     0.111 A 
ATOM     32  O   UNL     1      -0.150  42.794  82.437  1.00  0.00    -0.285 OA
ATOM     33  C   UNL     1      -0.620  45.947  80.819  1.00  0.00     0.146 A 
ATOM     34  C   UNL     1      -1.251  43.747  79.929  1.00  0.00     0.134 A 
ATOM     35  C   UNL     1      -0.852  46.506  79.561  1.00  0.00     0.094 A 
ATOM     36  C   UNL     1      -1.428  44.335  78.670  1.00  0.00     0.093 A 
ATOM     37  C   UNL     1      -1.199  45.700  78.472  1.00  0.00     0.123 A 
BRANCH  28  38
ATOM     38  C   UNL     1       0.016  47.245  84.203  1.00  0.00     0.025 A 
ATOM     39  C   UNL     1      -0.226  48.628  84.045  1.00  0.00     0.062 A 
ATOM     40  C   UNL     1       0.486  46.813  85.472  1.00  0.00     0.016 A 
ATOM     41  C   UNL     1       0.015  49.537  85.087  1.00  0.00     0.158 A 
ATOM     42  C   UNL     1       0.769  47.725  86.501  1.00  0.00     0.051 A 
ATOM     43  C   UNL     1       0.531  49.084  86.307  1.00  0.00     0.157 A 
BRANCH  41  44
ATOM     44  O   UNL     1      -0.198  50.900  84.900  1.00  0.00    -0.504 OA
ATOM     45  H   UNL     1       0.348  51.582  85.397  1.00  0.00     0.293 HD
ENDBRANCH  41  44
BRANCH  43  46
ATOM     46  O   UNL     1       0.850  50.007  87.309  1.00  0.00    -0.504 OA
ATOM     47  H   UNL     1       1.445  49.757  88.086  1.00  0.00     0.293 HD
ENDBRANCH  43  46
ENDBRANCH  28  38
BRANCH  34  48
ATOM     48  O   UNL     1      -1.623  42.414  80.058  1.00  0.00    -0.507 OA
ATOM     49  H   UNL     1      -2.419  41.976  79.601  1.00  0.00     0.293 HD
ENDBRANCH  34  48
BRANCH  37  50
ATOM     50  O   UNL     1      -1.315  46.252  77.197  1.00  0.00    -0.508 OA
ATOM     51  H   UNL     1      -0.889  47.131  76.936  1.00  0.00     0.293 HD
ENDBRANCH  37  50
ENDBRANCH  26  27
ENDBRANCH   5  26
BRANCH   4  52
ATOM     52  O   UNL     1       2.844  44.188  86.299  1.00  0.00    -0.384 OA
ATOM     53  H   UNL     1       3.205  43.293  86.534  1.00  0.00     0.211 HD
ENDBRANCH   4  52
TORSDOF 16
ENDMDL
MODEL 5
REMARK VINA RESULT:    -6.942      2.054      6.939
REMARK INTER + INTRA:         -14.256
REMARK INTER:                 -11.935
REMARK INTRA:                  -2.321
REMARK UNBOUND:                -2.850
REMARK SMILES C[C@H]1O[C@H](OC[C@@H]2O[C@@H](Oc3c(-c4ccc(O)c(O)c4)oc4cc(O)cc(O)c4c3=O)[C@@H](O)[C@@H](O)[C@@H]2O)[C@H](O)[C@@H](O)[C@H]1O
REMARK SMILES IDX 7 1 36 2 34 3 32 4 9 5 8 6 6 7 5 8 4 9 1 10 2 11 42 12 3 13
REMARK SMILES IDX 40 14 38 15 43 16 41 18 39 20 37 22 35 24 10 26 11 27 12 28
REMARK SMILES IDX 30 29 21 30 29 31 31 32 22 33 27 34 23 35 26 36 24 37 13 38
REMARK SMILES IDX 20 39 14 40 18 41 15 42 16 43 19 44 17 46 28 48 25 50 33 52
REMARK H PARENT 43 17 41 19 39 21 37 23 35 25 19 45 17 47 28 49 25 51 33 53
REMARK Flexibility Score: inf
ROOT
ATOM      1  C   UNL     1      -3.163  43.673  81.895  1.00  0.00     0.180 C 
ATOM      2  C   UNL     1      -3.262  42.342  81.084  1.00  0.00     0.177 C 
ATOM      3  C   UNL     1      -2.088  41.407  81.436  1.00  0.00     0.180 C 
ATOM      4  C   UNL     1      -1.597  41.636  82.879  1.00  0.00     0.214 C 
ATOM      5  C   UNL     1      -1.140  43.118  83.012  1.00  0.00     0.339 C 
ATOM      6  O   UNL     1      -1.812  44.044  82.146  1.00  0.00    -0.332 OA
ENDROOT
BRANCH   1   7
ATOM      7  C   UNL     1      -3.911  44.823  81.221  1.00  0.00     0.198 C 
BRANCH   7   8
ATOM      8  O   UNL     1      -3.484  44.947  79.885  1.00  0.00    -0.347 OA
BRANCH   8   9
ATOM      9  C   UNL     1      -3.011  46.260  79.622  1.00  0.00     0.281 C 
ATOM     10  C   UNL     1      -2.910  48.967  81.360  1.00  0.00     0.041 C 
ATOM     11  C   UNL     1      -1.878  48.051  80.693  1.00  0.00     0.150 C 
ATOM     12  C   UNL     1      -1.428  48.508  79.267  1.00  0.00     0.174 C 
ATOM     13  O   UNL     1      -2.297  46.696  80.771  1.00  0.00    -0.344 OA
ATOM     14  C   UNL     1      -0.941  47.274  78.483  1.00  0.00     0.179 C 
ATOM     15  C   UNL     1      -2.088  46.237  78.369  1.00  0.00     0.202 C 
BRANCH  12  16
ATOM     16  O   UNL     1      -2.493  49.135  78.588  1.00  0.00    -0.388 OA
ATOM     17  H   UNL     1      -3.189  48.447  78.421  1.00  0.00     0.211 HD
ENDBRANCH  12  16
BRANCH  14  18
ATOM     18  O   UNL     1      -0.446  47.626  77.218  1.00  0.00    -0.387 OA
ATOM     19  H   UNL     1       0.319  48.245  77.332  1.00  0.00     0.211 HD
ENDBRANCH  14  18
BRANCH  15  20
ATOM     20  O   UNL     1      -1.588  44.953  78.099  1.00  0.00    -0.385 OA
ATOM     21  H   UNL     1      -2.172  44.306  78.570  1.00  0.00     0.211 HD
ENDBRANCH  15  20
ENDBRANCH   8   9
ENDBRANCH   7   8
ENDBRANCH   1   7
BRANCH   2  22
ATOM     22  O   UNL     1      -3.265  42.602  79.701  1.00  0.00    -0.387 OA
ATOM     23  H   UNL     1      -3.425  41.723  79.252  1.00  0.00     0.211 HD
ENDBRANCH   2  22
BRANCH   3  24
ATOM     24  O   UNL     1      -2.442  40.064  81.212  1.00  0.00    -0.387 OA
ATOM     25  H   UNL     1      -3.429  40.027  81.125  1.00  0.00     0.211 HD
ENDBRANCH   3  24
BRANCH   5  26
ATOM     26  O   UNL     1      -1.162  43.564  84.383  1.00  0.00    -0.454 OA
BRANCH  26  27
ATOM     27  C   UNL     1      -0.784  44.849  84.793  1.00  0.00     0.214 A 
ATOM     28  C   UNL     1       0.542  45.322  84.665  1.00  0.00     0.180 A 
ATOM     29  C   UNL     1      -1.771  45.723  85.215  1.00  0.00     0.239 A 
ATOM     30  O   UNL     1       0.715  46.634  84.518  1.00  0.00    -0.452 OA
ATOM     31  C   UNL     1      -1.529  47.117  85.170  1.00  0.00     0.111 A 
ATOM     32  O   UNL     1      -2.897  45.258  85.530  1.00  0.00    -0.285 OA
ATOM     33  C   UNL     1      -0.269  47.520  84.659  1.00  0.00     0.146 A 
ATOM     34  C   UNL     1      -2.489  48.130  85.516  1.00  0.00     0.134 A 
ATOM     35  C   UNL     1      -0.043  48.860  84.338  1.00  0.00     0.094 A 
ATOM     36  C   UNL     1      -2.243  49.455  85.137  1.00  0.00     0.093 A 
ATOM     37  C   UNL     1      -1.043  49.820  84.520  1.00  0.00     0.123 A 
BRANCH  28  38
ATOM     38  C   UNL     1       1.771  44.462  84.803  1.00  0.00     0.025 A 
ATOM     39  C   UNL     1       2.267  44.031  86.053  1.00  0.00     0.062 A 
ATOM     40  C   UNL     1       2.610  44.263  83.674  1.00  0.00     0.016 A 
ATOM     41  C   UNL     1       3.543  43.459  86.178  1.00  0.00     0.158 A 
ATOM     42  C   UNL     1       3.903  43.731  83.802  1.00  0.00     0.051 A 
ATOM     43  C   UNL     1       4.365  43.328  85.053  1.00  0.00     0.157 A 
BRANCH  41  44
ATOM     44  O   UNL     1       4.026  43.072  87.425  1.00  0.00    -0.504 OA
ATOM     45  H   UNL     1       3.399  42.835  88.172  1.00  0.00     0.293 HD
ENDBRANCH  41  44
BRANCH  43  46
ATOM     46  O   UNL     1       5.667  42.838  85.200  1.00  0.00    -0.504 OA
ATOM     47  H   UNL     1       6.187  42.480  84.412  1.00  0.00     0.293 HD
ENDBRANCH  43  46
ENDBRANCH  28  38
BRANCH  34  48
ATOM     48  O   UNL     1      -3.654  47.887  86.233  1.00  0.00    -0.507 OA
ATOM     49  H   UNL     1      -4.412  47.276  85.938  1.00  0.00     0.293 HD
ENDBRANCH  34  48
BRANCH  37  50
ATOM     50  O   UNL     1      -0.846  51.132  84.090  1.00  0.00    -0.508 OA
ATOM     51  H   UNL     1      -0.888  51.928  84.713  1.00  0.00     0.293 HD
ENDBRANCH  37  50
ENDBRANCH  26  27
ENDBRANCH   5  26
BRANCH   4  52
ATOM     52  O   UNL     1      -2.623  41.317  83.795  1.00  0.00    -0.384 OA
ATOM     53  H   UNL     1      -2.585  41.996  84.519  1.00  0.00     0.211 HD
ENDBRANCH   4  52
TORSDOF 16
ENDMDL
MODEL 6
REMARK VINA RESULT:    -6.938      1.593      6.376
REMARK INTER + INTRA:         -14.249
REMARK INTER:                 -11.635
REMARK INTRA:                  -2.614
REMARK UNBOUND:                -2.850
REMARK SMILES C[C@H]1O[C@H](OC[C@@H]2O[C@@H](Oc3c(-c4ccc(O)c(O)c4)oc4cc(O)cc(O)c4c3=O)[C@@H](O)[C@@H](O)[C@@H]2O)[C@H](O)[C@@H](O)[C@H]1O
REMARK SMILES IDX 7 1 36 2 34 3 32 4 9 5 8 6 6 7 5 8 4 9 1 10 2 11 42 12 3 13
REMARK SMILES IDX 40 14 38 15 43 16 41 18 39 20 37 22 35 24 10 26 11 27 12 28
REMARK SMILES IDX 30 29 21 30 29 31 31 32 22 33 27 34 23 35 26 36 24 37 13 38
REMARK SMILES IDX 20 39 14 40 18 41 15 42 16 43 19 44 17 46 28 48 25 50 33 52
REMARK H PARENT 43 17 41 19 39 21 37 23 35 25 19 45 17 47 28 49 25 51 33 53
REMARK Flexibility Score: inf
ROOT
ATOM      1  C   UNL     1       1.605  43.836  84.686  1.00  0.00     0.180 C 
ATOM      2  C   UNL     1       1.924  44.801  85.872  1.00  0.00     0.177 C 
ATOM      3  C   UNL     1       1.306  46.190  85.618  1.00  0.00     0.180 C 
ATOM      4  C   UNL     1       0.034  46.094  84.754  1.00  0.00     0.214 C 
ATOM      5  C   UNL     1       0.413  45.436  83.395  1.00  0.00     0.339 C 
ATOM      6  O   UNL     1       1.523  44.528  83.444  1.00  0.00    -0.332 OA
ENDROOT
BRANCH   1   7
ATOM      7  C   UNL     1       2.607  42.686  84.585  1.00  0.00     0.198 C 
BRANCH   7   8
ATOM      8  O   UNL     1       2.847  42.384  83.231  1.00  0.00    -0.347 OA
BRANCH   8   9
ATOM      9  C   UNL     1       2.413  41.068  82.917  1.00  0.00     0.281 C 
ATOM     10  C   UNL     1       2.526  38.266  84.496  1.00  0.00     0.041 C 
ATOM     11  C   UNL     1       1.420  39.171  83.943  1.00  0.00     0.150 C 
ATOM     12  C   UNL     1       0.907  38.776  82.521  1.00  0.00     0.174 C 
ATOM     13  O   UNL     1       1.787  40.537  84.077  1.00  0.00    -0.344 OA
ATOM     14  C   UNL     1       0.325  40.029  81.839  1.00  0.00     0.179 C 
ATOM     15  C   UNL     1       1.419  41.121  81.722  1.00  0.00     0.202 C 
BRANCH  12  16
ATOM     16  O   UNL     1       1.955  38.237  81.748  1.00  0.00    -0.388 OA
ATOM     17  H   UNL     1       2.467  38.995  81.364  1.00  0.00     0.211 HD
ENDBRANCH  12  16
BRANCH  14  18
ATOM     18  O   UNL     1      -0.229  39.728  80.585  1.00  0.00    -0.387 OA
ATOM     19  H   UNL     1      -0.175  40.530  80.007  1.00  0.00     0.211 HD
ENDBRANCH  14  18
BRANCH  15  20
ATOM     20  O   UNL     1       0.851  42.395  81.556  1.00  0.00    -0.385 OA
ATOM     21  H   UNL     1      -0.129  42.271  81.481  1.00  0.00     0.211 HD
ENDBRANCH  15  20
ENDBRANCH   8   9
ENDBRANCH   7   8
ENDBRANCH   1   7
BRANCH   2  22
ATOM     22  O   UNL     1       3.314  44.924  86.053  1.00  0.00    -0.387 OA
ATOM     23  H   UNL     1       3.516  44.525  86.947  1.00  0.00     0.211 HD
ENDBRANCH   2  22
BRANCH   3  24
ATOM     24  O   UNL     1       1.062  46.853  86.835  1.00  0.00    -0.387 OA
ATOM     25  H   UNL     1       0.830  46.161  87.508  1.00  0.00     0.211 HD
ENDBRANCH   3  24
BRANCH   5  26
ATOM     26  O   UNL     1      -0.731  44.839  82.751  1.00  0.00    -0.454 OA
BRANCH  26  27
ATOM     27  C   UNL     1      -1.281  45.300  81.548  1.00  0.00     0.214 A 
ATOM     28  C   UNL     1      -1.413  46.677  81.258  1.00  0.00     0.180 A 
ATOM     29  C   UNL     1      -1.581  44.375  80.563  1.00  0.00     0.239 A 
ATOM     30  O   UNL     1      -1.381  47.042  79.979  1.00  0.00    -0.452 OA
ATOM     31  C   UNL     1      -1.667  44.800  79.216  1.00  0.00     0.111 A 
ATOM     32  O   UNL     1      -1.667  43.160  80.880  1.00  0.00    -0.285 OA
ATOM     33  C   UNL     1      -1.407  46.171  78.971  1.00  0.00     0.146 A 
ATOM     34  C   UNL     1      -1.907  43.933  78.094  1.00  0.00     0.134 A 
ATOM     35  C   UNL     1      -1.216  46.623  77.663  1.00  0.00     0.094 A 
ATOM     36  C   UNL     1      -1.660  44.411  76.802  1.00  0.00     0.093 A 
ATOM     37  C   UNL     1      -1.284  45.739  76.582  1.00  0.00     0.123 A 
BRANCH  28  38
ATOM     38  C   UNL     1      -1.704  47.740  82.285  1.00  0.00     0.025 A 
ATOM     39  C   UNL     1      -0.781  48.757  82.616  1.00  0.00     0.062 A 
ATOM     40  C   UNL     1      -2.838  47.599  83.130  1.00  0.00     0.016 A 
ATOM     41  C   UNL     1      -0.961  49.571  83.746  1.00  0.00     0.158 A 
ATOM     42  C   UNL     1      -2.997  48.381  84.284  1.00  0.00     0.051 A 
ATOM     43  C   UNL     1      -2.061  49.367  84.588  1.00  0.00     0.157 A 
BRANCH  41  44
ATOM     44  O   UNL     1      -0.022  50.545  84.073  1.00  0.00    -0.504 OA
ATOM     45  H   UNL     1      -0.042  51.003  84.967  1.00  0.00     0.293 HD
ENDBRANCH  41  44
BRANCH  43  46
ATOM     46  O   UNL     1      -2.186  50.124  85.758  1.00  0.00    -0.504 OA
ATOM     47  H   UNL     1      -1.721  49.853  86.613  1.00  0.00     0.293 HD
ENDBRANCH  43  46
ENDBRANCH  28  38
BRANCH  34  48
ATOM     48  O   UNL     1      -2.396  42.636  78.202  1.00  0.00    -0.507 OA
ATOM     49  H   UNL     1      -3.264  42.369  78.661  1.00  0.00     0.293 HD
ENDBRANCH  34  48
BRANCH  37  50
ATOM     50  O   UNL     1      -0.978  46.178  75.294  1.00  0.00    -0.508 OA
ATOM     51  H   UNL     1      -1.127  47.130  74.987  1.00  0.00     0.293 HD
ENDBRANCH  37  50
ENDBRANCH  26  27
ENDBRANCH   5  26
BRANCH   4  52
ATOM     52  O   UNL     1      -0.959  45.357  85.436  1.00  0.00    -0.384 OA
ATOM     53  H   UNL     1      -0.745  44.396  85.308  1.00  0.00     0.211 HD
ENDBRANCH   4  52
TORSDOF 16
ENDMDL
MODEL 7
REMARK VINA RESULT:    -6.908      1.629      6.548
REMARK INTER + INTRA:         -14.199
REMARK INTER:                 -11.192
REMARK INTRA:                  -3.007
REMARK UNBOUND:                -2.850
REMARK SMILES C[C@H]1O[C@H](OC[C@@H]2O[C@@H](Oc3c(-c4ccc(O)c(O)c4)oc4cc(O)cc(O)c4c3=O)[C@@H](O)[C@@H](O)[C@@H]2O)[C@H](O)[C@@H](O)[C@H]1O
REMARK SMILES IDX 7 1 36 2 34 3 32 4 9 5 8 6 6 7 5 8 4 9 1 10 2 11 42 12 3 13
REMARK SMILES IDX 40 14 38 15 43 16 41 18 39 20 37 22 35 24 10 26 11 27 12 28
REMARK SMILES IDX 30 29 21 30 29 31 31 32 22 33 27 34 23 35 26 36 24 37 13 38
REMARK SMILES IDX 20 39 14 40 18 41 15 42 16 43 19 44 17 46 28 48 25 50 33 52
REMARK H PARENT 43 17 41 19 39 21 37 23 35 25 19 45 17 47 28 49 25 51 33 53
REMARK Flexibility Score: inf
ROOT
ATOM      1  C   UNL     1      -0.059  45.993  84.890  1.00  0.00     0.180 C 
ATOM      2  C   UNL     1      -0.015  47.257  85.805  1.00  0.00     0.177 C 
ATOM      3  C   UNL     1      -0.378  48.519  84.999  1.00  0.00     0.180 C 
ATOM      4  C   UNL     1      -1.332  48.191  83.835  1.00  0.00     0.214 C 
ATOM      5  C   UNL     1      -0.630  47.162  82.901  1.00  0.00     0.339 C 
ATOM      6  O   UNL     1       0.312  46.293  83.548  1.00  0.00    -0.332 OA
ENDROOT
BRANCH   1   7
ATOM      7  C   UNL     1       0.801  44.851  85.432  1.00  0.00     0.198 C 
BRANCH   7   8
ATOM      8  O   UNL     1       2.125  44.996  84.972  1.00  0.00    -0.347 OA
BRANCH   8   9
ATOM      9  C   UNL     1       3.007  44.136  85.681  1.00  0.00     0.281 C 
ATOM     10  C   UNL     1       2.745  42.466  88.419  1.00  0.00     0.041 C 
ATOM     11  C   UNL     1       2.988  42.127  86.945  1.00  0.00     0.150 C 
ATOM     12  C   UNL     1       4.493  41.966  86.554  1.00  0.00     0.174 C 
ATOM     13  O   UNL     1       2.255  43.009  86.107  1.00  0.00    -0.344 OA
ATOM     14  C   UNL     1       4.648  42.262  85.049  1.00  0.00     0.179 C 
ATOM     15  C   UNL     1       4.174  43.706  84.745  1.00  0.00     0.202 C 
BRANCH  12  16
ATOM     16  O   UNL     1       5.298  42.840  87.313  1.00  0.00    -0.388 OA
ATOM     17  H   UNL     1       6.210  42.449  87.355  1.00  0.00     0.211 HD
ENDBRANCH  12  16
BRANCH  14  18
ATOM     18  O   UNL     1       5.966  42.057  84.613  1.00  0.00    -0.387 OA
ATOM     19  H   UNL     1       6.559  42.714  85.059  1.00  0.00     0.211 HD
ENDBRANCH  14  18
BRANCH  15  20
ATOM     20  O   UNL     1       3.853  43.861  83.387  1.00  0.00    -0.385 OA
ATOM     21  H   UNL     1       4.679  44.149  82.922  1.00  0.00     0.211 HD
ENDBRANCH  15  20
ENDBRANCH   8   9
ENDBRANCH   7   8
ENDBRANCH   1   7
BRANCH   2  22
ATOM     22  O   UNL     1       1.260  47.410  86.381  1.00  0.00    -0.387 OA
ATOM     23  H   UNL     1       1.346  48.378  86.617  1.00  0.00     0.211 HD
ENDBRANCH   2  22
BRANCH   3  24
ATOM     24  O   UNL     1      -0.909  49.511  85.845  1.00  0.00    -0.387 OA
ATOM     25  H   UNL     1      -1.550  50.046  85.310  1.00  0.00     0.211 HD
ENDBRANCH   3  24
BRANCH   5  26
ATOM     26  O   UNL     1      -1.581  46.417  82.113  1.00  0.00    -0.454 OA
BRANCH  26  27
ATOM     27  C   UNL     1      -1.241  45.670  80.978  1.00  0.00     0.214 A 
ATOM     28  C   UNL     1      -1.195  44.258  80.990  1.00  0.00     0.180 A 
ATOM     29  C   UNL     1      -1.075  46.337  79.776  1.00  0.00     0.239 A 
ATOM     30  O   UNL     1      -1.439  43.625  79.845  1.00  0.00    -0.452 OA
ATOM     31  C   UNL     1      -1.215  45.624  78.562  1.00  0.00     0.111 A 
ATOM     32  O   UNL     1      -0.905  47.584  79.794  1.00  0.00    -0.285 OA
ATOM     33  C   UNL     1      -1.548  44.250  78.674  1.00  0.00     0.146 A 
ATOM     34  C   UNL     1      -1.131  46.208  77.251  1.00  0.00     0.134 A 
ATOM     35  C   UNL     1      -1.957  43.537  77.546  1.00  0.00     0.094 A 
ATOM     36  C   UNL     1      -1.592  45.475  76.150  1.00  0.00     0.093 A 
ATOM     37  C   UNL     1      -2.036  44.157  76.295  1.00  0.00     0.123 A 
BRANCH  28  38
ATOM     38  C   UNL     1      -0.775  43.429  82.176  1.00  0.00     0.025 A 
ATOM     39  C   UNL     1       0.513  42.862  82.295  1.00  0.00     0.062 A 
ATOM     40  C   UNL     1      -1.760  42.990  83.102  1.00  0.00     0.016 A 
ATOM     41  C   UNL     1       0.800  41.889  83.265  1.00  0.00     0.158 A 
ATOM     42  C   UNL     1      -1.488  41.986  84.044  1.00  0.00     0.051 A 
ATOM     43  C   UNL     1      -0.209  41.439  84.125  1.00  0.00     0.157 A 
BRANCH  41  44
ATOM     44  O   UNL     1       2.067  41.319  83.343  1.00  0.00    -0.504 OA
ATOM     45  H   UNL     1       2.852  41.735  82.875  1.00  0.00     0.293 HD
ENDBRANCH  41  44
BRANCH  43  46
ATOM     46  O   UNL     1       0.062  40.408  85.031  1.00  0.00    -0.504 OA
ATOM     47  H   UNL     1       0.548  39.571  84.744  1.00  0.00     0.293 HD
ENDBRANCH  43  46
ENDBRANCH  28  38
BRANCH  34  48
ATOM     48  O   UNL     1      -0.594  47.463  76.990  1.00  0.00    -0.507 OA
ATOM     49  H   UNL     1      -0.203  47.765  76.101  1.00  0.00     0.293 HD
ENDBRANCH  34  48
BRANCH  37  50
ATOM     50  O   UNL     1      -2.553  43.467  75.199  1.00  0.00    -0.508 OA
ATOM     51  H   UNL     1      -3.378  43.769  74.697  1.00  0.00     0.293 HD
ENDBRANCH  37  50
ENDBRANCH  26  27
ENDBRANCH   5  26
BRANCH   4  52
ATOM     52  O   UNL     1      -2.556  47.697  84.336  1.00  0.00    -0.384 OA
ATOM     53  H   UNL     1      -2.759  46.865  83.834  1.00  0.00     0.211 HD
ENDBRANCH   4  52
TORSDOF 16
ENDMDL
MODEL 8
REMARK VINA RESULT:    -6.855      1.686      6.741
REMARK INTER + INTRA:         -14.113
REMARK INTER:                 -11.832
REMARK INTRA:                  -2.281
REMARK UNBOUND:                -2.850
REMARK SMILES C[C@H]1O[C@H](OC[C@@H]2O[C@@H](Oc3c(-c4ccc(O)c(O)c4)oc4cc(O)cc(O)c4c3=O)[C@@H](O)[C@@H](O)[C@@H]2O)[C@H](O)[C@@H](O)[C@H]1O
REMARK SMILES IDX 7 1 36 2 34 3 32 4 9 5 8 6 6 7 5 8 4 9 1 10 2 11 42 12 3 13
REMARK SMILES IDX 40 14 38 15 43 16 41 18 39 20 37 22 35 24 10 26 11 27 12 28
REMARK SMILES IDX 30 29 21 30 29 31 31 32 22 33 27 34 23 35 26 36 24 37 13 38
REMARK SMILES IDX 20 39 14 40 18 41 15 42 16 43 19 44 17 46 28 48 25 50 33 52
REMARK H PARENT 43 17 41 19 39 21 37 23 35 25 19 45 17 47 28 49 25 51 33 53
REMARK Flexibility Score: inf
ROOT
ATOM      1  C   UNL     1      -1.566  47.188  80.421  1.00  0.00     0.180 C 
ATOM      2  C   UNL     1      -1.824  47.290  78.884  1.00  0.00     0.177 C 
ATOM      3  C   UNL     1      -1.313  46.026  78.167  1.00  0.00     0.180 C 
ATOM      4  C   UNL     1      -1.372  44.791  79.086  1.00  0.00     0.214 C 
ATOM      5  C   UNL     1      -0.492  45.070  80.339  1.00  0.00     0.339 C 
ATOM      6  O   UNL     1      -0.384  46.451  80.714  1.00  0.00    -0.332 OA
ENDROOT
BRANCH   1   7
ATOM      7  C   UNL     1      -1.514  48.560  81.095  1.00  0.00     0.198 C 
BRANCH   7   8
ATOM      8  O   UNL     1      -2.527  48.647  82.069  1.00  0.00    -0.347 OA
BRANCH   8   9
ATOM      9  C   UNL     1      -1.999  48.453  83.373  1.00  0.00     0.281 C 
ATOM     10  C   UNL     1      -0.004  50.164  85.231  1.00  0.00     0.041 C 
ATOM     11  C   UNL     1      -1.453  49.678  85.333  1.00  0.00     0.150 C 
ATOM     12  C   UNL     1      -1.636  48.339  86.119  1.00  0.00     0.174 C 
ATOM     13  O   UNL     1      -2.072  49.698  84.055  1.00  0.00    -0.344 OA
ATOM     14  C   UNL     1      -2.928  47.652  85.632  1.00  0.00     0.179 C 
ATOM     15  C   UNL     1      -2.830  47.364  84.112  1.00  0.00     0.202 C 
BRANCH  12  16
ATOM     16  O   UNL     1      -0.525  47.494  85.924  1.00  0.00    -0.388 OA
ATOM     17  H   UNL     1      -0.861  46.561  85.880  1.00  0.00     0.211 HD
ENDBRANCH  12  16
BRANCH  14  18
ATOM     18  O   UNL     1      -3.196  46.480  86.356  1.00  0.00    -0.387 OA
ATOM     19  H   UNL     1      -2.776  46.550  87.251  1.00  0.00     0.211 HD
ENDBRANCH  14  18
BRANCH  15  20
ATOM     20  O   UNL     1      -4.101  47.187  83.544  1.00  0.00    -0.385 OA
ATOM     21  H   UNL     1      -4.171  47.816  82.782  1.00  0.00     0.211 HD
ENDBRANCH  15  20
ENDBRANCH   8   9
ENDBRANCH   7   8
ENDBRANCH   1   7
BRANCH   2  22
ATOM     22  O   UNL     1      -1.196  48.429  78.349  1.00  0.00    -0.387 OA
ATOM     23  H   UNL     1      -0.386  48.592  78.912  1.00  0.00     0.211 HD
ENDBRANCH   2  22
BRANCH   3  24
ATOM     24  O   UNL     1      -2.019  45.818  76.967  1.00  0.00    -0.387 OA
ATOM     25  H   UNL     1      -2.943  45.549  77.210  1.00  0.00     0.211 HD
ENDBRANCH   3  24
BRANCH   5  26
ATOM     26  O   UNL     1      -0.877  44.246  81.459  1.00  0.00    -0.454 OA
BRANCH  26  27
ATOM     27  C   UNL     1       0.034  43.616  82.316  1.00  0.00     0.214 A 
ATOM     28  C   UNL     1       0.601  42.356  82.020  1.00  0.00     0.180 A 
ATOM     29  C   UNL     1       0.490  44.314  83.421  1.00  0.00     0.239 A 
ATOM     30  O   UNL     1       1.809  42.093  82.514  1.00  0.00    -0.452 OA
ATOM     31  C   UNL     1       1.719  43.945  84.017  1.00  0.00     0.111 A 
ATOM     32  O   UNL     1      -0.152  45.326  83.805  1.00  0.00    -0.285 OA
ATOM     33  C   UNL     1       2.420  42.876  83.403  1.00  0.00     0.146 A 
ATOM     34  C   UNL     1       2.334  44.625  85.124  1.00  0.00     0.134 A 
ATOM     35  C   UNL     1       3.745  42.614  83.756  1.00  0.00     0.094 A 
ATOM     36  C   UNL     1       3.678  44.366  85.418  1.00  0.00     0.093 A 
ATOM     37  C   UNL     1       4.396  43.391  84.719  1.00  0.00     0.123 A 
BRANCH  28  38
ATOM     38  C   UNL     1      -0.113  41.251  81.286  1.00  0.00     0.025 A 
ATOM     39  C   UNL     1      -1.288  41.469  80.532  1.00  0.00     0.062 A 
ATOM     40  C   UNL     1       0.248  39.901  81.539  1.00  0.00     0.016 A 
ATOM     41  C   UNL     1      -2.076  40.400  80.078  1.00  0.00     0.158 A 
ATOM     42  C   UNL     1      -0.561  38.832  81.124  1.00  0.00     0.051 A 
ATOM     43  C   UNL     1      -1.720  39.083  80.393  1.00  0.00     0.157 A 
BRANCH  41  44
ATOM     44  O   UNL     1      -3.248  40.638  79.365  1.00  0.00    -0.504 OA
ATOM     45  H   UNL     1      -3.899  41.344  79.659  1.00  0.00     0.293 HD
ENDBRANCH  41  44
BRANCH  43  46
ATOM     46  O   UNL     1      -2.558  38.030  80.011  1.00  0.00    -0.504 OA
ATOM     47  H   UNL     1      -2.189  37.114  79.802  1.00  0.00     0.293 HD
ENDBRANCH  43  46
ENDBRANCH  28  38
BRANCH  34  48
ATOM     48  O   UNL     1       1.671  45.522  85.953  1.00  0.00    -0.507 OA
ATOM     49  H   UNL     1       2.066  46.379  86.333  1.00  0.00     0.293 HD
ENDBRANCH  34  48
BRANCH  37  50
ATOM     50  O   UNL     1       5.752  43.195  84.982  1.00  0.00    -0.508 OA
ATOM     51  H   UNL     1       6.484  43.506  84.358  1.00  0.00     0.293 HD
ENDBRANCH  37  50
ENDBRANCH  26  27
ENDBRANCH   5  26
BRANCH   4  52
ATOM     52  O   UNL     1      -2.712  44.512  79.435  1.00  0.00    -0.384 OA
ATOM     53  H   UNL     1      -2.685  43.923  80.235  1.00  0.00     0.211 HD
ENDBRANCH   4  52
TORSDOF 16
ENDMDL
MODEL 9
REMARK VINA RESULT:    -6.851      1.693      5.200
REMARK INTER + INTRA:         -14.107
REMARK INTER:                 -11.104
REMARK INTRA:                  -3.003
REMARK UNBOUND:                -2.850
REMARK SMILES C[C@H]1O[C@H](OC[C@@H]2O[C@@H](Oc3c(-c4ccc(O)c(O)c4)oc4cc(O)cc(O)c4c3=O)[C@@H](O)[C@@H](O)[C@@H]2O)[C@H](O)[C@@H](O)[C@H]1O
REMARK SMILES IDX 7 1 36 2 34 3 32 4 9 5 8 6 6 7 5 8 4 9 1 10 2 11 42 12 3 13
REMARK SMILES IDX 40 14 38 15 43 16 41 18 39 20 37 22 35 24 10 26 11 27 12 28
REMARK SMILES IDX 30 29 21 30 29 31 31 32 22 33 27 34 23 35 26 36 24 37 13 38
REMARK SMILES IDX 20 39 14 40 18 41 15 42 16 43 19 44 17 46 28 48 25 50 33 52
REMARK H PARENT 43 17 41 19 39 21 37 23 35 25 19 45 17 47 28 49 25 51 33 53
REMARK Flexibility Score: inf
ROOT
ATOM      1  C   UNL     1       0.066  45.237  83.759  1.00  0.00     0.180 C 
ATOM      2  C   UNL     1      -0.296  46.128  84.990  1.00  0.00     0.177 C 
ATOM      3  C   UNL     1      -1.691  46.757  84.809  1.00  0.00     0.180 C 
ATOM      4  C   UNL     1      -2.606  45.866  83.948  1.00  0.00     0.214 C 
ATOM      5  C   UNL     1      -1.936  45.675  82.556  1.00  0.00     0.339 C 
ATOM      6  O   UNL     1      -0.502  45.738  82.554  1.00  0.00    -0.332 OA
ENDROOT
BRANCH   1   7
ATOM      7  C   UNL     1       1.575  45.053  83.596  1.00  0.00     0.198 C 
BRANCH   7   8
ATOM      8  O   UNL     1       2.164  44.835  84.857  1.00  0.00    -0.347 OA
BRANCH   8   9
ATOM      9  C   UNL     1       3.147  43.811  84.789  1.00  0.00     0.281 C 
ATOM     10  C   UNL     1       6.350  43.838  84.475  1.00  0.00     0.041 C 
ATOM     11  C   UNL     1       5.354  43.337  85.526  1.00  0.00     0.150 C 
ATOM     12  C   UNL     1       4.980  41.824  85.399  1.00  0.00     0.174 C 
ATOM     13  O   UNL     1       4.238  44.212  85.607  1.00  0.00    -0.344 OA
ATOM     14  C   UNL     1       3.590  41.604  86.027  1.00  0.00     0.179 C 
ATOM     15  C   UNL     1       2.536  42.472  85.293  1.00  0.00     0.202 C 
BRANCH  12  16
ATOM     16  O   UNL     1       4.979  41.426  84.047  1.00  0.00    -0.388 OA
ATOM     17  H   UNL     1       4.110  41.701  83.653  1.00  0.00     0.211 HD
ENDBRANCH  12  16
BRANCH  14  18
ATOM     18  O   UNL     1       3.227  40.248  86.019  1.00  0.00    -0.387 OA
ATOM     19  H   UNL     1       2.287  40.163  86.324  1.00  0.00     0.211 HD
ENDBRANCH  14  18
BRANCH  15  20
ATOM     20  O   UNL     1       1.397  42.671  86.088  1.00  0.00    -0.385 OA
ATOM     21  H   UNL     1       1.645  42.435  87.018  1.00  0.00     0.211 HD
ENDBRANCH  15  20
ENDBRANCH   8   9
ENDBRANCH   7   8
ENDBRANCH   1   7
BRANCH   2  22
ATOM     22  O   UNL     1       0.664  47.140  85.170  1.00  0.00    -0.387 OA
ATOM     23  H   UNL     1       0.720  47.630  84.300  1.00  0.00     0.211 HD
ENDBRANCH   2  22
BRANCH   3  24
ATOM     24  O   UNL     1      -2.269  47.046  86.059  1.00  0.00    -0.387 OA
ATOM     25  H   UNL     1      -1.546  47.379  86.650  1.00  0.00     0.211 HD
ENDBRANCH   3  24
BRANCH   5  26
ATOM     26  O   UNL     1      -2.414  44.489  81.888  1.00  0.00    -0.454 OA
BRANCH  26  27
ATOM     27  C   UNL     1      -1.587  43.436  81.478  1.00  0.00     0.214 A 
ATOM     28  C   UNL     1      -0.862  43.473  80.266  1.00  0.00     0.180 A 
ATOM     29  C   UNL     1      -1.376  42.385  82.355  1.00  0.00     0.239 A 
ATOM     30  O   UNL     1       0.276  42.785  80.208  1.00  0.00    -0.452 OA
ATOM     31  C   UNL     1      -0.222  41.579  82.207  1.00  0.00     0.111 A 
ATOM     32  O   UNL     1      -2.164  42.237  83.324  1.00  0.00    -0.285 OA
ATOM     33  C   UNL     1       0.665  41.937  81.160  1.00  0.00     0.146 A 
ATOM     34  C   UNL     1       0.148  40.502  83.084  1.00  0.00     0.134 A 
ATOM     35  C   UNL     1       1.940  41.370  81.100  1.00  0.00     0.094 A 
ATOM     36  C   UNL     1       1.450  39.992  83.022  1.00  0.00     0.093 A 
ATOM     37  C   UNL     1       2.357  40.443  82.059  1.00  0.00     0.123 A 
BRANCH  28  38
ATOM     38  C   UNL     1      -1.345  44.139  79.004  1.00  0.00     0.025 A 
ATOM     39  C   UNL     1      -1.783  43.412  77.875  1.00  0.00     0.062 A 
ATOM     40  C   UNL     1      -1.139  45.535  78.831  1.00  0.00     0.016 A 
ATOM     41  C   UNL     1      -1.979  44.035  76.633  1.00  0.00     0.158 A 
ATOM     42  C   UNL     1      -1.291  46.151  77.580  1.00  0.00     0.051 A 
ATOM     43  C   UNL     1      -1.713  45.401  76.484  1.00  0.00     0.157 A 
BRANCH  41  44
ATOM     44  O   UNL     1      -2.379  43.294  75.524  1.00  0.00    -0.504 OA
ATOM     45  H   UNL     1      -2.772  42.376  75.630  1.00  0.00     0.293 HD
ENDBRANCH  41  44
BRANCH  43  46
ATOM     46  O   UNL     1      -1.826  45.996  75.223  1.00  0.00    -0.504 OA
ATOM     47  H   UNL     1      -1.019  46.363  74.740  1.00  0.00     0.293 HD
ENDBRANCH  43  46
ENDBRANCH  28  38
BRANCH  34  48
ATOM     48  O   UNL     1      -0.719  39.905  83.992  1.00  0.00    -0.507 OA
ATOM     49  H   UNL     1      -0.722  40.062  84.997  1.00  0.00     0.293 HD
ENDBRANCH  34  48
BRANCH  37  50
ATOM     50  O   UNL     1       3.670  39.970  82.056  1.00  0.00    -0.508 OA
ATOM     51  H   UNL     1       4.472  40.572  82.184  1.00  0.00     0.293 HD
ENDBRANCH  37  50
ENDBRANCH  26  27
ENDBRANCH   5  26
BRANCH   4  52
ATOM     52  O   UNL     1      -2.829  44.632  84.597  1.00  0.00    -0.384 OA
ATOM     53  H   UNL     1      -3.808  44.466  84.573  1.00  0.00     0.211 HD
ENDBRANCH   4  52
TORSDOF 16
ENDMDL
