MODEL 1
REMARK VINA RESULT:    -7.554      0.000      0.000
REMARK INTER + INTRA:         -11.299
REMARK INTER:                 -10.203
REMARK INTRA:                  -1.096
REMARK UNBOUND:                -1.096
REMARK SMILES O=c1c(-c2ccc(O)cc2)coc2c([C@H]3O[C@@H](CO)[C@@H](O)[C@H](O)[C@H]3O)c(O)ccc12
REMARK SMILES IDX 3 1 11 2 12 3 13 4 30 5 2 6 1 7 29 8 28 9 26 10 14 11 4 12
REMARK SMILES IDX 5 13 6 14 7 15 10 16 9 17 8 18 15 20 24 21 16 22 22 23 17 24
REMARK SMILES IDX 20 25 25 26 23 28 18 30 19 31 21 33 27 35
REMARK H PARENT 8 19 25 27 23 29 19 32 21 34 27 36
REMARK Flexibility Score: inf
ROOT
ATOM      1  C   UNL     1     -26.523  86.359  78.536  1.00  0.00     0.065 A 
ATOM      2  C   UNL     1     -25.997  87.514  79.129  1.00  0.00     0.208 A 
ATOM      3  O   UNL     1     -26.114  87.724  80.435  1.00  0.00    -0.463 OA
ATOM      4  C   UNL     1     -26.726  86.882  81.261  1.00  0.00     0.147 A 
ATOM      5  C   UNL     1     -27.294  85.695  80.745  1.00  0.00     0.066 A 
ATOM      6  C   UNL     1     -27.185  85.435  79.367  1.00  0.00     0.200 A 
ATOM      7  O   UNL     1     -27.675  84.380  78.879  1.00  0.00    -0.288 OA
ATOM      8  C   UNL     1     -27.983  84.827  81.602  1.00  0.00     0.020 A 
ATOM      9  C   UNL     1     -28.058  85.096  82.964  1.00  0.00     0.047 A 
ATOM     10  C   UNL     1     -27.475  86.252  83.491  1.00  0.00     0.125 A 
ATOM     11  C   UNL     1     -26.823  87.177  82.647  1.00  0.00     0.069 A 
ENDROOT
BRANCH   1  12
ATOM     12  C   UNL     1     -26.318  86.111  77.084  1.00  0.00    -0.011 A 
ATOM     13  C   UNL     1     -27.282  86.500  76.136  1.00  0.00     0.013 A 
ATOM     14  C   UNL     1     -27.074  86.261  74.773  1.00  0.00     0.047 A 
ATOM     15  C   UNL     1     -25.897  85.638  74.339  1.00  0.00     0.115 A 
ATOM     16  C   UNL     1     -25.131  85.503  76.634  1.00  0.00     0.013 A 
ATOM     17  C   UNL     1     -24.925  85.272  75.272  1.00  0.00     0.047 A 
BRANCH  15  18
ATOM     18  O   UNL     1     -25.679  85.390  72.986  1.00  0.00    -0.508 OA
ATOM     19  H   UNL     1     -25.610  86.141  72.311  1.00  0.00     0.293 HD
ENDBRANCH  15  18
ENDBRANCH   1  12
BRANCH  11  20
ATOM     20  C   UNL     1     -26.425  88.533  83.227  1.00  0.00     0.188 C 
ATOM     21  C   UNL     1     -24.979  88.466  83.804  1.00  0.00     0.179 C 
ATOM     22  O   UNL     1     -27.334  88.980  84.221  1.00  0.00    -0.362 OA
ATOM     23  C   UNL     1     -24.631  89.697  84.685  1.00  0.00     0.177 C 
ATOM     24  C   UNL     1     -27.091  90.314  84.677  1.00  0.00     0.176 C 
ATOM     25  C   UNL     1     -25.634  90.826  84.421  1.00  0.00     0.177 C 
BRANCH  21  26
ATOM     26  O   UNL     1     -24.764  87.273  84.515  1.00  0.00    -0.387 OA
ATOM     27  H   UNL     1     -24.358  86.630  83.879  1.00  0.00     0.211 HD
ENDBRANCH  21  26
BRANCH  23  28
ATOM     28  O   UNL     1     -23.333  90.139  84.383  1.00  0.00    -0.387 OA
ATOM     29  H   UNL     1     -23.359  91.131  84.357  1.00  0.00     0.211 HD
ENDBRANCH  23  28
BRANCH  24  30
ATOM     30  C   UNL     1     -27.495  90.339  86.165  1.00  0.00     0.191 C 
BRANCH  30  31
ATOM     31  O   UNL     1     -27.488  89.062  86.752  1.00  0.00    -0.394 OA
ATOM     32  H   UNL     1     -28.143  89.088  87.500  1.00  0.00     0.210 HD
ENDBRANCH  30  31
ENDBRANCH  24  30
BRANCH  25  33
ATOM     33  O   UNL     1     -25.326  91.955  85.194  1.00  0.00    -0.388 OA
ATOM     34  H   UNL     1     -25.335  92.741  84.592  1.00  0.00     0.211 HD
ENDBRANCH  25  33
ENDBRANCH  11  20
BRANCH  10  35
ATOM     35  O   UNL     1     -27.578  86.504  84.860  1.00  0.00    -0.507 OA
ATOM     36  H   UNL     1     -28.247  86.022  85.441  1.00  0.00     0.293 HD
ENDBRANCH  10  35
TORSDOF 9
ENDMDL
MODEL 2
REMARK VINA RESULT:    -7.315      6.635      9.611
REMARK INTER + INTRA:         -10.977
REMARK INTER:                  -9.915
REMARK INTRA:                  -1.062
REMARK UNBOUND:                -1.096
REMARK SMILES O=c1c(-c2ccc(O)cc2)coc2c([C@H]3O[C@@H](CO)[C@@H](O)[C@H](O)[C@H]3O)c(O)ccc12
REMARK SMILES IDX 3 1 11 2 12 3 13 4 30 5 2 6 1 7 29 8 28 9 26 10 14 11 4 12
REMARK SMILES IDX 5 13 6 14 7 15 10 16 9 17 8 18 15 20 24 21 16 22 22 23 17 24
REMARK SMILES IDX 20 25 25 26 23 28 18 30 19 31 21 33 27 35
REMARK H PARENT 8 19 25 27 23 29 19 32 21 34 27 36
REMARK Flexibility Score: inf
ROOT
ATOM      1  C   UNL     1     -27.043  80.165  80.603  1.00  0.00     0.065 A 
ATOM      2  C   UNL     1     -27.681  81.036  79.710  1.00  0.00     0.208 A 
ATOM      3  O   UNL     1     -26.980  81.756  78.841  1.00  0.00    -0.463 OA
ATOM      4  C   UNL     1     -25.655  81.714  78.755  1.00  0.00     0.147 A 
ATOM      5  C   UNL     1     -24.930  80.869  79.626  1.00  0.00     0.066 A 
ATOM      6  C   UNL     1     -25.638  80.086  80.555  1.00  0.00     0.200 A 
ATOM      7  O   UNL     1     -25.019  79.317  81.340  1.00  0.00    -0.288 OA
ATOM      8  C   UNL     1     -23.530  80.857  79.573  1.00  0.00     0.020 A 
ATOM      9  C   UNL     1     -22.855  81.624  78.630  1.00  0.00     0.047 A 
ATOM     10  C   UNL     1     -23.562  82.442  77.744  1.00  0.00     0.125 A 
ATOM     11  C   UNL     1     -24.970  82.521  77.808  1.00  0.00     0.069 A 
ENDROOT
BRANCH   1  12
ATOM     12  C   UNL     1     -27.852  79.317  81.517  1.00  0.00    -0.011 A 
ATOM     13  C   UNL     1     -28.080  79.697  82.853  1.00  0.00     0.013 A 
ATOM     14  C   UNL     1     -28.845  78.889  83.701  1.00  0.00     0.047 A 
ATOM     15  C   UNL     1     -29.398  77.693  83.224  1.00  0.00     0.115 A 
ATOM     16  C   UNL     1     -28.428  78.123  81.045  1.00  0.00     0.013 A 
ATOM     17  C   UNL     1     -29.197  77.322  81.893  1.00  0.00     0.047 A 
BRANCH  15  18
ATOM     18  O   UNL     1     -30.158  76.876  84.058  1.00  0.00    -0.508 OA
ATOM     19  H   UNL     1     -31.110  77.109  84.307  1.00  0.00     0.293 HD
ENDBRANCH  15  18
ENDBRANCH   1  12
BRANCH  11  20
ATOM     20  C   UNL     1     -25.673  83.607  76.994  1.00  0.00     0.188 C 
ATOM     21  C   UNL     1     -26.186  83.018  75.645  1.00  0.00     0.179 C 
ATOM     22  O   UNL     1     -24.836  84.728  76.759  1.00  0.00    -0.362 OA
ATOM     23  C   UNL     1     -26.620  84.120  74.641  1.00  0.00     0.177 C 
ATOM     24  C   UNL     1     -25.501  85.833  76.141  1.00  0.00     0.176 C 
ATOM     25  C   UNL     1     -26.814  85.450  75.380  1.00  0.00     0.177 C 
BRANCH  21  26
ATOM     26  O   UNL     1     -25.233  82.166  75.061  1.00  0.00    -0.387 OA
ATOM     27  H   UNL     1     -25.552  81.238  75.206  1.00  0.00     0.211 HD
ENDBRANCH  21  26
BRANCH  23  28
ATOM     28  O   UNL     1     -27.822  83.745  74.021  1.00  0.00    -0.387 OA
ATOM     29  H   UNL     1     -28.559  84.193  74.513  1.00  0.00     0.211 HD
ENDBRANCH  23  28
BRANCH  24  30
ATOM     30  C   UNL     1     -24.451  86.518  75.242  1.00  0.00     0.191 C 
BRANCH  30  31
ATOM     31  O   UNL     1     -23.277  85.758  75.101  1.00  0.00    -0.394 OA
ATOM     32  H   UNL     1     -23.167  85.243  75.945  1.00  0.00     0.210 HD
ENDBRANCH  30  31
ENDBRANCH  24  30
BRANCH  25  33
ATOM     33  O   UNL     1     -27.226  86.456  74.493  1.00  0.00    -0.388 OA
ATOM     34  H   UNL     1     -27.995  86.105  73.977  1.00  0.00     0.211 HD
ENDBRANCH  25  33
ENDBRANCH  11  20
BRANCH  10  35
ATOM     35  O   UNL     1     -22.858  83.212  76.817  1.00  0.00    -0.507 OA
ATOM     36  H   UNL     1     -23.329  83.789  76.138  1.00  0.00     0.293 HD
ENDBRANCH  10  35
TORSDOF 9
ENDMDL
MODEL 3
REMARK VINA RESULT:    -7.193      2.307      8.890
REMARK INTER + INTRA:         -10.813
REMARK INTER:                  -9.867
REMARK INTRA:                  -0.945
REMARK UNBOUND:                -1.096
REMARK SMILES O=c1c(-c2ccc(O)cc2)coc2c([C@H]3O[C@@H](CO)[C@@H](O)[C@H](O)[C@H]3O)c(O)ccc12
REMARK SMILES IDX 3 1 11 2 12 3 13 4 30 5 2 6 1 7 29 8 28 9 26 10 14 11 4 12
REMARK SMILES IDX 5 13 6 14 7 15 10 16 9 17 8 18 15 20 24 21 16 22 22 23 17 24
REMARK SMILES IDX 20 25 25 26 23 28 18 30 19 31 21 33 27 35
REMARK H PARENT 8 19 25 27 23 29 19 32 21 34 27 36
REMARK Flexibility Score: inf
ROOT
ATOM      1  C   UNL     1     -27.034  88.434  81.407  1.00  0.00     0.065 A 
ATOM      2  C   UNL     1     -26.392  87.232  81.080  1.00  0.00     0.208 A 
ATOM      3  O   UNL     1     -26.378  86.784  79.830  1.00  0.00    -0.463 OA
ATOM      4  C   UNL     1     -26.960  87.418  78.818  1.00  0.00     0.147 A 
ATOM      5  C   UNL     1     -27.638  88.635  79.059  1.00  0.00     0.066 A 
ATOM      6  C   UNL     1     -27.669  89.144  80.370  1.00  0.00     0.200 A 
ATOM      7  O   UNL     1     -28.259  90.231  80.615  1.00  0.00    -0.288 OA
ATOM      8  C   UNL     1     -28.294  89.283  78.005  1.00  0.00     0.020 A 
ATOM      9  C   UNL     1     -28.230  88.770  76.715  1.00  0.00     0.047 A 
ATOM     10  C   UNL     1     -27.538  87.583  76.457  1.00  0.00     0.125 A 
ATOM     11  C   UNL     1     -26.914  86.873  77.507  1.00  0.00     0.069 A 
ENDROOT
BRANCH   1  12
ATOM     12  C   UNL     1     -26.975  88.951  82.799  1.00  0.00    -0.011 A 
ATOM     13  C   UNL     1     -26.003  89.892  83.186  1.00  0.00     0.013 A 
ATOM     14  C   UNL     1     -25.961  90.370  84.500  1.00  0.00     0.047 A 
ATOM     15  C   UNL     1     -26.894  89.921  85.443  1.00  0.00     0.115 A 
ATOM     16  C   UNL     1     -27.919  88.521  83.751  1.00  0.00     0.013 A 
ATOM     17  C   UNL     1     -27.877  89.007  85.061  1.00  0.00     0.047 A 
BRANCH  15  18
ATOM     18  O   UNL     1     -26.862  90.385  86.757  1.00  0.00    -0.508 OA
ATOM     19  H   UNL     1     -26.069  90.214  87.362  1.00  0.00     0.293 HD
ENDBRANCH  15  18
ENDBRANCH   1  12
BRANCH  11  20
ATOM     20  C   UNL     1     -26.389  85.468  77.219  1.00  0.00     0.188 C 
ATOM     21  C   UNL     1     -24.850  85.509  76.981  1.00  0.00     0.179 C 
ATOM     22  O   UNL     1     -27.046  84.864  76.116  1.00  0.00    -0.362 OA
ATOM     23  C   UNL     1     -24.305  84.186  76.375  1.00  0.00     0.177 C 
ATOM     24  C   UNL     1     -26.701  83.492  75.911  1.00  0.00     0.176 C 
ATOM     25  C   UNL     1     -25.339  83.067  76.556  1.00  0.00     0.177 C 
BRANCH  21  26
ATOM     26  O   UNL     1     -24.483  86.604  76.182  1.00  0.00    -0.387 OA
ATOM     27  H   UNL     1     -23.555  86.847  76.438  1.00  0.00     0.211 HD
ENDBRANCH  21  26
BRANCH  23  28
ATOM     28  O   UNL     1     -23.110  83.831  77.019  1.00  0.00    -0.387 OA
ATOM     29  H   UNL     1     -22.990  82.853  76.898  1.00  0.00     0.211 HD
ENDBRANCH  23  28
BRANCH  24  30
ATOM     30  C   UNL     1     -26.754  83.259  74.387  1.00  0.00     0.191 C 
BRANCH  30  31
ATOM     31  O   UNL     1     -26.396  84.400  73.649  1.00  0.00    -0.394 OA
ATOM     32  H   UNL     1     -27.211  84.693  73.162  1.00  0.00     0.210 HD
ENDBRANCH  30  31
ENDBRANCH  24  30
BRANCH  25  33
ATOM     33  O   UNL     1     -24.859  81.858  76.032  1.00  0.00    -0.388 OA
ATOM     34  H   UNL     1     -25.430  81.131  76.386  1.00  0.00     0.211 HD
ENDBRANCH  25  33
ENDBRANCH  11  20
BRANCH  10  35
ATOM     35  O   UNL     1     -27.502  87.084  75.155  1.00  0.00    -0.507 OA
ATOM     36  H   UNL     1     -28.149  87.397  74.447  1.00  0.00     0.293 HD
ENDBRANCH  10  35
TORSDOF 9
ENDMDL
MODEL 4
REMARK VINA RESULT:    -6.986      1.764      2.346
REMARK INTER + INTRA:         -10.533
REMARK INTER:                  -9.505
REMARK INTRA:                  -1.028
REMARK UNBOUND:                -1.096
REMARK SMILES O=c1c(-c2ccc(O)cc2)coc2c([C@H]3O[C@@H](CO)[C@@H](O)[C@H](O)[C@H]3O)c(O)ccc12
REMARK SMILES IDX 3 1 11 2 12 3 13 4 30 5 2 6 1 7 29 8 28 9 26 10 14 11 4 12
REMARK SMILES IDX 5 13 6 14 7 15 10 16 9 17 8 18 15 20 24 21 16 22 22 23 17 24
REMARK SMILES IDX 20 25 25 26 23 28 18 30 19 31 21 33 27 35
REMARK H PARENT 8 19 25 27 23 29 19 32 21 34 27 36
REMARK Flexibility Score: inf
ROOT
ATOM      1  C   UNL     1     -26.860  87.027  77.792  1.00  0.00     0.065 A 
ATOM      2  C   UNL     1     -25.846  87.263  78.730  1.00  0.00     0.208 A 
ATOM      3  O   UNL     1     -26.125  87.782  79.920  1.00  0.00    -0.463 OA
ATOM      4  C   UNL     1     -27.353  88.115  80.305  1.00  0.00     0.147 A 
ATOM      5  C   UNL     1     -28.435  87.919  79.416  1.00  0.00     0.066 A 
ATOM      6  C   UNL     1     -28.179  87.366  78.149  1.00  0.00     0.200 A 
ATOM      7  O   UNL     1     -29.125  87.172  77.338  1.00  0.00    -0.288 OA
ATOM      8  C   UNL     1     -29.724  88.313  79.798  1.00  0.00     0.020 A 
ATOM      9  C   UNL     1     -29.954  88.838  81.065  1.00  0.00     0.047 A 
ATOM     10  C   UNL     1     -28.897  89.010  81.963  1.00  0.00     0.125 A 
ATOM     11  C   UNL     1     -27.576  88.676  81.591  1.00  0.00     0.069 A 
ENDROOT
BRANCH   1  12
ATOM     12  C   UNL     1     -26.533  86.380  76.495  1.00  0.00    -0.011 A 
ATOM     13  C   UNL     1     -26.243  87.146  75.351  1.00  0.00     0.013 A 
ATOM     14  C   UNL     1     -25.936  86.522  74.137  1.00  0.00     0.047 A 
ATOM     15  C   UNL     1     -25.908  85.124  74.051  1.00  0.00     0.115 A 
ATOM     16  C   UNL     1     -26.484  84.976  76.400  1.00  0.00     0.013 A 
ATOM     17  C   UNL     1     -26.170  84.357  75.187  1.00  0.00     0.047 A 
BRANCH  15  18
ATOM     18  O   UNL     1     -25.608  84.489  72.847  1.00  0.00    -0.508 OA
ATOM     19  H   UNL     1     -25.981  83.576  72.621  1.00  0.00     0.293 HD
ENDBRANCH  15  18
ENDBRANCH   1  12
BRANCH  11  20
ATOM     20  C   UNL     1     -26.433  89.111  82.506  1.00  0.00     0.188 C 
ATOM     21  C   UNL     1     -26.103  87.979  83.526  1.00  0.00     0.179 C 
ATOM     22  O   UNL     1     -26.721  90.322  83.187  1.00  0.00    -0.362 OA
ATOM     23  C   UNL     1     -25.184  88.466  84.679  1.00  0.00     0.177 C 
ATOM     24  C   UNL     1     -25.619  90.850  83.930  1.00  0.00     0.176 C 
ATOM     25  C   UNL     1     -24.521  89.793  84.291  1.00  0.00     0.177 C 
BRANCH  21  26
ATOM     26  O   UNL     1     -27.273  87.395  84.041  1.00  0.00    -0.387 OA
ATOM     27  H   UNL     1     -27.154  87.336  85.024  1.00  0.00     0.211 HD
ENDBRANCH  21  26
BRANCH  23  28
ATOM     28  O   UNL     1     -24.195  87.502  84.930  1.00  0.00    -0.387 OA
ATOM     29  H   UNL     1     -23.532  87.561  84.193  1.00  0.00     0.211 HD
ENDBRANCH  23  28
BRANCH  24  30
ATOM     30  C   UNL     1     -26.227  91.545  85.165  1.00  0.00     0.191 C 
BRANCH  30  31
ATOM     31  O   UNL     1     -25.333  92.435  85.784  1.00  0.00    -0.394 OA
ATOM     32  H   UNL     1     -25.698  93.349  85.646  1.00  0.00     0.210 HD
ENDBRANCH  30  31
ENDBRANCH  24  30
BRANCH  25  33
ATOM     33  O   UNL     1     -23.670  90.241  85.312  1.00  0.00    -0.388 OA
ATOM     34  H   UNL     1     -23.318  91.127  85.041  1.00  0.00     0.211 HD
ENDBRANCH  25  33
ENDBRANCH  11  20
BRANCH  10  35
ATOM     35  O   UNL     1     -29.154  89.552  83.223  1.00  0.00    -0.507 OA
ATOM     36  H   UNL     1     -28.683  89.220  84.051  1.00  0.00     0.293 HD
ENDBRANCH  10  35
TORSDOF 9
ENDMDL
MODEL 5
REMARK VINA RESULT:    -6.960      6.178      9.280
REMARK INTER + INTRA:         -10.497
REMARK INTER:                  -9.901
REMARK INTRA:                  -0.596
REMARK UNBOUND:                -1.096
REMARK SMILES O=c1c(-c2ccc(O)cc2)coc2c([C@H]3O[C@@H](CO)[C@@H](O)[C@H](O)[C@H]3O)c(O)ccc12
REMARK SMILES IDX 3 1 11 2 12 3 13 4 30 5 2 6 1 7 29 8 28 9 26 10 14 11 4 12
REMARK SMILES IDX 5 13 6 14 7 15 10 16 9 17 8 18 15 20 24 21 16 22 22 23 17 24
REMARK SMILES IDX 20 25 25 26 23 28 18 30 19 31 21 33 27 35
REMARK H PARENT 8 19 25 27 23 29 19 32 21 34 27 36
REMARK Flexibility Score: inf
ROOT
ATOM      1  C   UNL     1     -25.560  80.522  79.539  1.00  0.00     0.065 A 
ATOM      2  C   UNL     1     -25.219  81.750  78.957  1.00  0.00     0.208 A 
ATOM      3  O   UNL     1     -25.998  82.310  78.039  1.00  0.00    -0.463 OA
ATOM      4  C   UNL     1     -27.130  81.764  77.607  1.00  0.00     0.147 A 
ATOM      5  C   UNL     1     -27.546  80.520  78.135  1.00  0.00     0.066 A 
ATOM      6  C   UNL     1     -26.749  79.900  79.114  1.00  0.00     0.200 A 
ATOM      7  O   UNL     1     -27.099  78.794  79.609  1.00  0.00    -0.288 OA
ATOM      8  C   UNL     1     -28.712  79.916  77.648  1.00  0.00     0.020 A 
ATOM      9  C   UNL     1     -29.494  80.561  76.695  1.00  0.00     0.047 A 
ATOM     10  C   UNL     1     -29.108  81.805  76.186  1.00  0.00     0.125 A 
ATOM     11  C   UNL     1     -27.909  82.415  76.613  1.00  0.00     0.069 A 
ENDROOT
BRANCH   1  12
ATOM     12  C   UNL     1     -24.710  79.950  80.616  1.00  0.00    -0.011 A 
ATOM     13  C   UNL     1     -23.857  78.859  80.368  1.00  0.00     0.013 A 
ATOM     14  C   UNL     1     -23.061  78.333  81.391  1.00  0.00     0.047 A 
ATOM     15  C   UNL     1     -23.101  78.893  82.674  1.00  0.00     0.115 A 
ATOM     16  C   UNL     1     -24.728  80.517  81.904  1.00  0.00     0.013 A 
ATOM     17  C   UNL     1     -23.927  79.992  82.922  1.00  0.00     0.047 A 
BRANCH  15  18
ATOM     18  O   UNL     1     -22.319  78.377  83.704  1.00  0.00    -0.508 OA
ATOM     19  H   UNL     1     -22.652  78.341  84.659  1.00  0.00     0.293 HD
ENDBRANCH  15  18
ENDBRANCH   1  12
BRANCH  11  20
ATOM     20  C   UNL     1     -27.409  83.642  75.852  1.00  0.00     0.188 C 
ATOM     21  C   UNL     1     -26.413  83.210  74.734  1.00  0.00     0.179 C 
ATOM     22  O   UNL     1     -26.807  84.598  76.710  1.00  0.00    -0.362 OA
ATOM     23  C   UNL     1     -25.629  84.412  74.138  1.00  0.00     0.177 C 
ATOM     24  C   UNL     1     -26.471  85.830  76.066  1.00  0.00     0.176 C 
ATOM     25  C   UNL     1     -26.329  85.725  74.511  1.00  0.00     0.177 C 
BRANCH  21  26
ATOM     26  O   UNL     1     -25.526  82.221  75.190  1.00  0.00    -0.387 OA
ATOM     27  H   UNL     1     -24.624  82.633  75.211  1.00  0.00     0.211 HD
ENDBRANCH  21  26
BRANCH  23  28
ATOM     28  O   UNL     1     -25.571  84.290  72.741  1.00  0.00    -0.387 OA
ATOM     29  H   UNL     1     -24.701  83.867  72.519  1.00  0.00     0.211 HD
ENDBRANCH  23  28
BRANCH  24  30
ATOM     30  C   UNL     1     -25.194  86.343  76.763  1.00  0.00     0.191 C 
BRANCH  30  31
ATOM     31  O   UNL     1     -25.029  87.734  76.640  1.00  0.00    -0.394 OA
ATOM     32  H   UNL     1     -25.450  87.996  75.778  1.00  0.00     0.210 HD
ENDBRANCH  30  31
ENDBRANCH  24  30
BRANCH  25  33
ATOM     33  O   UNL     1     -25.647  86.823  73.966  1.00  0.00    -0.388 OA
ATOM     34  H   UNL     1     -25.218  87.311  74.714  1.00  0.00     0.211 HD
ENDBRANCH  25  33
ENDBRANCH  11  20
BRANCH  10  35
ATOM     35  O   UNL     1     -29.904  82.422  75.221  1.00  0.00    -0.507 OA
ATOM     36  H   UNL     1     -30.323  81.902  74.465  1.00  0.00     0.293 HD
ENDBRANCH  10  35
TORSDOF 9
ENDMDL
MODEL 6
REMARK VINA RESULT:    -6.935      2.271      8.162
REMARK INTER + INTRA:         -10.464
REMARK INTER:                  -9.898
REMARK INTRA:                  -0.566
REMARK UNBOUND:                -1.096
REMARK SMILES O=c1c(-c2ccc(O)cc2)coc2c([C@H]3O[C@@H](CO)[C@@H](O)[C@H](O)[C@H]3O)c(O)ccc12
REMARK SMILES IDX 3 1 11 2 12 3 13 4 30 5 2 6 1 7 29 8 28 9 26 10 14 11 4 12
REMARK SMILES IDX 5 13 6 14 7 15 10 16 9 17 8 18 15 20 24 21 16 22 22 23 17 24
REMARK SMILES IDX 20 25 25 26 23 28 18 30 19 31 21 33 27 35
REMARK H PARENT 8 19 25 27 23 29 19 32 21 34 27 36
REMARK Flexibility Score: inf
ROOT
ATOM      1  C   UNL     1     -27.228  85.725  81.706  1.00  0.00     0.065 A 
ATOM      2  C   UNL     1     -26.786  86.409  80.566  1.00  0.00     0.208 A 
ATOM      3  O   UNL     1     -27.102  85.982  79.349  1.00  0.00    -0.463 OA
ATOM      4  C   UNL     1     -27.839  84.901  79.119  1.00  0.00     0.147 A 
ATOM      5  C   UNL     1     -28.320  84.145  80.213  1.00  0.00     0.066 A 
ATOM      6  C   UNL     1     -28.010  84.569  81.518  1.00  0.00     0.200 A 
ATOM      7  O   UNL     1     -28.432  83.920  82.513  1.00  0.00    -0.288 OA
ATOM      8  C   UNL     1     -29.056  82.976  79.977  1.00  0.00     0.020 A 
ATOM      9  C   UNL     1     -29.367  82.591  78.678  1.00  0.00     0.047 A 
ATOM     10  C   UNL     1     -28.922  83.346  77.589  1.00  0.00     0.125 A 
ATOM     11  C   UNL     1     -28.129  84.497  77.789  1.00  0.00     0.069 A 
ENDROOT
BRANCH   1  12
ATOM     12  C   UNL     1     -26.922  86.261  83.058  1.00  0.00    -0.011 A 
ATOM     13  C   UNL     1     -27.881  86.986  83.789  1.00  0.00     0.013 A 
ATOM     14  C   UNL     1     -27.578  87.483  85.061  1.00  0.00     0.047 A 
ATOM     15  C   UNL     1     -26.315  87.257  85.623  1.00  0.00     0.115 A 
ATOM     16  C   UNL     1     -25.663  86.024  83.641  1.00  0.00     0.013 A 
ATOM     17  C   UNL     1     -25.366  86.517  84.914  1.00  0.00     0.047 A 
BRANCH  15  18
ATOM     18  O   UNL     1     -25.997  87.750  86.887  1.00  0.00    -0.508 OA
ATOM     19  H   UNL     1     -26.706  88.118  87.508  1.00  0.00     0.293 HD
ENDBRANCH  15  18
ENDBRANCH   1  12
BRANCH  11  20
ATOM     20  C   UNL     1     -27.465  85.140  76.573  1.00  0.00     0.188 C 
ATOM     21  C   UNL     1     -26.078  84.480  76.309  1.00  0.00     0.179 C 
ATOM     22  O   UNL     1     -27.326  86.544  76.716  1.00  0.00    -0.362 OA
ATOM     23  C   UNL     1     -25.216  85.288  75.299  1.00  0.00     0.177 C 
ATOM     24  C   UNL     1     -26.857  87.207  75.539  1.00  0.00     0.176 C 
ATOM     25  C   UNL     1     -26.104  86.275  74.532  1.00  0.00     0.177 C 
BRANCH  21  26
ATOM     26  O   UNL     1     -25.371  84.274  77.505  1.00  0.00    -0.387 OA
ATOM     27  H   UNL     1     -25.888  83.612  78.033  1.00  0.00     0.211 HD
ENDBRANCH  21  26
BRANCH  23  28
ATOM     28  O   UNL     1     -24.601  84.407  74.396  1.00  0.00    -0.387 OA
ATOM     29  H   UNL     1     -25.245  84.245  73.658  1.00  0.00     0.211 HD
ENDBRANCH  23  28
BRANCH  24  30
ATOM     30  C   UNL     1     -26.004  88.396  76.027  1.00  0.00     0.191 C 
BRANCH  30  31
ATOM     31  O   UNL     1     -25.361  88.138  77.250  1.00  0.00    -0.394 OA
ATOM     32  H   UNL     1     -24.413  88.416  77.139  1.00  0.00     0.210 HD
ENDBRANCH  30  31
ENDBRANCH  24  30
BRANCH  25  33
ATOM     33  O   UNL     1     -25.348  87.002  73.600  1.00  0.00    -0.388 OA
ATOM     34  H   UNL     1     -25.282  87.934  73.930  1.00  0.00     0.211 HD
ENDBRANCH  25  33
ENDBRANCH  11  20
BRANCH  10  35
ATOM     35  O   UNL     1     -29.236  82.927  76.295  1.00  0.00    -0.507 OA
ATOM     36  H   UNL     1     -29.008  82.002  75.966  1.00  0.00     0.293 HD
ENDBRANCH  10  35
TORSDOF 9
ENDMDL
MODEL 7
REMARK VINA RESULT:    -6.876      1.995      3.469
REMARK INTER + INTRA:         -10.384
REMARK INTER:                  -9.575
REMARK INTRA:                  -0.809
REMARK UNBOUND:                -1.096
REMARK SMILES O=c1c(-c2ccc(O)cc2)coc2c([C@H]3O[C@@H](CO)[C@@H](O)[C@H](O)[C@H]3O)c(O)ccc12
REMARK SMILES IDX 3 1 11 2 12 3 13 4 30 5 2 6 1 7 29 8 28 9 26 10 14 11 4 12
REMARK SMILES IDX 5 13 6 14 7 15 10 16 9 17 8 18 15 20 24 21 16 22 22 23 17 24
REMARK SMILES IDX 20 25 25 26 23 28 18 30 19 31 21 33 27 35
REMARK H PARENT 8 19 25 27 23 29 19 32 21 34 27 36
REMARK Flexibility Score: inf
ROOT
ATOM      1  C   UNL     1     -26.519  86.935  77.738  1.00  0.00     0.065 A 
ATOM      2  C   UNL     1     -26.387  86.414  79.032  1.00  0.00     0.208 A 
ATOM      3  O   UNL     1     -26.579  87.182  80.099  1.00  0.00    -0.463 OA
ATOM      4  C   UNL     1     -26.896  88.471  80.027  1.00  0.00     0.147 A 
ATOM      5  C   UNL     1     -27.039  89.080  78.759  1.00  0.00     0.066 A 
ATOM      6  C   UNL     1     -26.851  88.297  77.607  1.00  0.00     0.200 A 
ATOM      7  O   UNL     1     -26.980  88.810  76.462  1.00  0.00    -0.288 OA
ATOM      8  C   UNL     1     -27.325  90.448  78.677  1.00  0.00     0.020 A 
ATOM      9  C   UNL     1     -27.529  91.195  79.832  1.00  0.00     0.047 A 
ATOM     10  C   UNL     1     -27.418  90.598  81.091  1.00  0.00     0.125 A 
ATOM     11  C   UNL     1     -27.074  89.234  81.211  1.00  0.00     0.069 A 
ENDROOT
BRANCH   1  12
ATOM     12  C   UNL     1     -26.370  86.040  76.560  1.00  0.00    -0.011 A 
ATOM     13  C   UNL     1     -27.467  85.322  76.048  1.00  0.00     0.013 A 
ATOM     14  C   UNL     1     -27.311  84.484  74.939  1.00  0.00     0.047 A 
ATOM     15  C   UNL     1     -26.061  84.358  74.321  1.00  0.00     0.115 A 
ATOM     16  C   UNL     1     -25.123  85.919  75.920  1.00  0.00     0.013 A 
ATOM     17  C   UNL     1     -24.973  85.086  74.808  1.00  0.00     0.047 A 
BRANCH  15  18
ATOM     18  O   UNL     1     -25.890  83.524  73.218  1.00  0.00    -0.508 OA
ATOM     19  H   UNL     1     -26.626  82.907  72.899  1.00  0.00     0.293 HD
ENDBRANCH  15  18
ENDBRANCH   1  12
BRANCH  11  20
ATOM     20  C   UNL     1     -26.724  88.694  82.597  1.00  0.00     0.188 C 
ATOM     21  C   UNL     1     -28.010  88.184  83.314  1.00  0.00     0.179 C 
ATOM     22  O   UNL     1     -26.060  89.659  83.398  1.00  0.00    -0.362 OA
ATOM     23  C   UNL     1     -27.784  87.921  84.828  1.00  0.00     0.177 C 
ATOM     24  C   UNL     1     -25.572  89.149  84.641  1.00  0.00     0.176 C 
ATOM     25  C   UNL     1     -26.281  87.839  85.122  1.00  0.00     0.177 C 
BRANCH  21  26
ATOM     26  O   UNL     1     -29.089  89.064  83.122  1.00  0.00    -0.387 OA
ATOM     27  H   UNL     1     -29.739  88.881  83.849  1.00  0.00     0.211 HD
ENDBRANCH  21  26
BRANCH  23  28
ATOM     28  O   UNL     1     -28.402  86.716  85.194  1.00  0.00    -0.387 OA
ATOM     29  H   UNL     1     -28.641  86.787  86.155  1.00  0.00     0.211 HD
ENDBRANCH  23  28
BRANCH  24  30
ATOM     30  C   UNL     1     -25.679  90.309  85.652  1.00  0.00     0.191 C 
BRANCH  30  31
ATOM     31  O   UNL     1     -24.878  91.411  85.303  1.00  0.00    -0.394 OA
ATOM     32  H   UNL     1     -25.432  91.990  84.714  1.00  0.00     0.210 HD
ENDBRANCH  30  31
ENDBRANCH  24  30
BRANCH  25  33
ATOM     33  O   UNL     1     -26.054  87.583  86.483  1.00  0.00    -0.388 OA
ATOM     34  H   UNL     1     -25.646  86.684  86.554  1.00  0.00     0.211 HD
ENDBRANCH  25  33
ENDBRANCH  11  20
BRANCH  10  35
ATOM     35  O   UNL     1     -27.614  91.375  82.234  1.00  0.00    -0.507 OA
ATOM     36  H   UNL     1     -28.449  91.297  82.794  1.00  0.00     0.293 HD
ENDBRANCH  10  35
TORSDOF 9
ENDMDL
MODEL 8
REMARK VINA RESULT:    -6.872      1.782      8.531
REMARK INTER + INTRA:         -10.378
REMARK INTER:                  -9.396
REMARK INTRA:                  -0.982
REMARK UNBOUND:                -1.096
REMARK SMILES O=c1c(-c2ccc(O)cc2)coc2c([C@H]3O[C@@H](CO)[C@@H](O)[C@H](O)[C@H]3O)c(O)ccc12
REMARK SMILES IDX 3 1 11 2 12 3 13 4 30 5 2 6 1 7 29 8 28 9 26 10 14 11 4 12
REMARK SMILES IDX 5 13 6 14 7 15 10 16 9 17 8 18 15 20 24 21 16 22 22 23 17 24
REMARK SMILES IDX 20 25 25 26 23 28 18 30 19 31 21 33 27 35
REMARK H PARENT 8 19 25 27 23 29 19 32 21 34 27 36
REMARK Flexibility Score: inf
ROOT
ATOM      1  C   UNL     1     -27.036  88.381  83.247  1.00  0.00     0.065 A 
ATOM      2  C   UNL     1     -26.794  88.828  81.941  1.00  0.00     0.208 A 
ATOM      3  O   UNL     1     -26.844  87.989  80.913  1.00  0.00    -0.463 OA
ATOM      4  C   UNL     1     -27.115  86.694  81.036  1.00  0.00     0.147 A 
ATOM      5  C   UNL     1     -27.363  86.156  82.320  1.00  0.00     0.066 A 
ATOM      6  C   UNL     1     -27.324  87.016  83.433  1.00  0.00     0.200 A 
ATOM      7  O   UNL     1     -27.549  86.567  84.590  1.00  0.00    -0.288 OA
ATOM      8  C   UNL     1     -27.601  84.783  82.462  1.00  0.00     0.020 A 
ATOM      9  C   UNL     1     -27.656  83.959  81.343  1.00  0.00     0.047 A 
ATOM     10  C   UNL     1     -27.441  84.484  80.066  1.00  0.00     0.125 A 
ATOM     11  C   UNL     1     -27.142  85.853  79.892  1.00  0.00     0.069 A 
ENDROOT
BRANCH   1  12
ATOM     12  C   UNL     1     -27.044  89.352  84.373  1.00  0.00    -0.011 A 
ATOM     13  C   UNL     1     -25.957  89.446  85.262  1.00  0.00     0.013 A 
ATOM     14  C   UNL     1     -25.979  90.365  86.316  1.00  0.00     0.047 A 
ATOM     15  C   UNL     1     -27.084  91.208  86.493  1.00  0.00     0.115 A 
ATOM     16  C   UNL     1     -28.140  90.217  84.550  1.00  0.00     0.013 A 
ATOM     17  C   UNL     1     -28.155  91.137  85.600  1.00  0.00     0.047 A 
BRANCH  15  18
ATOM     18  O   UNL     1     -27.122  92.125  87.541  1.00  0.00    -0.508 OA
ATOM     19  H   UNL     1     -26.930  91.850  88.495  1.00  0.00     0.293 HD
ENDBRANCH  15  18
ENDBRANCH   1  12
BRANCH  11  20
ATOM     20  C   UNL     1     -26.674  86.323  78.516  1.00  0.00     0.188 C 
ATOM     21  C   UNL     1     -27.899  86.733  77.644  1.00  0.00     0.179 C 
ATOM     22  O   UNL     1     -25.896  85.342  77.848  1.00  0.00    -0.362 OA
ATOM     23  C   UNL     1     -27.530  86.913  76.146  1.00  0.00     0.177 C 
ATOM     24  C   UNL     1     -25.304  85.798  76.629  1.00  0.00     0.176 C 
ATOM     25  C   UNL     1     -26.010  87.044  75.997  1.00  0.00     0.177 C 
BRANCH  21  26
ATOM     26  O   UNL     1     -28.957  85.819  77.785  1.00  0.00    -0.387 OA
ATOM     27  H   UNL     1     -29.121  85.719  78.758  1.00  0.00     0.211 HD
ENDBRANCH  21  26
BRANCH  23  28
ATOM     28  O   UNL     1     -28.153  88.067  75.645  1.00  0.00    -0.387 OA
ATOM     29  H   UNL     1     -27.771  88.843  76.131  1.00  0.00     0.211 HD
ENDBRANCH  23  28
BRANCH  24  30
ATOM     30  C   UNL     1     -25.264  84.576  75.689  1.00  0.00     0.191 C 
BRANCH  30  31
ATOM     31  O   UNL     1     -24.201  84.631  74.771  1.00  0.00    -0.394 OA
ATOM     32  H   UNL     1     -23.810  83.717  74.731  1.00  0.00     0.210 HD
ENDBRANCH  30  31
ENDBRANCH  24  30
BRANCH  25  33
ATOM     33  O   UNL     1     -25.656  87.228  74.652  1.00  0.00    -0.388 OA
ATOM     34  H   UNL     1     -24.679  87.081  74.577  1.00  0.00     0.211 HD
ENDBRANCH  25  33
ENDBRANCH  11  20
BRANCH  10  35
ATOM     35  O   UNL     1     -27.488  83.631  78.962  1.00  0.00    -0.507 OA
ATOM     36  H   UNL     1     -28.158  83.759  78.220  1.00  0.00     0.293 HD
ENDBRANCH  10  35
TORSDOF 9
ENDMDL
MODEL 9
REMARK VINA RESULT:    -6.787      2.006      4.011
REMARK INTER + INTRA:         -10.263
REMARK INTER:                  -9.329
REMARK INTRA:                  -0.935
REMARK UNBOUND:                -1.096
REMARK SMILES O=c1c(-c2ccc(O)cc2)coc2c([C@H]3O[C@@H](CO)[C@@H](O)[C@H](O)[C@H]3O)c(O)ccc12
REMARK SMILES IDX 3 1 11 2 12 3 13 4 30 5 2 6 1 7 29 8 28 9 26 10 14 11 4 12
REMARK SMILES IDX 5 13 6 14 7 15 10 16 9 17 8 18 15 20 24 21 16 22 22 23 17 24
REMARK SMILES IDX 20 25 25 26 23 28 18 30 19 31 21 33 27 35
REMARK H PARENT 8 19 25 27 23 29 19 32 21 34 27 36
REMARK Flexibility Score: inf
ROOT
ATOM      1  C   UNL     1     -26.531  85.546  76.615  1.00  0.00     0.065 A 
ATOM      2  C   UNL     1     -26.508  85.013  77.911  1.00  0.00     0.208 A 
ATOM      3  O   UNL     1     -26.611  85.801  78.975  1.00  0.00    -0.463 OA
ATOM      4  C   UNL     1     -26.734  87.122  78.900  1.00  0.00     0.147 A 
ATOM      5  C   UNL     1     -26.757  87.745  77.631  1.00  0.00     0.066 A 
ATOM      6  C   UNL     1     -26.656  86.942  76.481  1.00  0.00     0.200 A 
ATOM      7  O   UNL     1     -26.682  87.469  75.335  1.00  0.00    -0.288 OA
ATOM      8  C   UNL     1     -26.837  89.141  77.546  1.00  0.00     0.020 A 
ATOM      9  C   UNL     1     -26.957  89.910  78.698  1.00  0.00     0.047 A 
ATOM     10  C   UNL     1     -26.966  89.303  79.958  1.00  0.00     0.125 A 
ATOM     11  C   UNL     1     -26.828  87.903  80.082  1.00  0.00     0.069 A 
ENDROOT
BRANCH   1  12
ATOM     12  C   UNL     1     -26.486  84.639  75.439  1.00  0.00    -0.011 A 
ATOM     13  C   UNL     1     -25.417  84.682  74.526  1.00  0.00     0.013 A 
ATOM     14  C   UNL     1     -25.389  83.821  73.424  1.00  0.00     0.047 A 
ATOM     15  C   UNL     1     -26.424  82.899  73.223  1.00  0.00     0.115 A 
ATOM     16  C   UNL     1     -27.512  83.696  75.237  1.00  0.00     0.013 A 
ATOM     17  C   UNL     1     -27.477  82.834  74.139  1.00  0.00     0.047 A 
BRANCH  15  18
ATOM     18  O   UNL     1     -26.412  82.039  72.128  1.00  0.00    -0.508 OA
ATOM     19  H   UNL     1     -26.970  81.195  72.108  1.00  0.00     0.293 HD
ENDBRANCH  15  18
ENDBRANCH   1  12
BRANCH  11  20
ATOM     20  C   UNL     1     -26.594  87.319  81.474  1.00  0.00     0.188 C 
ATOM     21  C   UNL     1     -27.946  86.852  82.093  1.00  0.00     0.179 C 
ATOM     22  O   UNL     1     -25.943  88.235  82.339  1.00  0.00    -0.362 OA
ATOM     23  C   UNL     1     -27.831  86.547  83.612  1.00  0.00     0.177 C 
ATOM     24  C   UNL     1     -25.560  87.677  83.599  1.00  0.00     0.176 C 
ATOM     25  C   UNL     1     -26.356  86.391  84.001  1.00  0.00     0.177 C 
BRANCH  21  26
ATOM     26  O   UNL     1     -28.969  87.784  81.853  1.00  0.00    -0.387 OA
ATOM     27  H   UNL     1     -28.543  88.576  81.434  1.00  0.00     0.211 HD
ENDBRANCH  21  26
BRANCH  23  28
ATOM     28  O   UNL     1     -28.525  85.363  83.908  1.00  0.00    -0.387 OA
ATOM     29  H   UNL     1     -29.339  85.618  84.416  1.00  0.00     0.211 HD
ENDBRANCH  23  28
BRANCH  24  30
ATOM     30  C   UNL     1     -25.682  88.818  84.629  1.00  0.00     0.191 C 
BRANCH  30  31
ATOM     31  O   UNL     1     -26.429  89.908  84.147  1.00  0.00    -0.394 OA
ATOM     32  H   UNL     1     -26.419  90.599  84.862  1.00  0.00     0.210 HD
ENDBRANCH  30  31
ENDBRANCH  24  30
BRANCH  25  33
ATOM     33  O   UNL     1     -26.231  86.095  85.367  1.00  0.00    -0.388 OA
ATOM     34  H   UNL     1     -27.055  86.408  85.818  1.00  0.00     0.211 HD
ENDBRANCH  25  33
ENDBRANCH  11  20
BRANCH  10  35
ATOM     35  O   UNL     1     -27.073  90.101  81.098  1.00  0.00    -0.507 OA
ATOM     36  H   UNL     1     -27.056  89.707  82.026  1.00  0.00     0.293 HD
ENDBRANCH  10  35
TORSDOF 9
ENDMDL
