MODEL 1
REMARK VINA RESULT:    -1.302      0.000      0.000
REMARK INTER + INTRA:          -1.824
REMARK INTER:                  -1.531
REMARK INTRA:                  -0.293
REMARK UNBOUND:                -0.293
REMARK SMILES O=c1cc(-c2ccc(O)c(O)c2)oc2cc(O)cc(O)c12
REMARK SMILES IDX 4 1 3 2 2 3 1 4 21 5 19 6 18 7 16 8 15 9 14 10 13 11 5 12
REMARK SMILES IDX 6 13 7 14 8 15 12 16 10 17 9 18 11 20 20 22 17 24
REMARK H PARENT 9 19 11 21 20 23 17 25
REMARK Flexibility Score: inf
ROOT
ATOM      1  C   UNL     1      -9.453 -34.832   1.074  1.00  0.00     0.138 A 
ATOM      2  C   UNL     1      -8.320 -35.542   1.506  1.00  0.00     0.100 A 
ATOM      3  C   UNL     1      -7.943 -35.486   2.848  1.00  0.00     0.197 A 
ATOM      4  O   UNL     1      -6.924 -36.125   3.225  1.00  0.00    -0.289 OA
ATOM      5  C   UNL     1      -8.702 -34.715   3.751  1.00  0.00     0.107 A 
ATOM      6  C   UNL     1      -8.391 -34.605   5.127  1.00  0.00     0.134 A 
ATOM      7  C   UNL     1      -9.194 -33.811   5.960  1.00  0.00     0.093 A 
ATOM      8  C   UNL     1     -10.300 -33.128   5.442  1.00  0.00     0.123 A 
ATOM      9  C   UNL     1     -10.611 -33.234   4.086  1.00  0.00     0.094 A 
ATOM     10  C   UNL     1      -9.824 -34.019   3.239  1.00  0.00     0.146 A 
ATOM     11  O   UNL     1     -10.142 -34.105   1.951  1.00  0.00    -0.456 OA
ENDROOT
BRANCH   1  12
ATOM     12  C   UNL     1      -9.899 -34.854  -0.341  1.00  0.00     0.021 A 
ATOM     13  C   UNL     1      -9.927 -36.075  -1.038  1.00  0.00     0.016 A 
ATOM     14  C   UNL     1     -10.335 -36.121  -2.373  1.00  0.00     0.051 A 
ATOM     15  C   UNL     1     -10.712 -34.949  -3.040  1.00  0.00     0.157 A 
ATOM     16  C   UNL     1     -10.267 -33.676  -1.021  1.00  0.00     0.062 A 
ATOM     17  C   UNL     1     -10.674 -33.721  -2.360  1.00  0.00     0.158 A 
BRANCH  15  18
ATOM     18  O   UNL     1     -11.120 -34.999  -4.372  1.00  0.00    -0.504 OA
ATOM     19  H   UNL     1     -11.490 -34.182  -4.844  1.00  0.00     0.293 HD
ENDBRANCH  15  18
BRANCH  17  20
ATOM     20  O   UNL     1     -11.032 -32.534  -2.998  1.00  0.00    -0.504 OA
ATOM     21  H   UNL     1     -10.350 -31.943  -3.459  1.00  0.00     0.293 HD
ENDBRANCH  17  20
ENDBRANCH   1  12
BRANCH   6  22
ATOM     22  O   UNL     1      -7.293 -35.274   5.671  1.00  0.00    -0.507 OA
ATOM     23  H   UNL     1      -6.464 -35.473   5.123  1.00  0.00     0.293 HD
ENDBRANCH   6  22
BRANCH   8  24
ATOM     24  O   UNL     1     -11.098 -32.340   6.269  1.00  0.00    -0.508 OA
ATOM     25  H   UNL     1     -10.862 -31.374   6.470  1.00  0.00     0.293 HD
ENDBRANCH   8  24
TORSDOF 5
ENDMDL
MODEL 2
REMARK VINA RESULT:     1.633      1.529      2.212
REMARK INTER + INTRA:           1.626
REMARK INTER:                   1.902
REMARK INTRA:                  -0.276
REMARK UNBOUND:                -0.293
REMARK SMILES O=c1cc(-c2ccc(O)c(O)c2)oc2cc(O)cc(O)c12
REMARK SMILES IDX 4 1 3 2 2 3 1 4 21 5 19 6 18 7 16 8 15 9 14 10 13 11 5 12
REMARK SMILES IDX 6 13 7 14 8 15 12 16 10 17 9 18 11 20 20 22 17 24
REMARK H PARENT 9 19 11 21 20 23 17 25
REMARK Flexibility Score: inf
ROOT
ATOM      1  C   UNL     1      -9.879 -34.904   0.950  1.00  0.00     0.138 A 
ATOM      2  C   UNL     1     -10.710 -35.554   1.878  1.00  0.00     0.100 A 
ATOM      3  C   UNL     1     -10.373 -35.538   3.231  1.00  0.00     0.197 A 
ATOM      4  O   UNL     1     -11.124 -36.125   4.056  1.00  0.00    -0.289 OA
ATOM      5  C   UNL     1      -9.203 -34.872   3.648  1.00  0.00     0.107 A 
ATOM      6  C   UNL     1      -8.790 -34.806   5.001  1.00  0.00     0.134 A 
ATOM      7  C   UNL     1      -7.608 -34.127   5.334  1.00  0.00     0.093 A 
ATOM      8  C   UNL     1      -6.834 -33.516   4.341  1.00  0.00     0.123 A 
ATOM      9  C   UNL     1      -7.238 -33.579   3.007  1.00  0.00     0.094 A 
ATOM     10  C   UNL     1      -8.412 -34.249   2.654  1.00  0.00     0.146 A 
ATOM     11  O   UNL     1      -8.776 -34.293   1.376  1.00  0.00    -0.456 OA
ENDROOT
BRANCH   1  12
ATOM     12  C   UNL     1     -10.187 -34.891  -0.502  1.00  0.00     0.021 A 
ATOM     13  C   UNL     1     -10.219 -36.104  -1.213  1.00  0.00     0.016 A 
ATOM     14  C   UNL     1     -10.499 -36.118  -2.581  1.00  0.00     0.051 A 
ATOM     15  C   UNL     1     -10.740 -34.921  -3.267  1.00  0.00     0.157 A 
ATOM     16  C   UNL     1     -10.417 -33.689  -1.201  1.00  0.00     0.062 A 
ATOM     17  C   UNL     1     -10.695 -33.701  -2.573  1.00  0.00     0.158 A 
BRANCH  15  18
ATOM     18  O   UNL     1     -11.019 -34.939  -4.633  1.00  0.00    -0.504 OA
ATOM     19  H   UNL     1     -10.919 -35.785  -5.183  1.00  0.00     0.293 HD
ENDBRANCH  15  18
BRANCH  17  20
ATOM     20  O   UNL     1     -10.919 -32.491  -3.229  1.00  0.00    -0.504 OA
ATOM     21  H   UNL     1     -11.836 -32.222  -3.564  1.00  0.00     0.293 HD
ENDBRANCH  17  20
ENDBRANCH   1  12
BRANCH   6  22
ATOM     22  O   UNL     1      -9.542 -35.407   6.011  1.00  0.00    -0.507 OA
ATOM     23  H   UNL     1      -9.257 -36.279   6.441  1.00  0.00     0.293 HD
ENDBRANCH   6  22
BRANCH   8  24
ATOM     24  O   UNL     1      -5.659 -32.843   4.671  1.00  0.00    -0.508 OA
ATOM     25  H   UNL     1      -5.679 -31.928   5.108  1.00  0.00     0.293 HD
ENDBRANCH   8  24
TORSDOF 5
ENDMDL
