MODEL 1
REMARK VINA RESULT:    -4.281      0.000      0.000
REMARK INTER + INTRA:          -7.349
REMARK INTER:                  -6.533
REMARK INTRA:                  -0.816
REMARK UNBOUND:                -0.816
REMARK SMILES O=C([O-])CCCCCCCCC(=O)[O-]
REMARK SMILES IDX 7 1 6 2 5 3 4 4 2 5 1 6 3 7 8 8 9 9 10 10 11 11 12 12 13 13
REMARK SMILES IDX 14 14
REMARK H PARENT
REMARK Flexibility Score: inf
ROOT
ATOM      1  C   UNL     1     -11.052   1.825  17.811  1.00  0.00     0.000 C 
ENDROOT
BRANCH   1   2
ATOM      2  C   UNL     1     -10.460   1.866  19.233  1.00  0.00     0.000 C 
BRANCH   2   3
ATOM      3  C   UNL     1      -9.046   1.271  19.377  1.00  0.00     0.006 C 
BRANCH   3   4
ATOM      4  C   UNL     1      -8.975  -0.246  19.123  1.00  0.00     0.053 C 
BRANCH   4   5
ATOM      5  C   UNL     1      -9.517  -1.048  20.267  1.00  0.00     0.041 C 
ATOM      6  O   UNL     1     -10.385  -1.938  20.064  1.00  0.00    -0.550 OA
ATOM      7  O   UNL     1      -9.037  -0.839  21.554  1.00  0.00    -0.550 OA
ENDBRANCH   4   5
ENDBRANCH   3   4
ENDBRANCH   2   3
ENDBRANCH   1   2
BRANCH   1   8
ATOM      8  C   UNL     1     -10.493   2.883  16.842  1.00  0.00     0.000 C 
BRANCH   8   9
ATOM      9  C   UNL     1      -9.539   2.287  15.792  1.00  0.00     0.000 C 
BRANCH   9  10
ATOM     10  C   UNL     1      -9.867   0.822  15.463  1.00  0.00     0.006 C 
BRANCH  10  11
ATOM     11  C   UNL     1     -10.486   0.655  14.070  1.00  0.00     0.053 C 
BRANCH  11  12
ATOM     12  C   UNL     1     -11.916   0.230  14.181  1.00  0.00     0.041 C 
ATOM     13  O   UNL     1     -12.692   0.821  14.976  1.00  0.00    -0.550 OA
ATOM     14  O   UNL     1     -12.405  -0.786  13.369  1.00  0.00    -0.550 OA
ENDBRANCH  11  12
ENDBRANCH  10  11
ENDBRANCH   9  10
ENDBRANCH   8   9
ENDBRANCH   1   8
TORSDOF 9
ENDMDL
MODEL 2
REMARK VINA RESULT:    -4.035      0.364      5.637
REMARK INTER + INTRA:          -6.974
REMARK INTER:                  -6.232
REMARK INTRA:                  -0.742
REMARK UNBOUND:                -0.816
REMARK SMILES O=C([O-])CCCCCCCCC(=O)[O-]
REMARK SMILES IDX 7 1 6 2 5 3 4 4 2 5 1 6 3 7 8 8 9 9 10 10 11 11 12 12 13 13
REMARK SMILES IDX 14 14
REMARK H PARENT
REMARK Flexibility Score: inf
ROOT
ATOM      1  C   UNL     1     -10.050   3.133  16.830  1.00  0.00     0.000 C 
ENDROOT
BRANCH   1   2
ATOM      2  C   UNL     1      -9.589   2.451  15.527  1.00  0.00     0.000 C 
BRANCH   2   3
ATOM      3  C   UNL     1      -9.902   0.946  15.423  1.00  0.00     0.006 C 
BRANCH   3   4
ATOM      4  C   UNL     1     -10.533   0.528  14.082  1.00  0.00     0.053 C 
BRANCH   4   5
ATOM      5  C   UNL     1     -11.998   0.231  14.202  1.00  0.00     0.041 C 
ATOM      6  O   UNL     1     -12.688   0.794  15.091  1.00  0.00    -0.550 OA
ATOM      7  O   UNL     1     -12.608  -0.638  13.306  1.00  0.00    -0.550 OA
ENDBRANCH   4   5
ENDBRANCH   3   4
ENDBRANCH   2   3
ENDBRANCH   1   2
BRANCH   1   8
ATOM      8  C   UNL     1     -10.952   2.271  17.732  1.00  0.00     0.000 C 
BRANCH   8   9
ATOM      9  C   UNL     1     -10.568   2.359  19.219  1.00  0.00     0.000 C 
BRANCH   9  10
ATOM     10  C   UNL     1      -9.342   1.498  19.563  1.00  0.00     0.006 C 
BRANCH  10  11
ATOM     11  C   UNL     1      -9.489   0.047  19.087  1.00  0.00     0.053 C 
BRANCH  11  12
ATOM     12  C   UNL     1      -9.674  -0.869  20.255  1.00  0.00     0.041 C 
ATOM     13  O   UNL     1     -10.107  -2.038  20.081  1.00  0.00    -0.550 OA
ATOM     14  O   UNL     1      -9.322  -0.448  21.532  1.00  0.00    -0.550 OA
ENDBRANCH  11  12
ENDBRANCH  10  11
ENDBRANCH   9  10
ENDBRANCH   8   9
ENDBRANCH   1   8
TORSDOF 9
ENDMDL
MODEL 3
REMARK VINA RESULT:    -3.992      1.400      5.835
REMARK INTER + INTRA:          -6.909
REMARK INTER:                  -6.376
REMARK INTRA:                  -0.533
REMARK UNBOUND:                -0.816
REMARK SMILES O=C([O-])CCCCCCCCC(=O)[O-]
REMARK SMILES IDX 7 1 6 2 5 3 4 4 2 5 1 6 3 7 8 8 9 9 10 10 11 11 12 12 13 13
REMARK SMILES IDX 14 14
REMARK H PARENT
REMARK Flexibility Score: inf
ROOT
ATOM      1  C   UNL     1      -9.706   2.268  17.213  1.00  0.00     0.000 C 
ENDROOT
BRANCH   1   2
ATOM      2  C   UNL     1      -9.526   2.109  15.692  1.00  0.00     0.000 C 
BRANCH   2   3
ATOM      3  C   UNL     1      -9.696   0.675  15.154  1.00  0.00     0.006 C 
BRANCH   3   4
ATOM      4  C   UNL     1     -10.550   0.582  13.875  1.00  0.00     0.053 C 
BRANCH   4   5
ATOM      5  C   UNL     1     -11.984   0.252  14.162  1.00  0.00     0.041 C 
ATOM      6  O   UNL     1     -12.623  -0.518  13.399  1.00  0.00    -0.550 OA
ATOM      7  O   UNL     1     -12.604   0.766  15.294  1.00  0.00    -0.550 OA
ENDBRANCH   4   5
ENDBRANCH   3   4
ENDBRANCH   2   3
ENDBRANCH   1   2
BRANCH   1   8
ATOM      8  C   UNL     1     -10.054   0.972  17.968  1.00  0.00     0.000 C 
BRANCH   8   9
ATOM      9  C   UNL     1      -8.991   0.584  19.010  1.00  0.00     0.000 C 
BRANCH   9  10
ATOM     10  C   UNL     1      -9.356  -0.697  19.776  1.00  0.00     0.006 C 
BRANCH  10  11
ATOM     11  C   UNL     1     -10.828  -0.726  20.208  1.00  0.00     0.053 C 
BRANCH  11  12
ATOM     12  C   UNL     1     -11.047   0.180  21.377  1.00  0.00     0.041 C 
ATOM     13  O   UNL     1     -10.407   0.001  22.446  1.00  0.00    -0.550 OA
ATOM     14  O   UNL     1     -11.923   1.253  21.270  1.00  0.00    -0.550 OA
ENDBRANCH  11  12
ENDBRANCH  10  11
ENDBRANCH   9  10
ENDBRANCH   8   9
ENDBRANCH   1   8
TORSDOF 9
ENDMDL
MODEL 4
REMARK VINA RESULT:    -3.943      1.307      1.844
REMARK INTER + INTRA:          -6.834
REMARK INTER:                  -6.240
REMARK INTRA:                  -0.594
REMARK UNBOUND:                -0.816
REMARK SMILES O=C([O-])CCCCCCCCC(=O)[O-]
REMARK SMILES IDX 7 1 6 2 5 3 4 4 2 5 1 6 3 7 8 8 9 9 10 10 11 11 12 12 13 13
REMARK SMILES IDX 14 14
REMARK H PARENT
REMARK Flexibility Score: inf
ROOT
ATOM      1  C   UNL     1     -10.571   3.300  18.517  1.00  0.00     0.000 C 
ENDROOT
BRANCH   1   2
ATOM      2  C   UNL     1      -9.992   2.147  19.360  1.00  0.00     0.000 C 
BRANCH   2   3
ATOM      3  C   UNL     1      -9.694   0.849  18.584  1.00  0.00     0.006 C 
BRANCH   3   4
ATOM      4  C   UNL     1      -8.853  -0.172  19.372  1.00  0.00     0.053 C 
BRANCH   4   5
ATOM      5  C   UNL     1      -9.648  -0.887  20.422  1.00  0.00     0.041 C 
ATOM      6  O   UNL     1      -9.124  -1.173  21.530  1.00  0.00    -0.550 OA
ATOM      7  O   UNL     1     -10.981  -1.205  20.191  1.00  0.00    -0.550 OA
ENDBRANCH   4   5
ENDBRANCH   3   4
ENDBRANCH   2   3
ENDBRANCH   1   2
BRANCH   1   8
ATOM      8  C   UNL     1     -12.086   3.221  18.257  1.00  0.00     0.000 C 
BRANCH   8   9
ATOM      9  C   UNL     1     -12.442   3.318  16.763  1.00  0.00     0.000 C 
BRANCH   9  10
ATOM     10  C   UNL     1     -11.573   2.399  15.890  1.00  0.00     0.006 C 
BRANCH  10  11
ATOM     11  C   UNL     1     -12.234   1.039  15.628  1.00  0.00     0.053 C 
BRANCH  11  12
ATOM     12  C   UNL     1     -11.739   0.458  14.342  1.00  0.00     0.041 C 
ATOM     13  O   UNL     1     -10.506   0.282  14.158  1.00  0.00    -0.550 OA
ATOM     14  O   UNL     1     -12.644   0.062  13.365  1.00  0.00    -0.550 OA
ENDBRANCH  11  12
ENDBRANCH  10  11
ENDBRANCH   9  10
ENDBRANCH   8   9
ENDBRANCH   1   8
TORSDOF 9
ENDMDL
MODEL 5
REMARK VINA RESULT:    -3.904      1.869      2.447
REMARK INTER + INTRA:          -6.774
REMARK INTER:                  -6.143
REMARK INTRA:                  -0.631
REMARK UNBOUND:                -0.816
REMARK SMILES O=C([O-])CCCCCCCCC(=O)[O-]
REMARK SMILES IDX 7 1 6 2 5 3 4 4 2 5 1 6 3 7 8 8 9 9 10 10 11 11 12 12 13 13
REMARK SMILES IDX 14 14
REMARK H PARENT
REMARK Flexibility Score: inf
ROOT
ATOM      1  C   UNL     1      -8.852   1.376  18.959  1.00  0.00     0.000 C 
ENDROOT
BRANCH   1   2
ATOM      2  C   UNL     1      -9.054  -0.149  19.032  1.00  0.00     0.000 C 
BRANCH   2   3
ATOM      3  C   UNL     1      -9.580  -0.682  20.378  1.00  0.00     0.006 C 
BRANCH   3   4
ATOM      4  C   UNL     1     -11.115  -0.662  20.505  1.00  0.00     0.053 C 
BRANCH   4   5
ATOM      5  C   UNL     1     -11.607   0.457  21.373  1.00  0.00     0.041 C 
ATOM      6  O   UNL     1     -11.722   0.293  22.615  1.00  0.00    -0.550 OA
ATOM      7  O   UNL     1     -11.903   1.694  20.813  1.00  0.00    -0.550 OA
ENDBRANCH   4   5
ENDBRANCH   3   4
ENDBRANCH   2   3
ENDBRANCH   1   2
BRANCH   1   8
ATOM      8  C   UNL     1      -9.465   2.057  17.722  1.00  0.00     0.000 C 
BRANCH   8   9
ATOM      9  C   UNL     1     -10.910   1.606  17.447  1.00  0.00     0.000 C 
BRANCH   9  10
ATOM     10  C   UNL     1     -11.396   2.007  16.045  1.00  0.00     0.006 C 
BRANCH  10  11
ATOM     11  C   UNL     1     -12.346   0.970  15.432  1.00  0.00     0.053 C 
BRANCH  11  12
ATOM     12  C   UNL     1     -11.741   0.369  14.204  1.00  0.00     0.041 C 
ATOM     13  O   UNL     1     -10.497   0.425  14.019  1.00  0.00    -0.550 OA
ATOM     14  O   UNL     1     -12.544  -0.298  13.287  1.00  0.00    -0.550 OA
ENDBRANCH  11  12
ENDBRANCH  10  11
ENDBRANCH   9  10
ENDBRANCH   8   9
ENDBRANCH   1   8
TORSDOF 9
ENDMDL
MODEL 6
REMARK VINA RESULT:    -3.900      1.630      5.546
REMARK INTER + INTRA:          -6.768
REMARK INTER:                  -5.829
REMARK INTRA:                  -0.939
REMARK UNBOUND:                -0.816
REMARK SMILES O=C([O-])CCCCCCCCC(=O)[O-]
REMARK SMILES IDX 7 1 6 2 5 3 4 4 2 5 1 6 3 7 8 8 9 9 10 10 11 11 12 12 13 13
REMARK SMILES IDX 14 14
REMARK H PARENT
REMARK Flexibility Score: inf
ROOT
ATOM      1  C   UNL     1     -11.239   2.371  18.729  1.00  0.00     0.000 C 
ENDROOT
BRANCH   1   2
ATOM      2  C   UNL     1     -11.916   3.357  17.758  1.00  0.00     0.000 C 
BRANCH   2   3
ATOM      3  C   UNL     1     -12.242   2.790  16.362  1.00  0.00     0.006 C 
BRANCH   3   4
ATOM      4  C   UNL     1     -11.722   1.360  16.130  1.00  0.00     0.053 C 
BRANCH   4   5
ATOM      5  C   UNL     1     -10.514   1.322  15.242  1.00  0.00     0.041 C 
ATOM      6  O   UNL     1      -9.492   1.998  15.532  1.00  0.00    -0.550 OA
ATOM      7  O   UNL     1     -10.504   0.512  14.114  1.00  0.00    -0.550 OA
ENDBRANCH   4   5
ENDBRANCH   3   4
ENDBRANCH   2   3
ENDBRANCH   1   2
BRANCH   1   8
ATOM      8  C   UNL     1      -9.841   2.794  19.217  1.00  0.00     0.000 C 
BRANCH   8   9
ATOM      9  C   UNL     1      -8.797   1.671  19.084  1.00  0.00     0.000 C 
BRANCH   9  10
ATOM     10  C   UNL     1      -9.436   0.305  18.790  1.00  0.00     0.006 C 
BRANCH  10  11
ATOM     11  C   UNL     1      -8.974  -0.784  19.766  1.00  0.00     0.053 C 
BRANCH  11  12
ATOM     12  C   UNL     1      -9.626  -0.602  21.100  1.00  0.00     0.041 C 
ATOM     13  O   UNL     1     -10.830  -0.241  21.172  1.00  0.00    -0.550 OA
ATOM     14  O   UNL     1      -8.919  -0.878  22.263  1.00  0.00    -0.550 OA
ENDBRANCH  11  12
ENDBRANCH  10  11
ENDBRANCH   9  10
ENDBRANCH   8   9
ENDBRANCH   1   8
TORSDOF 9
ENDMDL
MODEL 7
REMARK VINA RESULT:    -3.841      1.643      6.536
REMARK INTER + INTRA:          -6.678
REMARK INTER:                  -6.177
REMARK INTRA:                  -0.501
REMARK UNBOUND:                -0.816
REMARK SMILES O=C([O-])CCCCCCCCC(=O)[O-]
REMARK SMILES IDX 7 1 6 2 5 3 4 4 2 5 1 6 3 7 8 8 9 9 10 10 11 11 12 12 13 13
REMARK SMILES IDX 14 14
REMARK H PARENT
REMARK Flexibility Score: inf
ROOT
ATOM      1  C   UNL     1     -10.600   1.438  19.068  1.00  0.00     0.000 C 
ENDROOT
BRANCH   1   2
ATOM      2  C   UNL     1     -11.288   0.868  17.813  1.00  0.00     0.000 C 
BRANCH   2   3
ATOM      3  C   UNL     1     -11.333   1.814  16.598  1.00  0.00     0.006 C 
BRANCH   3   4
ATOM      4  C   UNL     1     -12.197   1.297  15.432  1.00  0.00     0.053 C 
BRANCH   4   5
ATOM      5  C   UNL     1     -11.397   0.548  14.410  1.00  0.00     0.041 C 
ATOM      6  O   UNL     1     -10.219   0.904  14.140  1.00  0.00    -0.550 OA
ATOM      7  O   UNL     1     -11.938  -0.567  13.782  1.00  0.00    -0.550 OA
ENDBRANCH   4   5
ENDBRANCH   3   4
ENDBRANCH   2   3
ENDBRANCH   1   2
BRANCH   1   8
ATOM      8  C   UNL     1      -9.118   1.053  19.230  1.00  0.00     0.000 C 
BRANCH   8   9
ATOM      9  C   UNL     1      -8.908  -0.463  19.385  1.00  0.00     0.000 C 
BRANCH   9  10
ATOM     10  C   UNL     1      -9.653  -1.039  20.600  1.00  0.00     0.006 C 
BRANCH  10  11
ATOM     11  C   UNL     1      -8.848  -0.910  21.900  1.00  0.00     0.053 C 
BRANCH  11  12
ATOM     12  C   UNL     1      -9.632  -0.155  22.926  1.00  0.00     0.041 C 
ATOM     13  O   UNL     1     -10.488   0.696  22.569  1.00  0.00    -0.550 OA
ATOM     14  O   UNL     1      -9.453  -0.427  24.277  1.00  0.00    -0.550 OA
ENDBRANCH  11  12
ENDBRANCH  10  11
ENDBRANCH   9  10
ENDBRANCH   8   9
ENDBRANCH   1   8
TORSDOF 9
ENDMDL
MODEL 8
REMARK VINA RESULT:    -3.797      9.912     11.909
REMARK INTER + INTRA:          -6.611
REMARK INTER:                  -6.051
REMARK INTRA:                  -0.560
REMARK UNBOUND:                -0.816
REMARK SMILES O=C([O-])CCCCCCCCC(=O)[O-]
REMARK SMILES IDX 7 1 6 2 5 3 4 4 2 5 1 6 3 7 8 8 9 9 10 10 11 11 12 12 13 13
REMARK SMILES IDX 14 14
REMARK H PARENT
REMARK Flexibility Score: inf
ROOT
ATOM      1  C   UNL     1      -2.155  -7.315  20.949  1.00  0.00     0.000 C 
ENDROOT
BRANCH   1   2
ATOM      2  C   UNL     1      -3.533  -6.798  20.495  1.00  0.00     0.000 C 
BRANCH   2   3
ATOM      3  C   UNL     1      -3.929  -7.154  19.049  1.00  0.00     0.006 C 
BRANCH   3   4
ATOM      4  C   UNL     1      -3.064  -8.261  18.417  1.00  0.00     0.053 C 
BRANCH   4   5
ATOM      5  C   UNL     1      -2.384  -7.813  17.159  1.00  0.00     0.041 C 
ATOM      6  O   UNL     1      -1.841  -8.655  16.397  1.00  0.00    -0.550 OA
ATOM      7  O   UNL     1      -2.383  -6.469  16.808  1.00  0.00    -0.550 OA
ENDBRANCH   4   5
ENDBRANCH   3   4
ENDBRANCH   2   3
ENDBRANCH   1   2
BRANCH   1   8
ATOM      8  C   UNL     1      -1.062  -6.237  21.070  1.00  0.00     0.000 C 
BRANCH   8   9
ATOM      9  C   UNL     1      -1.555  -4.839  20.658  1.00  0.00     0.000 C 
BRANCH   9  10
ATOM     10  C   UNL     1      -1.471  -3.822  21.808  1.00  0.00     0.006 C 
BRANCH  10  11
ATOM     11  C   UNL     1      -2.710  -2.921  21.888  1.00  0.00     0.053 C 
BRANCH  11  12
ATOM     12  C   UNL     1      -2.678  -2.099  23.137  1.00  0.00     0.041 C 
ATOM     13  O   UNL     1      -3.362  -1.046  23.220  1.00  0.00    -0.550 OA
ATOM     14  O   UNL     1      -1.931  -2.523  24.229  1.00  0.00    -0.550 OA
ENDBRANCH  11  12
ENDBRANCH  10  11
ENDBRANCH   9  10
ENDBRANCH   8   9
ENDBRANCH   1   8
TORSDOF 9
ENDMDL
MODEL 9
REMARK VINA RESULT:    -3.796      1.755      2.309
REMARK INTER + INTRA:          -6.609
REMARK INTER:                  -5.621
REMARK INTRA:                  -0.989
REMARK UNBOUND:                -0.816
REMARK SMILES O=C([O-])CCCCCCCCC(=O)[O-]
REMARK SMILES IDX 7 1 6 2 5 3 4 4 2 5 1 6 3 7 8 8 9 9 10 10 11 11 12 12 13 13
REMARK SMILES IDX 14 14
REMARK H PARENT
REMARK Flexibility Score: inf
ROOT
ATOM      1  C   UNL     1     -10.285   4.093  17.897  1.00  0.00     0.000 C 
ENDROOT
BRANCH   1   2
ATOM      2  C   UNL     1      -8.797   3.707  18.002  1.00  0.00     0.000 C 
BRANCH   2   3
ATOM      3  C   UNL     1      -8.483   2.552  18.973  1.00  0.00     0.006 C 
BRANCH   3   4
ATOM      4  C   UNL     1      -9.721   1.977  19.687  1.00  0.00     0.053 C 
BRANCH   4   5
ATOM      5  C   UNL     1     -10.017   0.565  19.280  1.00  0.00     0.041 C 
ATOM      6  O   UNL     1      -9.144  -0.121  18.688  1.00  0.00    -0.550 OA
ATOM      7  O   UNL     1     -11.245  -0.006  19.590  1.00  0.00    -0.550 OA
ENDBRANCH   4   5
ENDBRANCH   3   4
ENDBRANCH   2   3
ENDBRANCH   1   2
BRANCH   1   8
ATOM      8  C   UNL     1     -10.941   3.794  16.536  1.00  0.00     0.000 C 
BRANCH   8   9
ATOM      9  C   UNL     1     -12.126   2.818  16.647  1.00  0.00     0.000 C 
BRANCH   9  10
ATOM     10  C   UNL     1     -11.757   1.391  16.213  1.00  0.00     0.006 C 
BRANCH  10  11
ATOM     11  C   UNL     1     -10.359   1.309  15.586  1.00  0.00     0.053 C 
BRANCH  11  12
ATOM     12  C   UNL     1     -10.414   0.577  14.282  1.00  0.00     0.041 C 
ATOM     13  O   UNL     1      -9.350   0.244  13.698  1.00  0.00    -0.550 OA
ATOM     14  O   UNL     1     -11.641   0.220  13.736  1.00  0.00    -0.550 OA
ENDBRANCH  11  12
ENDBRANCH  10  11
ENDBRANCH   9  10
ENDBRANCH   8   9
ENDBRANCH   1   8
TORSDOF 9
ENDMDL
