MODEL 1
REMARK VINA RESULT:    -5.152      0.000      0.000
REMARK INTER + INTRA:          -7.422
REMARK INTER:                  -6.959
REMARK INTRA:                  -0.463
REMARK UNBOUND:                -0.463
REMARK SMILES C=C[C@@](C)(CCC=C(C)C)OC(C)=O
REMARK SMILES IDX 3 1 4 2 5 3 6 4 7 5 9 6 8 7 10 8 2 9 1 10 11 11 12 12 14 13
REMARK SMILES IDX 13 14
REMARK H PARENT
REMARK Flexibility Score: inf
ROOT
ATOM      1  C   UNL     1      50.062  -6.472  -4.477  1.00  0.00     0.127 C 
ATOM      2  C   UNL     1      51.343  -7.160  -3.945  1.00  0.00     0.061 C 
ENDROOT
BRANCH   1   3
ATOM      3  C   UNL     1      48.877  -6.684  -3.499  1.00  0.00     0.057 C 
BRANCH   3   4
ATOM      4  C   UNL     1      49.212  -7.456  -2.209  1.00  0.00     0.032 C 
BRANCH   4   5
ATOM      5  C   UNL     1      48.399  -6.932  -1.050  1.00  0.00    -0.028 C 
ATOM      6  C   UNL     1      46.543  -6.918   0.587  1.00  0.00     0.039 C 
ATOM      7  C   UNL     1      47.263  -7.509  -0.597  1.00  0.00    -0.080 C 
ATOM      8  C   UNL     1      46.653  -8.715  -1.271  1.00  0.00     0.039 C 
ENDBRANCH   4   5
ENDBRANCH   3   4
ENDBRANCH   1   3
BRANCH   1   9
ATOM      9  C   UNL     1      50.244  -4.982  -4.749  1.00  0.00     0.013 C 
ATOM     10  C   UNL     1      51.421  -4.385  -4.975  1.00  0.00     0.008 C 
ENDBRANCH   1   9
BRANCH   1  11
ATOM     11  O   UNL     1      49.685  -7.117  -5.703  1.00  0.00    -0.455 OA
BRANCH  11  12
ATOM     12  C   UNL     1      48.935  -6.535  -6.738  1.00  0.00     0.303 C 
ATOM     13  O   UNL     1      47.714  -6.264  -6.586  1.00  0.00    -0.253 OA
ATOM     14  C   UNL     1      49.605  -6.203  -8.027  1.00  0.00     0.139 C 
ENDBRANCH  11  12
ENDBRANCH   1  11
TORSDOF 6
ENDMDL
MODEL 2
REMARK VINA RESULT:    -4.848      1.573      2.749
REMARK INTER + INTRA:          -7.012
REMARK INTER:                  -6.600
REMARK INTRA:                  -0.412
REMARK UNBOUND:                -0.463
REMARK SMILES C=C[C@@](C)(CCC=C(C)C)OC(C)=O
REMARK SMILES IDX 3 1 4 2 5 3 6 4 7 5 9 6 8 7 10 8 2 9 1 10 11 11 12 12 14 13
REMARK SMILES IDX 13 14
REMARK H PARENT
REMARK Flexibility Score: inf
ROOT
ATOM      1  C   UNL     1      49.386  -6.600  -5.371  1.00  0.00     0.127 C 
ATOM      2  C   UNL     1      48.119  -6.514  -6.258  1.00  0.00     0.061 C 
ENDROOT
BRANCH   1   3
ATOM      3  C   UNL     1      49.079  -6.127  -3.926  1.00  0.00     0.057 C 
BRANCH   3   4
ATOM      4  C   UNL     1      48.981  -7.244  -2.870  1.00  0.00     0.032 C 
BRANCH   4   5
ATOM      5  C   UNL     1      48.400  -6.709  -1.584  1.00  0.00    -0.028 C 
ATOM      6  C   UNL     1      47.056  -6.785   0.494  1.00  0.00     0.039 C 
ATOM      7  C   UNL     1      47.558  -7.404  -0.785  1.00  0.00    -0.080 C 
ATOM      8  C   UNL     1      47.057  -8.780  -1.153  1.00  0.00     0.039 C 
ENDBRANCH   4   5
ENDBRANCH   3   4
ENDBRANCH   1   3
BRANCH   1   9
ATOM      9  C   UNL     1      50.005  -7.994  -5.335  1.00  0.00     0.013 C 
ATOM     10  C   UNL     1      50.384  -8.689  -6.415  1.00  0.00     0.008 C 
ENDBRANCH   1   9
BRANCH   1  11
ATOM     11  O   UNL     1      50.359  -5.682  -5.891  1.00  0.00    -0.455 OA
BRANCH  11  12
ATOM     12  C   UNL     1      51.347  -5.024  -5.142  1.00  0.00     0.303 C 
ATOM     13  O   UNL     1      51.285  -3.783  -4.927  1.00  0.00    -0.253 OA
ATOM     14  C   UNL     1      52.471  -5.812  -4.563  1.00  0.00     0.139 C 
ENDBRANCH  11  12
ENDBRANCH   1  11
TORSDOF 6
ENDMDL
MODEL 3
REMARK VINA RESULT:    -4.770      9.863     11.558
REMARK INTER + INTRA:          -6.906
REMARK INTER:                  -6.117
REMARK INTRA:                  -0.789
REMARK UNBOUND:                -0.463
REMARK SMILES C=C[C@@](C)(CCC=C(C)C)OC(C)=O
REMARK SMILES IDX 3 1 4 2 5 3 6 4 7 5 9 6 8 7 10 8 2 9 1 10 11 11 12 12 14 13
REMARK SMILES IDX 13 14
REMARK H PARENT
REMARK Flexibility Score: inf
ROOT
ATOM      1  C   UNL     1      59.159   0.248  -2.387  1.00  0.00     0.127 C 
ATOM      2  C   UNL     1      60.367  -0.476  -1.742  1.00  0.00     0.061 C 
ENDROOT
BRANCH   1   3
ATOM      3  C   UNL     1      58.259   0.892  -1.300  1.00  0.00     0.057 C 
BRANCH   3   4
ATOM      4  C   UNL     1      58.352   0.256   0.100  1.00  0.00     0.032 C 
BRANCH   4   5
ATOM      5  C   UNL     1      57.129  -0.580   0.386  1.00  0.00    -0.028 C 
ATOM      6  C   UNL     1      55.868  -2.504   1.300  1.00  0.00     0.039 C 
ATOM      7  C   UNL     1      57.154  -1.762   1.042  1.00  0.00    -0.080 C 
ATOM      8  C   UNL     1      58.446  -2.401   1.493  1.00  0.00     0.039 C 
ENDBRANCH   4   5
ENDBRANCH   3   4
ENDBRANCH   1   3
BRANCH   1   9
ATOM      9  C   UNL     1      59.563   1.304  -3.411  1.00  0.00     0.013 C 
ATOM     10  C   UNL     1      59.190   2.590  -3.369  1.00  0.00     0.008 C 
ENDBRANCH   1   9
BRANCH   1  11
ATOM     11  O   UNL     1      58.346  -0.737  -3.043  1.00  0.00    -0.455 OA
BRANCH  11  12
ATOM     12  C   UNL     1      58.662  -2.097  -3.186  1.00  0.00     0.303 C 
ATOM     13  O   UNL     1      59.496  -2.486  -4.047  1.00  0.00    -0.253 OA
ATOM     14  C   UNL     1      58.024  -3.094  -2.281  1.00  0.00     0.139 C 
ENDBRANCH  11  12
ENDBRANCH   1  11
TORSDOF 6
ENDMDL
MODEL 4
REMARK VINA RESULT:    -4.762     10.749     12.907
REMARK INTER + INTRA:          -6.895
REMARK INTER:                  -6.270
REMARK INTRA:                  -0.625
REMARK UNBOUND:                -0.463
REMARK SMILES C=C[C@@](C)(CCC=C(C)C)OC(C)=O
REMARK SMILES IDX 3 1 4 2 5 3 6 4 7 5 9 6 8 7 10 8 2 9 1 10 11 11 12 12 14 13
REMARK SMILES IDX 13 14
REMARK H PARENT
REMARK Flexibility Score: inf
ROOT
ATOM      1  C   UNL     1      59.233  -1.299   0.038  1.00  0.00     0.127 C 
ATOM      2  C   UNL     1      59.941  -1.594   1.383  1.00  0.00     0.061 C 
ENDROOT
BRANCH   1   3
ATOM      3  C   UNL     1      58.701   0.158   0.003  1.00  0.00     0.057 C 
BRANCH   3   4
ATOM      4  C   UNL     1      57.687   0.466  -1.115  1.00  0.00     0.032 C 
BRANCH   4   5
ATOM      5  C   UNL     1      57.876   1.872  -1.630  1.00  0.00    -0.028 C 
ATOM      6  C   UNL     1      58.713   3.625  -3.164  1.00  0.00     0.039 C 
ATOM      7  C   UNL     1      58.613   2.189  -2.719  1.00  0.00    -0.080 C 
ATOM      8  C   UNL     1      59.390   1.150  -3.491  1.00  0.00     0.039 C 
ENDBRANCH   4   5
ENDBRANCH   3   4
ENDBRANCH   1   3
BRANCH   1   9
ATOM      9  C   UNL     1      60.117  -1.552  -1.179  1.00  0.00     0.013 C 
ATOM     10  C   UNL     1      61.430  -1.292  -1.236  1.00  0.00     0.008 C 
ENDBRANCH   1   9
BRANCH   1  11
ATOM     11  O   UNL     1      58.077  -2.146  -0.054  1.00  0.00    -0.455 OA
BRANCH  11  12
ATOM     12  C   UNL     1      57.298  -2.589   1.026  1.00  0.00     0.303 C 
ATOM     13  O   UNL     1      57.503  -3.714   1.559  1.00  0.00    -0.253 OA
ATOM     14  C   UNL     1      56.233  -1.702   1.572  1.00  0.00     0.139 C 
ENDBRANCH  11  12
ENDBRANCH   1  11
TORSDOF 6
ENDMDL
MODEL 5
REMARK VINA RESULT:    -4.757      1.473      2.613
REMARK INTER + INTRA:          -6.888
REMARK INTER:                  -6.422
REMARK INTRA:                  -0.466
REMARK UNBOUND:                -0.463
REMARK SMILES C=C[C@@](C)(CCC=C(C)C)OC(C)=O
REMARK SMILES IDX 3 1 4 2 5 3 6 4 7 5 9 6 8 7 10 8 2 9 1 10 11 11 12 12 14 13
REMARK SMILES IDX 13 14
REMARK H PARENT
REMARK Flexibility Score: inf
ROOT
ATOM      1  C   UNL     1      49.539  -6.723  -4.491  1.00  0.00     0.127 C 
ATOM      2  C   UNL     1      50.466  -5.613  -5.043  1.00  0.00     0.061 C 
ENDROOT
BRANCH   1   3
ATOM      3  C   UNL     1      48.908  -6.292  -3.141  1.00  0.00     0.057 C 
BRANCH   3   4
ATOM      4  C   UNL     1      49.000  -7.329  -2.006  1.00  0.00     0.032 C 
BRANCH   4   5
ATOM      5  C   UNL     1      48.215  -6.869  -0.802  1.00  0.00    -0.028 C 
ATOM      6  C   UNL     1      46.353  -6.897   0.830  1.00  0.00     0.039 C 
ATOM      7  C   UNL     1      47.042  -7.414  -0.407  1.00  0.00    -0.080 C 
ATOM      8  C   UNL     1      46.361  -8.508  -1.195  1.00  0.00     0.039 C 
ENDBRANCH   4   5
ENDBRANCH   3   4
ENDBRANCH   1   3
BRANCH   1   9
ATOM      9  C   UNL     1      48.438  -7.131  -5.465  1.00  0.00     0.013 C 
ATOM     10  C   UNL     1      48.010  -6.383  -6.490  1.00  0.00     0.008 C 
ENDBRANCH   1   9
BRANCH   1  11
ATOM     11  O   UNL     1      50.344  -7.876  -4.202  1.00  0.00    -0.455 OA
BRANCH  11  12
ATOM     12  C   UNL     1      51.556  -8.207  -4.829  1.00  0.00     0.303 C 
ATOM     13  O   UNL     1      52.663  -7.951  -4.283  1.00  0.00    -0.253 OA
ATOM     14  C   UNL     1      51.531  -8.900  -6.148  1.00  0.00     0.139 C 
ENDBRANCH  11  12
ENDBRANCH   1  11
TORSDOF 6
ENDMDL
MODEL 6
REMARK VINA RESULT:    -4.651      9.646     11.536
REMARK INTER + INTRA:          -6.745
REMARK INTER:                  -6.005
REMARK INTRA:                  -0.740
REMARK UNBOUND:                -0.463
REMARK SMILES C=C[C@@](C)(CCC=C(C)C)OC(C)=O
REMARK SMILES IDX 3 1 4 2 5 3 6 4 7 5 9 6 8 7 10 8 2 9 1 10 11 11 12 12 14 13
REMARK SMILES IDX 13 14
REMARK H PARENT
REMARK Flexibility Score: inf
ROOT
ATOM      1  C   UNL     1      58.490  -0.559  -1.825  1.00  0.00     0.127 C 
ATOM      2  C   UNL     1      58.132  -2.025  -2.172  1.00  0.00     0.061 C 
ENDROOT
BRANCH   1   3
ATOM      3  C   UNL     1      57.428   0.058  -0.877  1.00  0.00     0.057 C 
BRANCH   3   4
ATOM      4  C   UNL     1      57.476  -0.433   0.582  1.00  0.00     0.032 C 
BRANCH   4   5
ATOM      5  C   UNL     1      56.333  -1.379   0.862  1.00  0.00    -0.028 C 
ATOM      6  C   UNL     1      55.279  -3.527   1.498  1.00  0.00     0.039 C 
ATOM      7  C   UNL     1      56.490  -2.676   1.212  1.00  0.00    -0.080 C 
ATOM      8  C   UNL     1      57.850  -3.327   1.286  1.00  0.00     0.039 C 
ENDBRANCH   4   5
ENDBRANCH   3   4
ENDBRANCH   1   3
BRANCH   1   9
ATOM      9  C   UNL     1      59.877  -0.404  -1.210  1.00  0.00     0.013 C 
ATOM     10  C   UNL     1      60.720  -1.416  -0.963  1.00  0.00     0.008 C 
ENDBRANCH   1   9
BRANCH   1  11
ATOM     11  O   UNL     1      58.438   0.213  -3.034  1.00  0.00    -0.455 OA
BRANCH  11  12
ATOM     12  C   UNL     1      59.213   1.350  -3.314  1.00  0.00     0.303 C 
ATOM     13  O   UNL     1      60.343   1.249  -3.863  1.00  0.00    -0.253 OA
ATOM     14  C   UNL     1      58.675   2.699  -2.985  1.00  0.00     0.139 C 
ENDBRANCH  11  12
ENDBRANCH   1  11
TORSDOF 6
ENDMDL
MODEL 7
REMARK VINA RESULT:    -4.481     11.314     13.398
REMARK INTER + INTRA:          -6.516
REMARK INTER:                  -5.972
REMARK INTRA:                  -0.544
REMARK UNBOUND:                -0.463
REMARK SMILES C=C[C@@](C)(CCC=C(C)C)OC(C)=O
REMARK SMILES IDX 3 1 4 2 5 3 6 4 7 5 9 6 8 7 10 8 2 9 1 10 11 11 12 12 14 13
REMARK SMILES IDX 13 14
REMARK H PARENT
REMARK Flexibility Score: inf
ROOT
ATOM      1  C   UNL     1      58.550  -1.428   0.475  1.00  0.00     0.127 C 
ATOM      2  C   UNL     1      59.220  -2.384  -0.543  1.00  0.00     0.061 C 
ENDROOT
BRANCH   1   3
ATOM      3  C   UNL     1      58.500   0.019  -0.079  1.00  0.00     0.057 C 
BRANCH   3   4
ATOM      4  C   UNL     1      57.838   0.177  -1.461  1.00  0.00     0.032 C 
BRANCH   4   5
ATOM      5  C   UNL     1      57.909   1.612  -1.923  1.00  0.00    -0.028 C 
ATOM      6  C   UNL     1      58.687   3.503  -3.318  1.00  0.00     0.039 C 
ATOM      7  C   UNL     1      58.716   2.051  -2.916  1.00  0.00    -0.080 C 
ATOM      8  C   UNL     1      59.692   1.138  -3.618  1.00  0.00     0.039 C 
ENDBRANCH   4   5
ENDBRANCH   3   4
ENDBRANCH   1   3
BRANCH   1   9
ATOM      9  C   UNL     1      57.149  -1.869   0.888  1.00  0.00     0.013 C 
ATOM     10  C   UNL     1      56.358  -1.200   1.736  1.00  0.00     0.008 C 
ENDBRANCH   1   9
BRANCH   1  11
ATOM     11  O   UNL     1      59.376  -1.375   1.649  1.00  0.00    -0.455 OA
BRANCH  11  12
ATOM     12  C   UNL     1      60.243  -2.389   2.088  1.00  0.00     0.303 C 
ATOM     13  O   UNL     1      61.483  -2.325   1.871  1.00  0.00    -0.253 OA
ATOM     14  C   UNL     1      59.689  -3.543   2.850  1.00  0.00     0.139 C 
ENDBRANCH  11  12
ENDBRANCH   1  11
TORSDOF 6
ENDMDL
MODEL 8
REMARK VINA RESULT:    -4.404     12.375     13.897
REMARK INTER + INTRA:          -6.411
REMARK INTER:                  -5.709
REMARK INTRA:                  -0.702
REMARK UNBOUND:                -0.463
REMARK SMILES C=C[C@@](C)(CCC=C(C)C)OC(C)=O
REMARK SMILES IDX 3 1 4 2 5 3 6 4 7 5 9 6 8 7 10 8 2 9 1 10 11 11 12 12 14 13
REMARK SMILES IDX 13 14
REMARK H PARENT
REMARK Flexibility Score: inf
ROOT
ATOM      1  C   UNL     1      60.063  -1.574  -1.089  1.00  0.00     0.127 C 
ATOM      2  C   UNL     1      59.994  -3.095  -1.371  1.00  0.00     0.061 C 
ENDROOT
BRANCH   1   3
ATOM      3  C   UNL     1      60.479  -0.796  -2.365  1.00  0.00     0.057 C 
BRANCH   3   4
ATOM      4  C   UNL     1      59.318  -0.230  -3.204  1.00  0.00     0.032 C 
BRANCH   4   5
ATOM      5  C   UNL     1      59.552   1.227  -3.520  1.00  0.00    -0.028 C 
ATOM      6  C   UNL     1      59.101   3.659  -3.438  1.00  0.00     0.039 C 
ATOM      7  C   UNL     1      58.760   2.234  -3.087  1.00  0.00    -0.080 C 
ATOM      8  C   UNL     1      57.502   1.979  -2.291  1.00  0.00     0.039 C 
ENDBRANCH   4   5
ENDBRANCH   3   4
ENDBRANCH   1   3
BRANCH   1   9
ATOM      9  C   UNL     1      58.761  -1.000  -0.540  1.00  0.00     0.013 C 
ATOM     10  C   UNL     1      58.679  -0.134   0.479  1.00  0.00     0.008 C 
ENDBRANCH   1   9
BRANCH   1  11
ATOM     11  O   UNL     1      61.105  -1.344  -0.127  1.00  0.00    -0.455 OA
BRANCH  11  12
ATOM     12  C   UNL     1      62.259  -2.127   0.033  1.00  0.00     0.303 C 
ATOM     13  O   UNL     1      63.125  -2.206  -0.880  1.00  0.00    -0.253 OA
ATOM     14  C   UNL     1      62.478  -2.851   1.317  1.00  0.00     0.139 C 
ENDBRANCH  11  12
ENDBRANCH   1  11
TORSDOF 6
ENDMDL
