MODEL 1
REMARK VINA RESULT:    -5.003      0.000      0.000
REMARK INTER + INTRA:          -6.234
REMARK INTER:                  -6.027
REMARK INTRA:                  -0.207
REMARK UNBOUND:                -0.207
REMARK SMILES C=CCc1ccc(O)c(OC)c1
REMARK SMILES IDX 9 1 7 2 6 3 5 4 4 5 12 6 10 7 11 8 8 9 3 11 2 12 1 13
REMARK H PARENT 8 10
REMARK Flexibility Score: inf
ROOT
ATOM      1  C   UNL     1       3.061 -20.234  -4.104  1.00  0.00     0.160 A 
ATOM      2  C   UNL     1       2.203 -19.911  -3.036  1.00  0.00     0.157 A 
ATOM      3  C   UNL     1       0.831 -20.163  -3.139  1.00  0.00     0.050 A 
ATOM      4  C   UNL     1       0.302 -20.733  -4.297  1.00  0.00     0.008 A 
ATOM      5  C   UNL     1       1.140 -21.051  -5.375  1.00  0.00    -0.040 A 
ATOM      6  C   UNL     1       2.520 -20.807  -5.272  1.00  0.00     0.054 A 
ENDROOT
BRANCH   1   7
ATOM      7  O   UNL     1       4.434 -19.975  -3.970  1.00  0.00    -0.493 OA
ATOM      8  C   UNL     1       5.446 -20.978  -3.931  1.00  0.00     0.278 C 
ENDBRANCH   1   7
BRANCH   2   9
ATOM      9  O   UNL     1       2.697 -19.340  -1.862  1.00  0.00    -0.504 OA
ATOM     10  H   UNL     1       2.375 -18.444  -1.520  1.00  0.00     0.293 HD
ENDBRANCH   2   9
BRANCH   5  11
ATOM     11  C   UNL     1       0.570 -21.693  -6.611  1.00  0.00     0.062 C 
BRANCH  11  12
ATOM     12  C   UNL     1       1.582 -21.703  -7.722  1.00  0.00    -0.030 C 
ATOM     13  C   UNL     1       1.443 -20.936  -8.808  1.00  0.00     0.004 C 
ENDBRANCH  11  12
ENDBRANCH   5  11
TORSDOF 4
ENDMDL
MODEL 2
REMARK VINA RESULT:    -4.824      3.030      4.386
REMARK INTER + INTRA:          -6.019
REMARK INTER:                  -5.809
REMARK INTRA:                  -0.210
REMARK UNBOUND:                -0.207
REMARK SMILES C=CCc1ccc(O)c(OC)c1
REMARK SMILES IDX 9 1 7 2 6 3 5 4 4 5 12 6 10 7 11 8 8 9 3 11 2 12 1 13
REMARK H PARENT 8 10
REMARK Flexibility Score: inf
ROOT
ATOM      1  C   UNL     1       1.084 -20.948  -5.676  1.00  0.00     0.160 A 
ATOM      2  C   UNL     1       0.776 -21.756  -6.788  1.00  0.00     0.157 A 
ATOM      3  C   UNL     1       1.552 -21.675  -7.948  1.00  0.00     0.050 A 
ATOM      4  C   UNL     1       2.633 -20.795  -8.017  1.00  0.00     0.008 A 
ATOM      5  C   UNL     1       2.947 -19.975  -6.923  1.00  0.00    -0.040 A 
ATOM      6  C   UNL     1       2.175 -20.060  -5.753  1.00  0.00     0.054 A 
ENDROOT
BRANCH   1   7
ATOM      7  O   UNL     1       0.291 -21.055  -4.523  1.00  0.00    -0.493 OA
ATOM      8  C   UNL     1       0.463 -20.265  -3.349  1.00  0.00     0.278 C 
ENDBRANCH   1   7
BRANCH   2   9
ATOM      9  O   UNL     1      -0.296 -22.647  -6.755  1.00  0.00    -0.504 OA
ATOM     10  H   UNL     1      -0.216 -23.574  -6.357  1.00  0.00     0.293 HD
ENDBRANCH   2   9
BRANCH   5  11
ATOM     11  C   UNL     1       4.131 -19.048  -6.990  1.00  0.00     0.062 C 
BRANCH  11  12
ATOM     12  C   UNL     1       5.198 -19.612  -7.886  1.00  0.00    -0.030 C 
ATOM     13  C   UNL     1       6.077 -18.825  -8.514  1.00  0.00     0.004 C 
ENDBRANCH  11  12
ENDBRANCH   5  11
TORSDOF 4
ENDMDL
MODEL 3
REMARK VINA RESULT:    -4.730      2.508      4.358
REMARK INTER + INTRA:          -5.905
REMARK INTER:                  -5.658
REMARK INTRA:                  -0.247
REMARK UNBOUND:                -0.207
REMARK SMILES C=CCc1ccc(O)c(OC)c1
REMARK SMILES IDX 9 1 7 2 6 3 5 4 4 5 12 6 10 7 11 8 8 9 3 11 2 12 1 13
REMARK H PARENT 8 10
REMARK Flexibility Score: inf
ROOT
ATOM      1  C   UNL     1       2.131 -20.433  -6.802  1.00  0.00     0.160 A 
ATOM      2  C   UNL     1       1.386 -21.524  -7.289  1.00  0.00     0.157 A 
ATOM      3  C   UNL     1       0.357 -22.071  -6.517  1.00  0.00     0.050 A 
ATOM      4  C   UNL     1       0.061 -21.545  -5.260  1.00  0.00     0.008 A 
ATOM      5  C   UNL     1       0.799 -20.465  -4.753  1.00  0.00    -0.040 A 
ATOM      6  C   UNL     1       1.827 -19.908  -5.530  1.00  0.00     0.054 A 
ENDROOT
BRANCH   1   7
ATOM      7  O   UNL     1       3.154 -19.901  -7.602  1.00  0.00    -0.493 OA
ATOM      8  C   UNL     1       4.324 -19.263  -7.098  1.00  0.00     0.278 C 
ENDBRANCH   1   7
BRANCH   2   9
ATOM      9  O   UNL     1       1.654 -22.076  -8.543  1.00  0.00    -0.504 OA
ATOM     10  H   UNL     1       2.597 -22.262  -8.861  1.00  0.00     0.293 HD
ENDBRANCH   2   9
BRANCH   5  11
ATOM     11  C   UNL     1       0.457 -19.881  -3.409  1.00  0.00     0.062 C 
BRANCH  11  12
ATOM     12  C   UNL     1       0.481 -20.942  -2.345  1.00  0.00    -0.030 C 
ATOM     13  C   UNL     1       1.540 -21.114  -1.547  1.00  0.00     0.004 C 
ENDBRANCH  11  12
ENDBRANCH   5  11
TORSDOF 4
ENDMDL
MODEL 4
REMARK VINA RESULT:    -4.696      1.391      3.051
REMARK INTER + INTRA:          -5.864
REMARK INTER:                  -5.657
REMARK INTRA:                  -0.207
REMARK UNBOUND:                -0.207
REMARK SMILES C=CCc1ccc(O)c(OC)c1
REMARK SMILES IDX 9 1 7 2 6 3 5 4 4 5 12 6 10 7 11 8 8 9 3 11 2 12 1 13
REMARK H PARENT 8 10
REMARK Flexibility Score: inf
ROOT
ATOM      1  C   UNL     1       3.680 -20.597  -4.206  1.00  0.00     0.160 A 
ATOM      2  C   UNL     1       4.911 -21.179  -4.565  1.00  0.00     0.157 A 
ATOM      3  C   UNL     1       5.159 -21.529  -5.896  1.00  0.00     0.050 A 
ATOM      4  C   UNL     1       4.193 -21.307  -6.877  1.00  0.00     0.008 A 
ATOM      5  C   UNL     1       2.957 -20.738  -6.537  1.00  0.00    -0.040 A 
ATOM      6  C   UNL     1       2.707 -20.377  -5.203  1.00  0.00     0.054 A 
ENDROOT
BRANCH   1   7
ATOM      7  O   UNL     1       3.460 -20.251  -2.864  1.00  0.00    -0.493 OA
ATOM      8  C   UNL     1       2.178 -20.183  -2.247  1.00  0.00     0.278 C 
ENDBRANCH   1   7
BRANCH   2   9
ATOM      9  O   UNL     1       5.900 -21.415  -3.610  1.00  0.00    -0.504 OA
ATOM     10  H   UNL     1       5.749 -22.021  -2.813  1.00  0.00     0.293 HD
ENDBRANCH   2   9
BRANCH   5  11
ATOM     11  C   UNL     1       1.929 -20.473  -7.604  1.00  0.00     0.062 C 
BRANCH  11  12
ATOM     12  C   UNL     1       1.234 -21.744  -8.002  1.00  0.00    -0.030 C 
ATOM     13  C   UNL     1       0.596 -22.507  -7.108  1.00  0.00     0.004 C 
ENDBRANCH  11  12
ENDBRANCH   5  11
TORSDOF 4
ENDMDL
MODEL 5
REMARK VINA RESULT:    -4.688      3.035      4.861
REMARK INTER + INTRA:          -5.855
REMARK INTER:                  -5.709
REMARK INTRA:                  -0.146
REMARK UNBOUND:                -0.207
REMARK SMILES C=CCc1ccc(O)c(OC)c1
REMARK SMILES IDX 9 1 7 2 6 3 5 4 4 5 12 6 10 7 11 8 8 9 3 11 2 12 1 13
REMARK H PARENT 8 10
REMARK Flexibility Score: inf
ROOT
ATOM      1  C   UNL     1       0.888 -21.600  -6.620  1.00  0.00     0.160 A 
ATOM      2  C   UNL     1       1.661 -20.703  -7.381  1.00  0.00     0.157 A 
ATOM      3  C   UNL     1       2.045 -19.473  -6.837  1.00  0.00     0.050 A 
ATOM      4  C   UNL     1       1.664 -19.123  -5.542  1.00  0.00     0.008 A 
ATOM      5  C   UNL     1       0.883 -19.999  -4.773  1.00  0.00    -0.040 A 
ATOM      6  C   UNL     1       0.504 -21.239  -5.312  1.00  0.00     0.054 A 
ENDROOT
BRANCH   1   7
ATOM      7  O   UNL     1       0.522 -22.830  -7.189  1.00  0.00    -0.493 OA
ATOM      8  C   UNL     1       0.071 -23.960  -6.449  1.00  0.00     0.278 C 
ENDBRANCH   1   7
BRANCH   2   9
ATOM      9  O   UNL     1       2.061 -21.019  -8.679  1.00  0.00    -0.504 OA
ATOM     10  H   UNL     1       1.737 -20.502  -9.486  1.00  0.00     0.293 HD
ENDBRANCH   2   9
BRANCH   5  11
ATOM     11  C   UNL     1       0.500 -19.630  -3.365  1.00  0.00     0.062 C 
BRANCH  11  12
ATOM     12  C   UNL     1       1.182 -20.531  -2.374  1.00  0.00    -0.030 C 
ATOM     13  C   UNL     1       0.530 -21.524  -1.761  1.00  0.00     0.004 C 
ENDBRANCH  11  12
ENDBRANCH   5  11
TORSDOF 4
ENDMDL
MODEL 6
REMARK VINA RESULT:    -4.673     11.321     12.862
REMARK INTER + INTRA:          -5.836
REMARK INTER:                  -5.643
REMARK INTRA:                  -0.193
REMARK UNBOUND:                -0.207
REMARK SMILES C=CCc1ccc(O)c(OC)c1
REMARK SMILES IDX 9 1 7 2 6 3 5 4 4 5 12 6 10 7 11 8 8 9 3 11 2 12 1 13
REMARK H PARENT 8 10
REMARK Flexibility Score: inf
ROOT
ATOM      1  C   UNL     1      -7.758 -29.127  -3.042  1.00  0.00     0.160 A 
ATOM      2  C   UNL     1      -6.542 -29.238  -3.742  1.00  0.00     0.157 A 
ATOM      3  C   UNL     1      -5.631 -28.177  -3.737  1.00  0.00     0.050 A 
ATOM      4  C   UNL     1      -5.918 -27.002  -3.042  1.00  0.00     0.008 A 
ATOM      5  C   UNL     1      -7.130 -26.869  -2.348  1.00  0.00    -0.040 A 
ATOM      6  C   UNL     1      -8.043 -27.936  -2.343  1.00  0.00     0.054 A 
ENDROOT
BRANCH   1   7
ATOM      7  O   UNL     1      -8.651 -30.210  -3.060  1.00  0.00    -0.493 OA
ATOM      8  C   UNL     1      -9.485 -30.588  -1.969  1.00  0.00     0.278 C 
ENDBRANCH   1   7
BRANCH   2   9
ATOM      9  O   UNL     1      -6.221 -30.398  -4.448  1.00  0.00    -0.504 OA
ATOM     10  H   UNL     1      -5.941 -30.379  -5.420  1.00  0.00     0.293 HD
ENDBRANCH   2   9
BRANCH   5  11
ATOM     11  C   UNL     1      -7.423 -25.612  -1.575  1.00  0.00     0.062 C 
BRANCH  11  12
ATOM     12  C   UNL     1      -7.557 -24.436  -2.501  1.00  0.00    -0.030 C 
ATOM     13  C   UNL     1      -7.388 -23.180  -2.072  1.00  0.00     0.004 C 
ENDBRANCH  11  12
ENDBRANCH   5  11
TORSDOF 4
ENDMDL
MODEL 7
REMARK VINA RESULT:    -4.552      2.453      2.961
REMARK INTER + INTRA:          -5.691
REMARK INTER:                  -5.469
REMARK INTRA:                  -0.222
REMARK UNBOUND:                -0.207
REMARK SMILES C=CCc1ccc(O)c(OC)c1
REMARK SMILES IDX 9 1 7 2 6 3 5 4 4 5 12 6 10 7 11 8 8 9 3 11 2 12 1 13
REMARK H PARENT 8 10
REMARK Flexibility Score: inf
ROOT
ATOM      1  C   UNL     1       1.891 -18.120  -5.231  1.00  0.00     0.160 A 
ATOM      2  C   UNL     1       1.240 -18.288  -3.994  1.00  0.00     0.157 A 
ATOM      3  C   UNL     1       0.669 -19.521  -3.665  1.00  0.00     0.050 A 
ATOM      4  C   UNL     1       0.737 -20.592  -4.556  1.00  0.00     0.008 A 
ATOM      5  C   UNL     1       1.372 -20.440  -5.798  1.00  0.00    -0.040 A 
ATOM      6  C   UNL     1       1.954 -19.206  -6.128  1.00  0.00     0.054 A 
ENDROOT
BRANCH   1   7
ATOM      7  O   UNL     1       2.460 -16.873  -5.532  1.00  0.00    -0.493 OA
ATOM      8  C   UNL     1       1.803 -15.841  -6.263  1.00  0.00     0.278 C 
ENDBRANCH   1   7
BRANCH   2   9
ATOM      9  O   UNL     1       1.153 -17.240  -3.078  1.00  0.00    -0.504 OA
ATOM     10  H   UNL     1       1.274 -17.380  -2.083  1.00  0.00     0.293 HD
ENDBRANCH   2   9
BRANCH   5  11
ATOM     11  C   UNL     1       1.469 -21.606  -6.744  1.00  0.00     0.062 C 
BRANCH  11  12
ATOM     12  C   UNL     1       0.190 -22.396  -6.751  1.00  0.00    -0.030 C 
ATOM     13  C   UNL     1       0.164 -23.694  -6.434  1.00  0.00     0.004 C 
ENDBRANCH  11  12
ENDBRANCH   5  11
TORSDOF 4
ENDMDL
MODEL 8
REMARK VINA RESULT:    -4.542     11.213     12.867
REMARK INTER + INTRA:          -5.679
REMARK INTER:                  -5.493
REMARK INTRA:                  -0.186
REMARK UNBOUND:                -0.207
REMARK SMILES C=CCc1ccc(O)c(OC)c1
REMARK SMILES IDX 9 1 7 2 6 3 5 4 4 5 12 6 10 7 11 8 8 9 3 11 2 12 1 13
REMARK H PARENT 8 10
REMARK Flexibility Score: inf
ROOT
ATOM      1  C   UNL     1       4.118 -25.731   7.358  1.00  0.00     0.160 A 
ATOM      2  C   UNL     1       5.151 -25.666   8.312  1.00  0.00     0.157 A 
ATOM      3  C   UNL     1       6.087 -24.628   8.260  1.00  0.00     0.050 A 
ATOM      4  C   UNL     1       6.008 -23.653   7.266  1.00  0.00     0.008 A 
ATOM      5  C   UNL     1       4.992 -23.709   6.300  1.00  0.00    -0.040 A 
ATOM      6  C   UNL     1       4.045 -24.744   6.355  1.00  0.00     0.054 A 
ENDROOT
BRANCH   1   7
ATOM      7  O   UNL     1       3.189 -26.781   7.438  1.00  0.00    -0.493 OA
ATOM      8  C   UNL     1       1.831 -26.692   7.015  1.00  0.00     0.278 C 
ENDBRANCH   1   7
BRANCH   2   9
ATOM      9  O   UNL     1       5.261 -26.623   9.321  1.00  0.00    -0.504 OA
ATOM     10  H   UNL     1       5.529 -26.382  10.267  1.00  0.00     0.293 HD
ENDBRANCH   2   9
BRANCH   5  11
ATOM     11  C   UNL     1       4.892 -22.639   5.247  1.00  0.00     0.062 C 
BRANCH  11  12
ATOM     12  C   UNL     1       3.817 -22.970   4.250  1.00  0.00    -0.030 C 
ATOM     13  C   UNL     1       4.105 -23.273   2.980  1.00  0.00     0.004 C 
ENDBRANCH  11  12
ENDBRANCH   5  11
TORSDOF 4
ENDMDL
MODEL 9
REMARK VINA RESULT:    -4.520      9.467     11.524
REMARK INTER + INTRA:          -5.653
REMARK INTER:                  -5.421
REMARK INTRA:                  -0.232
REMARK UNBOUND:                -0.207
REMARK SMILES C=CCc1ccc(O)c(OC)c1
REMARK SMILES IDX 9 1 7 2 6 3 5 4 4 5 12 6 10 7 11 8 8 9 3 11 2 12 1 13
REMARK H PARENT 8 10
REMARK Flexibility Score: inf
ROOT
ATOM      1  C   UNL     1       5.143 -24.621   3.171  1.00  0.00     0.160 A 
ATOM      2  C   UNL     1       4.318 -23.482   3.252  1.00  0.00     0.157 A 
ATOM      3  C   UNL     1       4.057 -22.893   4.493  1.00  0.00     0.050 A 
ATOM      4  C   UNL     1       4.607 -23.427   5.658  1.00  0.00     0.008 A 
ATOM      5  C   UNL     1       5.421 -24.567   5.599  1.00  0.00    -0.040 A 
ATOM      6  C   UNL     1       5.693 -25.156   4.353  1.00  0.00     0.054 A 
ENDROOT
BRANCH   1   7
ATOM      7  O   UNL     1       5.393 -25.187   1.912  1.00  0.00    -0.493 OA
ATOM      8  C   UNL     1       6.541 -24.912   1.115  1.00  0.00     0.278 C 
ENDBRANCH   1   7
BRANCH   2   9
ATOM      9  O   UNL     1       3.752 -22.921   2.107  1.00  0.00    -0.504 OA
ATOM     10  H   UNL     1       4.307 -22.448   1.406  1.00  0.00     0.293 HD
ENDBRANCH   2   9
BRANCH   5  11
ATOM     11  C   UNL     1       6.037 -25.122   6.855  1.00  0.00     0.062 C 
BRANCH  11  12
ATOM     12  C   UNL     1       5.506 -24.411   8.068  1.00  0.00    -0.030 C 
ATOM     13  C   UNL     1       5.312 -25.047   9.228  1.00  0.00     0.004 C 
ENDBRANCH  11  12
ENDBRANCH   5  11
TORSDOF 4
ENDMDL
