MODEL 1
REMARK VINA RESULT:    -3.128      0.000      0.000
REMARK INTER + INTRA:          -8.315
REMARK INTER:                  -5.870
REMARK INTRA:                  -2.445
REMARK UNBOUND:                -2.445
REMARK SMILES O=C([O-])CCCCCCCCCCCCCCC(=O)[O-]
REMARK SMILES IDX 10 1 9 2 8 3 7 4 6 5 5 6 4 7 2 8 1 9 3 10 11 11 12 12 13 13
REMARK SMILES IDX 14 14 15 15 16 16 17 17 18 18 19 19 20 20
REMARK H PARENT
REMARK Flexibility Score: inf
ROOT
ATOM      1  C   UNL     1      53.129  32.999  86.259  1.00  0.00     0.000 C 
ENDROOT
BRANCH   1   2
ATOM      2  C   UNL     1      53.468  34.007  87.367  1.00  0.00     0.000 C 
BRANCH   2   3
ATOM      3  C   UNL     1      52.403  35.112  87.445  1.00  0.00     0.000 C 
BRANCH   3   4
ATOM      4  C   UNL     1      51.114  34.642  88.135  1.00  0.00     0.000 C 
BRANCH   4   5
ATOM      5  C   UNL     1      49.884  35.468  87.717  1.00  0.00     0.000 C 
BRANCH   5   6
ATOM      6  C   UNL     1      48.643  34.596  87.472  1.00  0.00     0.006 C 
BRANCH   6   7
ATOM      7  C   UNL     1      48.857  33.568  86.354  1.00  0.00     0.053 C 
BRANCH   7   8
ATOM      8  C   UNL     1      49.119  34.258  85.053  1.00  0.00     0.041 C 
ATOM      9  O   UNL     1      48.167  34.756  84.397  1.00  0.00    -0.550 OA
ATOM     10  O   UNL     1      50.409  34.308  84.540  1.00  0.00    -0.550 OA
ENDBRANCH   7   8
ENDBRANCH   6   7
ENDBRANCH   5   6
ENDBRANCH   4   5
ENDBRANCH   3   4
ENDBRANCH   2   3
ENDBRANCH   1   2
BRANCH   1  11
ATOM     11  C   UNL     1      52.890  31.576  86.794  1.00  0.00     0.000 C 
BRANCH  11  12
ATOM     12  C   UNL     1      51.425  31.097  86.750  1.00  0.00     0.000 C 
BRANCH  12  13
ATOM     13  C   UNL     1      50.945  30.340  88.001  1.00  0.00     0.000 C 
BRANCH  13  14
ATOM     14  C   UNL     1      50.356  31.270  89.076  1.00  0.00     0.000 C 
BRANCH  14  15
ATOM     15  C   UNL     1      51.131  31.195  90.409  1.00  0.00     0.000 C 
BRANCH  15  16
ATOM     16  C   UNL     1      52.082  32.381  90.645  1.00  0.00     0.006 C 
BRANCH  16  17
ATOM     17  C   UNL     1      53.555  32.024  90.415  1.00  0.00     0.053 C 
BRANCH  17  18
ATOM     18  C   UNL     1      54.446  33.068  91.008  1.00  0.00     0.041 C 
ATOM     19  O   UNL     1      54.070  34.270  91.056  1.00  0.00    -0.550 OA
ATOM     20  O   UNL     1      55.671  32.708  91.554  1.00  0.00    -0.550 OA
ENDBRANCH  17  18
ENDBRANCH  16  17
ENDBRANCH  15  16
ENDBRANCH  14  15
ENDBRANCH  13  14
ENDBRANCH  12  13
ENDBRANCH  11  12
ENDBRANCH   1  11
TORSDOF 15
ENDMDL
MODEL 2
REMARK VINA RESULT:    -3.112      1.558      3.009
REMARK INTER + INTRA:          -8.285
REMARK INTER:                  -5.763
REMARK INTRA:                  -2.523
REMARK UNBOUND:                -2.445
REMARK SMILES O=C([O-])CCCCCCCCCCCCCCC(=O)[O-]
REMARK SMILES IDX 10 1 9 2 8 3 7 4 6 5 5 6 4 7 2 8 1 9 3 10 11 11 12 12 13 13
REMARK SMILES IDX 14 14 15 15 16 16 17 17 18 18 19 19 20 20
REMARK H PARENT
REMARK Flexibility Score: inf
ROOT
ATOM      1  C   UNL     1      52.601  35.017  87.110  1.00  0.00     0.000 C 
ENDROOT
BRANCH   1   2
ATOM      2  C   UNL     1      53.349  33.679  87.026  1.00  0.00     0.000 C 
BRANCH   2   3
ATOM      3  C   UNL     1      53.120  33.009  85.664  1.00  0.00     0.000 C 
BRANCH   3   4
ATOM      4  C   UNL     1      52.392  33.926  84.670  1.00  0.00     0.000 C 
BRANCH   4   5
ATOM      5  C   UNL     1      51.045  33.344  84.204  1.00  0.00     0.000 C 
BRANCH   5   6
ATOM      6  C   UNL     1      50.199  34.363  83.425  1.00  0.00     0.006 C 
BRANCH   6   7
ATOM      7  C   UNL     1      48.757  34.448  83.939  1.00  0.00     0.053 C 
BRANCH   7   8
ATOM      8  C   UNL     1      47.974  33.251  83.500  1.00  0.00     0.041 C 
ATOM      9  O   UNL     1      47.600  33.144  82.302  1.00  0.00    -0.550 OA
ATOM     10  O   UNL     1      47.614  32.278  84.423  1.00  0.00    -0.550 OA
ENDBRANCH   7   8
ENDBRANCH   6   7
ENDBRANCH   5   6
ENDBRANCH   4   5
ENDBRANCH   3   4
ENDBRANCH   2   3
ENDBRANCH   1   2
BRANCH   1  11
ATOM     11  C   UNL     1      51.414  34.982  88.088  1.00  0.00     0.000 C 
BRANCH  11  12
ATOM     12  C   UNL     1      50.025  35.142  87.438  1.00  0.00     0.000 C 
BRANCH  12  13
ATOM     13  C   UNL     1      49.061  33.960  87.647  1.00  0.00     0.000 C 
BRANCH  13  14
ATOM     14  C   UNL     1      49.757  32.592  87.528  1.00  0.00     0.000 C 
BRANCH  14  15
ATOM     15  C   UNL     1      49.677  31.775  88.835  1.00  0.00     0.000 C 
BRANCH  15  16
ATOM     16  C   UNL     1      51.046  31.317  89.368  1.00  0.00     0.006 C 
BRANCH  16  17
ATOM     17  C   UNL     1      51.559  32.182  90.525  1.00  0.00     0.053 C 
BRANCH  17  18
ATOM     18  C   UNL     1      53.041  32.356  90.431  1.00  0.00     0.041 C 
ATOM     19  O   UNL     1      53.756  31.451  89.925  1.00  0.00    -0.550 OA
ATOM     20  O   UNL     1      53.630  33.540  90.859  1.00  0.00    -0.550 OA
ENDBRANCH  17  18
ENDBRANCH  16  17
ENDBRANCH  15  16
ENDBRANCH  14  15
ENDBRANCH  13  14
ENDBRANCH  12  13
ENDBRANCH  11  12
ENDBRANCH   1  11
TORSDOF 15
ENDMDL
MODEL 3
REMARK VINA RESULT:    -3.110      4.502      6.498
REMARK INTER + INTRA:          -8.281
REMARK INTER:                  -7.161
REMARK INTRA:                  -1.120
REMARK UNBOUND:                -2.445
REMARK SMILES O=C([O-])CCCCCCCCCCCCCCC(=O)[O-]
REMARK SMILES IDX 10 1 9 2 8 3 7 4 6 5 5 6 4 7 2 8 1 9 3 10 11 11 12 12 13 13
REMARK SMILES IDX 14 14 15 15 16 16 17 17 18 18 19 19 20 20
REMARK H PARENT
REMARK Flexibility Score: inf
ROOT
ATOM      1  C   UNL     1      48.493  33.762  87.031  1.00  0.00     0.000 C 
ENDROOT
BRANCH   1   2
ATOM      2  C   UNL     1      48.890  35.032  87.797  1.00  0.00     0.000 C 
BRANCH   2   3
ATOM      3  C   UNL     1      50.405  35.267  87.717  1.00  0.00     0.000 C 
BRANCH   3   4
ATOM      4  C   UNL     1      51.082  34.397  86.648  1.00  0.00     0.000 C 
BRANCH   4   5
ATOM      5  C   UNL     1      52.584  34.702  86.500  1.00  0.00     0.000 C 
BRANCH   5   6
ATOM      6  C   UNL     1      53.459  33.802  87.387  1.00  0.00     0.006 C 
BRANCH   6   7
ATOM      7  C   UNL     1      53.690  34.396  88.782  1.00  0.00     0.053 C 
BRANCH   7   8
ATOM      8  C   UNL     1      53.393  33.379  89.838  1.00  0.00     0.041 C 
ATOM      9  O   UNL     1      52.280  32.789  89.854  1.00  0.00    -0.550 OA
ATOM     10  O   UNL     1      54.325  33.118  90.834  1.00  0.00    -0.550 OA
ENDBRANCH   7   8
ENDBRANCH   6   7
ENDBRANCH   5   6
ENDBRANCH   4   5
ENDBRANCH   3   4
ENDBRANCH   2   3
ENDBRANCH   1   2
BRANCH   1  11
ATOM     11  C   UNL     1      47.984  32.639  87.952  1.00  0.00     0.000 C 
BRANCH  11  12
ATOM     12  C   UNL     1      49.073  31.686  88.486  1.00  0.00     0.000 C 
BRANCH  12  13
ATOM     13  C   UNL     1      48.886  31.228  89.944  1.00  0.00     0.000 C 
BRANCH  13  14
ATOM     14  C   UNL     1      47.412  31.221  90.386  1.00  0.00     0.000 C 
BRANCH  14  15
ATOM     15  C   UNL     1      46.965  29.844  90.922  1.00  0.00     0.000 C 
BRANCH  15  16
ATOM     16  C   UNL     1      45.568  29.849  91.565  1.00  0.00     0.006 C 
BRANCH  16  17
ATOM     17  C   UNL     1      44.989  31.259  91.730  1.00  0.00     0.053 C 
BRANCH  17  18
ATOM     18  C   UNL     1      44.153  31.341  92.967  1.00  0.00     0.041 C 
ATOM     19  O   UNL     1      44.031  32.435  93.580  1.00  0.00    -0.550 OA
ATOM     20  O   UNL     1      43.468  30.219  93.418  1.00  0.00    -0.550 OA
ENDBRANCH  17  18
ENDBRANCH  16  17
ENDBRANCH  15  16
ENDBRANCH  14  15
ENDBRANCH  13  14
ENDBRANCH  12  13
ENDBRANCH  11  12
ENDBRANCH   1  11
TORSDOF 15
ENDMDL
MODEL 4
REMARK VINA RESULT:    -3.095      3.457      4.648
REMARK INTER + INTRA:          -8.255
REMARK INTER:                  -6.349
REMARK INTRA:                  -1.906
REMARK UNBOUND:                -2.445
REMARK SMILES O=C([O-])CCCCCCCCCCCCCCC(=O)[O-]
REMARK SMILES IDX 10 1 9 2 8 3 7 4 6 5 5 6 4 7 2 8 1 9 3 10 11 11 12 12 13 13
REMARK SMILES IDX 14 14 15 15 16 16 17 17 18 18 19 19 20 20
REMARK H PARENT
REMARK Flexibility Score: inf
ROOT
ATOM      1  C   UNL     1      50.479  34.626  86.694  1.00  0.00     0.000 C 
ENDROOT
BRANCH   1   2
ATOM      2  C   UNL     1      49.065  35.015  87.147  1.00  0.00     0.000 C 
BRANCH   2   3
ATOM      3  C   UNL     1      48.332  33.806  87.748  1.00  0.00     0.000 C 
BRANCH   3   4
ATOM      4  C   UNL     1      48.317  32.595  86.803  1.00  0.00     0.000 C 
BRANCH   4   5
ATOM      5  C   UNL     1      47.563  31.391  87.395  1.00  0.00     0.000 C 
BRANCH   5   6
ATOM      6  C   UNL     1      47.102  31.635  88.840  1.00  0.00     0.006 C 
BRANCH   6   7
ATOM      7  C   UNL     1      45.804  30.894  89.178  1.00  0.00     0.053 C 
BRANCH   7   8
ATOM      8  C   UNL     1      45.332  31.263  90.549  1.00  0.00     0.041 C 
ATOM      9  O   UNL     1      46.165  31.470  91.471  1.00  0.00    -0.550 OA
ATOM     10  O   UNL     1      43.972  31.332  90.822  1.00  0.00    -0.550 OA
ENDBRANCH   7   8
ENDBRANCH   6   7
ENDBRANCH   5   6
ENDBRANCH   4   5
ENDBRANCH   3   4
ENDBRANCH   2   3
ENDBRANCH   1   2
BRANCH   1  11
ATOM     11  C   UNL     1      51.551  34.907  87.761  1.00  0.00     0.000 C 
BRANCH  11  12
ATOM     12  C   UNL     1      52.942  34.310  87.466  1.00  0.00     0.000 C 
BRANCH  12  13
ATOM     13  C   UNL     1      52.944  32.837  87.021  1.00  0.00     0.000 C 
BRANCH  13  14
ATOM     14  C   UNL     1      52.844  31.854  88.201  1.00  0.00     0.000 C 
BRANCH  14  15
ATOM     15  C   UNL     1      51.416  31.297  88.384  1.00  0.00     0.000 C 
BRANCH  15  16
ATOM     16  C   UNL     1      50.691  31.838  89.629  1.00  0.00     0.006 C 
BRANCH  16  17
ATOM     17  C   UNL     1      51.027  31.056  90.905  1.00  0.00     0.053 C 
BRANCH  17  18
ATOM     18  C   UNL     1      51.574  31.973  91.952  1.00  0.00     0.041 C 
ATOM     19  O   UNL     1      52.638  32.614  91.741  1.00  0.00    -0.550 OA
ATOM     20  O   UNL     1      50.883  32.159  93.142  1.00  0.00    -0.550 OA
ENDBRANCH  17  18
ENDBRANCH  16  17
ENDBRANCH  15  16
ENDBRANCH  14  15
ENDBRANCH  13  14
ENDBRANCH  12  13
ENDBRANCH  11  12
ENDBRANCH   1  11
TORSDOF 15
ENDMDL
MODEL 5
REMARK VINA RESULT:    -3.081      4.089      6.637
REMARK INTER + INTRA:          -8.228
REMARK INTER:                  -6.485
REMARK INTRA:                  -1.744
REMARK UNBOUND:                -2.445
REMARK SMILES O=C([O-])CCCCCCCCCCCCCCC(=O)[O-]
REMARK SMILES IDX 10 1 9 2 8 3 7 4 6 5 5 6 4 7 2 8 1 9 3 10 11 11 12 12 13 13
REMARK SMILES IDX 14 14 15 15 16 16 17 17 18 18 19 19 20 20
REMARK H PARENT
REMARK Flexibility Score: inf
ROOT
ATOM      1  C   UNL     1      48.234  32.223  87.094  1.00  0.00     0.000 C 
ENDROOT
BRANCH   1   2
ATOM      2  C   UNL     1      49.145  31.108  87.627  1.00  0.00     0.000 C 
BRANCH   2   3
ATOM      3  C   UNL     1      49.238  31.164  89.159  1.00  0.00     0.000 C 
BRANCH   3   4
ATOM      4  C   UNL     1      48.225  30.238  89.847  1.00  0.00     0.000 C 
BRANCH   4   5
ATOM      5  C   UNL     1      47.406  30.958  90.933  1.00  0.00     0.000 C 
BRANCH   5   6
ATOM      6  C   UNL     1      46.116  31.585  90.383  1.00  0.00     0.006 C 
BRANCH   6   7
ATOM      7  C   UNL     1      44.914  30.638  90.480  1.00  0.00     0.053 C 
BRANCH   7   8
ATOM      8  C   UNL     1      44.230  30.796  91.802  1.00  0.00     0.041 C 
ATOM      9  O   UNL     1      43.342  29.977  92.157  1.00  0.00    -0.550 OA
ATOM     10  O   UNL     1      44.539  31.875  92.620  1.00  0.00    -0.550 OA
ENDBRANCH   7   8
ENDBRANCH   6   7
ENDBRANCH   5   6
ENDBRANCH   4   5
ENDBRANCH   3   4
ENDBRANCH   2   3
ENDBRANCH   1   2
BRANCH   1  11
ATOM     11  C   UNL     1      48.237  33.479  87.984  1.00  0.00     0.000 C 
BRANCH  11  12
ATOM     12  C   UNL     1      48.630  34.788  87.270  1.00  0.00     0.000 C 
BRANCH  12  13
ATOM     13  C   UNL     1      49.913  35.459  87.790  1.00  0.00     0.000 C 
BRANCH  13  14
ATOM     14  C   UNL     1      51.080  34.469  87.962  1.00  0.00     0.000 C 
BRANCH  14  15
ATOM     15  C   UNL     1      52.380  34.972  87.299  1.00  0.00     0.000 C 
BRANCH  15  16
ATOM     16  C   UNL     1      52.835  34.125  86.097  1.00  0.00     0.006 C 
BRANCH  16  17
ATOM     17  C   UNL     1      51.787  33.096  85.659  1.00  0.00     0.053 C 
BRANCH  17  18
ATOM     18  C   UNL     1      51.204  33.474  84.335  1.00  0.00     0.041 C 
ATOM     19  O   UNL     1      51.612  32.919  83.280  1.00  0.00    -0.550 OA
ATOM     20  O   UNL     1      50.175  34.405  84.269  1.00  0.00    -0.550 OA
ENDBRANCH  17  18
ENDBRANCH  16  17
ENDBRANCH  15  16
ENDBRANCH  14  15
ENDBRANCH  13  14
ENDBRANCH  12  13
ENDBRANCH  11  12
ENDBRANCH   1  11
TORSDOF 15
ENDMDL
MODEL 6
REMARK VINA RESULT:    -3.074      2.169      5.836
REMARK INTER + INTRA:          -8.215
REMARK INTER:                  -5.975
REMARK INTRA:                  -2.240
REMARK UNBOUND:                -2.445
REMARK SMILES O=C([O-])CCCCCCCCCCCCCCC(=O)[O-]
REMARK SMILES IDX 10 1 9 2 8 3 7 4 6 5 5 6 4 7 2 8 1 9 3 10 11 11 12 12 13 13
REMARK SMILES IDX 14 14 15 15 16 16 17 17 18 18 19 19 20 20
REMARK H PARENT
REMARK Flexibility Score: inf
ROOT
ATOM      1  C   UNL     1      48.584  29.932  90.834  1.00  0.00     0.000 C 
ENDROOT
BRANCH   1   2
ATOM      2  C   UNL     1      49.693  30.759  91.502  1.00  0.00     0.000 C 
BRANCH   2   3
ATOM      3  C   UNL     1      50.445  31.604  90.464  1.00  0.00     0.000 C 
BRANCH   3   4
ATOM      4  C   UNL     1      51.100  30.749  89.368  1.00  0.00     0.000 C 
BRANCH   4   5
ATOM      5  C   UNL     1      51.960  31.582  88.401  1.00  0.00     0.000 C 
BRANCH   5   6
ATOM      6  C   UNL     1      52.411  32.917  89.012  1.00  0.00     0.006 C 
BRANCH   6   7
ATOM      7  C   UNL     1      53.372  33.688  88.100  1.00  0.00     0.053 C 
BRANCH   7   8
ATOM      8  C   UNL     1      52.658  34.814  87.421  1.00  0.00     0.041 C 
ATOM      9  O   UNL     1      51.948  35.609  88.091  1.00  0.00    -0.550 OA
ATOM     10  O   UNL     1      52.737  34.957  86.041  1.00  0.00    -0.550 OA
ENDBRANCH   7   8
ENDBRANCH   6   7
ENDBRANCH   5   6
ENDBRANCH   4   5
ENDBRANCH   3   4
ENDBRANCH   2   3
ENDBRANCH   1   2
BRANCH   1  11
ATOM     11  C   UNL     1      47.187  30.556  90.997  1.00  0.00     0.000 C 
BRANCH  11  12
ATOM     12  C   UNL     1      46.818  31.621  89.945  1.00  0.00     0.000 C 
BRANCH  12  13
ATOM     13  C   UNL     1      46.777  31.120  88.490  1.00  0.00     0.000 C 
BRANCH  13  14
ATOM     14  C   UNL     1      47.844  31.780  87.599  1.00  0.00     0.000 C 
BRANCH  14  15
ATOM     15  C   UNL     1      48.264  33.172  88.117  1.00  0.00     0.000 C 
BRANCH  15  16
ATOM     16  C   UNL     1      48.952  34.050  87.057  1.00  0.00     0.006 C 
BRANCH  16  17
ATOM     17  C   UNL     1      49.441  33.251  85.843  1.00  0.00     0.053 C 
BRANCH  17  18
ATOM     18  C   UNL     1      49.363  34.084  84.603  1.00  0.00     0.041 C 
ATOM     19  O   UNL     1      48.280  34.641  84.280  1.00  0.00    -0.550 OA
ATOM     20  O   UNL     1      50.499  34.286  83.829  1.00  0.00    -0.550 OA
ENDBRANCH  17  18
ENDBRANCH  16  17
ENDBRANCH  15  16
ENDBRANCH  14  15
ENDBRANCH  13  14
ENDBRANCH  12  13
ENDBRANCH  11  12
ENDBRANCH   1  11
TORSDOF 15
ENDMDL
MODEL 7
REMARK VINA RESULT:    -3.062      3.237      4.972
REMARK INTER + INTRA:          -8.192
REMARK INTER:                  -6.444
REMARK INTRA:                  -1.748
REMARK UNBOUND:                -2.445
REMARK SMILES O=C([O-])CCCCCCCCCCCCCCC(=O)[O-]
REMARK SMILES IDX 10 1 9 2 8 3 7 4 6 5 5 6 4 7 2 8 1 9 3 10 11 11 12 12 13 13
REMARK SMILES IDX 14 14 15 15 16 16 17 17 18 18 19 19 20 20
REMARK H PARENT
REMARK Flexibility Score: inf
ROOT
ATOM      1  C   UNL     1      48.306  32.787  86.699  1.00  0.00     0.000 C 
ENDROOT
BRANCH   1   2
ATOM      2  C   UNL     1      49.360  31.670  86.729  1.00  0.00     0.000 C 
BRANCH   2   3
ATOM      3  C   UNL     1      49.948  31.512  88.138  1.00  0.00     0.000 C 
BRANCH   3   4
ATOM      4  C   UNL     1      49.181  30.487  88.988  1.00  0.00     0.000 C 
BRANCH   4   5
ATOM      5  C   UNL     1      49.097  30.892  90.470  1.00  0.00     0.000 C 
BRANCH   5   6
ATOM      6  C   UNL     1      47.651  30.933  90.990  1.00  0.00     0.006 C 
BRANCH   6   7
ATOM      7  C   UNL     1      46.684  31.577  89.990  1.00  0.00     0.053 C 
BRANCH   7   8
ATOM      8  C   UNL     1      45.267  31.284  90.370  1.00  0.00     0.041 C 
ATOM      9  O   UNL     1      44.383  31.171  89.480  1.00  0.00    -0.550 OA
ATOM     10  O   UNL     1      44.913  31.184  91.709  1.00  0.00    -0.550 OA
ENDBRANCH   7   8
ENDBRANCH   6   7
ENDBRANCH   5   6
ENDBRANCH   4   5
ENDBRANCH   3   4
ENDBRANCH   2   3
ENDBRANCH   1   2
BRANCH   1  11
ATOM     11  C   UNL     1      48.557  33.878  87.755  1.00  0.00     0.000 C 
BRANCH  11  12
ATOM     12  C   UNL     1      49.360  35.098  87.258  1.00  0.00     0.000 C 
BRANCH  12  13
ATOM     13  C   UNL     1      50.845  35.116  87.662  1.00  0.00     0.000 C 
BRANCH  13  14
ATOM     14  C   UNL     1      51.765  34.506  86.589  1.00  0.00     0.000 C 
BRANCH  14  15
ATOM     15  C   UNL     1      53.183  34.217  87.125  1.00  0.00     0.000 C 
BRANCH  15  16
ATOM     16  C   UNL     1      53.290  34.260  88.659  1.00  0.00     0.006 C 
BRANCH  16  17
ATOM     17  C   UNL     1      53.214  32.871  89.304  1.00  0.00     0.053 C 
BRANCH  17  18
ATOM     18  C   UNL     1      53.525  32.955  90.764  1.00  0.00     0.041 C 
ATOM     19  O   UNL     1      54.514  33.625  91.165  1.00  0.00    -0.550 OA
ATOM     20  O   UNL     1      52.696  32.333  91.689  1.00  0.00    -0.550 OA
ENDBRANCH  17  18
ENDBRANCH  16  17
ENDBRANCH  15  16
ENDBRANCH  14  15
ENDBRANCH  13  14
ENDBRANCH  12  13
ENDBRANCH  11  12
ENDBRANCH   1  11
TORSDOF 15
ENDMDL
MODEL 8
REMARK VINA RESULT:    -3.062      2.107      3.760
REMARK INTER + INTRA:          -8.192
REMARK INTER:                  -6.240
REMARK INTRA:                  -1.952
REMARK UNBOUND:                -2.445
REMARK SMILES O=C([O-])CCCCCCCCCCCCCCC(=O)[O-]
REMARK SMILES IDX 10 1 9 2 8 3 7 4 6 5 5 6 4 7 2 8 1 9 3 10 11 11 12 12 13 13
REMARK SMILES IDX 14 14 15 15 16 16 17 17 18 18 19 19 20 20
REMARK H PARENT
REMARK Flexibility Score: inf
ROOT
ATOM      1  C   UNL     1      47.494  30.816  88.088  1.00  0.00     0.000 C 
ENDROOT
BRANCH   1   2
ATOM      2  C   UNL     1      47.924  31.960  87.159  1.00  0.00     0.000 C 
BRANCH   2   3
ATOM      3  C   UNL     1      48.210  33.238  87.962  1.00  0.00     0.000 C 
BRANCH   3   4
ATOM      4  C   UNL     1      48.825  34.351  87.101  1.00  0.00     0.000 C 
BRANCH   4   5
ATOM      5  C   UNL     1      49.924  35.134  87.843  1.00  0.00     0.000 C 
BRANCH   5   6
ATOM      6  C   UNL     1      51.314  34.934  87.220  1.00  0.00     0.006 C 
BRANCH   6   7
ATOM      7  C   UNL     1      51.264  34.141  85.909  1.00  0.00     0.053 C 
BRANCH   7   8
ATOM      8  C   UNL     1      52.645  33.776  85.465  1.00  0.00     0.041 C 
ATOM      9  O   UNL     1      53.284  32.870  86.062  1.00  0.00    -0.550 OA
ATOM     10  O   UNL     1      53.247  34.471  84.423  1.00  0.00    -0.550 OA
ENDBRANCH   7   8
ENDBRANCH   6   7
ENDBRANCH   5   6
ENDBRANCH   4   5
ENDBRANCH   3   4
ENDBRANCH   2   3
ENDBRANCH   1   2
BRANCH   1  11
ATOM     11  C   UNL     1      46.608  31.289  89.254  1.00  0.00     0.000 C 
BRANCH  11  12
ATOM     12  C   UNL     1      47.104  30.889  90.659  1.00  0.00     0.000 C 
BRANCH  12  13
ATOM     13  C   UNL     1      48.421  30.094  90.687  1.00  0.00     0.000 C 
BRANCH  13  14
ATOM     14  C   UNL     1      49.625  30.943  91.135  1.00  0.00     0.000 C 
BRANCH  14  15
ATOM     15  C   UNL     1      50.750  30.973  90.078  1.00  0.00     0.000 C 
BRANCH  15  16
ATOM     16  C   UNL     1      51.363  32.366  89.860  1.00  0.00     0.006 C 
BRANCH  16  17
ATOM     17  C   UNL     1      52.865  32.320  89.555  1.00  0.00     0.053 C 
BRANCH  17  18
ATOM     18  C   UNL     1      53.657  32.648  90.779  1.00  0.00     0.041 C 
ATOM     19  O   UNL     1      54.034  31.731  91.556  1.00  0.00    -0.550 OA
ATOM     20  O   UNL     1      54.024  33.963  91.038  1.00  0.00    -0.550 OA
ENDBRANCH  17  18
ENDBRANCH  16  17
ENDBRANCH  15  16
ENDBRANCH  14  15
ENDBRANCH  13  14
ENDBRANCH  12  13
ENDBRANCH  11  12
ENDBRANCH   1  11
TORSDOF 15
ENDMDL
MODEL 9
REMARK VINA RESULT:    -3.059     16.121     18.446
REMARK INTER + INTRA:          -8.187
REMARK INTER:                  -5.664
REMARK INTRA:                  -2.522
REMARK UNBOUND:                -2.445
REMARK SMILES O=C([O-])CCCCCCCCCCCCCCC(=O)[O-]
REMARK SMILES IDX 10 1 9 2 8 3 7 4 6 5 5 6 4 7 2 8 1 9 3 10 11 11 12 12 13 13
REMARK SMILES IDX 14 14 15 15 16 16 17 17 18 18 19 19 20 20
REMARK H PARENT
REMARK Flexibility Score: inf
ROOT
ATOM      1  C   UNL     1      40.561  21.565  76.039  1.00  0.00     0.000 C 
ENDROOT
BRANCH   1   2
ATOM      2  C   UNL     1      41.763  21.792  75.110  1.00  0.00     0.000 C 
BRANCH   2   3
ATOM      3  C   UNL     1      42.777  22.750  75.753  1.00  0.00     0.000 C 
BRANCH   3   4
ATOM      4  C   UNL     1      44.231  22.311  75.524  1.00  0.00     0.000 C 
BRANCH   4   5
ATOM      5  C   UNL     1      44.383  20.782  75.445  1.00  0.00     0.000 C 
BRANCH   5   6
ATOM      6  C   UNL     1      45.670  20.281  76.118  1.00  0.00     0.006 C 
BRANCH   6   7
ATOM      7  C   UNL     1      45.985  18.820  75.772  1.00  0.00     0.053 C 
BRANCH   7   8
ATOM      8  C   UNL     1      45.879  17.960  76.992  1.00  0.00     0.041 C 
ATOM      9  O   UNL     1      46.087  18.451  78.133  1.00  0.00    -0.550 OA
ATOM     10  O   UNL     1      45.599  16.606  76.865  1.00  0.00    -0.550 OA
ENDBRANCH   7   8
ENDBRANCH   6   7
ENDBRANCH   5   6
ENDBRANCH   4   5
ENDBRANCH   3   4
ENDBRANCH   2   3
ENDBRANCH   1   2
BRANCH   1  11
ATOM     11  C   UNL     1      40.481  22.595  77.180  1.00  0.00     0.000 C 
BRANCH  11  12
ATOM     12  C   UNL     1      40.263  21.999  78.586  1.00  0.00     0.000 C 
BRANCH  12  13
ATOM     13  C   UNL     1      40.473  20.478  78.694  1.00  0.00     0.000 C 
BRANCH  13  14
ATOM     14  C   UNL     1      41.707  20.102  79.534  1.00  0.00     0.000 C 
BRANCH  14  15
ATOM     15  C   UNL     1      43.025  20.257  78.745  1.00  0.00     0.000 C 
BRANCH  15  16
ATOM     16  C   UNL     1      44.074  21.135  79.450  1.00  0.00     0.006 C 
BRANCH  16  17
ATOM     17  C   UNL     1      43.828  22.636  79.256  1.00  0.00     0.053 C 
BRANCH  17  18
ATOM     18  C   UNL     1      43.590  23.301  80.574  1.00  0.00     0.041 C 
ATOM     19  O   UNL     1      42.431  23.341  81.065  1.00  0.00    -0.550 OA
ATOM     20  O   UNL     1      44.657  23.836  81.285  1.00  0.00    -0.550 OA
ENDBRANCH  17  18
ENDBRANCH  16  17
ENDBRANCH  15  16
ENDBRANCH  14  15
ENDBRANCH  13  14
ENDBRANCH  12  13
ENDBRANCH  11  12
ENDBRANCH   1  11
TORSDOF 15
ENDMDL
