MODEL 1
REMARK VINA RESULT:    -3.964      0.000      0.000
REMARK INTER + INTRA:          -5.878
REMARK INTER:                  -6.050
REMARK INTRA:                   0.172
REMARK UNBOUND:                 0.172
REMARK SMILES CC1=CCC[C@H](C)C(=O)C[C@@H](C(C)C)C(=O)C1
REMARK SMILES IDX 8 1 9 2 6 3 7 4 5 5 4 6 3 7 2 8 1 9 10 11 11 12 15 13 16 14
REMARK SMILES IDX 17 15 12 17 13 18 14 19
REMARK H PARENT
REMARK Flexibility Score: 70.00
ROOT
ATOM      1  C   UNL     1      87.978  37.083  24.483  1.00  0.00     0.136 C 
ATOM      2  O   UNL     1      89.058  36.835  23.963  1.00  0.00    -0.299 OA
ENDROOT
BRANCH   1   3
ATOM      3  C   UNL     1      86.797  36.168  24.230  1.00  0.00     0.053 C 
ATOM      4  C   UNL     1      86.907  35.516  22.843  1.00  0.00     0.016 C 
BRANCH   3   5
ATOM      5  C   UNL     1      86.705  35.097  25.339  1.00  0.00     0.015 C 
BRANCH   5   6
ATOM      6  C   UNL     1      85.349  35.133  26.073  1.00  0.00     0.028 C 
BRANCH   6   7
ATOM      7  C   UNL     1      85.534  35.137  27.569  1.00  0.00    -0.028 C 
ATOM      8  C   UNL     1      85.960  36.196  28.297  1.00  0.00    -0.070 CG0
ATOM      9  C   UNL     1      86.146  36.002  29.781  1.00  0.00     0.039 C 
ATOM     10  G   UNL     1      86.269  37.556  27.692  1.00  0.00     0.000 G0
ENDBRANCH   6   7
ENDBRANCH   5   6
ENDBRANCH   3   5
ENDBRANCH   1   3
BRANCH   1  11
ATOM     11  C   UNL     1      87.850  38.303  25.365  1.00  0.00     0.087 C 
BRANCH  11  12
ATOM     12  C   UNL     1      88.650  38.167  26.687  1.00  0.00     0.066 C 
BRANCH  12  13
ATOM     13  C   UNL     1      87.710  37.993  27.875  1.00  0.00     0.140 C 
ATOM     14  O   UNL     1      88.123  38.258  28.995  1.00  0.00    -0.299 OA
BRANCH  13  15
ATOM     15  C   UNL     1      86.267  37.575  27.701  1.00  0.00     0.106 CG0
ATOM     16  G   UNL     1      85.984  36.212  28.314  1.00  0.00     0.000 G0
ENDBRANCH  13  15
ENDBRANCH  12  13
BRANCH  12  17
ATOM     17  C   UNL     1      89.654  39.341  26.918  1.00  0.00    -0.006 C 
ATOM     18  C   UNL     1      89.495  40.463  25.875  1.00  0.00     0.008 C 
ATOM     19  C   UNL     1      91.110  38.839  26.881  1.00  0.00     0.008 C 
ENDBRANCH  12  17
ENDBRANCH  11  12
ENDBRANCH   1  11
TORSDOF 1
ENDMDL
MODEL 2
REMARK VINA RESULT:    -3.577      1.778      4.494
REMARK INTER + INTRA:          -5.287
REMARK INTER:                  -5.299
REMARK INTRA:                   0.012
REMARK UNBOUND:                 0.172
REMARK SMILES CC1=CCC[C@H](C)C(=O)C[C@@H](C(C)C)C(=O)C1
REMARK SMILES IDX 8 1 9 2 6 3 7 4 5 5 4 6 3 7 2 8 1 9 10 11 11 12 15 13 16 14
REMARK SMILES IDX 17 15 12 17 13 18 14 19
REMARK H PARENT
REMARK Flexibility Score: 70.00
ROOT
ATOM      1  C   UNL     1      87.920  38.082  27.543  1.00  0.00     0.136 C 
ATOM      2  O   UNL     1      88.703  38.085  28.484  1.00  0.00    -0.299 OA
ENDROOT
BRANCH   1   3
ATOM      3  C   UNL     1      88.299  38.775  26.249  1.00  0.00     0.053 C 
ATOM      4  C   UNL     1      89.538  39.659  26.455  1.00  0.00     0.016 C 
BRANCH   3   5
ATOM      5  C   UNL     1      88.541  37.732  25.136  1.00  0.00     0.015 C 
BRANCH   5   6
ATOM      6  C   UNL     1      87.248  37.389  24.369  1.00  0.00     0.028 C 
BRANCH   6   7
ATOM      7  C   UNL     1      87.181  35.920  24.037  1.00  0.00    -0.028 C 
ATOM      8  C   UNL     1      86.477  34.997  24.732  1.00  0.00    -0.070 CG0
ATOM      9  C   UNL     1      86.573  33.558  24.292  1.00  0.00     0.039 C 
ATOM     10  G   UNL     1      85.612  35.337  25.936  1.00  0.00     0.000 G0
ENDBRANCH   6   7
ENDBRANCH   5   6
ENDBRANCH   3   5
ENDBRANCH   1   3
BRANCH   1  11
ATOM     11  C   UNL     1      86.588  37.385  27.697  1.00  0.00     0.087 C 
BRANCH  11  12
ATOM     12  C   UNL     1      86.731  35.948  28.262  1.00  0.00     0.066 C 
BRANCH  12  13
ATOM     13  C   UNL     1      86.237  34.916  27.254  1.00  0.00     0.140 C 
ATOM     14  O   UNL     1      86.305  33.730  27.544  1.00  0.00    -0.299 OA
BRANCH  13  15
ATOM     15  C   UNL     1      85.601  35.319  25.941  1.00  0.00     0.106 CG0
ATOM     16  G   UNL     1      86.488  34.996  24.749  1.00  0.00     0.000 G0
ENDBRANCH  13  15
ENDBRANCH  12  13
BRANCH  12  17
ATOM     17  C   UNL     1      86.043  35.765  29.653  1.00  0.00    -0.006 C 
ATOM     18  C   UNL     1      85.478  37.086  30.206  1.00  0.00     0.008 C 
ATOM     19  C   UNL     1      87.026  35.180  30.684  1.00  0.00     0.008 C 
ENDBRANCH  12  17
ENDBRANCH  11  12
ENDBRANCH   1  11
TORSDOF 1
ENDMDL
MODEL 3
REMARK VINA RESULT:    -3.376      3.847      6.162
REMARK INTER + INTRA:          -4.980
REMARK INTER:                  -4.726
REMARK INTRA:                  -0.255
REMARK UNBOUND:                 0.172
REMARK SMILES CC1=CCC[C@H](C)C(=O)C[C@@H](C(C)C)C(=O)C1
REMARK SMILES IDX 8 1 9 2 6 3 7 4 5 5 4 6 3 7 2 8 1 9 10 11 11 12 15 13 16 14
REMARK SMILES IDX 17 15 12 17 13 18 14 19
REMARK H PARENT
REMARK Flexibility Score: 70.00
ROOT
ATOM      1  C   UNL     1      87.588  32.831  29.748  1.00  0.00     0.136 C 
ATOM      2  O   UNL     1      88.404  32.628  28.859  1.00  0.00    -0.299 OA
ENDROOT
BRANCH   1   3
ATOM      3  C   UNL     1      87.884  32.360  31.159  1.00  0.00     0.053 C 
ATOM      4  C   UNL     1      88.377  30.905  31.149  1.00  0.00     0.016 C 
BRANCH   3   5
ATOM      5  C   UNL     1      88.920  33.292  31.825  1.00  0.00     0.015 C 
BRANCH   5   6
ATOM      6  C   UNL     1      88.285  34.189  32.907  1.00  0.00     0.028 C 
BRANCH   6   7
ATOM      7  C   UNL     1      86.950  33.651  33.354  1.00  0.00    -0.028 C 
ATOM      8  C   UNL     1      85.758  34.254  33.139  1.00  0.00    -0.070 CG0
ATOM      9  C   UNL     1      84.525  33.602  33.712  1.00  0.00     0.039 C 
ATOM     10  G   UNL     1      85.605  35.554  32.366  1.00  0.00     0.000 G0
ENDBRANCH   6   7
ENDBRANCH   5   6
ENDBRANCH   3   5
ENDBRANCH   1   3
BRANCH   1  11
ATOM     11  C   UNL     1      86.300  33.547  29.415  1.00  0.00     0.087 C 
BRANCH  11  12
ATOM     12  C   UNL     1      86.315  35.033  29.856  1.00  0.00     0.066 C 
BRANCH  12  13
ATOM     13  C   UNL     1      85.241  35.299  30.904  1.00  0.00     0.140 C 
ATOM     14  O   UNL     1      84.066  35.257  30.566  1.00  0.00    -0.299 OA
BRANCH  13  15
ATOM     15  C   UNL     1      85.581  35.541  32.358  1.00  0.00     0.106 CG0
ATOM     16  G   UNL     1      85.741  34.245  33.136  1.00  0.00     0.000 G0
ENDBRANCH  13  15
ENDBRANCH  12  13
BRANCH  12  17
ATOM     17  C   UNL     1      86.206  36.029  28.657  1.00  0.00    -0.006 C 
ATOM     18  C   UNL     1      86.478  35.349  27.303  1.00  0.00     0.008 C 
ATOM     19  C   UNL     1      87.188  37.204  28.824  1.00  0.00     0.008 C 
ENDBRANCH  12  17
ENDBRANCH  11  12
ENDBRANCH   1  11
TORSDOF 1
ENDMDL
MODEL 4
REMARK VINA RESULT:    -3.311      2.160      4.248
REMARK INTER + INTRA:          -4.880
REMARK INTER:                  -5.217
REMARK INTRA:                   0.337
REMARK UNBOUND:                 0.172
REMARK SMILES CC1=CCC[C@H](C)C(=O)C[C@@H](C(C)C)C(=O)C1
REMARK SMILES IDX 8 1 9 2 6 3 7 4 5 5 4 6 3 7 2 8 1 9 10 11 11 12 15 13 16 14
REMARK SMILES IDX 17 15 12 17 13 18 14 19
REMARK H PARENT
REMARK Flexibility Score: 70.00
ROOT
ATOM      1  C   UNL     1      88.021  37.903  25.954  1.00  0.00     0.136 C 
ATOM      2  O   UNL     1      88.195  38.540  24.923  1.00  0.00    -0.299 OA
ENDROOT
BRANCH   1   3
ATOM      3  C   UNL     1      88.835  38.238  27.188  1.00  0.00     0.053 C 
ATOM      4  C   UNL     1      90.015  39.151  26.824  1.00  0.00     0.016 C 
BRANCH   3   5
ATOM      5  C   UNL     1      87.936  38.895  28.258  1.00  0.00     0.015 C 
BRANCH   5   6
ATOM      6  C   UNL     1      87.317  37.857  29.216  1.00  0.00     0.028 C 
BRANCH   6   7
ATOM      7  C   UNL     1      85.900  38.221  29.580  1.00  0.00    -0.028 C 
ATOM      8  C   UNL     1      84.792  37.720  28.988  1.00  0.00    -0.070 CG0
ATOM      9  C   UNL     1      83.452  38.245  29.439  1.00  0.00     0.039 C 
ATOM     10  G   UNL     1      84.833  36.671  27.888  1.00  0.00     0.000 G0
ENDBRANCH   6   7
ENDBRANCH   5   6
ENDBRANCH   3   5
ENDBRANCH   1   3
BRANCH   1  11
ATOM     11  C   UNL     1      86.995  36.794  25.969  1.00  0.00     0.087 C 
BRANCH  11  12
ATOM     12  C   UNL     1      85.621  37.247  25.411  1.00  0.00     0.066 C 
BRANCH  12  13
ATOM     13  C   UNL     1      84.566  37.259  26.510  1.00  0.00     0.140 C 
ATOM     14  O   UNL     1      83.454  37.700  26.255  1.00  0.00    -0.299 OA
BRANCH  13  15
ATOM     15  C   UNL     1      84.829  36.675  27.881  1.00  0.00     0.106 CG0
ATOM     16  G   UNL     1      84.794  37.732  28.974  1.00  0.00     0.000 G0
ENDBRANCH  13  15
ENDBRANCH  12  13
BRANCH  12  17
ATOM     17  C   UNL     1      85.155  36.410  24.177  1.00  0.00    -0.006 C 
ATOM     18  C   UNL     1      86.335  35.943  23.305  1.00  0.00     0.008 C 
ATOM     19  C   UNL     1      84.182  37.216  23.297  1.00  0.00     0.008 C 
ENDBRANCH  12  17
ENDBRANCH  11  12
ENDBRANCH   1  11
TORSDOF 1
ENDMDL
MODEL 5
REMARK VINA RESULT:    -3.254      2.574      4.584
REMARK INTER + INTRA:          -4.793
REMARK INTER:                  -4.906
REMARK INTRA:                   0.113
REMARK UNBOUND:                 0.172
REMARK SMILES CC1=CCC[C@H](C)C(=O)C[C@@H](C(C)C)C(=O)C1
REMARK SMILES IDX 8 1 9 2 6 3 7 4 5 5 4 6 3 7 2 8 1 9 10 11 11 12 15 13 16 14
REMARK SMILES IDX 17 15 12 17 13 18 14 19
REMARK H PARENT
REMARK Flexibility Score: 70.00
ROOT
ATOM      1  C   UNL     1      87.375  37.553  27.661  1.00  0.00     0.136 C 
ATOM      2  O   UNL     1      88.108  38.243  26.965  1.00  0.00    -0.299 OA
ENDROOT
BRANCH   1   3
ATOM      3  C   UNL     1      87.354  37.761  29.163  1.00  0.00     0.053 C 
ATOM      4  C   UNL     1      87.092  39.237  29.499  1.00  0.00     0.016 C 
BRANCH   3   5
ATOM      5  C   UNL     1      86.290  36.849  29.812  1.00  0.00     0.015 C 
BRANCH   5   6
ATOM      6  C   UNL     1      85.084  37.648  30.344  1.00  0.00     0.028 C 
BRANCH   6   7
ATOM      7  C   UNL     1      83.783  36.956  30.027  1.00  0.00    -0.028 C 
ATOM      8  C   UNL     1      83.098  37.080  28.867  1.00  0.00    -0.070 CG0
ATOM      9  C   UNL     1      81.779  36.360  28.745  1.00  0.00     0.039 C 
ATOM     10  G   UNL     1      83.586  37.917  27.694  1.00  0.00     0.000 G0
ENDBRANCH   6   7
ENDBRANCH   5   6
ENDBRANCH   3   5
ENDBRANCH   1   3
BRANCH   1  11
ATOM     11  C   UNL     1      86.508  36.506  27.003  1.00  0.00     0.087 C 
BRANCH  11  12
ATOM     12  C   UNL     1      85.491  37.118  26.004  1.00  0.00     0.066 C 
BRANCH  12  13
ATOM     13  C   UNL     1      84.070  37.015  26.545  1.00  0.00     0.140 C 
ATOM     14  O   UNL     1      83.327  36.158  26.088  1.00  0.00    -0.299 OA
BRANCH  13  15
ATOM     15  C   UNL     1      83.577  37.890  27.677  1.00  0.00     0.106 CG0
ATOM     16  G   UNL     1      83.089  37.075  28.864  1.00  0.00     0.000 G0
ENDBRANCH  13  15
ENDBRANCH  12  13
BRANCH  12  17
ATOM     17  C   UNL     1      85.604  36.512  24.568  1.00  0.00    -0.006 C 
ATOM     18  C   UNL     1      87.007  35.950  24.277  1.00  0.00     0.008 C 
ATOM     19  C   UNL     1      85.262  37.564  23.497  1.00  0.00     0.008 C 
ENDBRANCH  12  17
ENDBRANCH  11  12
ENDBRANCH   1  11
TORSDOF 1
ENDMDL
MODEL 6
REMARK VINA RESULT:    -3.225      2.299      4.601
REMARK INTER + INTRA:          -4.750
REMARK INTER:                  -4.791
REMARK INTRA:                   0.042
REMARK UNBOUND:                 0.172
REMARK SMILES CC1=CCC[C@H](C)C(=O)C[C@@H](C(C)C)C(=O)C1
REMARK SMILES IDX 8 1 9 2 6 3 7 4 5 5 4 6 3 7 2 8 1 9 10 11 11 12 15 13 16 14
REMARK SMILES IDX 17 15 12 17 13 18 14 19
REMARK H PARENT
REMARK Flexibility Score: 70.00
ROOT
ATOM      1  C   UNL     1      85.705  37.624  28.399  1.00  0.00     0.136 C 
ATOM      2  O   UNL     1      84.552  37.740  28.004  1.00  0.00    -0.299 OA
ENDROOT
BRANCH   1   3
ATOM      3  C   UNL     1      86.021  37.849  29.865  1.00  0.00     0.053 C 
ATOM      4  C   UNL     1      85.705  39.298  30.268  1.00  0.00     0.016 C 
BRANCH   3   5
ATOM      5  C   UNL     1      85.237  36.847  30.740  1.00  0.00     0.015 C 
BRANCH   5   6
ATOM      6  C   UNL     1      85.901  35.456  30.770  1.00  0.00     0.028 C 
BRANCH   6   7
ATOM      7  C   UNL     1      85.107  34.451  29.974  1.00  0.00    -0.028 C 
ATOM      8  C   UNL     1      85.438  33.998  28.743  1.00  0.00    -0.070 CG0
ATOM      9  C   UNL     1      84.493  33.037  28.067  1.00  0.00     0.039 C 
ATOM     10  G   UNL     1      86.700  34.420  28.007  1.00  0.00     0.000 G0
ENDBRANCH   6   7
ENDBRANCH   5   6
ENDBRANCH   3   5
ENDBRANCH   1   3
BRANCH   1  11
ATOM     11  C   UNL     1      86.788  37.260  27.411  1.00  0.00     0.087 C 
BRANCH  11  12
ATOM     12  C   UNL     1      86.264  36.367  26.257  1.00  0.00     0.066 C 
BRANCH  12  13
ATOM     13  C   UNL     1      86.440  34.890  26.590  1.00  0.00     0.140 C 
ATOM     14  O   UNL     1      86.409  34.074  25.681  1.00  0.00    -0.299 OA
BRANCH  13  15
ATOM     15  C   UNL     1      86.722  34.414  27.999  1.00  0.00     0.106 CG0
ATOM     16  G   UNL     1      85.455  34.010  28.735  1.00  0.00     0.000 G0
ENDBRANCH  13  15
ENDBRANCH  12  13
BRANCH  12  17
ATOM     17  C   UNL     1      86.898  36.722  24.873  1.00  0.00    -0.006 C 
ATOM     18  C   UNL     1      87.856  37.924  24.957  1.00  0.00     0.008 C 
ATOM     19  C   UNL     1      85.808  37.032  23.830  1.00  0.00     0.008 C 
ENDBRANCH  12  17
ENDBRANCH  11  12
ENDBRANCH   1  11
TORSDOF 1
ENDMDL
MODEL 7
REMARK VINA RESULT:    -3.159      5.125      6.900
REMARK INTER + INTRA:          -4.648
REMARK INTER:                  -4.708
REMARK INTRA:                   0.060
REMARK UNBOUND:                 0.172
REMARK SMILES CC1=CCC[C@H](C)C(=O)C[C@@H](C(C)C)C(=O)C1
REMARK SMILES IDX 8 1 9 2 6 3 7 4 5 5 4 6 3 7 2 8 1 9 10 11 11 12 15 13 16 14
REMARK SMILES IDX 17 15 12 17 13 18 14 19
REMARK H PARENT
REMARK Flexibility Score: 70.00
ROOT
ATOM      1  C   UNL     1      82.540  39.632  24.184  1.00  0.00     0.136 C 
ATOM      2  O   UNL     1      82.521  40.652  24.860  1.00  0.00    -0.299 OA
ENDROOT
BRANCH   1   3
ATOM      3  C   UNL     1      82.034  39.670  22.755  1.00  0.00     0.053 C 
ATOM      4  C   UNL     1      80.609  40.241  22.703  1.00  0.00     0.016 C 
BRANCH   3   5
ATOM      5  C   UNL     1      82.994  40.497  21.872  1.00  0.00     0.015 C 
BRANCH   5   6
ATOM      6  C   UNL     1      83.851  39.605  20.950  1.00  0.00     0.028 C 
BRANCH   6   7
ATOM      7  C   UNL     1      83.081  38.397  20.483  1.00  0.00    -0.028 C 
ATOM      8  C   UNL     1      83.373  37.116  20.806  1.00  0.00    -0.070 CG0
ATOM      9  C   UNL     1      82.529  36.025  20.197  1.00  0.00     0.039 C 
ATOM     10  G   UNL     1      84.511  36.726  21.736  1.00  0.00     0.000 G0
ENDBRANCH   6   7
ENDBRANCH   5   6
ENDBRANCH   3   5
ENDBRANCH   1   3
BRANCH   1  11
ATOM     11  C   UNL     1      83.067  38.354  24.794  1.00  0.00     0.087 C 
BRANCH  11  12
ATOM     12  C   UNL     1      84.373  37.866  24.115  1.00  0.00     0.066 C 
BRANCH  12  13
ATOM     13  C   UNL     1      84.097  36.685  23.193  1.00  0.00     0.140 C 
ATOM     14  O   UNL     1      83.471  35.730  23.630  1.00  0.00    -0.299 OA
BRANCH  13  15
ATOM     15  C   UNL     1      84.510  36.690  21.737  1.00  0.00     0.106 CG0
ATOM     16  G   UNL     1      83.374  37.111  20.817  1.00  0.00     0.000 G0
ENDBRANCH  13  15
ENDBRANCH  12  13
BRANCH  12  17
ATOM     17  C   UNL     1      85.510  37.542  25.137  1.00  0.00    -0.006 C 
ATOM     18  C   UNL     1      86.756  36.944  24.459  1.00  0.00     0.008 C 
ATOM     19  C   UNL     1      85.018  36.560  26.217  1.00  0.00     0.008 C 
ENDBRANCH  12  17
ENDBRANCH  11  12
ENDBRANCH   1  11
TORSDOF 1
ENDMDL
MODEL 8
REMARK VINA RESULT:    -3.094      2.648      3.797
REMARK INTER + INTRA:          -4.550
REMARK INTER:                  -4.359
REMARK INTRA:                  -0.191
REMARK UNBOUND:                 0.172
REMARK SMILES CC1=CCC[C@H](C)C(=O)C[C@@H](C(C)C)C(=O)C1
REMARK SMILES IDX 8 1 9 2 6 3 7 4 5 5 4 6 3 7 2 8 1 9 10 11 11 12 15 13 16 14
REMARK SMILES IDX 17 15 12 17 13 18 14 19
REMARK H PARENT
REMARK Flexibility Score: 70.00
ROOT
ATOM      1  C   UNL     1      86.615  35.935  25.046  1.00  0.00     0.136 C 
ATOM      2  O   UNL     1      86.887  34.866  25.576  1.00  0.00    -0.299 OA
ENDROOT
BRANCH   1   3
ATOM      3  C   UNL     1      86.606  36.042  23.534  1.00  0.00     0.053 C 
ATOM      4  C   UNL     1      87.791  35.272  22.932  1.00  0.00     0.016 C 
BRANCH   3   5
ATOM      5  C   UNL     1      85.265  35.523  22.970  1.00  0.00     0.015 C 
BRANCH   5   6
ATOM      6  C   UNL     1      84.127  36.550  23.136  1.00  0.00     0.028 C 
BRANCH   6   7
ATOM      7  C   UNL     1      83.031  36.018  24.023  1.00  0.00    -0.028 C 
ATOM      8  C   UNL     1      82.725  36.494  25.253  1.00  0.00    -0.070 CG0
ATOM      9  C   UNL     1      81.634  35.798  26.027  1.00  0.00     0.039 C 
ATOM     10  G   UNL     1      83.432  37.679  25.890  1.00  0.00     0.000 G0
ENDBRANCH   6   7
ENDBRANCH   5   6
ENDBRANCH   3   5
ENDBRANCH   1   3
BRANCH   1  11
ATOM     11  C   UNL     1      86.296  37.127  25.917  1.00  0.00     0.087 C 
BRANCH  11  12
ATOM     12  C   UNL     1      85.517  36.734  27.200  1.00  0.00     0.066 C 
BRANCH  12  13
ATOM     13  C   UNL     1      84.110  37.318  27.181  1.00  0.00     0.140 C 
ATOM     14  O   UNL     1      83.555  37.551  28.246  1.00  0.00    -0.299 OA
BRANCH  13  15
ATOM     15  C   UNL     1      83.411  37.685  25.890  1.00  0.00     0.106 CG0
ATOM     16  G   UNL     1      82.734  36.487  25.241  1.00  0.00     0.000 G0
ENDBRANCH  13  15
ENDBRANCH  12  13
BRANCH  12  17
ATOM     17  C   UNL     1      86.276  37.107  28.515  1.00  0.00    -0.006 C 
ATOM     18  C   UNL     1      87.536  37.950  28.246  1.00  0.00     0.008 C 
ATOM     19  C   UNL     1      86.685  35.843  29.294  1.00  0.00     0.008 C 
ENDBRANCH  12  17
ENDBRANCH  11  12
ENDBRANCH   1  11
TORSDOF 1
ENDMDL
MODEL 9
REMARK VINA RESULT:    -2.955      3.041      4.597
REMARK INTER + INTRA:          -4.338
REMARK INTER:                  -4.076
REMARK INTRA:                  -0.262
REMARK UNBOUND:                 0.172
REMARK SMILES CC1=CCC[C@H](C)C(=O)C[C@@H](C(C)C)C(=O)C1
REMARK SMILES IDX 8 1 9 2 6 3 7 4 5 5 4 6 3 7 2 8 1 9 10 11 11 12 15 13 16 14
REMARK SMILES IDX 17 15 12 17 13 18 14 19
REMARK H PARENT
REMARK Flexibility Score: 70.00
ROOT
ATOM      1  C   UNL     1      85.851  36.169  26.905  1.00  0.00     0.136 C 
ATOM      2  O   UNL     1      86.207  35.056  26.538  1.00  0.00    -0.299 OA
ENDROOT
BRANCH   1   3
ATOM      3  C   UNL     1      84.953  37.002  26.013  1.00  0.00     0.053 C 
ATOM      4  C   UNL     1      85.650  37.301  24.676  1.00  0.00     0.016 C 
BRANCH   3   5
ATOM      5  C   UNL     1      83.607  36.280  25.786  1.00  0.00     0.015 C 
BRANCH   5   6
ATOM      6  C   UNL     1      82.530  36.725  26.795  1.00  0.00     0.028 C 
BRANCH   6   7
ATOM      7  C   UNL     1      82.695  38.175  27.171  1.00  0.00    -0.028 C 
ATOM      8  C   UNL     1      82.950  38.631  28.419  1.00  0.00    -0.070 CG0
ATOM      9  C   UNL     1      83.023  40.123  28.624  1.00  0.00     0.039 C 
ATOM     10  G   UNL     1      83.151  37.717  29.618  1.00  0.00     0.000 G0
ENDBRANCH   6   7
ENDBRANCH   5   6
ENDBRANCH   3   5
ENDBRANCH   1   3
BRANCH   1  11
ATOM     11  C   UNL     1      86.321  36.685  28.245  1.00  0.00     0.087 C 
BRANCH  11  12
ATOM     12  C   UNL     1      85.371  36.283  29.403  1.00  0.00     0.066 C 
BRANCH  12  13
ATOM     13  C   UNL     1      84.619  37.497  29.934  1.00  0.00     0.140 C 
ATOM     14  O   UNL     1      85.233  38.335  30.580  1.00  0.00    -0.299 OA
BRANCH  13  15
ATOM     15  C   UNL     1      83.156  37.732  29.626  1.00  0.00     0.106 CG0
ATOM     16  G   UNL     1      82.959  38.619  28.406  1.00  0.00     0.000 G0
ENDBRANCH  13  15
ENDBRANCH  12  13
BRANCH  12  17
ATOM     17  C   UNL     1      86.098  35.512  30.552  1.00  0.00    -0.006 C 
ATOM     18  C   UNL     1      87.119  34.490  30.018  1.00  0.00     0.008 C 
ATOM     19  C   UNL     1      85.086  34.775  31.449  1.00  0.00     0.008 C 
ENDBRANCH  12  17
ENDBRANCH  11  12
ENDBRANCH   1  11
TORSDOF 1
ENDMDL
