MODEL 1
REMARK VINA RESULT:    -5.890      0.000      0.000
REMARK INTER + INTRA:          -7.535
REMARK INTER:                  -7.268
REMARK INTRA:                  -0.268
REMARK UNBOUND:                -0.268
REMARK SMILES Oc1cc(O)c2cc(O)c(-c3cc(O)c(O)c(O)c3)[o+]c2c1
REMARK SMILES IDX 10 1 20 2 21 3 22 4 2 5 3 6 4 7 6 8 7 9 8 10 11 11 12 12
REMARK SMILES IDX 13 13 19 14 15 15 17 16 14 17 16 19 18 21 9 23 1 25 5 27
REMARK H PARENT 14 18 16 20 18 22 9 24 1 26 5 28
REMARK Flexibility Score: inf
ROOT
ATOM      1  C   UNL     1      -9.414   7.760  15.926  1.00  0.00     0.402 A 
ATOM      2  O   UNL     1      -8.438   8.255  16.685  1.00  0.00    -0.202 OA
ATOM      3  C   UNL     1      -8.643   8.764  17.896  1.00  0.00     0.368 A 
ATOM      4  C   UNL     1      -7.565   9.268  18.627  1.00  0.00     0.162 A 
ATOM      5  C   UNL     1      -7.769   9.810  19.903  1.00  0.00     0.128 A 
ATOM      6  C   UNL     1      -9.058   9.846  20.446  1.00  0.00     0.093 A 
ATOM      7  C   UNL     1     -10.150   9.342  19.724  1.00  0.00     0.136 A 
ATOM      8  C   UNL     1      -9.945   8.798  18.443  1.00  0.00     0.125 A 
ATOM      9  C   UNL     1     -10.995   8.274  17.680  1.00  0.00     0.078 A 
ATOM     10  C   UNL     1     -10.736   7.739  16.415  1.00  0.00     0.223 A 
ENDROOT
BRANCH   1  11
ATOM     11  C   UNL     1      -9.061   7.230  14.589  1.00  0.00     0.091 A 
ATOM     12  C   UNL     1      -9.530   7.839  13.413  1.00  0.00     0.068 A 
ATOM     13  C   UNL     1      -9.168   7.338  12.158  1.00  0.00     0.162 A 
ATOM     14  C   UNL     1      -8.195   6.129  14.490  1.00  0.00     0.068 A 
ATOM     15  C   UNL     1      -8.319   6.221  12.065  1.00  0.00     0.200 A 
ATOM     16  C   UNL     1      -7.830   5.620  13.237  1.00  0.00     0.162 A 
BRANCH  13  17
ATOM     17  O   UNL     1      -9.659   7.967  11.013  1.00  0.00    -0.504 OA
ATOM     18  H   UNL     1     -10.560   8.427  10.996  1.00  0.00     0.293 HD
ENDBRANCH  13  17
BRANCH  15  19
ATOM     19  O   UNL     1      -7.967   5.726  10.809  1.00  0.00    -0.502 OA
ATOM     20  H   UNL     1      -8.637   5.655  10.051  1.00  0.00     0.293 HD
ENDBRANCH  15  19
BRANCH  16  21
ATOM     21  O   UNL     1      -6.981   4.518  13.153  1.00  0.00    -0.504 OA
ATOM     22  H   UNL     1      -5.986   4.597  13.330  1.00  0.00     0.293 HD
ENDBRANCH  16  21
ENDBRANCH   1  11
BRANCH  10  23
ATOM     23  O   UNL     1     -11.770   7.170  15.672  1.00  0.00    -0.500 OA
ATOM     24  H   UNL     1     -11.601   6.739  14.771  1.00  0.00     0.294 HD
ENDBRANCH  10  23
BRANCH   5  25
ATOM     25  O   UNL     1      -6.701  10.316  20.638  1.00  0.00    -0.507 OA
ATOM     26  H   UNL     1      -6.048  10.980  20.237  1.00  0.00     0.293 HD
ENDBRANCH   5  25
BRANCH   7  27
ATOM     27  O   UNL     1     -11.431   9.382  20.279  1.00  0.00    -0.507 OA
ATOM     28  H   UNL     1     -12.208   9.812  19.791  1.00  0.00     0.293 HD
ENDBRANCH   7  27
TORSDOF 7
ENDMDL
MODEL 2
REMARK VINA RESULT:    -5.764      0.255      1.812
REMARK INTER + INTRA:          -7.380
REMARK INTER:                  -7.118
REMARK INTRA:                  -0.262
REMARK UNBOUND:                -0.268
REMARK SMILES Oc1cc(O)c2cc(O)c(-c3cc(O)c(O)c(O)c3)[o+]c2c1
REMARK SMILES IDX 10 1 20 2 21 3 22 4 2 5 3 6 4 7 6 8 7 9 8 10 11 11 12 12
REMARK SMILES IDX 13 13 19 14 15 15 17 16 14 17 16 19 18 21 9 23 1 25 5 27
REMARK H PARENT 14 18 16 20 18 22 9 24 1 26 5 28
REMARK Flexibility Score: inf
ROOT
ATOM      1  C   UNL     1      -9.351   7.752  16.155  1.00  0.00     0.402 A 
ATOM      2  O   UNL     1      -8.402   8.298  16.914  1.00  0.00    -0.202 OA
ATOM      3  C   UNL     1      -8.643   8.838  18.105  1.00  0.00     0.368 A 
ATOM      4  C   UNL     1      -7.592   9.395  18.838  1.00  0.00     0.162 A 
ATOM      5  C   UNL     1      -7.833   9.970  20.092  1.00  0.00     0.128 A 
ATOM      6  C   UNL     1      -9.132   9.987  20.612  1.00  0.00     0.093 A 
ATOM      7  C   UNL     1     -10.196   9.431  19.889  1.00  0.00     0.136 A 
ATOM      8  C   UNL     1      -9.954   8.852  18.629  1.00  0.00     0.125 A 
ATOM      9  C   UNL     1     -10.976   8.276  17.866  1.00  0.00     0.078 A 
ATOM     10  C   UNL     1     -10.680   7.709  16.623  1.00  0.00     0.223 A 
ENDROOT
BRANCH   1  11
ATOM     11  C   UNL     1      -8.959   7.190  14.842  1.00  0.00     0.091 A 
ATOM     12  C   UNL     1      -8.170   6.030  14.749  1.00  0.00     0.068 A 
ATOM     13  C   UNL     1      -7.828   5.500  13.500  1.00  0.00     0.162 A 
ATOM     14  C   UNL     1      -9.430   7.792  13.665  1.00  0.00     0.068 A 
ATOM     15  C   UNL     1      -8.283   6.122  12.324  1.00  0.00     0.200 A 
ATOM     16  C   UNL     1      -9.090   7.269  12.411  1.00  0.00     0.162 A 
BRANCH  13  17
ATOM     17  O   UNL     1      -7.038   4.352  13.448  1.00  0.00    -0.504 OA
ATOM     18  H   UNL     1      -6.530   4.011  14.254  1.00  0.00     0.293 HD
ENDBRANCH  13  17
BRANCH  15  19
ATOM     19  O   UNL     1      -7.933   5.588  11.083  1.00  0.00    -0.502 OA
ATOM     20  H   UNL     1      -6.971   5.542  10.768  1.00  0.00     0.293 HD
ENDBRANCH  15  19
BRANCH  16  21
ATOM     21  O   UNL     1      -9.552   7.886  11.249  1.00  0.00    -0.504 OA
ATOM     22  H   UNL     1     -10.183   7.414  10.611  1.00  0.00     0.293 HD
ENDBRANCH  16  21
ENDBRANCH   1  11
BRANCH  10  23
ATOM     23  O   UNL     1     -11.684   7.088  15.881  1.00  0.00    -0.500 OA
ATOM     24  H   UNL     1     -11.933   7.406  14.952  1.00  0.00     0.294 HD
ENDBRANCH  10  23
BRANCH   5  25
ATOM     25  O   UNL     1      -6.792  10.529  20.829  1.00  0.00    -0.507 OA
ATOM     26  H   UNL     1      -6.969  11.162  21.600  1.00  0.00     0.293 HD
ENDBRANCH   5  25
BRANCH   7  27
ATOM     27  O   UNL     1     -11.487   9.452  20.421  1.00  0.00    -0.507 OA
ATOM     28  H   UNL     1     -12.048   8.610  20.487  1.00  0.00     0.293 HD
ENDBRANCH   7  27
TORSDOF 7
ENDMDL
MODEL 3
REMARK VINA RESULT:    -5.709      3.966      8.006
REMARK INTER + INTRA:          -7.312
REMARK INTER:                  -7.584
REMARK INTRA:                   0.273
REMARK UNBOUND:                -0.268
REMARK SMILES Oc1cc(O)c2cc(O)c(-c3cc(O)c(O)c(O)c3)[o+]c2c1
REMARK SMILES IDX 10 1 20 2 21 3 22 4 2 5 3 6 4 7 6 8 7 9 8 10 11 11 12 12
REMARK SMILES IDX 13 13 19 14 15 15 17 16 14 17 16 19 18 21 9 23 1 25 5 27
REMARK H PARENT 14 18 16 20 18 22 9 24 1 26 5 28
REMARK Flexibility Score: inf
ROOT
ATOM      1  C   UNL     1      -5.648  10.103  17.224  1.00  0.00     0.402 A 
ATOM      2  O   UNL     1      -6.048   9.997  15.958  1.00  0.00    -0.202 OA
ATOM      3  C   UNL     1      -5.243  10.205  14.920  1.00  0.00     0.368 A 
ATOM      4  C   UNL     1      -5.741  10.077  13.621  1.00  0.00     0.162 A 
ATOM      5  C   UNL     1      -4.903  10.297  12.520  1.00  0.00     0.128 A 
ATOM      6  C   UNL     1      -3.563  10.645  12.722  1.00  0.00     0.093 A 
ATOM      7  C   UNL     1      -3.049  10.775  14.020  1.00  0.00     0.136 A 
ATOM      8  C   UNL     1      -3.890  10.554  15.126  1.00  0.00     0.125 A 
ATOM      9  C   UNL     1      -3.430  10.662  16.444  1.00  0.00     0.078 A 
ATOM     10  C   UNL     1      -4.306  10.426  17.508  1.00  0.00     0.223 A 
ENDROOT
BRANCH   1  11
ATOM     11  C   UNL     1      -6.642   9.856  18.294  1.00  0.00     0.091 A 
ATOM     12  C   UNL     1      -6.440  10.327  19.603  1.00  0.00     0.068 A 
ATOM     13  C   UNL     1      -7.398  10.104  20.597  1.00  0.00     0.162 A 
ATOM     14  C   UNL     1      -7.836   9.186  17.987  1.00  0.00     0.068 A 
ATOM     15  C   UNL     1      -8.583   9.412  20.287  1.00  0.00     0.200 A 
ATOM     16  C   UNL     1      -8.802   8.958  18.976  1.00  0.00     0.162 A 
BRANCH  13  17
ATOM     17  O   UNL     1      -7.159  10.581  21.885  1.00  0.00    -0.504 OA
ATOM     18  H   UNL     1      -6.516  10.123  22.518  1.00  0.00     0.293 HD
ENDBRANCH  13  17
BRANCH  15  19
ATOM     19  O   UNL     1      -9.532   9.191  21.287  1.00  0.00    -0.502 OA
ATOM     20  H   UNL     1      -9.348   8.590  22.081  1.00  0.00     0.293 HD
ENDBRANCH  15  19
BRANCH  16  21
ATOM     21  O   UNL     1      -9.977   8.279  18.660  1.00  0.00    -0.504 OA
ATOM     22  H   UNL     1     -10.606   7.940  19.379  1.00  0.00     0.293 HD
ENDBRANCH  16  21
ENDBRANCH   1  11
BRANCH  10  23
ATOM     23  O   UNL     1      -3.841  10.481  18.821  1.00  0.00    -0.500 OA
ATOM     24  H   UNL     1      -2.856  10.397  19.040  1.00  0.00     0.294 HD
ENDBRANCH  10  23
BRANCH   5  25
ATOM     25  O   UNL     1      -5.392  10.174  11.222  1.00  0.00    -0.507 OA
ATOM     26  H   UNL     1      -5.390  10.957  10.578  1.00  0.00     0.293 HD
ENDBRANCH   5  25
BRANCH   7  27
ATOM     27  O   UNL     1      -1.709  11.120  14.208  1.00  0.00    -0.507 OA
ATOM     28  H   UNL     1      -0.957  10.539  13.857  1.00  0.00     0.293 HD
ENDBRANCH   7  27
TORSDOF 7
ENDMDL
MODEL 4
REMARK VINA RESULT:    -5.600      1.592      2.063
REMARK INTER + INTRA:          -7.177
REMARK INTER:                  -6.854
REMARK INTRA:                  -0.323
REMARK UNBOUND:                -0.268
REMARK SMILES Oc1cc(O)c2cc(O)c(-c3cc(O)c(O)c(O)c3)[o+]c2c1
REMARK SMILES IDX 10 1 20 2 21 3 22 4 2 5 3 6 4 7 6 8 7 9 8 10 11 11 12 12
REMARK SMILES IDX 13 13 19 14 15 15 17 16 14 17 16 19 18 21 9 23 1 25 5 27
REMARK H PARENT 14 18 16 20 18 22 9 24 1 26 5 28
REMARK Flexibility Score: inf
ROOT
ATOM      1  C   UNL     1      -9.577   7.610  14.642  1.00  0.00     0.402 A 
ATOM      2  O   UNL     1      -8.599   8.448  14.984  1.00  0.00    -0.202 OA
ATOM      3  C   UNL     1      -8.345   8.797  16.241  1.00  0.00     0.368 A 
ATOM      4  C   UNL     1      -7.302   9.685  16.516  1.00  0.00     0.162 A 
ATOM      5  C   UNL     1      -7.027  10.063  17.837  1.00  0.00     0.128 A 
ATOM      6  C   UNL     1      -7.800   9.549  18.884  1.00  0.00     0.093 A 
ATOM      7  C   UNL     1      -8.848   8.656  18.623  1.00  0.00     0.136 A 
ATOM      8  C   UNL     1      -9.125   8.275  17.297  1.00  0.00     0.125 A 
ATOM      9  C   UNL     1     -10.154   7.382  16.978  1.00  0.00     0.078 A 
ATOM     10  C   UNL     1     -10.383   7.032  15.644  1.00  0.00     0.223 A 
ENDROOT
BRANCH   1  11
ATOM     11  C   UNL     1      -9.767   7.306  13.205  1.00  0.00     0.091 A 
ATOM     12  C   UNL     1     -10.866   7.812  12.489  1.00  0.00     0.068 A 
ATOM     13  C   UNL     1     -11.019   7.533  11.127  1.00  0.00     0.162 A 
ATOM     14  C   UNL     1      -8.804   6.541  12.528  1.00  0.00     0.068 A 
ATOM     15  C   UNL     1     -10.062   6.747  10.460  1.00  0.00     0.200 A 
ATOM     16  C   UNL     1      -8.950   6.256  11.164  1.00  0.00     0.162 A 
BRANCH  13  17
ATOM     17  O   UNL     1     -12.125   8.048  10.452  1.00  0.00    -0.504 OA
ATOM     18  H   UNL     1     -12.048   8.826   9.809  1.00  0.00     0.293 HD
ENDBRANCH  13  17
BRANCH  15  19
ATOM     19  O   UNL     1     -10.225   6.470   9.101  1.00  0.00    -0.502 OA
ATOM     20  H   UNL     1     -10.570   5.577   8.771  1.00  0.00     0.293 HD
ENDBRANCH  15  19
BRANCH  16  21
ATOM     21  O   UNL     1      -7.994   5.483  10.507  1.00  0.00    -0.504 OA
ATOM     22  H   UNL     1      -7.456   4.775  10.993  1.00  0.00     0.293 HD
ENDBRANCH  16  21
ENDBRANCH   1  11
BRANCH  10  23
ATOM     23  O   UNL     1     -11.372   6.104  15.325  1.00  0.00    -0.500 OA
ATOM     24  H   UNL     1     -11.193   5.107  15.347  1.00  0.00     0.294 HD
ENDBRANCH  10  23
BRANCH   5  25
ATOM     25  O   UNL     1      -5.991  10.949  18.120  1.00  0.00    -0.507 OA
ATOM     26  H   UNL     1      -5.874  11.811  17.600  1.00  0.00     0.293 HD
ENDBRANCH   5  25
BRANCH   7  27
ATOM     27  O   UNL     1      -9.610   8.148  19.678  1.00  0.00    -0.507 OA
ATOM     28  H   UNL     1     -10.533   8.510  19.888  1.00  0.00     0.293 HD
ENDBRANCH   7  27
TORSDOF 7
ENDMDL
MODEL 5
REMARK VINA RESULT:    -5.591      2.359      7.848
REMARK INTER + INTRA:          -7.166
REMARK INTER:                  -7.044
REMARK INTRA:                  -0.123
REMARK UNBOUND:                -0.268
REMARK SMILES Oc1cc(O)c2cc(O)c(-c3cc(O)c(O)c(O)c3)[o+]c2c1
REMARK SMILES IDX 10 1 20 2 21 3 22 4 2 5 3 6 4 7 6 8 7 9 8 10 11 11 12 12
REMARK SMILES IDX 13 13 19 14 15 15 17 16 14 17 16 19 18 21 9 23 1 25 5 27
REMARK H PARENT 14 18 16 20 18 22 9 24 1 26 5 28
REMARK Flexibility Score: inf
ROOT
ATOM      1  C   UNL     1      -9.395   7.168  13.407  1.00  0.00     0.402 A 
ATOM      2  O   UNL     1     -10.362   6.803  12.567  1.00  0.00    -0.202 OA
ATOM      3  C   UNL     1     -10.132   6.406  11.320  1.00  0.00     0.368 A 
ATOM      4  C   UNL     1     -11.203   6.044  10.499  1.00  0.00     0.162 A 
ATOM      5  C   UNL     1     -10.973   5.626   9.182  1.00  0.00     0.128 A 
ATOM      6  C   UNL     1      -9.666   5.572   8.686  1.00  0.00     0.093 A 
ATOM      7  C   UNL     1      -8.581   5.930   9.499  1.00  0.00     0.136 A 
ATOM      8  C   UNL     1      -8.812   6.350  10.822  1.00  0.00     0.125 A 
ATOM      9  C   UNL     1      -7.767   6.712  11.680  1.00  0.00     0.078 A 
ATOM     10  C   UNL     1      -8.050   7.116  12.988  1.00  0.00     0.223 A 
ENDROOT
BRANCH   1  11
ATOM     11  C   UNL     1      -9.779   7.601  14.771  1.00  0.00     0.091 A 
ATOM     12  C   UNL     1     -10.696   8.648  14.974  1.00  0.00     0.068 A 
ATOM     13  C   UNL     1     -11.064   9.030  16.269  1.00  0.00     0.162 A 
ATOM     14  C   UNL     1      -9.262   6.920  15.883  1.00  0.00     0.068 A 
ATOM     15  C   UNL     1     -10.525   8.358  17.380  1.00  0.00     0.200 A 
ATOM     16  C   UNL     1      -9.625   7.297  17.183  1.00  0.00     0.162 A 
BRANCH  13  17
ATOM     17  O   UNL     1     -11.972  10.077  16.431  1.00  0.00    -0.504 OA
ATOM     18  H   UNL     1     -12.914  10.034  16.064  1.00  0.00     0.293 HD
ENDBRANCH  13  17
BRANCH  15  19
ATOM     19  O   UNL     1     -10.896   8.749  18.667  1.00  0.00    -0.502 OA
ATOM     20  H   UNL     1     -11.062   8.078  19.408  1.00  0.00     0.293 HD
ENDBRANCH  15  19
BRANCH  16  21
ATOM     21  O   UNL     1      -9.093   6.621  18.280  1.00  0.00    -0.504 OA
ATOM     22  H   UNL     1      -8.212   6.897  18.698  1.00  0.00     0.293 HD
ENDBRANCH  16  21
ENDBRANCH   1  11
BRANCH  10  23
ATOM     23  O   UNL     1      -7.011   7.429  13.863  1.00  0.00    -0.500 OA
ATOM     24  H   UNL     1      -7.002   8.296  14.388  1.00  0.00     0.294 HD
ENDBRANCH  10  23
BRANCH   5  25
ATOM     25  O   UNL     1     -12.035   5.265   8.357  1.00  0.00    -0.507 OA
ATOM     26  H   UNL     1     -12.604   5.961   7.889  1.00  0.00     0.293 HD
ENDBRANCH   5  25
BRANCH   7  27
ATOM     27  O   UNL     1      -7.281   5.869   8.992  1.00  0.00    -0.507 OA
ATOM     28  H   UNL     1      -6.491   5.642   9.585  1.00  0.00     0.293 HD
ENDBRANCH   7  27
TORSDOF 7
ENDMDL
MODEL 6
REMARK VINA RESULT:    -5.533      2.196      7.000
REMARK INTER + INTRA:          -7.094
REMARK INTER:                  -6.738
REMARK INTRA:                  -0.356
REMARK UNBOUND:                -0.268
REMARK SMILES Oc1cc(O)c2cc(O)c(-c3cc(O)c(O)c(O)c3)[o+]c2c1
REMARK SMILES IDX 10 1 20 2 21 3 22 4 2 5 3 6 4 7 6 8 7 9 8 10 11 11 12 12
REMARK SMILES IDX 13 13 19 14 15 15 17 16 14 17 16 19 18 21 9 23 1 25 5 27
REMARK H PARENT 14 18 16 20 18 22 9 24 1 26 5 28
REMARK Flexibility Score: inf
ROOT
ATOM      1  C   UNL     1      -9.197   8.605  17.092  1.00  0.00     0.402 A 
ATOM      2  O   UNL     1      -9.501   9.463  16.119  1.00  0.00    -0.202 OA
ATOM      3  C   UNL     1     -10.006   9.086  14.948  1.00  0.00     0.368 A 
ATOM      4  C   UNL     1     -10.295  10.049  13.977  1.00  0.00     0.162 A 
ATOM      5  C   UNL     1     -10.824   9.664  12.738  1.00  0.00     0.128 A 
ATOM      6  C   UNL     1     -11.065   8.312  12.473  1.00  0.00     0.093 A 
ATOM      7  C   UNL     1     -10.782   7.335  13.438  1.00  0.00     0.136 A 
ATOM      8  C   UNL     1     -10.251   7.721  14.683  1.00  0.00     0.125 A 
ATOM      9  C   UNL     1      -9.956   6.791  15.687  1.00  0.00     0.078 A 
ATOM     10  C   UNL     1      -9.435   7.228  16.908  1.00  0.00     0.223 A 
ENDROOT
BRANCH   1  11
ATOM     11  C   UNL     1      -8.631   9.146  18.349  1.00  0.00     0.091 A 
ATOM     12  C   UNL     1      -9.435   9.359  19.482  1.00  0.00     0.068 A 
ATOM     13  C   UNL     1      -8.880   9.849  20.668  1.00  0.00     0.162 A 
ATOM     14  C   UNL     1      -7.253   9.400  18.432  1.00  0.00     0.068 A 
ATOM     15  C   UNL     1      -7.503  10.124  20.738  1.00  0.00     0.200 A 
ATOM     16  C   UNL     1      -6.689   9.893  19.616  1.00  0.00     0.162 A 
BRANCH  13  17
ATOM     17  O   UNL     1      -9.712  10.053  21.769  1.00  0.00    -0.504 OA
ATOM     18  H   UNL     1      -9.997  10.978  22.064  1.00  0.00     0.293 HD
ENDBRANCH  13  17
BRANCH  15  19
ATOM     19  O   UNL     1      -6.958  10.617  21.925  1.00  0.00    -0.502 OA
ATOM     20  H   UNL     1      -5.962  10.759  22.042  1.00  0.00     0.293 HD
ENDBRANCH  15  19
BRANCH  16  21
ATOM     21  O   UNL     1      -5.322  10.155  19.681  1.00  0.00    -0.504 OA
ATOM     22  H   UNL     1      -4.634   9.473  19.382  1.00  0.00     0.293 HD
ENDBRANCH  16  21
ENDBRANCH   1  11
BRANCH  10  23
ATOM     23  O   UNL     1      -9.188   6.312  17.930  1.00  0.00    -0.500 OA
ATOM     24  H   UNL     1      -8.904   6.612  18.855  1.00  0.00     0.294 HD
ENDBRANCH  10  23
BRANCH   5  25
ATOM     25  O   UNL     1     -11.113  10.616  11.764  1.00  0.00    -0.507 OA
ATOM     26  H   UNL     1     -12.065  10.907  11.572  1.00  0.00     0.293 HD
ENDBRANCH   5  25
BRANCH   7  27
ATOM     27  O   UNL     1     -11.030   5.989  13.162  1.00  0.00    -0.507 OA
ATOM     28  H   UNL     1     -10.861   5.596  12.243  1.00  0.00     0.293 HD
ENDBRANCH   7  27
TORSDOF 7
ENDMDL
MODEL 7
REMARK VINA RESULT:    -5.520      2.194      7.062
REMARK INTER + INTRA:          -7.079
REMARK INTER:                  -6.716
REMARK INTRA:                  -0.363
REMARK UNBOUND:                -0.268
REMARK SMILES Oc1cc(O)c2cc(O)c(-c3cc(O)c(O)c(O)c3)[o+]c2c1
REMARK SMILES IDX 10 1 20 2 21 3 22 4 2 5 3 6 4 7 6 8 7 9 8 10 11 11 12 12
REMARK SMILES IDX 13 13 19 14 15 15 17 16 14 17 16 19 18 21 9 23 1 25 5 27
REMARK H PARENT 14 18 16 20 18 22 9 24 1 26 5 28
REMARK Flexibility Score: inf
ROOT
ATOM      1  C   UNL     1      -9.201   8.544  17.061  1.00  0.00     0.402 A 
ATOM      2  O   UNL     1      -9.505   9.408  16.094  1.00  0.00    -0.202 OA
ATOM      3  C   UNL     1     -10.020   9.040  14.924  1.00  0.00     0.368 A 
ATOM      4  C   UNL     1     -10.308  10.009  13.960  1.00  0.00     0.162 A 
ATOM      5  C   UNL     1     -10.848   9.633  12.722  1.00  0.00     0.128 A 
ATOM      6  C   UNL     1     -11.099   8.284  12.453  1.00  0.00     0.093 A 
ATOM      7  C   UNL     1     -10.817   7.301  13.412  1.00  0.00     0.136 A 
ATOM      8  C   UNL     1     -10.275   7.678  14.655  1.00  0.00     0.125 A 
ATOM      9  C   UNL     1      -9.981   6.741  15.653  1.00  0.00     0.078 A 
ATOM     10  C   UNL     1      -9.449   7.169  16.873  1.00  0.00     0.223 A 
ENDROOT
BRANCH   1  11
ATOM     11  C   UNL     1      -8.623   9.075  18.317  1.00  0.00     0.091 A 
ATOM     12  C   UNL     1      -7.254   9.374  18.423  1.00  0.00     0.068 A 
ATOM     13  C   UNL     1      -6.728   9.895  19.610  1.00  0.00     0.162 A 
ATOM     14  C   UNL     1      -9.466   9.339  19.408  1.00  0.00     0.068 A 
ATOM     15  C   UNL     1      -7.574  10.136  20.707  1.00  0.00     0.200 A 
ATOM     16  C   UNL     1      -8.948   9.860  20.601  1.00  0.00     0.162 A 
BRANCH  13  17
ATOM     17  O   UNL     1      -5.363  10.173  19.679  1.00  0.00    -0.504 OA
ATOM     18  H   UNL     1      -4.973  11.041  19.336  1.00  0.00     0.293 HD
ENDBRANCH  13  17
BRANCH  15  19
ATOM     19  O   UNL     1      -7.040  10.653  21.888  1.00  0.00    -0.502 OA
ATOM     20  H   UNL     1      -7.539  10.611  22.769  1.00  0.00     0.293 HD
ENDBRANCH  15  19
BRANCH  16  21
ATOM     21  O   UNL     1      -9.794  10.104  21.681  1.00  0.00    -0.504 OA
ATOM     22  H   UNL     1      -9.974  11.044  22.014  1.00  0.00     0.293 HD
ENDBRANCH  16  21
ENDBRANCH   1  11
BRANCH  10  23
ATOM     23  O   UNL     1      -9.202   6.247  17.889  1.00  0.00    -0.500 OA
ATOM     24  H   UNL     1      -9.562   5.301  17.848  1.00  0.00     0.294 HD
ENDBRANCH  10  23
BRANCH   5  25
ATOM     25  O   UNL     1     -11.136  10.592  11.754  1.00  0.00    -0.507 OA
ATOM     26  H   UNL     1     -11.775  10.399  10.991  1.00  0.00     0.293 HD
ENDBRANCH   5  25
BRANCH   7  27
ATOM     27  O   UNL     1     -11.076   5.958  13.131  1.00  0.00    -0.507 OA
ATOM     28  H   UNL     1     -11.962   5.527  13.368  1.00  0.00     0.293 HD
ENDBRANCH   7  27
TORSDOF 7
ENDMDL
MODEL 8
REMARK VINA RESULT:    -5.448      1.763      3.311
REMARK INTER + INTRA:          -6.989
REMARK INTER:                  -6.735
REMARK INTRA:                  -0.254
REMARK UNBOUND:                -0.268
REMARK SMILES Oc1cc(O)c2cc(O)c(-c3cc(O)c(O)c(O)c3)[o+]c2c1
REMARK SMILES IDX 10 1 20 2 21 3 22 4 2 5 3 6 4 7 6 8 7 9 8 10 11 11 12 12
REMARK SMILES IDX 13 13 19 14 15 15 17 16 14 17 16 19 18 21 9 23 1 25 5 27
REMARK H PARENT 14 18 16 20 18 22 9 24 1 26 5 28
REMARK Flexibility Score: inf
ROOT
ATOM      1  C   UNL     1      -8.224   9.332  17.172  1.00  0.00     0.402 A 
ATOM      2  O   UNL     1      -9.305   9.411  17.948  1.00  0.00    -0.202 OA
ATOM      3  C   UNL     1      -9.255   9.745  19.233  1.00  0.00     0.368 A 
ATOM      4  C   UNL     1     -10.435   9.802  19.979  1.00  0.00     0.162 A 
ATOM      5  C   UNL     1     -10.396  10.149  21.336  1.00  0.00     0.128 A 
ATOM      6  C   UNL     1      -9.171  10.441  21.945  1.00  0.00     0.093 A 
ATOM      7  C   UNL     1      -7.979  10.390  21.209  1.00  0.00     0.136 A 
ATOM      8  C   UNL     1      -8.018  10.042  19.846  1.00  0.00     0.125 A 
ATOM      9  C   UNL     1      -6.862   9.982  19.060  1.00  0.00     0.078 A 
ATOM     10  C   UNL     1      -6.956   9.636  17.709  1.00  0.00     0.223 A 
ENDROOT
BRANCH   1  11
ATOM     11  C   UNL     1      -8.407   8.940  15.756  1.00  0.00     0.091 A 
ATOM     12  C   UNL     1      -8.170   9.848  14.709  1.00  0.00     0.068 A 
ATOM     13  C   UNL     1      -8.326   9.454  13.376  1.00  0.00     0.162 A 
ATOM     14  C   UNL     1      -8.770   7.620  15.446  1.00  0.00     0.068 A 
ATOM     15  C   UNL     1      -8.712   8.137  13.073  1.00  0.00     0.200 A 
ATOM     16  C   UNL     1      -8.929   7.218  14.113  1.00  0.00     0.162 A 
BRANCH  13  17
ATOM     17  O   UNL     1      -8.087  10.385  12.365  1.00  0.00    -0.504 OA
ATOM     18  H   UNL     1      -8.277  11.372  12.486  1.00  0.00     0.293 HD
ENDBRANCH  13  17
BRANCH  15  19
ATOM     19  O   UNL     1      -8.869   7.755  11.740  1.00  0.00    -0.502 OA
ATOM     20  H   UNL     1      -8.218   7.130  11.278  1.00  0.00     0.293 HD
ENDBRANCH  15  19
BRANCH  16  21
ATOM     21  O   UNL     1      -9.304   5.908  13.820  1.00  0.00    -0.504 OA
ATOM     22  H   UNL     1     -10.265   5.663  13.613  1.00  0.00     0.293 HD
ENDBRANCH  16  21
ENDBRANCH   1  11
BRANCH  10  23
ATOM     23  O   UNL     1      -5.815   9.625  16.908  1.00  0.00    -0.500 OA
ATOM     24  H   UNL     1      -5.154   8.858  16.936  1.00  0.00     0.294 HD
ENDBRANCH  10  23
BRANCH   5  25
ATOM     25  O   UNL     1     -11.567  10.206  22.088  1.00  0.00    -0.507 OA
ATOM     26  H   UNL     1     -11.854   9.436  22.681  1.00  0.00     0.293 HD
ENDBRANCH   5  25
BRANCH   7  27
ATOM     27  O   UNL     1      -6.763  10.686  21.829  1.00  0.00    -0.507 OA
ATOM     28  H   UNL     1      -5.939  10.115  21.681  1.00  0.00     0.293 HD
ENDBRANCH   7  27
TORSDOF 7
ENDMDL
MODEL 9
REMARK VINA RESULT:    -5.317      2.573      3.822
REMARK INTER + INTRA:          -6.828
REMARK INTER:                  -6.680
REMARK INTRA:                  -0.148
REMARK UNBOUND:                -0.268
REMARK SMILES Oc1cc(O)c2cc(O)c(-c3cc(O)c(O)c(O)c3)[o+]c2c1
REMARK SMILES IDX 10 1 20 2 21 3 22 4 2 5 3 6 4 7 6 8 7 9 8 10 11 11 12 12
REMARK SMILES IDX 13 13 19 14 15 15 17 16 14 17 16 19 18 21 9 23 1 25 5 27
REMARK H PARENT 14 18 16 20 18 22 9 24 1 26 5 28
REMARK Flexibility Score: inf
ROOT
ATOM      1  C   UNL     1     -10.600   7.315  12.698  1.00  0.00     0.402 A 
ATOM      2  O   UNL     1     -10.030   6.839  13.805  1.00  0.00    -0.202 OA
ATOM      3  C   UNL     1     -10.214   7.376  15.007  1.00  0.00     0.368 A 
ATOM      4  C   UNL     1      -9.576   6.819  16.118  1.00  0.00     0.162 A 
ATOM      5  C   UNL     1      -9.759   7.378  17.390  1.00  0.00     0.128 A 
ATOM      6  C   UNL     1     -10.584   8.498  17.547  1.00  0.00     0.093 A 
ATOM      7  C   UNL     1     -11.232   9.066  16.441  1.00  0.00     0.136 A 
ATOM      8  C   UNL     1     -11.048   8.505  15.163  1.00  0.00     0.125 A 
ATOM      9  C   UNL     1     -11.675   9.025  14.025  1.00  0.00     0.078 A 
ATOM     10  C   UNL     1     -11.464   8.426  12.780  1.00  0.00     0.223 A 
ENDROOT
BRANCH   1  11
ATOM     11  C   UNL     1     -10.310   6.635  11.414  1.00  0.00     0.091 A 
ATOM     12  C   UNL     1     -11.340   6.099  10.622  1.00  0.00     0.068 A 
ATOM     13  C   UNL     1     -11.051   5.479   9.402  1.00  0.00     0.162 A 
ATOM     14  C   UNL     1      -8.988   6.572  10.949  1.00  0.00     0.068 A 
ATOM     15  C   UNL     1      -9.721   5.399   8.952  1.00  0.00     0.200 A 
ATOM     16  C   UNL     1      -8.689   5.952   9.729  1.00  0.00     0.162 A 
BRANCH  13  17
ATOM     17  O   UNL     1     -12.099   4.953   8.647  1.00  0.00    -0.504 OA
ATOM     18  H   UNL     1     -11.981   4.143   8.052  1.00  0.00     0.293 HD
ENDBRANCH  13  17
BRANCH  15  19
ATOM     19  O   UNL     1      -9.442   4.776   7.735  1.00  0.00    -0.502 OA
ATOM     20  H   UNL     1     -10.169   4.363   7.162  1.00  0.00     0.293 HD
ENDBRANCH  15  19
BRANCH  16  21
ATOM     21  O   UNL     1      -7.370   5.884   9.286  1.00  0.00    -0.504 OA
ATOM     22  H   UNL     1      -7.073   6.330   8.426  1.00  0.00     0.293 HD
ENDBRANCH  16  21
ENDBRANCH   1  11
BRANCH  10  23
ATOM     23  O   UNL     1     -12.125   8.908  11.651  1.00  0.00    -0.500 OA
ATOM     24  H   UNL     1     -11.626   9.132  10.798  1.00  0.00     0.294 HD
ENDBRANCH  10  23
BRANCH   5  25
ATOM     25  O   UNL     1      -9.126   6.831  18.503  1.00  0.00    -0.507 OA
ATOM     26  H   UNL     1      -9.655   6.448  19.279  1.00  0.00     0.293 HD
ENDBRANCH   5  25
BRANCH   7  27
ATOM     27  O   UNL     1     -12.054  10.182  16.612  1.00  0.00    -0.507 OA
ATOM     28  H   UNL     1     -11.959  10.793  17.415  1.00  0.00     0.293 HD
ENDBRANCH   7  27
TORSDOF 7
ENDMDL
