MODEL 1
REMARK VINA RESULT:    -4.044      0.000      0.000
REMARK INTER + INTRA:          -4.445
REMARK INTER:                  -4.399
REMARK INTRA:                  -0.046
REMARK UNBOUND:                -0.046
REMARK SMILES CCc1cccc(O)c1
REMARK SMILES IDX 3 1 9 2 7 3 6 4 5 5 4 6 2 7 1 8 8 9
REMARK H PARENT 8 10
REMARK Flexibility Score: inf
ROOT
ATOM      1  C   UNL     1     -32.074 -23.602 -37.479  1.00  0.00    -0.045 A 
ATOM      2  C   UNL     1     -31.740 -23.832 -36.133  1.00  0.00     0.049 A 
ATOM      3  C   UNL     1     -32.246 -22.996 -35.127  1.00  0.00     0.115 A 
ATOM      4  C   UNL     1     -33.079 -21.924 -35.465  1.00  0.00     0.046 A 
ATOM      5  C   UNL     1     -33.402 -21.683 -36.803  1.00  0.00     0.004 A 
ATOM      6  C   UNL     1     -32.899 -22.515 -37.808  1.00  0.00     0.004 A 
ENDROOT
BRANCH   1   7
ATOM      7  C   UNL     1     -31.504 -24.478 -38.562  1.00  0.00     0.032 C 
ATOM      8  C   UNL     1     -31.837 -25.943 -38.303  1.00  0.00     0.009 C 
ENDBRANCH   1   7
BRANCH   3   9
ATOM      9  O   UNL     1     -31.926 -23.222 -33.790  1.00  0.00    -0.508 OA
ATOM     10  H   UNL     1     -31.376 -22.559 -33.257  1.00  0.00     0.293 HD
ENDBRANCH   3   9
TORSDOF 2
ENDMDL
MODEL 2
REMARK VINA RESULT:    -3.926      1.921      3.495
REMARK INTER + INTRA:          -4.317
REMARK INTER:                  -4.269
REMARK INTRA:                  -0.048
REMARK UNBOUND:                -0.046
REMARK SMILES CCc1cccc(O)c1
REMARK SMILES IDX 3 1 9 2 7 3 6 4 5 5 4 6 2 7 1 8 8 9
REMARK H PARENT 8 10
REMARK Flexibility Score: inf
ROOT
ATOM      1  C   UNL     1     -32.349 -22.822 -36.303  1.00  0.00    -0.045 A 
ATOM      2  C   UNL     1     -31.468 -23.900 -36.494  1.00  0.00     0.049 A 
ATOM      3  C   UNL     1     -31.148 -24.331 -37.790  1.00  0.00     0.115 A 
ATOM      4  C   UNL     1     -31.716 -23.690 -38.896  1.00  0.00     0.046 A 
ATOM      5  C   UNL     1     -32.603 -22.627 -38.712  1.00  0.00     0.004 A 
ATOM      6  C   UNL     1     -32.923 -22.196 -37.421  1.00  0.00     0.004 A 
ENDROOT
BRANCH   1   7
ATOM      7  C   UNL     1     -32.718 -22.381 -34.912  1.00  0.00     0.032 C 
ATOM      8  C   UNL     1     -31.503 -22.419 -33.993  1.00  0.00     0.009 C 
ENDBRANCH   1   7
BRANCH   3   9
ATOM      9  O   UNL     1     -30.270 -25.394 -37.987  1.00  0.00    -0.508 OA
ATOM     10  H   UNL     1     -30.590 -26.356 -37.974  1.00  0.00     0.293 HD
ENDBRANCH   3   9
TORSDOF 2
ENDMDL
MODEL 3
REMARK VINA RESULT:    -3.854      5.035      7.068
REMARK INTER + INTRA:          -4.238
REMARK INTER:                  -4.187
REMARK INTRA:                  -0.051
REMARK UNBOUND:                -0.046
REMARK SMILES CCc1cccc(O)c1
REMARK SMILES IDX 3 1 9 2 7 3 6 4 5 5 4 6 2 7 1 8 8 9
REMARK H PARENT 8 10
REMARK Flexibility Score: inf
ROOT
ATOM      1  C   UNL     1     -30.184 -20.755 -30.781  1.00  0.00    -0.045 A 
ATOM      2  C   UNL     1     -30.747 -21.428 -31.879  1.00  0.00     0.049 A 
ATOM      3  C   UNL     1     -30.147 -21.345 -33.144  1.00  0.00     0.115 A 
ATOM      4  C   UNL     1     -28.987 -20.582 -33.315  1.00  0.00     0.046 A 
ATOM      5  C   UNL     1     -28.430 -19.900 -32.230  1.00  0.00     0.004 A 
ATOM      6  C   UNL     1     -29.027 -19.981 -30.968  1.00  0.00     0.004 A 
ENDROOT
BRANCH   1   7
ATOM      7  C   UNL     1     -30.847 -20.816 -29.432  1.00  0.00     0.032 C 
ATOM      8  C   UNL     1     -32.046 -19.875 -29.376  1.00  0.00     0.009 C 
ENDBRANCH   1   7
BRANCH   3   9
ATOM      9  O   UNL     1     -30.696 -22.015 -34.234  1.00  0.00    -0.508 OA
ATOM     10  H   UNL     1     -31.488 -22.639 -34.130  1.00  0.00     0.293 HD
ENDBRANCH   3   9
TORSDOF 2
ENDMDL
MODEL 4
REMARK VINA RESULT:    -3.805      1.836      2.413
REMARK INTER + INTRA:          -4.184
REMARK INTER:                  -4.132
REMARK INTRA:                  -0.052
REMARK UNBOUND:                -0.046
REMARK SMILES CCc1cccc(O)c1
REMARK SMILES IDX 3 1 9 2 7 3 6 4 5 5 4 6 2 7 1 8 8 9
REMARK H PARENT 8 10
REMARK Flexibility Score: inf
ROOT
ATOM      1  C   UNL     1     -31.813 -23.732 -37.184  1.00  0.00    -0.045 A 
ATOM      2  C   UNL     1     -32.480 -22.757 -37.946  1.00  0.00     0.049 A 
ATOM      3  C   UNL     1     -33.219 -21.748 -37.312  1.00  0.00     0.115 A 
ATOM      4  C   UNL     1     -33.301 -21.717 -35.916  1.00  0.00     0.046 A 
ATOM      5  C   UNL     1     -32.651 -22.692 -35.154  1.00  0.00     0.004 A 
ATOM      6  C   UNL     1     -31.914 -23.699 -35.784  1.00  0.00     0.004 A 
ENDROOT
BRANCH   1   7
ATOM      7  C   UNL     1     -31.048 -24.834 -37.865  1.00  0.00     0.032 C 
ATOM      8  C   UNL     1     -31.976 -25.984 -38.242  1.00  0.00     0.009 C 
ENDBRANCH   1   7
BRANCH   3   9
ATOM      9  O   UNL     1     -33.877 -20.774 -38.061  1.00  0.00    -0.508 OA
ATOM     10  H   UNL     1     -33.614 -20.575 -39.019  1.00  0.00     0.293 HD
ENDBRANCH   3   9
TORSDOF 2
ENDMDL
MODEL 5
REMARK VINA RESULT:    -3.800      2.201      2.999
REMARK INTER + INTRA:          -4.179
REMARK INTER:                  -4.107
REMARK INTRA:                  -0.072
REMARK UNBOUND:                -0.046
REMARK SMILES CCc1cccc(O)c1
REMARK SMILES IDX 3 1 9 2 7 3 6 4 5 5 4 6 2 7 1 8 8 9
REMARK H PARENT 8 10
REMARK Flexibility Score: inf
ROOT
ATOM      1  C   UNL     1     -32.010 -25.482 -38.047  1.00  0.00    -0.045 A 
ATOM      2  C   UNL     1     -31.408 -24.447 -38.784  1.00  0.00     0.049 A 
ATOM      3  C   UNL     1     -31.500 -23.119 -38.343  1.00  0.00     0.115 A 
ATOM      4  C   UNL     1     -32.201 -22.822 -37.170  1.00  0.00     0.046 A 
ATOM      5  C   UNL     1     -32.813 -23.845 -36.441  1.00  0.00     0.004 A 
ATOM      6  C   UNL     1     -32.723 -25.170 -36.879  1.00  0.00     0.004 A 
ENDROOT
BRANCH   1   7
ATOM      7  C   UNL     1     -31.940 -26.903 -38.537  1.00  0.00     0.032 C 
ATOM      8  C   UNL     1     -33.243 -27.640 -38.247  1.00  0.00     0.009 C 
ENDBRANCH   1   7
BRANCH   3   9
ATOM      9  O   UNL     1     -30.900 -22.090 -39.065  1.00  0.00    -0.508 OA
ATOM     10  H   UNL     1     -30.941 -21.127 -38.750  1.00  0.00     0.293 HD
ENDBRANCH   3   9
TORSDOF 2
ENDMDL
MODEL 6
REMARK VINA RESULT:    -3.744      2.010      3.711
REMARK INTER + INTRA:          -4.119
REMARK INTER:                  -4.047
REMARK INTRA:                  -0.072
REMARK UNBOUND:                -0.046
REMARK SMILES CCc1cccc(O)c1
REMARK SMILES IDX 3 1 9 2 7 3 6 4 5 5 4 6 2 7 1 8 8 9
REMARK H PARENT 8 10
REMARK Flexibility Score: inf
ROOT
ATOM      1  C   UNL     1     -32.134 -22.446 -34.803  1.00  0.00    -0.045 A 
ATOM      2  C   UNL     1     -32.111 -23.617 -35.581  1.00  0.00     0.049 A 
ATOM      3  C   UNL     1     -32.921 -23.725 -36.721  1.00  0.00     0.115 A 
ATOM      4  C   UNL     1     -33.762 -22.666 -37.080  1.00  0.00     0.046 A 
ATOM      5  C   UNL     1     -33.799 -21.505 -36.302  1.00  0.00     0.004 A 
ATOM      6  C   UNL     1     -32.992 -21.396 -35.165  1.00  0.00     0.004 A 
ENDROOT
BRANCH   1   7
ATOM      7  C   UNL     1     -31.290 -22.344 -33.562  1.00  0.00     0.032 C 
ATOM      8  C   UNL     1     -31.000 -20.885 -33.224  1.00  0.00     0.009 C 
ENDBRANCH   1   7
BRANCH   3   9
ATOM      9  O   UNL     1     -32.898 -24.879 -37.500  1.00  0.00    -0.508 OA
ATOM     10  H   UNL     1     -33.106 -24.854 -38.491  1.00  0.00     0.293 HD
ENDBRANCH   3   9
TORSDOF 2
ENDMDL
MODEL 7
REMARK VINA RESULT:    -3.703      2.833      4.542
REMARK INTER + INTRA:          -4.074
REMARK INTER:                  -4.024
REMARK INTRA:                  -0.050
REMARK UNBOUND:                -0.046
REMARK SMILES CCc1cccc(O)c1
REMARK SMILES IDX 3 1 9 2 7 3 6 4 5 5 4 6 2 7 1 8 8 9
REMARK H PARENT 8 10
REMARK Flexibility Score: inf
ROOT
ATOM      1  C   UNL     1     -31.104 -21.286 -33.404  1.00  0.00    -0.045 A 
ATOM      2  C   UNL     1     -31.542 -22.422 -34.106  1.00  0.00     0.049 A 
ATOM      3  C   UNL     1     -32.607 -22.326 -35.014  1.00  0.00     0.115 A 
ATOM      4  C   UNL     1     -33.240 -21.095 -35.214  1.00  0.00     0.046 A 
ATOM      5  C   UNL     1     -32.817 -19.965 -34.509  1.00  0.00     0.004 A 
ATOM      6  C   UNL     1     -31.757 -20.059 -33.603  1.00  0.00     0.004 A 
ENDROOT
BRANCH   1   7
ATOM      7  C   UNL     1     -29.984 -21.397 -32.404  1.00  0.00     0.032 C 
ATOM      8  C   UNL     1     -30.432 -22.180 -31.175  1.00  0.00     0.009 C 
ENDBRANCH   1   7
BRANCH   3   9
ATOM      9  O   UNL     1     -33.041 -23.446 -35.718  1.00  0.00    -0.508 OA
ATOM     10  H   UNL     1     -33.401 -24.265 -35.242  1.00  0.00     0.293 HD
ENDBRANCH   3   9
TORSDOF 2
ENDMDL
MODEL 8
REMARK VINA RESULT:    -1.886      4.174      5.533
REMARK INTER + INTRA:          -2.097
REMARK INTER:                  -2.033
REMARK INTRA:                  -0.064
REMARK UNBOUND:                -0.046
REMARK SMILES CCc1cccc(O)c1
REMARK SMILES IDX 3 1 9 2 7 3 6 4 5 5 4 6 2 7 1 8 8 9
REMARK H PARENT 8 10
REMARK Flexibility Score: inf
ROOT
ATOM      1  C   UNL     1     -30.785 -21.754 -32.833  1.00  0.00    -0.045 A 
ATOM      2  C   UNL     1     -30.736 -22.276 -31.530  1.00  0.00     0.049 A 
ATOM      3  C   UNL     1     -30.043 -21.594 -30.520  1.00  0.00     0.115 A 
ATOM      4  C   UNL     1     -29.390 -20.392 -30.814  1.00  0.00     0.046 A 
ATOM      5  C   UNL     1     -29.424 -19.875 -32.112  1.00  0.00     0.004 A 
ATOM      6  C   UNL     1     -30.114 -20.554 -33.120  1.00  0.00     0.004 A 
ENDROOT
BRANCH   1   7
ATOM      7  C   UNL     1     -31.501 -22.503 -33.925  1.00  0.00     0.032 C 
ATOM      8  C   UNL     1     -32.490 -21.594 -34.646  1.00  0.00     0.009 C 
ENDBRANCH   1   7
BRANCH   3   9
ATOM      9  O   UNL     1     -29.996 -22.102 -29.224  1.00  0.00    -0.508 OA
ATOM     10  H   UNL     1     -29.201 -22.634 -28.891  1.00  0.00     0.293 HD
ENDBRANCH   3   9
TORSDOF 2
ENDMDL
