MODEL 1
REMARK VINA RESULT:    -4.659      0.000      0.000
REMARK INTER + INTRA:         -16.176
REMARK INTER:                 -11.742
REMARK INTRA:                  -4.434
REMARK UNBOUND:                -4.434
REMARK SMILES CCCCCCCCCCCCCCCCCCCCCCCCCCCC(=O)[O-]
REMARK SMILES IDX 15 1 16 2 17 3 18 4 19 5 20 6 21 7 22 8 23 9 24 10 25 11
REMARK SMILES IDX 26 12 27 13 28 14 29 15 30 16 14 17 13 18 12 19 11 20 10 21
REMARK SMILES IDX 9 22 8 23 7 24 6 25 5 26 4 27 3 28 2 29 1 30
REMARK H PARENT
REMARK Flexibility Score: inf
ROOT
ATOM      1  C   UNL     1      15.002  26.791  53.003  1.00  0.00     0.000 C 
ENDROOT
BRANCH   1   2
ATOM      2  C   UNL     1      13.993  26.086  52.072  1.00  0.00     0.000 C 
BRANCH   2   3
ATOM      3  C   UNL     1      14.101  24.552  52.026  1.00  0.00     0.000 C 
BRANCH   3   4
ATOM      4  C   UNL     1      14.434  24.018  50.623  1.00  0.00     0.000 C 
BRANCH   4   5
ATOM      5  C   UNL     1      14.504  25.131  49.562  1.00  0.00     0.000 C 
BRANCH   5   6
ATOM      6  C   UNL     1      15.905  25.386  48.970  1.00  0.00     0.000 C 
BRANCH   6   7
ATOM      7  C   UNL     1      16.476  26.793  49.219  1.00  0.00     0.000 C 
BRANCH   7   8
ATOM      8  C   UNL     1      15.471  27.910  48.907  1.00  0.00     0.000 C 
BRANCH   8   9
ATOM      9  C   UNL     1      15.383  28.917  50.063  1.00  0.00     0.000 C 
BRANCH   9  10
ATOM     10  C   UNL     1      14.924  30.311  49.587  1.00  0.00     0.000 C 
BRANCH  10  11
ATOM     11  C   UNL     1      13.981  31.023  50.572  1.00  0.00     0.000 C 
BRANCH  11  12
ATOM     12  C   UNL     1      14.642  31.319  51.926  1.00  0.00     0.006 C 
BRANCH  12  13
ATOM     13  C   UNL     1      15.817  32.288  51.767  1.00  0.00     0.053 C 
BRANCH  13  14
ATOM     14  C   UNL     1      15.344  33.639  51.324  1.00  0.00     0.041 C 
ATOM     15  O   UNL     1      14.350  34.178  51.882  1.00  0.00    -0.550 OA
ATOM     16  O   UNL     1      16.011  34.311  50.307  1.00  0.00    -0.550 OA
ENDBRANCH  13  14
ENDBRANCH  12  13
ENDBRANCH  11  12
ENDBRANCH  10  11
ENDBRANCH   9  10
ENDBRANCH   8   9
ENDBRANCH   7   8
ENDBRANCH   6   7
ENDBRANCH   5   6
ENDBRANCH   4   5
ENDBRANCH   3   4
ENDBRANCH   2   3
ENDBRANCH   1   2
BRANCH   1  17
ATOM     17  C   UNL     1      15.664  25.885  54.056  1.00  0.00     0.000 C 
BRANCH  17  18
ATOM     18  C   UNL     1      17.197  25.916  53.986  1.00  0.00     0.000 C 
BRANCH  18  19
ATOM     19  C   UNL     1      17.676  26.482  52.643  1.00  0.00     0.000 C 
BRANCH  19  20
ATOM     20  C   UNL     1      18.670  27.631  52.852  1.00  0.00     0.000 C 
BRANCH  20  21
ATOM     21  C   UNL     1      17.966  28.993  52.751  1.00  0.00     0.000 C 
BRANCH  21  22
ATOM     22  C   UNL     1      18.627  30.067  53.631  1.00  0.00    -0.000 C 
BRANCH  22  23
ATOM     23  C   UNL     1      17.656  30.651  54.671  1.00  0.00    -0.000 C 
BRANCH  23  24
ATOM     24  C   UNL     1      16.462  29.725  54.961  1.00  0.00    -0.000 C 
BRANCH  24  25
ATOM     25  C   UNL     1      15.695  30.040  56.260  1.00  0.00    -0.000 C 
BRANCH  25  26
ATOM     26  C   UNL     1      15.930  31.471  56.789  1.00  0.00    -0.000 C 
BRANCH  26  27
ATOM     27  C   UNL     1      14.904  32.471  56.235  1.00  0.00    -0.000 C 
BRANCH  27  28
ATOM     28  C   UNL     1      13.591  32.408  57.025  1.00  0.00    -0.000 C 
BRANCH  28  29
ATOM     29  C   UNL     1      12.578  33.428  56.492  1.00  0.00    -0.003 C 
ATOM     30  C   UNL     1      13.006  33.974  55.134  1.00  0.00     0.004 C 
ENDBRANCH  28  29
ENDBRANCH  27  28
ENDBRANCH  26  27
ENDBRANCH  25  26
ENDBRANCH  24  25
ENDBRANCH  23  24
ENDBRANCH  22  23
ENDBRANCH  21  22
ENDBRANCH  20  21
ENDBRANCH  19  20
ENDBRANCH  18  19
ENDBRANCH  17  18
ENDBRANCH   1  17
TORSDOF 26
ENDMDL
MODEL 2
REMARK VINA RESULT:    -4.625      3.454      7.074
REMARK INTER + INTRA:         -16.089
REMARK INTER:                 -10.650
REMARK INTRA:                  -5.439
REMARK UNBOUND:                -4.434
REMARK SMILES CCCCCCCCCCCCCCCCCCCCCCCCCCCC(=O)[O-]
REMARK SMILES IDX 15 1 16 2 17 3 18 4 19 5 20 6 21 7 22 8 23 9 24 10 25 11
REMARK SMILES IDX 26 12 27 13 28 14 29 15 30 16 14 17 13 18 12 19 11 20 10 21
REMARK SMILES IDX 9 22 8 23 7 24 6 25 5 26 4 27 3 28 2 29 1 30
REMARK H PARENT
REMARK Flexibility Score: inf
ROOT
ATOM      1  C   UNL     1      15.702  28.610  54.722  1.00  0.00     0.000 C 
ENDROOT
BRANCH   1   2
ATOM      2  C   UNL     1      16.177  29.507  55.884  1.00  0.00     0.000 C 
BRANCH   2   3
ATOM      3  C   UNL     1      17.228  30.567  55.508  1.00  0.00     0.000 C 
BRANCH   3   4
ATOM      4  C   UNL     1      17.534  30.597  54.002  1.00  0.00     0.000 C 
BRANCH   4   5
ATOM      5  C   UNL     1      19.032  30.778  53.701  1.00  0.00     0.000 C 
BRANCH   5   6
ATOM      6  C   UNL     1      19.990  30.173  54.748  1.00  0.00     0.000 C 
BRANCH   6   7
ATOM      7  C   UNL     1      20.948  29.094  54.214  1.00  0.00     0.000 C 
BRANCH   7   8
ATOM      8  C   UNL     1      20.751  28.807  52.719  1.00  0.00     0.000 C 
BRANCH   8   9
ATOM      9  C   UNL     1      22.095  28.786  51.975  1.00  0.00     0.000 C 
BRANCH   9  10
ATOM     10  C   UNL     1      22.155  29.843  50.852  1.00  0.00     0.000 C 
BRANCH  10  11
ATOM     11  C   UNL     1      21.799  31.264  51.320  1.00  0.00     0.000 C 
BRANCH  11  12
ATOM     12  C   UNL     1      22.949  31.954  52.068  1.00  0.00     0.006 C 
BRANCH  12  13
ATOM     13  C   UNL     1      22.480  32.497  53.421  1.00  0.00     0.053 C 
BRANCH  13  14
ATOM     14  C   UNL     1      23.310  31.944  54.539  1.00  0.00     0.041 C 
ATOM     15  O   UNL     1      23.338  32.525  55.657  1.00  0.00    -0.550 OA
ATOM     16  O   UNL     1      24.039  30.775  54.353  1.00  0.00    -0.550 OA
ENDBRANCH  13  14
ENDBRANCH  12  13
ENDBRANCH  11  12
ENDBRANCH  10  11
ENDBRANCH   9  10
ENDBRANCH   8   9
ENDBRANCH   7   8
ENDBRANCH   6   7
ENDBRANCH   5   6
ENDBRANCH   4   5
ENDBRANCH   3   4
ENDBRANCH   2   3
ENDBRANCH   1   2
BRANCH   1  17
ATOM     17  C   UNL     1      16.334  27.208  54.678  1.00  0.00     0.000 C 
BRANCH  17  18
ATOM     18  C   UNL     1      17.470  27.101  53.650  1.00  0.00     0.000 C 
BRANCH  18  19
ATOM     19  C   UNL     1      18.069  25.689  53.636  1.00  0.00     0.000 C 
BRANCH  19  20
ATOM     20  C   UNL     1      19.034  25.512  52.458  1.00  0.00     0.000 C 
BRANCH  20  21
ATOM     21  C   UNL     1      18.513  26.234  51.206  1.00  0.00     0.000 C 
BRANCH  21  22
ATOM     22  C   UNL     1      18.294  25.280  50.021  1.00  0.00    -0.000 C 
BRANCH  22  23
ATOM     23  C   UNL     1      17.724  23.921  50.460  1.00  0.00    -0.000 C 
BRANCH  23  24
ATOM     24  C   UNL     1      16.187  23.875  50.418  1.00  0.00    -0.000 C 
BRANCH  24  25
ATOM     25  C   UNL     1      15.498  23.885  51.797  1.00  0.00    -0.000 C 
BRANCH  25  26
ATOM     26  C   UNL     1      14.609  25.123  52.039  1.00  0.00    -0.000 C 
BRANCH  26  27
ATOM     27  C   UNL     1      14.801  26.197  50.957  1.00  0.00    -0.000 C 
BRANCH  27  28
ATOM     28  C   UNL     1      14.465  27.591  51.499  1.00  0.00    -0.000 C 
BRANCH  28  29
ATOM     29  C   UNL     1      15.235  28.677  50.739  1.00  0.00    -0.003 C 
ATOM     30  C   UNL     1      15.723  28.166  49.387  1.00  0.00     0.004 C 
ENDBRANCH  28  29
ENDBRANCH  27  28
ENDBRANCH  26  27
ENDBRANCH  25  26
ENDBRANCH  24  25
ENDBRANCH  23  24
ENDBRANCH  22  23
ENDBRANCH  21  22
ENDBRANCH  20  21
ENDBRANCH  19  20
ENDBRANCH  18  19
ENDBRANCH  17  18
ENDBRANCH   1  17
TORSDOF 26
ENDMDL
MODEL 3
REMARK VINA RESULT:    -4.618      2.067      4.588
REMARK INTER + INTRA:         -16.072
REMARK INTER:                 -10.828
REMARK INTRA:                  -5.244
REMARK UNBOUND:                -4.434
REMARK SMILES CCCCCCCCCCCCCCCCCCCCCCCCCCCC(=O)[O-]
REMARK SMILES IDX 15 1 16 2 17 3 18 4 19 5 20 6 21 7 22 8 23 9 24 10 25 11
REMARK SMILES IDX 26 12 27 13 28 14 29 15 30 16 14 17 13 18 12 19 11 20 10 21
REMARK SMILES IDX 9 22 8 23 7 24 6 25 5 26 4 27 3 28 2 29 1 30
REMARK H PARENT
REMARK Flexibility Score: inf
ROOT
ATOM      1  C   UNL     1      20.207  27.099  51.001  1.00  0.00     0.000 C 
ENDROOT
BRANCH   1   2
ATOM      2  C   UNL     1      20.350  25.596  51.318  1.00  0.00     0.000 C 
BRANCH   2   3
ATOM      3  C   UNL     1      19.660  24.646  50.325  1.00  0.00     0.000 C 
BRANCH   3   4
ATOM      4  C   UNL     1      18.268  25.140  49.893  1.00  0.00     0.000 C 
BRANCH   4   5
ATOM      5  C   UNL     1      17.234  24.004  49.799  1.00  0.00     0.000 C 
BRANCH   5   6
ATOM      6  C   UNL     1      16.286  23.878  51.008  1.00  0.00     0.000 C 
BRANCH   6   7
ATOM      7  C   UNL     1      14.830  24.301  50.747  1.00  0.00     0.000 C 
BRANCH   7   8
ATOM      8  C   UNL     1      14.246  25.163  51.875  1.00  0.00     0.000 C 
BRANCH   8   9
ATOM      9  C   UNL     1      14.023  26.611  51.409  1.00  0.00     0.000 C 
BRANCH   9  10
ATOM     10  C   UNL     1      14.920  26.980  50.209  1.00  0.00     0.000 C 
BRANCH  10  11
ATOM     11  C   UNL     1      15.634  28.333  50.362  1.00  0.00     0.000 C 
BRANCH  11  12
ATOM     12  C   UNL     1      14.994  29.231  51.430  1.00  0.00     0.006 C 
BRANCH  12  13
ATOM     13  C   UNL     1      15.731  30.569  51.541  1.00  0.00     0.053 C 
BRANCH  13  14
ATOM     14  C   UNL     1      14.924  31.678  50.939  1.00  0.00     0.041 C 
ATOM     15  O   UNL     1      13.667  31.677  51.040  1.00  0.00    -0.550 OA
ATOM     16  O   UNL     1      15.559  32.726  50.282  1.00  0.00    -0.550 OA
ENDBRANCH  13  14
ENDBRANCH  12  13
ENDBRANCH  11  12
ENDBRANCH  10  11
ENDBRANCH   9  10
ENDBRANCH   8   9
ENDBRANCH   7   8
ENDBRANCH   6   7
ENDBRANCH   5   6
ENDBRANCH   4   5
ENDBRANCH   3   4
ENDBRANCH   2   3
ENDBRANCH   1   2
BRANCH   1  17
ATOM     17  C   UNL     1      19.291  27.885  51.955  1.00  0.00     0.000 C 
BRANCH  17  18
ATOM     18  C   UNL     1      18.805  27.041  53.141  1.00  0.00     0.000 C 
BRANCH  18  19
ATOM     19  C   UNL     1      17.279  26.880  53.116  1.00  0.00     0.000 C 
BRANCH  19  20
ATOM     20  C   UNL     1      16.788  26.087  54.333  1.00  0.00     0.000 C 
BRANCH  20  21
ATOM     21  C   UNL     1      16.062  27.003  55.330  1.00  0.00     0.000 C 
BRANCH  21  22
ATOM     22  C   UNL     1      15.748  28.388  54.740  1.00  0.00    -0.000 C 
BRANCH  22  23
ATOM     23  C   UNL     1      15.885  29.513  55.781  1.00  0.00    -0.000 C 
BRANCH  23  24
ATOM     24  C   UNL     1      16.855  30.622  55.337  1.00  0.00    -0.000 C 
BRANCH  24  25
ATOM     25  C   UNL     1      18.070  30.135  54.523  1.00  0.00    -0.000 C 
BRANCH  25  26
ATOM     26  C   UNL     1      18.735  31.241  53.677  1.00  0.00    -0.000 C 
BRANCH  26  27
ATOM     27  C   UNL     1      20.268  31.143  53.692  1.00  0.00    -0.000 C 
BRANCH  27  28
ATOM     28  C   UNL     1      20.755  30.309  54.883  1.00  0.00    -0.000 C 
BRANCH  28  29
ATOM     29  C   UNL     1      21.697  29.190  54.423  1.00  0.00    -0.003 C 
ATOM     30  C   UNL     1      22.653  29.682  53.342  1.00  0.00     0.004 C 
ENDBRANCH  28  29
ENDBRANCH  27  28
ENDBRANCH  26  27
ENDBRANCH  25  26
ENDBRANCH  24  25
ENDBRANCH  23  24
ENDBRANCH  22  23
ENDBRANCH  21  22
ENDBRANCH  20  21
ENDBRANCH  19  20
ENDBRANCH  18  19
ENDBRANCH  17  18
ENDBRANCH   1  17
TORSDOF 26
ENDMDL
MODEL 4
REMARK VINA RESULT:    -4.604      2.627      6.219
REMARK INTER + INTRA:         -16.036
REMARK INTER:                 -10.531
REMARK INTRA:                  -5.505
REMARK UNBOUND:                -4.434
REMARK SMILES CCCCCCCCCCCCCCCCCCCCCCCCCCCC(=O)[O-]
REMARK SMILES IDX 15 1 16 2 17 3 18 4 19 5 20 6 21 7 22 8 23 9 24 10 25 11
REMARK SMILES IDX 26 12 27 13 28 14 29 15 30 16 14 17 13 18 12 19 11 20 10 21
REMARK SMILES IDX 9 22 8 23 7 24 6 25 5 26 4 27 3 28 2 29 1 30
REMARK H PARENT
REMARK Flexibility Score: inf
ROOT
ATOM      1  C   UNL     1      18.858  30.171  54.174  1.00  0.00     0.000 C 
ENDROOT
BRANCH   1   2
ATOM      2  C   UNL     1      17.716  30.618  55.110  1.00  0.00     0.000 C 
BRANCH   2   3
ATOM      3  C   UNL     1      16.338  30.007  54.806  1.00  0.00     0.000 C 
BRANCH   3   4
ATOM      4  C   UNL     1      15.897  28.975  55.859  1.00  0.00     0.000 C 
BRANCH   4   5
ATOM      5  C   UNL     1      16.132  27.523  55.407  1.00  0.00     0.000 C 
BRANCH   5   6
ATOM      6  C   UNL     1      15.417  27.118  54.102  1.00  0.00     0.000 C 
BRANCH   6   7
ATOM      7  C   UNL     1      15.788  25.728  53.555  1.00  0.00     0.000 C 
BRANCH   7   8
ATOM      8  C   UNL     1      15.406  25.546  52.079  1.00  0.00     0.000 C 
BRANCH   8   9
ATOM      9  C   UNL     1      14.625  26.761  51.554  1.00  0.00     0.000 C 
BRANCH   9  10
ATOM     10  C   UNL     1      15.196  27.287  50.220  1.00  0.00     0.000 C 
BRANCH  10  11
ATOM     11  C   UNL     1      15.569  28.778  50.251  1.00  0.00     0.000 C 
BRANCH  11  12
ATOM     12  C   UNL     1      14.904  29.538  51.408  1.00  0.00     0.006 C 
BRANCH  12  13
ATOM     13  C   UNL     1      14.284  30.852  50.922  1.00  0.00     0.053 C 
BRANCH  13  14
ATOM     14  C   UNL     1      14.829  32.018  51.688  1.00  0.00     0.041 C 
ATOM     15  O   UNL     1      14.059  32.937  52.079  1.00  0.00    -0.550 OA
ATOM     16  O   UNL     1      16.185  32.084  51.988  1.00  0.00    -0.550 OA
ENDBRANCH  13  14
ENDBRANCH  12  13
ENDBRANCH  11  12
ENDBRANCH  10  11
ENDBRANCH   9  10
ENDBRANCH   8   9
ENDBRANCH   7   8
ENDBRANCH   6   7
ENDBRANCH   5   6
ENDBRANCH   4   5
ENDBRANCH   3   4
ENDBRANCH   2   3
ENDBRANCH   1   2
BRANCH   1  17
ATOM     17  C   UNL     1      18.413  29.370  52.937  1.00  0.00     0.000 C 
BRANCH  17  18
ATOM     18  C   UNL     1      18.901  27.915  52.965  1.00  0.00     0.000 C 
BRANCH  18  19
ATOM     19  C   UNL     1      18.695  27.239  51.603  1.00  0.00     0.000 C 
BRANCH  19  20
ATOM     20  C   UNL     1      19.122  25.767  51.649  1.00  0.00     0.000 C 
BRANCH  20  21
ATOM     21  C   UNL     1      19.842  25.443  52.967  1.00  0.00     0.000 C 
BRANCH  21  22
ATOM     22  C   UNL     1      21.162  24.685  52.749  1.00  0.00    -0.000 C 
BRANCH  22  23
ATOM     23  C   UNL     1      21.595  24.675  51.273  1.00  0.00    -0.000 C 
BRANCH  23  24
ATOM     24  C   UNL     1      22.739  25.662  50.980  1.00  0.00    -0.000 C 
BRANCH  24  25
ATOM     25  C   UNL     1      22.340  26.886  50.134  1.00  0.00    -0.000 C 
BRANCH  25  26
ATOM     26  C   UNL     1      22.879  28.224  50.685  1.00  0.00    -0.000 C 
BRANCH  26  27
ATOM     27  C   UNL     1      21.861  29.364  50.539  1.00  0.00    -0.000 C 
BRANCH  27  28
ATOM     28  C   UNL     1      21.778  30.196  51.824  1.00  0.00    -0.000 C 
BRANCH  28  29
ATOM     29  C   UNL     1      22.319  29.412  53.025  1.00  0.00    -0.003 C 
ATOM     30  C   UNL     1      23.016  30.334  54.020  1.00  0.00     0.004 C 
ENDBRANCH  28  29
ENDBRANCH  27  28
ENDBRANCH  26  27
ENDBRANCH  25  26
ENDBRANCH  24  25
ENDBRANCH  23  24
ENDBRANCH  22  23
ENDBRANCH  21  22
ENDBRANCH  20  21
ENDBRANCH  19  20
ENDBRANCH  18  19
ENDBRANCH  17  18
ENDBRANCH   1  17
TORSDOF 26
ENDMDL
MODEL 5
REMARK VINA RESULT:    -4.603      2.585      5.363
REMARK INTER + INTRA:         -16.033
REMARK INTER:                 -10.539
REMARK INTRA:                  -5.494
REMARK UNBOUND:                -4.434
REMARK SMILES CCCCCCCCCCCCCCCCCCCCCCCCCCCC(=O)[O-]
REMARK SMILES IDX 15 1 16 2 17 3 18 4 19 5 20 6 21 7 22 8 23 9 24 10 25 11
REMARK SMILES IDX 26 12 27 13 28 14 29 15 30 16 14 17 13 18 12 19 11 20 10 21
REMARK SMILES IDX 9 22 8 23 7 24 6 25 5 26 4 27 3 28 2 29 1 30
REMARK H PARENT
REMARK Flexibility Score: inf
ROOT
ATOM      1  C   UNL     1      18.299  29.744  52.877  1.00  0.00     0.000 C 
ENDROOT
BRANCH   1   2
ATOM      2  C   UNL     1      17.971  29.504  54.365  1.00  0.00     0.000 C 
BRANCH   2   3
ATOM      3  C   UNL     1      16.559  29.929  54.804  1.00  0.00     0.000 C 
BRANCH   3   4
ATOM      4  C   UNL     1      15.649  28.733  55.128  1.00  0.00     0.000 C 
BRANCH   4   5
ATOM      5  C   UNL     1      16.382  27.383  55.037  1.00  0.00     0.000 C 
BRANCH   5   6
ATOM      6  C   UNL     1      15.646  26.289  54.235  1.00  0.00     0.000 C 
BRANCH   6   7
ATOM      7  C   UNL     1      16.264  25.952  52.867  1.00  0.00     0.000 C 
BRANCH   7   8
ATOM      8  C   UNL     1      15.370  26.367  51.690  1.00  0.00     0.000 C 
BRANCH   8   9
ATOM      9  C   UNL     1      16.097  27.351  50.760  1.00  0.00     0.000 C 
BRANCH   9  10
ATOM     10  C   UNL     1      15.177  28.499  50.295  1.00  0.00     0.000 C 
BRANCH  10  11
ATOM     11  C   UNL     1      14.998  29.612  51.341  1.00  0.00     0.000 C 
BRANCH  11  12
ATOM     12  C   UNL     1      15.193  31.019  50.759  1.00  0.00     0.006 C 
BRANCH  12  13
ATOM     13  C   UNL     1      15.540  32.028  51.858  1.00  0.00     0.053 C 
BRANCH  13  14
ATOM     14  C   UNL     1      15.202  33.424  51.431  1.00  0.00     0.041 C 
ATOM     15  O   UNL     1      15.907  34.014  50.569  1.00  0.00    -0.550 OA
ATOM     16  O   UNL     1      14.096  34.069  51.973  1.00  0.00    -0.550 OA
ENDBRANCH  13  14
ENDBRANCH  12  13
ENDBRANCH  11  12
ENDBRANCH  10  11
ENDBRANCH   9  10
ENDBRANCH   8   9
ENDBRANCH   7   8
ENDBRANCH   6   7
ENDBRANCH   5   6
ENDBRANCH   4   5
ENDBRANCH   3   4
ENDBRANCH   2   3
ENDBRANCH   1   2
BRANCH   1  17
ATOM     17  C   UNL     1      19.010  28.578  52.168  1.00  0.00     0.000 C 
BRANCH  17  18
ATOM     18  C   UNL     1      19.601  27.558  53.150  1.00  0.00     0.000 C 
BRANCH  18  19
ATOM     19  C   UNL     1      20.561  26.597  52.436  1.00  0.00     0.000 C 
BRANCH  19  20
ATOM     20  C   UNL     1      20.272  26.548  50.931  1.00  0.00     0.000 C 
BRANCH  20  21
ATOM     21  C   UNL     1      21.577  26.543  50.120  1.00  0.00     0.000 C 
BRANCH  21  22
ATOM     22  C   UNL     1      22.669  27.422  50.751  1.00  0.00    -0.000 C 
BRANCH  22  23
ATOM     23  C   UNL     1      22.943  28.695  49.931  1.00  0.00    -0.000 C 
BRANCH  23  24
ATOM     24  C   UNL     1      22.072  29.886  50.367  1.00  0.00    -0.000 C 
BRANCH  24  25
ATOM     25  C   UNL     1      22.674  30.755  51.487  1.00  0.00    -0.000 C 
BRANCH  25  26
ATOM     26  C   UNL     1      21.790  30.842  52.750  1.00  0.00    -0.000 C 
BRANCH  26  27
ATOM     27  C   UNL     1      22.195  29.811  53.814  1.00  0.00    -0.000 C 
BRANCH  27  28
ATOM     28  C   UNL     1      21.604  30.170  55.182  1.00  0.00    -0.000 C 
BRANCH  28  29
ATOM     29  C   UNL     1      21.394  31.683  55.313  1.00  0.00    -0.003 C 
ATOM     30  C   UNL     1      20.017  32.002  55.884  1.00  0.00     0.004 C 
ENDBRANCH  28  29
ENDBRANCH  27  28
ENDBRANCH  26  27
ENDBRANCH  25  26
ENDBRANCH  24  25
ENDBRANCH  23  24
ENDBRANCH  22  23
ENDBRANCH  21  22
ENDBRANCH  20  21
ENDBRANCH  19  20
ENDBRANCH  18  19
ENDBRANCH  17  18
ENDBRANCH   1  17
TORSDOF 26
ENDMDL
MODEL 6
REMARK VINA RESULT:    -4.600      2.363      6.426
REMARK INTER + INTRA:         -16.026
REMARK INTER:                 -10.546
REMARK INTRA:                  -5.480
REMARK UNBOUND:                -4.434
REMARK SMILES CCCCCCCCCCCCCCCCCCCCCCCCCCCC(=O)[O-]
REMARK SMILES IDX 15 1 16 2 17 3 18 4 19 5 20 6 21 7 22 8 23 9 24 10 25 11
REMARK SMILES IDX 26 12 27 13 28 14 29 15 30 16 14 17 13 18 12 19 11 20 10 21
REMARK SMILES IDX 9 22 8 23 7 24 6 25 5 26 4 27 3 28 2 29 1 30
REMARK H PARENT
REMARK Flexibility Score: inf
ROOT
ATOM      1  C   UNL     1      16.514  30.406  55.586  1.00  0.00     0.000 C 
ENDROOT
BRANCH   1   2
ATOM      2  C   UNL     1      15.958  28.969  55.509  1.00  0.00     0.000 C 
BRANCH   2   3
ATOM      3  C   UNL     1      16.546  28.095  54.387  1.00  0.00     0.000 C 
BRANCH   3   4
ATOM      4  C   UNL     1      16.472  26.591  54.700  1.00  0.00     0.000 C 
BRANCH   4   5
ATOM      5  C   UNL     1      15.357  25.873  53.920  1.00  0.00     0.000 C 
BRANCH   5   6
ATOM      6  C   UNL     1      15.726  24.474  53.387  1.00  0.00     0.000 C 
BRANCH   6   7
ATOM      7  C   UNL     1      15.356  24.214  51.916  1.00  0.00     0.000 C 
BRANCH   7   8
ATOM      8  C   UNL     1      14.885  25.481  51.186  1.00  0.00     0.000 C 
BRANCH   8   9
ATOM      9  C   UNL     1      15.471  25.554  49.768  1.00  0.00     0.000 C 
BRANCH   9  10
ATOM     10  C   UNL     1      16.023  26.957  49.439  1.00  0.00     0.000 C 
BRANCH  10  11
ATOM     11  C   UNL     1      16.072  27.903  50.650  1.00  0.00     0.000 C 
BRANCH  11  12
ATOM     12  C   UNL     1      15.354  29.237  50.399  1.00  0.00     0.006 C 
BRANCH  12  13
ATOM     13  C   UNL     1      15.296  30.082  51.675  1.00  0.00     0.053 C 
BRANCH  13  14
ATOM     14  C   UNL     1      14.799  31.464  51.381  1.00  0.00     0.041 C 
ATOM     15  O   UNL     1      15.583  32.449  51.449  1.00  0.00    -0.550 OA
ATOM     16  O   UNL     1      13.473  31.665  51.016  1.00  0.00    -0.550 OA
ENDBRANCH  13  14
ENDBRANCH  12  13
ENDBRANCH  11  12
ENDBRANCH  10  11
ENDBRANCH   9  10
ENDBRANCH   8   9
ENDBRANCH   7   8
ENDBRANCH   6   7
ENDBRANCH   5   6
ENDBRANCH   4   5
ENDBRANCH   3   4
ENDBRANCH   2   3
ENDBRANCH   1   2
BRANCH   1  17
ATOM     17  C   UNL     1      17.553  30.763  54.509  1.00  0.00     0.000 C 
BRANCH  17  18
ATOM     18  C   UNL     1      18.991  30.752  55.045  1.00  0.00     0.000 C 
BRANCH  18  19
ATOM     19  C   UNL     1      19.891  29.848  54.191  1.00  0.00     0.000 C 
BRANCH  19  20
ATOM     20  C   UNL     1      19.392  29.785  52.742  1.00  0.00     0.000 C 
BRANCH  20  21
ATOM     21  C   UNL     1      19.590  28.380  52.153  1.00  0.00     0.000 C 
BRANCH  21  22
ATOM     22  C   UNL     1      20.373  27.449  53.093  1.00  0.00    -0.000 C 
BRANCH  22  23
ATOM     23  C   UNL     1      19.835  26.008  53.073  1.00  0.00    -0.000 C 
BRANCH  23  24
ATOM     24  C   UNL     1      18.781  25.779  51.976  1.00  0.00    -0.000 C 
BRANCH  24  25
ATOM     25  C   UNL     1      19.186  24.769  50.886  1.00  0.00    -0.000 C 
BRANCH  25  26
ATOM     26  C   UNL     1      19.262  25.378  49.470  1.00  0.00    -0.000 C 
BRANCH  26  27
ATOM     27  C   UNL     1      20.602  25.084  48.781  1.00  0.00    -0.000 C 
BRANCH  27  28
ATOM     28  C   UNL     1      21.776  25.294  49.745  1.00  0.00    -0.000 C 
BRANCH  28  29
ATOM     29  C   UNL     1      22.116  26.782  49.882  1.00  0.00    -0.003 C 
ATOM     30  C   UNL     1      22.999  27.256  48.732  1.00  0.00     0.004 C 
ENDBRANCH  28  29
ENDBRANCH  27  28
ENDBRANCH  26  27
ENDBRANCH  25  26
ENDBRANCH  24  25
ENDBRANCH  23  24
ENDBRANCH  22  23
ENDBRANCH  21  22
ENDBRANCH  20  21
ENDBRANCH  19  20
ENDBRANCH  18  19
ENDBRANCH  17  18
ENDBRANCH   1  17
TORSDOF 26
ENDMDL
MODEL 7
REMARK VINA RESULT:    -4.591      3.363      6.887
REMARK INTER + INTRA:         -16.004
REMARK INTER:                 -10.594
REMARK INTRA:                  -5.410
REMARK UNBOUND:                -4.434
REMARK SMILES CCCCCCCCCCCCCCCCCCCCCCCCCCCC(=O)[O-]
REMARK SMILES IDX 15 1 16 2 17 3 18 4 19 5 20 6 21 7 22 8 23 9 24 10 25 11
REMARK SMILES IDX 26 12 27 13 28 14 29 15 30 16 14 17 13 18 12 19 11 20 10 21
REMARK SMILES IDX 9 22 8 23 7 24 6 25 5 26 4 27 3 28 2 29 1 30
REMARK H PARENT
REMARK Flexibility Score: inf
ROOT
ATOM      1  C   UNL     1      17.332  30.060  54.466  1.00  0.00     0.000 C 
ENDROOT
BRANCH   1   2
ATOM      2  C   UNL     1      18.622  29.420  53.912  1.00  0.00     0.000 C 
BRANCH   2   3
ATOM      3  C   UNL     1      18.606  29.104  52.407  1.00  0.00     0.000 C 
BRANCH   3   4
ATOM      4  C   UNL     1      18.807  27.608  52.109  1.00  0.00     0.000 C 
BRANCH   4   5
ATOM      5  C   UNL     1      19.414  26.839  53.295  1.00  0.00     0.000 C 
BRANCH   5   6
ATOM      6  C   UNL     1      19.716  25.351  53.027  1.00  0.00     0.000 C 
BRANCH   6   7
ATOM      7  C   UNL     1      21.050  25.071  52.311  1.00  0.00     0.000 C 
BRANCH   7   8
ATOM      8  C   UNL     1      20.888  24.898  50.794  1.00  0.00     0.000 C 
BRANCH   8   9
ATOM      9  C   UNL     1      21.421  26.124  50.036  1.00  0.00     0.000 C 
BRANCH   9  10
ATOM     10  C   UNL     1      22.495  26.884  50.841  1.00  0.00     0.000 C 
BRANCH  10  11
ATOM     11  C   UNL     1      22.357  28.414  50.768  1.00  0.00     0.000 C 
BRANCH  11  12
ATOM     12  C   UNL     1      22.502  29.096  52.136  1.00  0.00     0.006 C 
BRANCH  12  13
ATOM     13  C   UNL     1      23.903  29.690  52.311  1.00  0.00     0.053 C 
BRANCH  13  14
ATOM     14  C   UNL     1      23.898  31.164  52.043  1.00  0.00     0.041 C 
ATOM     15  O   UNL     1      22.827  31.749  51.726  1.00  0.00    -0.550 OA
ATOM     16  O   UNL     1      25.072  31.898  52.161  1.00  0.00    -0.550 OA
ENDBRANCH  13  14
ENDBRANCH  12  13
ENDBRANCH  11  12
ENDBRANCH  10  11
ENDBRANCH   9  10
ENDBRANCH   8   9
ENDBRANCH   7   8
ENDBRANCH   6   7
ENDBRANCH   5   6
ENDBRANCH   4   5
ENDBRANCH   3   4
ENDBRANCH   2   3
ENDBRANCH   1   2
BRANCH   1  17
ATOM     17  C   UNL     1      16.054  29.224  54.274  1.00  0.00     0.000 C 
BRANCH  17  18
ATOM     18  C   UNL     1      15.778  28.282  55.455  1.00  0.00     0.000 C 
BRANCH  18  19
ATOM     19  C   UNL     1      16.131  26.832  55.097  1.00  0.00     0.000 C 
BRANCH  19  20
ATOM     20  C   UNL     1      15.589  26.459  53.712  1.00  0.00     0.000 C 
BRANCH  20  21
ATOM     21  C   UNL     1      16.140  25.100  53.253  1.00  0.00     0.000 C 
BRANCH  21  22
ATOM     22  C   UNL     1      15.110  24.284  52.455  1.00  0.00    -0.000 C 
BRANCH  22  23
ATOM     23  C   UNL     1      15.574  24.002  51.016  1.00  0.00    -0.000 C 
BRANCH  23  24
ATOM     24  C   UNL     1      16.970  24.575  50.715  1.00  0.00    -0.000 C 
BRANCH  24  25
ATOM     25  C   UNL     1      16.993  25.727  49.691  1.00  0.00    -0.000 C 
BRANCH  25  26
ATOM     26  C   UNL     1      15.603  26.338  49.413  1.00  0.00    -0.000 C 
BRANCH  26  27
ATOM     27  C   UNL     1      15.640  27.873  49.377  1.00  0.00    -0.000 C 
BRANCH  27  28
ATOM     28  C   UNL     1      15.216  28.467  50.725  1.00  0.00    -0.000 C 
BRANCH  28  29
ATOM     29  C   UNL     1      15.437  29.983  50.754  1.00  0.00    -0.003 C 
ATOM     30  C   UNL     1      14.141  30.726  51.063  1.00  0.00     0.004 C 
ENDBRANCH  28  29
ENDBRANCH  27  28
ENDBRANCH  26  27
ENDBRANCH  25  26
ENDBRANCH  24  25
ENDBRANCH  23  24
ENDBRANCH  22  23
ENDBRANCH  21  22
ENDBRANCH  20  21
ENDBRANCH  19  20
ENDBRANCH  18  19
ENDBRANCH  17  18
ENDBRANCH   1  17
TORSDOF 26
ENDMDL
MODEL 8
REMARK VINA RESULT:    -4.577      1.843      3.864
REMARK INTER + INTRA:         -15.969
REMARK INTER:                 -11.001
REMARK INTRA:                  -4.968
REMARK UNBOUND:                -4.434
REMARK SMILES CCCCCCCCCCCCCCCCCCCCCCCCCCCC(=O)[O-]
REMARK SMILES IDX 15 1 16 2 17 3 18 4 19 5 20 6 21 7 22 8 23 9 24 10 25 11
REMARK SMILES IDX 26 12 27 13 28 14 29 15 30 16 14 17 13 18 12 19 11 20 10 21
REMARK SMILES IDX 9 22 8 23 7 24 6 25 5 26 4 27 3 28 2 29 1 30
REMARK H PARENT
REMARK Flexibility Score: inf
ROOT
ATOM      1  C   UNL     1      16.386  26.746  49.284  1.00  0.00     0.000 C 
ENDROOT
BRANCH   1   2
ATOM      2  C   UNL     1      14.882  26.411  49.219  1.00  0.00     0.000 C 
BRANCH   2   3
ATOM      3  C   UNL     1      14.297  25.759  50.485  1.00  0.00     0.000 C 
BRANCH   3   4
ATOM      4  C   UNL     1      14.640  24.265  50.600  1.00  0.00     0.000 C 
BRANCH   4   5
ATOM      5  C   UNL     1      15.185  23.882  51.988  1.00  0.00     0.000 C 
BRANCH   5   6
ATOM      6  C   UNL     1      15.285  25.045  52.996  1.00  0.00     0.000 C 
BRANCH   6   7
ATOM      7  C   UNL     1      16.705  25.355  53.501  1.00  0.00     0.000 C 
BRANCH   7   8
ATOM      8  C   UNL     1      16.844  26.779  54.057  1.00  0.00     0.000 C 
BRANCH   8   9
ATOM      9  C   UNL     1      15.692  27.676  53.577  1.00  0.00     0.000 C 
BRANCH   9  10
ATOM     10  C   UNL     1      16.089  28.526  52.351  1.00  0.00     0.000 C 
BRANCH  10  11
ATOM     11  C   UNL     1      14.903  29.247  51.688  1.00  0.00     0.000 C 
BRANCH  11  12
ATOM     12  C   UNL     1      15.318  30.528  50.951  1.00  0.00     0.006 C 
BRANCH  12  13
ATOM     13  C   UNL     1      15.513  31.690  51.931  1.00  0.00     0.053 C 
BRANCH  13  14
ATOM     14  C   UNL     1      15.369  33.009  51.235  1.00  0.00     0.041 C 
ATOM     15  O   UNL     1      15.985  33.230  50.157  1.00  0.00    -0.550 OA
ATOM     16  O   UNL     1      14.540  33.990  51.767  1.00  0.00    -0.550 OA
ENDBRANCH  13  14
ENDBRANCH  12  13
ENDBRANCH  11  12
ENDBRANCH  10  11
ENDBRANCH   9  10
ENDBRANCH   8   9
ENDBRANCH   7   8
ENDBRANCH   6   7
ENDBRANCH   5   6
ENDBRANCH   4   5
ENDBRANCH   3   4
ENDBRANCH   2   3
ENDBRANCH   1   2
BRANCH   1  17
ATOM     17  C   UNL     1      17.258  26.049  48.226  1.00  0.00     0.000 C 
BRANCH  17  18
ATOM     18  C   UNL     1      17.920  24.768  48.752  1.00  0.00     0.000 C 
BRANCH  18  19
ATOM     19  C   UNL     1      18.343  24.930  50.219  1.00  0.00     0.000 C 
BRANCH  19  20
ATOM     20  C   UNL     1      19.862  25.106  50.338  1.00  0.00     0.000 C 
BRANCH  20  21
ATOM     21  C   UNL     1      20.208  26.425  51.046  1.00  0.00     0.000 C 
BRANCH  21  22
ATOM     22  C   UNL     1      20.112  26.316  52.577  1.00  0.00    -0.000 C 
BRANCH  22  23
ATOM     23  C   UNL     1      20.562  27.605  53.286  1.00  0.00    -0.000 C 
BRANCH  23  24
ATOM     24  C   UNL     1      20.242  28.875  52.477  1.00  0.00    -0.000 C 
BRANCH  24  25
ATOM     25  C   UNL     1      19.354  29.902  53.205  1.00  0.00    -0.000 C 
BRANCH  25  26
ATOM     26  C   UNL     1      19.903  30.333  54.581  1.00  0.00    -0.000 C 
BRANCH  26  27
ATOM     27  C   UNL     1      18.817  30.962  55.468  1.00  0.00    -0.000 C 
BRANCH  27  28
ATOM     28  C   UNL     1      17.420  30.720  54.886  1.00  0.00    -0.000 C 
BRANCH  28  29
ATOM     29  C   UNL     1      16.448  30.239  55.969  1.00  0.00    -0.003 C 
ATOM     30  C   UNL     1      16.696  30.955  57.293  1.00  0.00     0.004 C 
ENDBRANCH  28  29
ENDBRANCH  27  28
ENDBRANCH  26  27
ENDBRANCH  25  26
ENDBRANCH  24  25
ENDBRANCH  23  24
ENDBRANCH  22  23
ENDBRANCH  21  22
ENDBRANCH  20  21
ENDBRANCH  19  20
ENDBRANCH  18  19
ENDBRANCH  17  18
ENDBRANCH   1  17
TORSDOF 26
ENDMDL
MODEL 9
REMARK VINA RESULT:    -4.561      2.760      6.268
REMARK INTER + INTRA:         -15.928
REMARK INTER:                 -11.114
REMARK INTRA:                  -4.814
REMARK UNBOUND:                -4.434
REMARK SMILES CCCCCCCCCCCCCCCCCCCCCCCCCCCC(=O)[O-]
REMARK SMILES IDX 15 1 16 2 17 3 18 4 19 5 20 6 21 7 22 8 23 9 24 10 25 11
REMARK SMILES IDX 26 12 27 13 28 14 29 15 30 16 14 17 13 18 12 19 11 20 10 21
REMARK SMILES IDX 9 22 8 23 7 24 6 25 5 26 4 27 3 28 2 29 1 30
REMARK H PARENT
REMARK Flexibility Score: inf
ROOT
ATOM      1  C   UNL     1      14.911  27.213  50.352  1.00  0.00     0.000 C 
ENDROOT
BRANCH   1   2
ATOM      2  C   UNL     1      14.508  25.725  50.401  1.00  0.00     0.000 C 
BRANCH   2   3
ATOM      3  C   UNL     1      14.213  25.170  51.805  1.00  0.00     0.000 C 
BRANCH   3   4
ATOM      4  C   UNL     1      15.382  24.354  52.383  1.00  0.00     0.000 C 
BRANCH   4   5
ATOM      5  C   UNL     1      15.997  24.998  53.638  1.00  0.00     0.000 C 
BRANCH   5   6
ATOM      6  C   UNL     1      15.437  26.388  54.004  1.00  0.00     0.000 C 
BRANCH   6   7
ATOM      7  C   UNL     1      16.256  27.172  55.044  1.00  0.00     0.000 C 
BRANCH   7   8
ATOM      8  C   UNL     1      15.758  28.612  55.234  1.00  0.00     0.000 C 
BRANCH   8   9
ATOM      9  C   UNL     1      16.885  29.626  54.987  1.00  0.00     0.000 C 
BRANCH   9  10
ATOM     10  C   UNL     1      17.195  29.797  53.485  1.00  0.00     0.000 C 
BRANCH  10  11
ATOM     11  C   UNL     1      16.532  31.032  52.852  1.00  0.00     0.000 C 
BRANCH  11  12
ATOM     12  C   UNL     1      15.354  30.675  51.934  1.00  0.00     0.006 C 
BRANCH  12  13
ATOM     13  C   UNL     1      15.184  31.717  50.824  1.00  0.00     0.053 C 
BRANCH  13  14
ATOM     14  C   UNL     1      14.678  33.014  51.378  1.00  0.00     0.041 C 
ATOM     15  O   UNL     1      13.706  33.026  52.180  1.00  0.00    -0.550 OA
ATOM     16  O   UNL     1      15.292  34.210  51.024  1.00  0.00    -0.550 OA
ENDBRANCH  13  14
ENDBRANCH  12  13
ENDBRANCH  11  12
ENDBRANCH  10  11
ENDBRANCH   9  10
ENDBRANCH   8   9
ENDBRANCH   7   8
ENDBRANCH   6   7
ENDBRANCH   5   6
ENDBRANCH   4   5
ENDBRANCH   3   4
ENDBRANCH   2   3
ENDBRANCH   1   2
BRANCH   1  17
ATOM     17  C   UNL     1      16.418  27.488  50.499  1.00  0.00     0.000 C 
BRANCH  17  18
ATOM     18  C   UNL     1      17.286  26.394  49.863  1.00  0.00     0.000 C 
BRANCH  18  19
ATOM     19  C   UNL     1      18.418  25.970  50.807  1.00  0.00     0.000 C 
BRANCH  19  20
ATOM     20  C   UNL     1      18.653  27.025  51.894  1.00  0.00     0.000 C 
BRANCH  20  21
ATOM     21  C   UNL     1      19.446  26.437  53.071  1.00  0.00     0.000 C 
BRANCH  21  22
ATOM     22  C   UNL     1      19.680  24.924  52.928  1.00  0.00    -0.000 C 
BRANCH  22  23
ATOM     23  C   UNL     1      20.958  24.458  53.649  1.00  0.00    -0.000 C 
BRANCH  23  24
ATOM     24  C   UNL     1      22.112  24.152  52.679  1.00  0.00    -0.000 C 
BRANCH  24  25
ATOM     25  C   UNL     1      21.888  24.628  51.230  1.00  0.00    -0.000 C 
BRANCH  25  26
ATOM     26  C   UNL     1      22.886  25.712  50.771  1.00  0.00    -0.000 C 
BRANCH  26  27
ATOM     27  C   UNL     1      22.180  26.921  50.139  1.00  0.00    -0.000 C 
BRANCH  27  28
ATOM     28  C   UNL     1      22.207  28.130  51.080  1.00  0.00    -0.000 C 
BRANCH  28  29
ATOM     29  C   UNL     1      23.273  29.142  50.647  1.00  0.00    -0.003 C 
ATOM     30  C   UNL     1      24.232  29.459  51.789  1.00  0.00     0.004 C 
ENDBRANCH  28  29
ENDBRANCH  27  28
ENDBRANCH  26  27
ENDBRANCH  25  26
ENDBRANCH  24  25
ENDBRANCH  23  24
ENDBRANCH  22  23
ENDBRANCH  21  22
ENDBRANCH  20  21
ENDBRANCH  19  20
ENDBRANCH  18  19
ENDBRANCH  17  18
ENDBRANCH   1  17
TORSDOF 26
ENDMDL
