MODEL 1
REMARK VINA RESULT:    -4.366      0.000      0.000
REMARK INTER + INTRA:          -4.973
REMARK INTER:                  -4.749
REMARK INTRA:                  -0.224
REMARK UNBOUND:                -0.224
REMARK SMILES O=C([O-])c1ccccc1O
REMARK SMILES IDX 4 1 9 2 5 3 8 4 6 5 7 6 2 7 1 8 3 9 10 10
REMARK H PARENT 10 11
REMARK Flexibility Score: inf
ROOT
ATOM      1  C   UNL     1     -50.064  36.868  21.483  1.00  0.00     0.039 A 
ATOM      2  C   UNL     1     -50.355  36.806  20.099  1.00  0.00     0.124 A 
ATOM      3  C   UNL     1     -49.438  38.022  21.993  1.00  0.00     0.014 A 
ATOM      4  C   UNL     1     -50.020  37.883  19.265  1.00  0.00     0.047 A 
ATOM      5  C   UNL     1     -49.110  39.087  21.152  1.00  0.00     0.001 A 
ATOM      6  C   UNL     1     -49.400  39.018  19.790  1.00  0.00     0.004 A 
ENDROOT
BRANCH   1   7
ATOM      7  C   UNL     1     -50.403  35.751  22.402  1.00  0.00     0.075 C 
ATOM      8  O   UNL     1     -49.493  35.148  23.033  1.00  0.00    -0.545 OA
ATOM      9  O   UNL     1     -51.719  35.345  22.587  1.00  0.00    -0.545 OA
ENDBRANCH   1   7
BRANCH   2  10
ATOM     10  O   UNL     1     -50.975  35.684  19.548  1.00  0.00    -0.507 OA
ATOM     11  H   UNL     1     -51.558  35.749  18.722  1.00  0.00     0.293 HD
ENDBRANCH   2  10
TORSDOF 2
ENDMDL
MODEL 2
REMARK VINA RESULT:    -4.362      9.854     11.049
REMARK INTER + INTRA:          -4.968
REMARK INTER:                  -4.731
REMARK INTRA:                  -0.237
REMARK UNBOUND:                -0.224
REMARK SMILES O=C([O-])c1ccccc1O
REMARK SMILES IDX 4 1 9 2 5 3 8 4 6 5 7 6 2 7 1 8 3 9 10 10
REMARK H PARENT 10 11
REMARK Flexibility Score: inf
ROOT
ATOM      1  C   UNL     1     -49.832  26.846  18.424  1.00  0.00     0.039 A 
ATOM      2  C   UNL     1     -49.712  25.697  19.242  1.00  0.00     0.124 A 
ATOM      3  C   UNL     1     -49.116  28.007  18.776  1.00  0.00     0.014 A 
ATOM      4  C   UNL     1     -48.890  25.732  20.379  1.00  0.00     0.047 A 
ATOM      5  C   UNL     1     -48.302  28.027  19.909  1.00  0.00     0.001 A 
ATOM      6  C   UNL     1     -48.189  26.892  20.711  1.00  0.00     0.004 A 
ENDROOT
BRANCH   1   7
ATOM      7  C   UNL     1     -50.690  26.854  17.210  1.00  0.00     0.075 C 
ATOM      8  O   UNL     1     -50.373  27.554  16.212  1.00  0.00    -0.545 OA
ATOM      9  O   UNL     1     -51.854  26.096  17.148  1.00  0.00    -0.545 OA
ENDBRANCH   1   7
BRANCH   2  10
ATOM     10  O   UNL     1     -50.401  24.525  18.933  1.00  0.00    -0.507 OA
ATOM     11  H   UNL     1     -50.131  23.938  18.152  1.00  0.00     0.293 HD
ENDBRANCH   2  10
TORSDOF 2
ENDMDL
MODEL 3
REMARK VINA RESULT:    -4.348      9.592     10.652
REMARK INTER + INTRA:          -4.953
REMARK INTER:                  -4.720
REMARK INTRA:                  -0.234
REMARK UNBOUND:                -0.224
REMARK SMILES O=C([O-])c1ccccc1O
REMARK SMILES IDX 4 1 9 2 5 3 8 4 6 5 7 6 2 7 1 8 3 9 10 10
REMARK H PARENT 10 11
REMARK Flexibility Score: inf
ROOT
ATOM      1  C   UNL     1     -48.630  26.754  20.047  1.00  0.00     0.039 A 
ATOM      2  C   UNL     1     -49.016  27.634  19.007  1.00  0.00     0.124 A 
ATOM      3  C   UNL     1     -49.263  25.500  20.145  1.00  0.00     0.014 A 
ATOM      4  C   UNL     1     -50.013  27.245  18.098  1.00  0.00     0.047 A 
ATOM      5  C   UNL     1     -50.253  25.127  19.234  1.00  0.00     0.001 A 
ATOM      6  C   UNL     1     -50.628  25.998  18.212  1.00  0.00     0.004 A 
ENDROOT
BRANCH   1   7
ATOM      7  C   UNL     1     -47.579  27.124  21.031  1.00  0.00     0.075 C 
ATOM      8  O   UNL     1     -46.548  26.411  21.157  1.00  0.00    -0.545 OA
ATOM      9  O   UNL     1     -47.708  28.254  21.829  1.00  0.00    -0.545 OA
ENDBRANCH   1   7
BRANCH   2  10
ATOM     10  O   UNL     1     -48.418  28.885  18.870  1.00  0.00    -0.507 OA
ATOM     11  H   UNL     1     -48.715  29.543  18.158  1.00  0.00     0.293 HD
ENDBRANCH   2  10
TORSDOF 2
ENDMDL
MODEL 4
REMARK VINA RESULT:    -4.330      9.165     10.616
REMARK INTER + INTRA:          -4.934
REMARK INTER:                  -4.686
REMARK INTRA:                  -0.248
REMARK UNBOUND:                -0.224
REMARK SMILES O=C([O-])c1ccccc1O
REMARK SMILES IDX 4 1 9 2 5 3 8 4 6 5 7 6 2 7 1 8 3 9 10 10
REMARK H PARENT 10 11
REMARK Flexibility Score: inf
ROOT
ATOM      1  C   UNL     1     -49.011  27.574  19.182  1.00  0.00     0.039 A 
ATOM      2  C   UNL     1     -48.779  26.562  20.144  1.00  0.00     0.124 A 
ATOM      3  C   UNL     1     -49.942  27.332  18.153  1.00  0.00     0.014 A 
ATOM      4  C   UNL     1     -49.475  25.346  20.060  1.00  0.00     0.047 A 
ATOM      5  C   UNL     1     -50.627  26.117  18.083  1.00  0.00     0.001 A 
ATOM      6  C   UNL     1     -50.394  25.125  19.034  1.00  0.00     0.004 A 
ENDROOT
BRANCH   1   7
ATOM      7  C   UNL     1     -48.297  28.877  19.232  1.00  0.00     0.075 C 
ATOM      8  O   UNL     1     -47.921  29.437  18.168  1.00  0.00    -0.545 OA
ATOM      9  O   UNL     1     -48.028  29.503  20.444  1.00  0.00    -0.545 OA
ENDBRANCH   1   7
BRANCH   2  10
ATOM     10  O   UNL     1     -47.867  26.757  21.180  1.00  0.00    -0.507 OA
ATOM     11  H   UNL     1     -46.866  26.696  21.028  1.00  0.00     0.293 HD
ENDBRANCH   2  10
TORSDOF 2
ENDMDL
MODEL 5
REMARK VINA RESULT:    -4.285     10.563     11.440
REMARK INTER + INTRA:          -4.884
REMARK INTER:                  -4.633
REMARK INTRA:                  -0.251
REMARK UNBOUND:                -0.224
REMARK SMILES O=C([O-])c1ccccc1O
REMARK SMILES IDX 4 1 9 2 5 3 8 4 6 5 7 6 2 7 1 8 3 9 10 10
REMARK H PARENT 10 11
REMARK Flexibility Score: inf
ROOT
ATOM      1  C   UNL     1     -50.586  27.000  17.055  1.00  0.00     0.039 A 
ATOM      2  C   UNL     1     -51.311  25.910  17.593  1.00  0.00     0.124 A 
ATOM      3  C   UNL     1     -49.423  27.436  17.720  1.00  0.00     0.014 A 
ATOM      4  C   UNL     1     -50.866  25.287  18.769  1.00  0.00     0.047 A 
ATOM      5  C   UNL     1     -48.992  26.806  18.889  1.00  0.00     0.001 A 
ATOM      6  C   UNL     1     -49.712  25.733  19.413  1.00  0.00     0.004 A 
ENDROOT
BRANCH   1   7
ATOM      7  C   UNL     1     -51.021  27.689  15.812  1.00  0.00     0.075 C 
ATOM      8  O   UNL     1     -50.171  28.048  14.953  1.00  0.00    -0.545 OA
ATOM      9  O   UNL     1     -52.363  27.954  15.569  1.00  0.00    -0.545 OA
ENDBRANCH   1   7
BRANCH   2  10
ATOM     10  O   UNL     1     -52.468  25.444  16.969  1.00  0.00    -0.507 OA
ATOM     11  H   UNL     1     -52.678  24.454  16.909  1.00  0.00     0.293 HD
ENDBRANCH   2  10
TORSDOF 2
ENDMDL
MODEL 6
REMARK VINA RESULT:    -4.282      9.124     10.378
REMARK INTER + INTRA:          -4.882
REMARK INTER:                  -4.628
REMARK INTRA:                  -0.254
REMARK UNBOUND:                -0.224
REMARK SMILES O=C([O-])c1ccccc1O
REMARK SMILES IDX 4 1 9 2 5 3 8 4 6 5 7 6 2 7 1 8 3 9 10 10
REMARK H PARENT 10 11
REMARK Flexibility Score: inf
ROOT
ATOM      1  C   UNL     1     -48.277  30.581  13.355  1.00  0.00     0.039 A 
ATOM      2  C   UNL     1     -49.504  30.125  13.894  1.00  0.00     0.124 A 
ATOM      3  C   UNL     1     -47.920  31.932  13.531  1.00  0.00     0.014 A 
ATOM      4  C   UNL     1     -50.337  31.017  14.588  1.00  0.00     0.047 A 
ATOM      5  C   UNL     1     -48.757  32.808  14.224  1.00  0.00     0.001 A 
ATOM      6  C   UNL     1     -49.965  32.351  14.751  1.00  0.00     0.004 A 
ENDROOT
BRANCH   1   7
ATOM      7  C   UNL     1     -47.365  29.672  12.614  1.00  0.00     0.075 C 
ATOM      8  O   UNL     1     -46.122  29.717  12.813  1.00  0.00    -0.545 OA
ATOM      9  O   UNL     1     -47.856  28.758  11.689  1.00  0.00    -0.545 OA
ENDBRANCH   1   7
BRANCH   2  10
ATOM     10  O   UNL     1     -49.901  28.797  13.745  1.00  0.00    -0.507 OA
ATOM     11  H   UNL     1     -49.284  28.027  13.980  1.00  0.00     0.293 HD
ENDBRANCH   2  10
TORSDOF 2
ENDMDL
MODEL 7
REMARK VINA RESULT:    -4.223      9.414     10.618
REMARK INTER + INTRA:          -4.818
REMARK INTER:                  -4.612
REMARK INTRA:                  -0.206
REMARK UNBOUND:                -0.224
REMARK SMILES O=C([O-])c1ccccc1O
REMARK SMILES IDX 4 1 9 2 5 3 8 4 6 5 7 6 2 7 1 8 3 9 10 10
REMARK H PARENT 10 11
REMARK Flexibility Score: inf
ROOT
ATOM      1  C   UNL     1     -47.538  30.865  13.780  1.00  0.00     0.039 A 
ATOM      2  C   UNL     1     -46.134  30.689  13.796  1.00  0.00     0.124 A 
ATOM      3  C   UNL     1     -48.313  30.063  12.919  1.00  0.00     0.014 A 
ATOM      4  C   UNL     1     -45.541  29.727  12.963  1.00  0.00     0.047 A 
ATOM      5  C   UNL     1     -47.710  29.110  12.097  1.00  0.00     0.001 A 
ATOM      6  C   UNL     1     -46.326  28.942  12.118  1.00  0.00     0.004 A 
ENDROOT
BRANCH   1   7
ATOM      7  C   UNL     1     -48.208  31.870  14.646  1.00  0.00     0.075 C 
ATOM      8  O   UNL     1     -48.240  31.713  15.895  1.00  0.00    -0.545 OA
ATOM      9  O   UNL     1     -48.812  32.998  14.102  1.00  0.00    -0.545 OA
ENDBRANCH   1   7
BRANCH   2  10
ATOM     10  O   UNL     1     -45.326  31.459  14.632  1.00  0.00    -0.507 OA
ATOM     11  H   UNL     1     -44.961  32.358  14.339  1.00  0.00     0.293 HD
ENDBRANCH   2  10
TORSDOF 2
ENDMDL
MODEL 8
REMARK VINA RESULT:    -4.188      9.937     11.185
REMARK INTER + INTRA:          -4.779
REMARK INTER:                  -4.548
REMARK INTRA:                  -0.231
REMARK UNBOUND:                -0.224
REMARK SMILES O=C([O-])c1ccccc1O
REMARK SMILES IDX 4 1 9 2 5 3 8 4 6 5 7 6 2 7 1 8 3 9 10 10
REMARK H PARENT 10 11
REMARK Flexibility Score: inf
ROOT
ATOM      1  C   UNL     1     -50.022  26.707  18.006  1.00  0.00     0.039 A 
ATOM      2  C   UNL     1     -48.981  27.489  18.561  1.00  0.00     0.124 A 
ATOM      3  C   UNL     1     -50.457  25.563  18.703  1.00  0.00     0.014 A 
ATOM      4  C   UNL     1     -48.405  27.117  19.785  1.00  0.00     0.047 A 
ATOM      5  C   UNL     1     -49.874  25.205  19.920  1.00  0.00     0.001 A 
ATOM      6  C   UNL     1     -48.849  25.980  20.461  1.00  0.00     0.004 A 
ENDROOT
BRANCH   1   7
ATOM      7  C   UNL     1     -50.662  27.064  16.713  1.00  0.00     0.075 C 
ATOM      8  O   UNL     1     -51.864  26.756  16.492  1.00  0.00    -0.545 OA
ATOM      9  O   UNL     1     -49.956  27.739  15.724  1.00  0.00    -0.545 OA
ENDBRANCH   1   7
BRANCH   2  10
ATOM     10  O   UNL     1     -48.518  28.631  17.907  1.00  0.00    -0.507 OA
ATOM     11  H   UNL     1     -48.935  28.955  17.042  1.00  0.00     0.293 HD
ENDBRANCH   2  10
TORSDOF 2
ENDMDL
MODEL 9
REMARK VINA RESULT:    -4.027      8.948      9.965
REMARK INTER + INTRA:          -4.604
REMARK INTER:                  -4.356
REMARK INTRA:                  -0.249
REMARK UNBOUND:                -0.224
REMARK SMILES O=C([O-])c1ccccc1O
REMARK SMILES IDX 4 1 9 2 5 3 8 4 6 5 7 6 2 7 1 8 3 9 10 10
REMARK H PARENT 10 11
REMARK Flexibility Score: inf
ROOT
ATOM      1  C   UNL     1     -49.633  29.906  14.396  1.00  0.00     0.039 A 
ATOM      2  C   UNL     1     -48.640  29.720  13.405  1.00  0.00     0.124 A 
ATOM      3  C   UNL     1     -49.806  31.188  14.953  1.00  0.00     0.014 A 
ATOM      4  C   UNL     1     -47.851  30.806  12.996  1.00  0.00     0.047 A 
ATOM      5  C   UNL     1     -49.014  32.259  14.535  1.00  0.00     0.001 A 
ATOM      6  C   UNL     1     -48.037  32.069  13.559  1.00  0.00     0.004 A 
ENDROOT
BRANCH   1   7
ATOM      7  C   UNL     1     -50.492  28.784  14.860  1.00  0.00     0.075 C 
ATOM      8  O   UNL     1     -49.984  27.661  15.122  1.00  0.00    -0.545 OA
ATOM      9  O   UNL     1     -51.864  28.945  15.013  1.00  0.00    -0.545 OA
ENDBRANCH   1   7
BRANCH   2  10
ATOM     10  O   UNL     1     -48.433  28.469  12.826  1.00  0.00    -0.507 OA
ATOM     11  H   UNL     1     -49.091  28.072  12.166  1.00  0.00     0.293 HD
ENDBRANCH   2  10
TORSDOF 2
ENDMDL
