MODEL 1
REMARK VINA RESULT:    -5.211      0.000      0.000
REMARK INTER + INTRA:          -6.379
REMARK INTER:                  -6.277
REMARK INTRA:                  -0.102
REMARK UNBOUND:                -0.102
REMARK SMILES CC[C@@H](C)[C@@H]([NH3+])C(=O)[O-]
REMARK SMILES IDX 3 1 4 2 5 3 6 4 7 8 8 9 9 10 2 11 1 12
REMARK H PARENT 6 5 6 6 6 7
REMARK Flexibility Score: inf
ROOT
ATOM      1  C   UNL     1     -20.277  67.772  -0.642  1.00  0.00     0.050 C 
ATOM      2  C   UNL     1     -19.054  68.697  -0.780  1.00  0.00     0.014 C 
ENDROOT
BRANCH   1   3
ATOM      3  C   UNL     1     -21.567  68.592  -0.329  1.00  0.00     0.230 C 
BRANCH   3   4
ATOM      4  N   UNL     1     -22.791  67.776  -0.386  1.00  0.00    -0.350 N 
ATOM      5  H   UNL     1     -23.600  68.273   0.050  1.00  0.00     0.345 HD
ATOM      6  H   UNL     1     -22.642  66.863   0.101  1.00  0.00     0.345 HD
ATOM      7  H   UNL     1     -23.025  67.569  -1.383  1.00  0.00     0.345 HD
ENDBRANCH   3   4
BRANCH   3   8
ATOM      8  C   UNL     1     -21.452  69.297   1.001  1.00  0.00     0.099 C 
ATOM      9  O   UNL     1     -21.335  68.625   2.059  1.00  0.00    -0.544 OA
ATOM     10  O   UNL     1     -21.515  70.684   1.079  1.00  0.00    -0.544 OA
ENDBRANCH   3   8
ENDBRANCH   1   3
BRANCH   1  11
ATOM     11  C   UNL     1     -20.430  66.856  -1.883  1.00  0.00     0.006 C 
ATOM     12  C   UNL     1     -19.453  65.680  -1.873  1.00  0.00     0.004 C 
ENDBRANCH   1  11
TORSDOF 4
ENDMDL
MODEL 2
REMARK VINA RESULT:    -5.062      2.766      4.186
REMARK INTER + INTRA:          -6.199
REMARK INTER:                  -6.100
REMARK INTRA:                  -0.099
REMARK UNBOUND:                -0.102
REMARK SMILES CC[C@@H](C)[C@@H]([NH3+])C(=O)[O-]
REMARK SMILES IDX 3 1 4 2 5 3 6 4 7 8 8 9 9 10 2 11 1 12
REMARK H PARENT 6 5 6 6 6 7
REMARK Flexibility Score: inf
ROOT
ATOM      1  C   UNL     1     -20.687  68.968   0.098  1.00  0.00     0.050 C 
ATOM      2  C   UNL     1     -22.055  68.285  -0.081  1.00  0.00     0.014 C 
ENDROOT
BRANCH   1   3
ATOM      3  C   UNL     1     -19.662  68.456  -0.961  1.00  0.00     0.230 C 
BRANCH   3   4
ATOM      4  N   UNL     1     -18.375  69.169  -0.903  1.00  0.00    -0.350 N 
ATOM      5  H   UNL     1     -17.686  68.663  -0.303  1.00  0.00     0.345 HD
ATOM      6  H   UNL     1     -18.512  70.137  -0.534  1.00  0.00     0.345 HD
ATOM      7  H   UNL     1     -17.980  69.251  -1.868  1.00  0.00     0.345 HD
ENDBRANCH   3   4
BRANCH   3   8
ATOM      8  C   UNL     1     -19.456  66.965  -0.839  1.00  0.00     0.099 C 
ATOM      9  O   UNL     1     -18.930  66.488   0.201  1.00  0.00    -0.544 OA
ATOM     10  O   UNL     1     -19.803  66.111  -1.880  1.00  0.00    -0.544 OA
ENDBRANCH   3   8
ENDBRANCH   1   3
BRANCH   1  11
ATOM     11  C   UNL     1     -20.827  70.512   0.104  1.00  0.00     0.006 C 
ATOM     12  C   UNL     1     -21.512  71.038   1.366  1.00  0.00     0.004 C 
ENDBRANCH   1  11
TORSDOF 4
ENDMDL
MODEL 3
REMARK VINA RESULT:    -5.041      0.709      1.604
REMARK INTER + INTRA:          -6.174
REMARK INTER:                  -6.245
REMARK INTRA:                   0.071
REMARK UNBOUND:                -0.102
REMARK SMILES CC[C@@H](C)[C@@H]([NH3+])C(=O)[O-]
REMARK SMILES IDX 3 1 4 2 5 3 6 4 7 8 8 9 9 10 2 11 1 12
REMARK H PARENT 6 5 6 6 6 7
REMARK Flexibility Score: inf
ROOT
ATOM      1  C   UNL     1     -20.498  68.530  -1.218  1.00  0.00     0.050 C 
ATOM      2  C   UNL     1     -20.474  67.021  -1.523  1.00  0.00     0.014 C 
ENDROOT
BRANCH   1   3
ATOM      3  C   UNL     1     -21.789  68.923  -0.436  1.00  0.00     0.230 C 
BRANCH   3   4
ATOM      4  N   UNL     1     -22.775  67.831  -0.373  1.00  0.00    -0.350 N 
ATOM      5  H   UNL     1     -23.020  67.596   0.615  1.00  0.00     0.345 HD
ATOM      6  H   UNL     1     -22.403  66.978  -0.850  1.00  0.00     0.345 HD
ATOM      7  H   UNL     1     -23.646  68.120  -0.874  1.00  0.00     0.345 HD
ENDBRANCH   3   4
BRANCH   3   8
ATOM      8  C   UNL     1     -21.453  69.423   0.949  1.00  0.00     0.099 C 
ATOM      9  O   UNL     1     -21.286  68.603   1.889  1.00  0.00    -0.544 OA
ATOM     10  O   UNL     1     -21.365  70.786   1.211  1.00  0.00    -0.544 OA
ENDBRANCH   3   8
ENDBRANCH   1   3
BRANCH   1  11
ATOM     11  C   UNL     1     -19.198  68.978  -0.501  1.00  0.00     0.006 C 
ATOM     12  C   UNL     1     -18.191  67.839  -0.337  1.00  0.00     0.004 C 
ENDBRANCH   1  11
TORSDOF 4
ENDMDL
MODEL 4
REMARK VINA RESULT:    -5.008      2.665      3.696
REMARK INTER + INTRA:          -6.135
REMARK INTER:                  -6.221
REMARK INTRA:                   0.085
REMARK UNBOUND:                -0.102
REMARK SMILES CC[C@@H](C)[C@@H]([NH3+])C(=O)[O-]
REMARK SMILES IDX 3 1 4 2 5 3 6 4 7 8 8 9 9 10 2 11 1 12
REMARK H PARENT 6 5 6 6 6 7
REMARK Flexibility Score: inf
ROOT
ATOM      1  C   UNL     1     -20.993  69.081  -0.842  1.00  0.00     0.050 C 
ATOM      2  C   UNL     1     -20.834  70.313   0.067  1.00  0.00     0.014 C 
ENDROOT
BRANCH   1   3
ATOM      3  C   UNL     1     -19.603  68.543  -1.304  1.00  0.00     0.230 C 
BRANCH   3   4
ATOM      4  N   UNL     1     -18.486  69.405  -0.881  1.00  0.00    -0.350 N 
ATOM      5  H   UNL     1     -17.652  69.277  -1.496  1.00  0.00     0.345 HD
ATOM      6  H   UNL     1     -18.222  69.197   0.109  1.00  0.00     0.345 HD
ATOM      7  H   UNL     1     -18.784  70.406  -0.926  1.00  0.00     0.345 HD
ENDBRANCH   3   4
BRANCH   3   8
ATOM      8  C   UNL     1     -19.390  67.122  -0.840  1.00  0.00     0.099 C 
ATOM      9  O   UNL     1     -18.949  66.899   0.318  1.00  0.00    -0.544 OA
ATOM     10  O   UNL     1     -19.636  66.051  -1.693  1.00  0.00    -0.544 OA
ENDBRANCH   3   8
ENDBRANCH   1   3
BRANCH   1  11
ATOM     11  C   UNL     1     -21.866  67.993  -0.166  1.00  0.00     0.006 C 
ATOM     12  C   UNL     1     -22.260  68.358   1.266  1.00  0.00     0.004 C 
ENDBRANCH   1  11
TORSDOF 4
ENDMDL
MODEL 5
REMARK VINA RESULT:    -4.749      2.964      4.049
REMARK INTER + INTRA:          -5.822
REMARK INTER:                  -5.692
REMARK INTRA:                  -0.131
REMARK UNBOUND:                -0.102
REMARK SMILES CC[C@@H](C)[C@@H]([NH3+])C(=O)[O-]
REMARK SMILES IDX 3 1 4 2 5 3 6 4 7 8 8 9 9 10 2 11 1 12
REMARK H PARENT 6 5 6 6 6 7
REMARK Flexibility Score: inf
ROOT
ATOM      1  C   UNL     1     -19.461  68.709  -0.960  1.00  0.00     0.050 C 
ATOM      2  C   UNL     1     -18.277  69.673  -1.153  1.00  0.00     0.014 C 
ENDROOT
BRANCH   1   3
ATOM      3  C   UNL     1     -18.964  67.242  -0.770  1.00  0.00     0.230 C 
BRANCH   3   4
ATOM      4  N   UNL     1     -19.076  66.774   0.621  1.00  0.00    -0.350 N 
ATOM      5  H   UNL     1     -19.595  65.870   0.678  1.00  0.00     0.345 HD
ATOM      6  H   UNL     1     -19.563  67.491   1.206  1.00  0.00     0.345 HD
ATOM      7  H   UNL     1     -18.120  66.636   1.020  1.00  0.00     0.345 HD
ENDBRANCH   3   4
BRANCH   3   8
ATOM      8  C   UNL     1     -19.677  66.302  -1.712  1.00  0.00     0.099 C 
ATOM      9  O   UNL     1     -20.784  66.635  -2.212  1.00  0.00    -0.544 OA
ATOM     10  O   UNL     1     -19.148  65.050  -2.006  1.00  0.00    -0.544 OA
ENDBRANCH   3   8
ENDBRANCH   1   3
BRANCH   1  11
ATOM     11  C   UNL     1     -20.390  69.183   0.187  1.00  0.00     0.006 C 
ATOM     12  C   UNL     1     -21.862  69.224  -0.224  1.00  0.00     0.004 C 
ENDBRANCH   1  11
TORSDOF 4
ENDMDL
MODEL 6
REMARK VINA RESULT:    -4.594      1.738      1.957
REMARK INTER + INTRA:          -5.636
REMARK INTER:                  -5.805
REMARK INTRA:                   0.168
REMARK UNBOUND:                -0.102
REMARK SMILES CC[C@@H](C)[C@@H]([NH3+])C(=O)[O-]
REMARK SMILES IDX 3 1 4 2 5 3 6 4 7 8 8 9 9 10 2 11 1 12
REMARK H PARENT 6 5 6 6 6 7
REMARK Flexibility Score: inf
ROOT
ATOM      1  C   UNL     1     -19.638  67.360  -0.148  1.00  0.00     0.050 C 
ATOM      2  C   UNL     1     -18.116  67.574  -0.058  1.00  0.00     0.014 C 
ENDROOT
BRANCH   1   3
ATOM      3  C   UNL     1     -20.411  68.593   0.414  1.00  0.00     0.230 C 
BRANCH   3   4
ATOM      4  N   UNL     1     -20.198  69.813  -0.381  1.00  0.00    -0.350 N 
ATOM      5  H   UNL     1     -19.835  70.595   0.210  1.00  0.00     0.345 HD
ATOM      6  H   UNL     1     -21.091  70.110  -0.837  1.00  0.00     0.345 HD
ATOM      7  H   UNL     1     -19.505  69.618  -1.139  1.00  0.00     0.345 HD
ENDBRANCH   3   4
BRANCH   3   8
ATOM      8  C   UNL     1     -21.884  68.292   0.552  1.00  0.00     0.099 C 
ATOM      9  O   UNL     1     -22.626  68.311  -0.465  1.00  0.00    -0.544 OA
ATOM     10  O   UNL     1     -22.444  68.034   1.799  1.00  0.00    -0.544 OA
ENDBRANCH   3   8
ENDBRANCH   1   3
BRANCH   1  11
ATOM     11  C   UNL     1     -20.067  66.985  -1.589  1.00  0.00     0.006 C 
ATOM     12  C   UNL     1     -19.511  65.633  -2.038  1.00  0.00     0.004 C 
ENDBRANCH   1  11
TORSDOF 4
ENDMDL
MODEL 7
REMARK VINA RESULT:    -4.576      1.922      2.483
REMARK INTER + INTRA:          -5.615
REMARK INTER:                  -5.644
REMARK INTRA:                   0.030
REMARK UNBOUND:                -0.102
REMARK SMILES CC[C@@H](C)[C@@H]([NH3+])C(=O)[O-]
REMARK SMILES IDX 3 1 4 2 5 3 6 4 7 8 8 9 9 10 2 11 1 12
REMARK H PARENT 6 5 6 6 6 7
REMARK Flexibility Score: inf
ROOT
ATOM      1  C   UNL     1     -19.936  67.901  -0.495  1.00  0.00     0.050 C 
ATOM      2  C   UNL     1     -18.996  67.001   0.327  1.00  0.00     0.014 C 
ENDROOT
BRANCH   1   3
ATOM      3  C   UNL     1     -20.850  68.756   0.437  1.00  0.00     0.230 C 
BRANCH   3   4
ATOM      4  N   UNL     1     -20.971  70.154  -0.007  1.00  0.00    -0.350 N 
ATOM      5  H   UNL     1     -20.131  70.456  -0.549  1.00  0.00     0.345 HD
ATOM      6  H   UNL     1     -21.097  70.786   0.816  1.00  0.00     0.345 HD
ATOM      7  H   UNL     1     -21.815  70.254  -0.616  1.00  0.00     0.345 HD
ENDBRANCH   3   4
BRANCH   3   8
ATOM      8  C   UNL     1     -22.211  68.121   0.591  1.00  0.00     0.099 C 
ATOM      9  O   UNL     1     -22.749  68.060   1.728  1.00  0.00    -0.544 OA
ATOM     10  O   UNL     1     -22.864  67.563  -0.503  1.00  0.00    -0.544 OA
ENDBRANCH   3   8
ENDBRANCH   1   3
BRANCH   1  11
ATOM     11  C   UNL     1     -19.143  68.759  -1.514  1.00  0.00     0.006 C 
ATOM     12  C   UNL     1     -17.868  69.356  -0.918  1.00  0.00     0.004 C 
ENDBRANCH   1  11
TORSDOF 4
ENDMDL
MODEL 8
REMARK VINA RESULT:    -4.566      2.564      3.902
REMARK INTER + INTRA:          -5.603
REMARK INTER:                  -5.891
REMARK INTRA:                   0.288
REMARK UNBOUND:                -0.102
REMARK SMILES CC[C@@H](C)[C@@H]([NH3+])C(=O)[O-]
REMARK SMILES IDX 3 1 4 2 5 3 6 4 7 8 8 9 9 10 2 11 1 12
REMARK H PARENT 6 5 6 6 6 7
REMARK Flexibility Score: inf
ROOT
ATOM      1  C   UNL     1     -20.863  68.391   0.281  1.00  0.00     0.050 C 
ATOM      2  C   UNL     1     -22.330  67.964   0.091  1.00  0.00     0.014 C 
ENDROOT
BRANCH   1   3
ATOM      3  C   UNL     1     -19.899  67.449  -0.506  1.00  0.00     0.230 C 
BRANCH   3   4
ATOM      4  N   UNL     1     -20.484  66.949  -1.760  1.00  0.00    -0.350 N 
ATOM      5  H   UNL     1     -21.227  67.591  -2.117  1.00  0.00     0.345 HD
ATOM      6  H   UNL     1     -20.890  65.996  -1.616  1.00  0.00     0.345 HD
ATOM      7  H   UNL     1     -19.736  66.868  -2.485  1.00  0.00     0.345 HD
ENDBRANCH   3   4
BRANCH   3   8
ATOM      8  C   UNL     1     -18.573  68.124  -0.764  1.00  0.00     0.099 C 
ATOM      9  O   UNL     1     -18.447  68.906  -1.743  1.00  0.00    -0.544 OA
ATOM     10  O   UNL     1     -17.471  67.862   0.044  1.00  0.00    -0.544 OA
ENDBRANCH   3   8
ENDBRANCH   1   3
BRANCH   1  11
ATOM     11  C   UNL     1     -20.665  69.888  -0.072  1.00  0.00     0.006 C 
ATOM     12  C   UNL     1     -21.358  70.825   0.917  1.00  0.00     0.004 C 
ENDBRANCH   1  11
TORSDOF 4
ENDMDL
MODEL 9
REMARK VINA RESULT:    -4.508      2.485      3.540
REMARK INTER + INTRA:          -5.533
REMARK INTER:                  -5.726
REMARK INTRA:                   0.193
REMARK UNBOUND:                -0.102
REMARK SMILES CC[C@@H](C)[C@@H]([NH3+])C(=O)[O-]
REMARK SMILES IDX 3 1 4 2 5 3 6 4 7 8 8 9 9 10 2 11 1 12
REMARK H PARENT 6 5 6 6 6 7
REMARK Flexibility Score: inf
ROOT
ATOM      1  C   UNL     1     -20.669  67.881  -0.527  1.00  0.00     0.050 C 
ATOM      2  C   UNL     1     -20.492  66.868  -1.673  1.00  0.00     0.014 C 
ENDROOT
BRANCH   1   3
ATOM      3  C   UNL     1     -20.006  69.248  -0.882  1.00  0.00     0.230 C 
BRANCH   3   4
ATOM      4  N   UNL     1     -20.525  70.363  -0.072  1.00  0.00    -0.350 N 
ATOM      5  H   UNL     1     -21.460  70.135   0.335  1.00  0.00     0.345 HD
ATOM      6  H   UNL     1     -20.602  71.228  -0.654  1.00  0.00     0.345 HD
ATOM      7  H   UNL     1     -19.861  70.564   0.709  1.00  0.00     0.345 HD
ENDBRANCH   3   4
BRANCH   3   8
ATOM      8  C   UNL     1     -18.502  69.164  -0.777  1.00  0.00     0.099 C 
ATOM      9  O   UNL     1     -17.790  70.113  -1.198  1.00  0.00    -0.544 OA
ATOM     10  O   UNL     1     -17.887  68.029  -0.259  1.00  0.00    -0.544 OA
ENDBRANCH   3   8
ENDBRANCH   1   3
BRANCH   1  11
ATOM     11  C   UNL     1     -22.160  68.020  -0.126  1.00  0.00     0.006 C 
ATOM     12  C   UNL     1     -22.367  68.009   1.389  1.00  0.00     0.004 C 
ENDBRANCH   1  11
TORSDOF 4
ENDMDL
