MODEL 1
REMARK VINA RESULT:    -4.072      0.000      0.000
REMARK INTER + INTRA:          -6.254
REMARK INTER:                  -5.739
REMARK INTRA:                  -0.515
REMARK UNBOUND:                -0.515
REMARK SMILES C=CCCCCCCC(=O)[O-]
REMARK SMILES IDX 6 1 7 2 8 3 9 4 10 5 11 6 5 7 4 8 3 9 2 10 1 11
REMARK H PARENT
REMARK Flexibility Score: inf
ROOT
ATOM      1  C   UNL     1      -8.668   3.383  16.527  1.00  0.00     0.000 C 
ENDROOT
BRANCH   1   2
ATOM      2  C   UNL     1      -8.949   2.792  15.135  1.00  0.00     0.006 C 
BRANCH   2   3
ATOM      3  C   UNL     1      -7.674   2.324  14.422  1.00  0.00     0.053 C 
BRANCH   3   4
ATOM      4  C   UNL     1      -7.982   1.192  13.494  1.00  0.00     0.041 C 
ATOM      5  O   UNL     1      -7.714   1.286  12.267  1.00  0.00    -0.550 OA
ATOM      6  O   UNL     1      -8.610   0.050  13.975  1.00  0.00    -0.550 OA
ENDBRANCH   3   4
ENDBRANCH   2   3
ENDBRANCH   1   2
BRANCH   1   7
ATOM      7  C   UNL     1      -7.608   4.497  16.491  1.00  0.00     0.000 C 
BRANCH   7   8
ATOM      8  C   UNL     1      -8.221   5.894  16.281  1.00  0.00     0.004 C 
BRANCH   8   9
ATOM      9  C   UNL     1      -8.152   6.404  14.829  1.00  0.00     0.027 C 
BRANCH   9  10
ATOM     10  C   UNL     1      -7.046   5.757  14.039  1.00  0.00    -0.035 C 
ATOM     11  C   UNL     1      -6.633   6.252  12.869  1.00  0.00     0.004 C 
ENDBRANCH   9  10
ENDBRANCH   8   9
ENDBRANCH   7   8
ENDBRANCH   1   7
TORSDOF 7
ENDMDL
MODEL 2
REMARK VINA RESULT:    -3.933     14.742     16.579
REMARK INTER + INTRA:          -6.058
REMARK INTER:                  -5.525
REMARK INTRA:                  -0.533
REMARK UNBOUND:                -0.515
REMARK SMILES C=CCCCCCCC(=O)[O-]
REMARK SMILES IDX 6 1 7 2 8 3 9 4 10 5 11 6 5 7 4 8 3 9 2 10 1 11
REMARK H PARENT
REMARK Flexibility Score: inf
ROOT
ATOM      1  C   UNL     1      -9.803  -5.501  25.938  1.00  0.00     0.000 C 
ENDROOT
BRANCH   1   2
ATOM      2  C   UNL     1      -9.618  -6.930  25.402  1.00  0.00     0.006 C 
BRANCH   2   3
ATOM      3  C   UNL     1     -10.903  -7.506  24.793  1.00  0.00     0.053 C 
BRANCH   3   4
ATOM      4  C   UNL     1     -10.576  -8.596  23.822  1.00  0.00     0.041 C 
ATOM      5  O   UNL     1     -10.910  -9.785  24.067  1.00  0.00    -0.550 OA
ATOM      6  O   UNL     1      -9.861  -8.306  22.667  1.00  0.00    -0.550 OA
ENDBRANCH   3   4
ENDBRANCH   2   3
ENDBRANCH   1   2
BRANCH   1   7
ATOM      7  C   UNL     1     -10.939  -5.401  26.970  1.00  0.00     0.000 C 
BRANCH   7   8
ATOM      8  C   UNL     1     -10.433  -5.489  28.422  1.00  0.00     0.004 C 
BRANCH   8   9
ATOM      9  C   UNL     1     -10.423  -6.914  29.005  1.00  0.00     0.027 C 
BRANCH   9  10
ATOM     10  C   UNL     1     -11.488  -7.793  28.405  1.00  0.00    -0.035 C 
ATOM     11  C   UNL     1     -11.858  -8.942  28.978  1.00  0.00     0.004 C 
ENDBRANCH   9  10
ENDBRANCH   8   9
ENDBRANCH   7   8
ENDBRANCH   1   7
TORSDOF 7
ENDMDL
MODEL 3
REMARK VINA RESULT:    -3.296      2.453      4.840
REMARK INTER + INTRA:          -5.160
REMARK INTER:                  -4.888
REMARK INTRA:                  -0.272
REMARK UNBOUND:                -0.515
REMARK SMILES C=CCCCCCCC(=O)[O-]
REMARK SMILES IDX 6 1 7 2 8 3 9 4 10 5 11 6 5 7 4 8 3 9 2 10 1 11
REMARK H PARENT
REMARK Flexibility Score: inf
ROOT
ATOM      1  C   UNL     1      -8.715   3.374  16.561  1.00  0.00     0.000 C 
ENDROOT
BRANCH   1   2
ATOM      2  C   UNL     1      -7.684   4.511  16.650  1.00  0.00     0.006 C 
BRANCH   2   3
ATOM      3  C   UNL     1      -8.262   5.870  16.234  1.00  0.00     0.053 C 
BRANCH   3   4
ATOM      4  C   UNL     1      -7.887   6.185  14.821  1.00  0.00     0.041 C 
ATOM      5  O   UNL     1      -8.461   7.122  14.206  1.00  0.00    -0.550 OA
ATOM      6  O   UNL     1      -6.935   5.414  14.166  1.00  0.00    -0.550 OA
ENDBRANCH   3   4
ENDBRANCH   2   3
ENDBRANCH   1   2
BRANCH   1   7
ATOM      7  C   UNL     1      -8.913   2.870  15.122  1.00  0.00     0.000 C 
BRANCH   7   8
ATOM      8  C   UNL     1      -7.737   2.008  14.627  1.00  0.00     0.004 C 
BRANCH   8   9
ATOM      9  C   UNL     1      -7.887   1.502  13.180  1.00  0.00     0.027 C 
BRANCH   9  10
ATOM     10  C   UNL     1      -8.874   0.372  13.061  1.00  0.00    -0.035 C 
ATOM     11  C   UNL     1      -8.949  -0.599  13.976  1.00  0.00     0.004 C 
ENDBRANCH   9  10
ENDBRANCH   8   9
ENDBRANCH   7   8
ENDBRANCH   1   7
TORSDOF 7
ENDMDL
MODEL 4
REMARK VINA RESULT:    -3.208     15.339     16.617
REMARK INTER + INTRA:          -5.036
REMARK INTER:                  -4.628
REMARK INTRA:                  -0.407
REMARK UNBOUND:                -0.515
REMARK SMILES C=CCCCCCCC(=O)[O-]
REMARK SMILES IDX 6 1 7 2 8 3 9 4 10 5 11 6 5 7 4 8 3 9 2 10 1 11
REMARK H PARENT
REMARK Flexibility Score: inf
ROOT
ATOM      1  C   UNL     1     -10.082  -5.590  25.737  1.00  0.00     0.000 C 
ENDROOT
BRANCH   1   2
ATOM      2  C   UNL     1     -11.125  -5.447  26.858  1.00  0.00     0.006 C 
BRANCH   2   3
ATOM      3  C   UNL     1     -10.489  -5.191  28.230  1.00  0.00     0.053 C 
BRANCH   3   4
ATOM      4  C   UNL     1     -10.356  -6.474  28.989  1.00  0.00     0.041 C 
ATOM      5  O   UNL     1      -9.471  -6.597  29.877  1.00  0.00    -0.550 OA
ATOM      6  O   UNL     1     -11.179  -7.551  28.684  1.00  0.00    -0.550 OA
ENDBRANCH   3   4
ENDBRANCH   2   3
ENDBRANCH   1   2
BRANCH   1   7
ATOM      7  C   UNL     1      -9.751  -7.059  25.424  1.00  0.00     0.000 C 
BRANCH   7   8
ATOM      8  C   UNL     1     -11.009  -7.936  25.286  1.00  0.00     0.004 C 
BRANCH   8   9
ATOM      9  C   UNL     1     -10.926  -8.991  24.167  1.00  0.00     0.027 C 
BRANCH   9  10
ATOM     10  C   UNL     1      -9.680  -8.857  23.334  1.00  0.00    -0.035 C 
ATOM     11  C   UNL     1      -9.706  -8.333  22.105  1.00  0.00     0.004 C 
ENDBRANCH   9  10
ENDBRANCH   8   9
ENDBRANCH   7   8
ENDBRANCH   1   7
TORSDOF 7
ENDMDL
MODEL 5
REMARK VINA RESULT:    -2.821      1.178      2.086
REMARK INTER + INTRA:          -4.491
REMARK INTER:                  -4.325
REMARK INTRA:                  -0.166
REMARK UNBOUND:                -0.515
REMARK SMILES C=CCCCCCCC(=O)[O-]
REMARK SMILES IDX 6 1 7 2 8 3 9 4 10 5 11 6 5 7 4 8 3 9 2 10 1 11
REMARK H PARENT
REMARK Flexibility Score: inf
ROOT
ATOM      1  C   UNL     1      -7.711   3.420  15.151  1.00  0.00     0.000 C 
ENDROOT
BRANCH   1   2
ATOM      2  C   UNL     1      -8.569   2.213  14.739  1.00  0.00     0.006 C 
BRANCH   2   3
ATOM      3  C   UNL     1      -7.817   1.236  13.826  1.00  0.00     0.053 C 
BRANCH   3   4
ATOM      4  C   UNL     1      -8.763   0.236  13.241  1.00  0.00     0.041 C 
ATOM      5  O   UNL     1      -9.345   0.475  12.150  1.00  0.00    -0.550 OA
ATOM      6  O   UNL     1      -9.039  -0.942  13.924  1.00  0.00    -0.550 OA
ENDBRANCH   3   4
ENDBRANCH   2   3
ENDBRANCH   1   2
BRANCH   1   7
ATOM      7  C   UNL     1      -7.183   4.210  13.942  1.00  0.00     0.000 C 
BRANCH   7   8
ATOM      8  C   UNL     1      -6.883   5.682  14.278  1.00  0.00     0.004 C 
BRANCH   8   9
ATOM      9  C   UNL     1      -8.099   6.619  14.163  1.00  0.00     0.027 C 
BRANCH   9  10
ATOM     10  C   UNL     1      -8.620   7.060  15.505  1.00  0.00    -0.035 C 
ATOM     11  C   UNL     1      -8.483   6.303  16.598  1.00  0.00     0.004 C 
ENDBRANCH   9  10
ENDBRANCH   8   9
ENDBRANCH   7   8
ENDBRANCH   1   7
TORSDOF 7
ENDMDL
MODEL 6
REMARK VINA RESULT:    -2.782      1.495      2.432
REMARK INTER + INTRA:          -4.436
REMARK INTER:                  -3.999
REMARK INTRA:                  -0.438
REMARK UNBOUND:                -0.515
REMARK SMILES C=CCCCCCCC(=O)[O-]
REMARK SMILES IDX 6 1 7 2 8 3 9 4 10 5 11 6 5 7 4 8 3 9 2 10 1 11
REMARK H PARENT
REMARK Flexibility Score: inf
ROOT
ATOM      1  C   UNL     1      -7.775   3.372  14.277  1.00  0.00     0.000 C 
ENDROOT
BRANCH   1   2
ATOM      2  C   UNL     1      -7.419   2.185  13.366  1.00  0.00     0.006 C 
BRANCH   2   3
ATOM      3  C   UNL     1      -7.649   0.828  14.045  1.00  0.00     0.053 C 
BRANCH   3   4
ATOM      4  C   UNL     1      -8.748   0.081  13.358  1.00  0.00     0.041 C 
ATOM      5  O   UNL     1      -9.125  -1.038  13.795  1.00  0.00    -0.550 OA
ATOM      6  O   UNL     1      -9.326   0.600  12.206  1.00  0.00    -0.550 OA
ENDBRANCH   3   4
ENDBRANCH   2   3
ENDBRANCH   1   2
BRANCH   1   7
ATOM      7  C   UNL     1      -8.821   3.004  15.343  1.00  0.00     0.000 C 
BRANCH   7   8
ATOM      8  C   UNL     1      -8.562   3.696  16.694  1.00  0.00     0.004 C 
BRANCH   8   9
ATOM      9  C   UNL     1      -7.603   4.899  16.616  1.00  0.00     0.027 C 
BRANCH   9  10
ATOM     10  C   UNL     1      -8.328   6.219  16.610  1.00  0.00    -0.035 C 
ATOM     11  C   UNL     1      -8.627   6.854  15.473  1.00  0.00     0.004 C 
ENDBRANCH   9  10
ENDBRANCH   8   9
ENDBRANCH   7   8
ENDBRANCH   1   7
TORSDOF 7
ENDMDL
MODEL 7
REMARK VINA RESULT:    -2.587     14.183     15.883
REMARK INTER + INTRA:          -4.161
REMARK INTER:                  -3.732
REMARK INTRA:                  -0.429
REMARK UNBOUND:                -0.515
REMARK SMILES C=CCCCCCCC(=O)[O-]
REMARK SMILES IDX 6 1 7 2 8 3 9 4 10 5 11 6 5 7 4 8 3 9 2 10 1 11
REMARK H PARENT
REMARK Flexibility Score: inf
ROOT
ATOM      1  C   UNL     1     -11.211  -8.413  26.500  1.00  0.00     0.000 C 
ENDROOT
BRANCH   1   2
ATOM      2  C   UNL     1     -10.607  -7.728  25.263  1.00  0.00     0.006 C 
BRANCH   2   3
ATOM      3  C   UNL     1     -11.131  -8.317  23.946  1.00  0.00     0.053 C 
BRANCH   3   4
ATOM      4  C   UNL     1      -9.993  -8.799  23.102  1.00  0.00     0.041 C 
ATOM      5  O   UNL     1      -9.319  -9.801  23.459  1.00  0.00    -0.550 OA
ATOM      6  O   UNL     1      -9.646  -8.113  21.945  1.00  0.00    -0.550 OA
ENDBRANCH   3   4
ENDBRANCH   2   3
ENDBRANCH   1   2
BRANCH   1   7
ATOM      7  C   UNL     1     -11.703  -7.404  27.552  1.00  0.00     0.000 C 
BRANCH   7   8
ATOM      8  C   UNL     1     -10.564  -6.864  28.435  1.00  0.00     0.004 C 
BRANCH   8   9
ATOM      9  C   UNL     1     -10.382  -5.336  28.371  1.00  0.00     0.027 C 
BRANCH   9  10
ATOM     10  C   UNL     1     -10.986  -4.732  27.131  1.00  0.00    -0.035 C 
ATOM     11  C   UNL     1     -10.231  -4.329  26.104  1.00  0.00     0.004 C 
ENDBRANCH   9  10
ENDBRANCH   8   9
ENDBRANCH   7   8
ENDBRANCH   1   7
TORSDOF 7
ENDMDL
MODEL 8
REMARK VINA RESULT:    -2.320      2.914      5.163
REMARK INTER + INTRA:          -3.785
REMARK INTER:                  -3.766
REMARK INTRA:                  -0.019
REMARK UNBOUND:                -0.515
REMARK SMILES C=CCCCCCCC(=O)[O-]
REMARK SMILES IDX 6 1 7 2 8 3 9 4 10 5 11 6 5 7 4 8 3 9 2 10 1 11
REMARK H PARENT
REMARK Flexibility Score: inf
ROOT
ATOM      1  C   UNL     1      -8.771   2.991  15.187  1.00  0.00     0.000 C 
ENDROOT
BRANCH   1   2
ATOM      2  C   UNL     1      -8.606   3.761  16.508  1.00  0.00     0.006 C 
BRANCH   2   3
ATOM      3  C   UNL     1      -7.589   4.904  16.404  1.00  0.00     0.053 C 
BRANCH   3   4
ATOM      4  C   UNL     1      -8.191   6.074  15.692  1.00  0.00     0.041 C 
ATOM      5  O   UNL     1      -7.844   6.346  14.513  1.00  0.00    -0.550 OA
ATOM      6  O   UNL     1      -9.100   6.895  16.349  1.00  0.00    -0.550 OA
ENDBRANCH   3   4
ENDBRANCH   2   3
ENDBRANCH   1   2
BRANCH   1   7
ATOM      7  C   UNL     1      -7.551   3.140  14.262  1.00  0.00     0.000 C 
BRANCH   7   8
ATOM      8  C   UNL     1      -7.582   2.160  13.075  1.00  0.00     0.004 C 
BRANCH   8   9
ATOM      9  C   UNL     1      -7.627   0.675  13.480  1.00  0.00     0.027 C 
BRANCH   9  10
ATOM     10  C   UNL     1      -8.982   0.056  13.265  1.00  0.00    -0.035 C 
ATOM     11  C   UNL     1      -9.319  -1.113  13.818  1.00  0.00     0.004 C 
ENDBRANCH   9  10
ENDBRANCH   8   9
ENDBRANCH   7   8
ENDBRANCH   1   7
TORSDOF 7
ENDMDL
MODEL 9
REMARK VINA RESULT:    -2.136      2.423      4.810
REMARK INTER + INTRA:          -3.526
REMARK INTER:                  -3.597
REMARK INTRA:                   0.071
REMARK UNBOUND:                -0.515
REMARK SMILES C=CCCCCCCC(=O)[O-]
REMARK SMILES IDX 6 1 7 2 8 3 9 4 10 5 11 6 5 7 4 8 3 9 2 10 1 11
REMARK H PARENT
REMARK Flexibility Score: inf
ROOT
ATOM      1  C   UNL     1      -6.889   5.176  14.436  1.00  0.00     0.000 C 
ENDROOT
BRANCH   1   2
ATOM      2  C   UNL     1      -8.119   5.972  14.903  1.00  0.00     0.006 C 
BRANCH   2   3
ATOM      3  C   UNL     1      -8.259   6.002  16.431  1.00  0.00     0.053 C 
BRANCH   3   4
ATOM      4  C   UNL     1      -8.095   4.626  16.996  1.00  0.00     0.041 C 
ATOM      5  O   UNL     1      -7.207   4.397  17.859  1.00  0.00    -0.550 OA
ATOM      6  O   UNL     1      -8.892   3.586  16.534  1.00  0.00    -0.550 OA
ENDBRANCH   3   4
ENDBRANCH   2   3
ENDBRANCH   1   2
BRANCH   1   7
ATOM      7  C   UNL     1      -7.238   4.123  13.371  1.00  0.00     0.000 C 
BRANCH   7   8
ATOM      8  C   UNL     1      -7.584   2.752  13.981  1.00  0.00     0.004 C 
BRANCH   8   9
ATOM      9  C   UNL     1      -7.586   1.590  12.970  1.00  0.00     0.027 C 
BRANCH   9  10
ATOM     10  C   UNL     1      -8.771   0.677  13.139  1.00  0.00    -0.035 C 
ATOM     11  C   UNL     1      -8.828  -0.231  14.117  1.00  0.00     0.004 C 
ENDBRANCH   9  10
ENDBRANCH   8   9
ENDBRANCH   7   8
ENDBRANCH   1   7
TORSDOF 7
ENDMDL
