MODEL 1
REMARK VINA RESULT:    -4.776      0.000      0.000
REMARK INTER + INTRA:          -8.349
REMARK INTER:                  -7.289
REMARK INTRA:                  -1.060
REMARK UNBOUND:                -1.060
REMARK SMILES O=C([O-])CCCCCCCCC(=O)[O-]
REMARK SMILES IDX 7 1 6 2 5 3 4 4 2 5 1 6 3 7 8 8 9 9 10 10 11 11 12 12 13 13
REMARK SMILES IDX 14 14
REMARK H PARENT
REMARK Flexibility Score: inf
ROOT
ATOM      1  C   UNL     1      16.684  43.260   4.074  1.00  0.00     0.000 C 
ENDROOT
BRANCH   1   2
ATOM      2  C   UNL     1      16.717  42.980   5.581  1.00  0.00     0.000 C 
BRANCH   2   3
ATOM      3  C   UNL     1      17.742  43.881   6.286  1.00  0.00     0.006 C 
BRANCH   3   4
ATOM      4  C   UNL     1      17.177  44.515   7.564  1.00  0.00     0.053 C 
BRANCH   4   5
ATOM      5  C   UNL     1      16.888  43.485   8.613  1.00  0.00     0.041 C 
ATOM      6  O   UNL     1      17.767  42.642   8.934  1.00  0.00    -0.550 OA
ATOM      7  O   UNL     1      15.658  43.477   9.259  1.00  0.00    -0.550 OA
ENDBRANCH   4   5
ENDBRANCH   3   4
ENDBRANCH   2   3
ENDBRANCH   1   2
BRANCH   1   8
ATOM      8  C   UNL     1      15.286  43.716   3.630  1.00  0.00     0.000 C 
BRANCH   8   9
ATOM      9  C   UNL     1      15.114  45.242   3.694  1.00  0.00     0.000 C 
BRANCH   9  10
ATOM     10  C   UNL     1      13.849  45.665   4.461  1.00  0.00     0.006 C 
BRANCH  10  11
ATOM     11  C   UNL     1      14.172  46.200   5.862  1.00  0.00     0.053 C 
BRANCH  11  12
ATOM     12  C   UNL     1      13.646  45.298   6.935  1.00  0.00     0.041 C 
ATOM     13  O   UNL     1      13.394  45.755   8.081  1.00  0.00    -0.550 OA
ATOM     14  O   UNL     1      13.466  43.944   6.681  1.00  0.00    -0.550 OA
ENDBRANCH  11  12
ENDBRANCH  10  11
ENDBRANCH   9  10
ENDBRANCH   8   9
ENDBRANCH   1   8
TORSDOF 9
ENDMDL
MODEL 2
REMARK VINA RESULT:    -4.764      0.101      3.888
REMARK INTER + INTRA:          -8.331
REMARK INTER:                  -7.278
REMARK INTRA:                  -1.053
REMARK UNBOUND:                -1.060
REMARK SMILES O=C([O-])CCCCCCCCC(=O)[O-]
REMARK SMILES IDX 7 1 6 2 5 3 4 4 2 5 1 6 3 7 8 8 9 9 10 10 11 11 12 12 13 13
REMARK SMILES IDX 14 14
REMARK H PARENT
REMARK Flexibility Score: inf
ROOT
ATOM      1  C   UNL     1      15.223  43.738   3.617  1.00  0.00     0.000 C 
ENDROOT
BRANCH   1   2
ATOM      2  C   UNL     1      15.087  45.261   3.729  1.00  0.00     0.000 C 
BRANCH   2   3
ATOM      3  C   UNL     1      13.814  45.644   4.499  1.00  0.00     0.006 C 
BRANCH   3   4
ATOM      4  C   UNL     1      14.126  46.228   5.884  1.00  0.00     0.053 C 
BRANCH   4   5
ATOM      5  C   UNL     1      13.642  45.334   6.984  1.00  0.00     0.041 C 
ATOM      6  O   UNL     1      13.314  45.819   8.099  1.00  0.00    -0.550 OA
ATOM      7  O   UNL     1      13.524  43.966   6.767  1.00  0.00    -0.550 OA
ENDBRANCH   4   5
ENDBRANCH   3   4
ENDBRANCH   2   3
ENDBRANCH   1   2
BRANCH   1   8
ATOM      8  C   UNL     1      16.627  43.280   4.039  1.00  0.00     0.000 C 
BRANCH   8   9
ATOM      9  C   UNL     1      16.721  42.967   5.541  1.00  0.00     0.000 C 
BRANCH   9  10
ATOM     10  C   UNL     1      17.757  43.845   6.265  1.00  0.00     0.006 C 
BRANCH  10  11
ATOM     11  C   UNL     1      17.165  44.545   7.495  1.00  0.00     0.053 C 
BRANCH  11  12
ATOM     12  C   UNL     1      16.875  43.576   8.599  1.00  0.00     0.041 C 
ATOM     13  O   UNL     1      15.824  43.690   9.284  1.00  0.00    -0.550 OA
ATOM     14  O   UNL     1      17.782  42.566   8.896  1.00  0.00    -0.550 OA
ENDBRANCH  11  12
ENDBRANCH  10  11
ENDBRANCH   9  10
ENDBRANCH   8   9
ENDBRANCH   1   8
TORSDOF 9
ENDMDL
MODEL 3
REMARK VINA RESULT:    -4.612      1.370      4.249
REMARK INTER + INTRA:          -8.099
REMARK INTER:                  -7.221
REMARK INTRA:                  -0.878
REMARK UNBOUND:                -1.060
REMARK SMILES O=C([O-])CCCCCCCCC(=O)[O-]
REMARK SMILES IDX 7 1 6 2 5 3 4 4 2 5 1 6 3 7 8 8 9 9 10 10 11 11 12 12 13 13
REMARK SMILES IDX 14 14
REMARK H PARENT
REMARK Flexibility Score: inf
ROOT
ATOM      1  C   UNL     1      15.356  43.539   3.637  1.00  0.00     0.000 C 
ENDROOT
BRANCH   1   2
ATOM      2  C   UNL     1      15.001  45.031   3.639  1.00  0.00     0.000 C 
BRANCH   2   3
ATOM      3  C   UNL     1      13.753  45.298   4.494  1.00  0.00     0.006 C 
BRANCH   3   4
ATOM      4  C   UNL     1      13.851  46.620   5.267  1.00  0.00     0.053 C 
BRANCH   4   5
ATOM      5  C   UNL     1      12.610  46.891   6.061  1.00  0.00     0.041 C 
ATOM      6  O   UNL     1      12.644  46.872   7.320  1.00  0.00    -0.550 OA
ATOM      7  O   UNL     1      11.421  47.197   5.409  1.00  0.00    -0.550 OA
ENDBRANCH   4   5
ENDBRANCH   3   4
ENDBRANCH   2   3
ENDBRANCH   1   2
BRANCH   1   8
ATOM      8  C   UNL     1      16.774  43.311   4.181  1.00  0.00     0.000 C 
BRANCH   8   9
ATOM      9  C   UNL     1      16.792  43.054   5.696  1.00  0.00     0.000 C 
BRANCH   9  10
ATOM     10  C   UNL     1      17.601  44.111   6.468  1.00  0.00     0.006 C 
BRANCH  10  11
ATOM     11  C   UNL     1      16.698  45.118   7.191  1.00  0.00     0.053 C 
BRANCH  11  12
ATOM     12  C   UNL     1      15.860  44.457   8.242  1.00  0.00     0.041 C 
ATOM     13  O   UNL     1      16.397  43.987   9.279  1.00  0.00    -0.550 OA
ATOM     14  O   UNL     1      14.488  44.328   8.060  1.00  0.00    -0.550 OA
ENDBRANCH  11  12
ENDBRANCH  10  11
ENDBRANCH   9  10
ENDBRANCH   8   9
ENDBRANCH   1   8
TORSDOF 9
ENDMDL
MODEL 4
REMARK VINA RESULT:    -4.590      1.092      1.622
REMARK INTER + INTRA:          -8.065
REMARK INTER:                  -7.265
REMARK INTRA:                  -0.799
REMARK UNBOUND:                -1.060
REMARK SMILES O=C([O-])CCCCCCCCC(=O)[O-]
REMARK SMILES IDX 7 1 6 2 5 3 4 4 2 5 1 6 3 7 8 8 9 9 10 10 11 11 12 12 13 13
REMARK SMILES IDX 14 14
REMARK H PARENT
REMARK Flexibility Score: inf
ROOT
ATOM      1  C   UNL     1      16.804  43.404   4.092  1.00  0.00     0.000 C 
ENDROOT
BRANCH   1   2
ATOM      2  C   UNL     1      17.126  43.416   5.591  1.00  0.00     0.000 C 
BRANCH   2   3
ATOM      3  C   UNL     1      16.113  42.570   6.378  1.00  0.00     0.006 C 
BRANCH   3   4
ATOM      4  C   UNL     1      15.575  43.307   7.612  1.00  0.00     0.053 C 
BRANCH   4   5
ATOM      5  C   UNL     1      16.674  43.963   8.389  1.00  0.00     0.041 C 
ATOM      6  O   UNL     1      16.683  45.213   8.545  1.00  0.00    -0.550 OA
ATOM      7  O   UNL     1      17.674  43.190   8.967  1.00  0.00    -0.550 OA
ENDBRANCH   4   5
ENDBRANCH   3   4
ENDBRANCH   2   3
ENDBRANCH   1   2
BRANCH   1   8
ATOM      8  C   UNL     1      15.316  43.700   3.847  1.00  0.00     0.000 C 
BRANCH   8   9
ATOM      9  C   UNL     1      15.036  45.198   3.644  1.00  0.00     0.000 C 
BRANCH   9  10
ATOM     10  C   UNL     1      13.732  45.654   4.321  1.00  0.00     0.006 C 
BRANCH  10  11
ATOM     11  C   UNL     1      13.974  46.212   5.729  1.00  0.00     0.053 C 
BRANCH  11  12
ATOM     12  C   UNL     1      12.812  45.950   6.638  1.00  0.00     0.041 C 
ATOM     13  O   UNL     1      11.781  45.375   6.199  1.00  0.00    -0.550 OA
ATOM     14  O   UNL     1      12.854  46.371   7.961  1.00  0.00    -0.550 OA
ENDBRANCH  11  12
ENDBRANCH  10  11
ENDBRANCH   9  10
ENDBRANCH   8   9
ENDBRANCH   1   8
TORSDOF 9
ENDMDL
MODEL 5
REMARK VINA RESULT:    -4.584      1.736      2.421
REMARK INTER + INTRA:          -8.057
REMARK INTER:                  -7.213
REMARK INTRA:                  -0.844
REMARK UNBOUND:                -1.060
REMARK SMILES O=C([O-])CCCCCCCCC(=O)[O-]
REMARK SMILES IDX 7 1 6 2 5 3 4 4 2 5 1 6 3 7 8 8 9 9 10 10 11 11 12 12 13 13
REMARK SMILES IDX 14 14
REMARK H PARENT
REMARK Flexibility Score: inf
ROOT
ATOM      1  C   UNL     1      16.897  43.381   4.150  1.00  0.00     0.000 C 
ENDROOT
BRANCH   1   2
ATOM      2  C   UNL     1      16.956  43.405   5.682  1.00  0.00     0.000 C 
BRANCH   2   3
ATOM      3  C   UNL     1      15.757  42.661   6.290  1.00  0.00     0.006 C 
BRANCH   3   4
ATOM      4  C   UNL     1      15.396  43.186   7.686  1.00  0.00     0.053 C 
BRANCH   4   5
ATOM      5  C   UNL     1      15.538  44.674   7.773  1.00  0.00     0.041 C 
ATOM      6  O   UNL     1      14.694  45.427   7.221  1.00  0.00    -0.550 OA
ATOM      7  O   UNL     1      16.589  45.230   8.493  1.00  0.00    -0.550 OA
ENDBRANCH   4   5
ENDBRANCH   3   4
ENDBRANCH   2   3
ENDBRANCH   1   2
BRANCH   1   8
ATOM      8  C   UNL     1      15.445  43.466   3.654  1.00  0.00     0.000 C 
BRANCH   8   9
ATOM      9  C   UNL     1      14.931  44.913   3.578  1.00  0.00     0.000 C 
BRANCH   9  10
ATOM     10  C   UNL     1      13.471  45.048   4.044  1.00  0.00     0.006 C 
BRANCH  10  11
ATOM     11  C   UNL     1      12.657  43.775   3.777  1.00  0.00     0.053 C 
BRANCH  11  12
ATOM     12  C   UNL     1      12.288  43.075   5.049  1.00  0.00     0.041 C 
ATOM     13  O   UNL     1      11.990  43.740   6.075  1.00  0.00    -0.550 OA
ATOM     14  O   UNL     1      12.307  41.687   5.110  1.00  0.00    -0.550 OA
ENDBRANCH  11  12
ENDBRANCH  10  11
ENDBRANCH   9  10
ENDBRANCH   8   9
ENDBRANCH   1   8
TORSDOF 9
ENDMDL
MODEL 6
REMARK VINA RESULT:    -4.535      2.004      4.673
REMARK INTER + INTRA:          -7.981
REMARK INTER:                  -7.073
REMARK INTRA:                  -0.909
REMARK UNBOUND:                -1.060
REMARK SMILES O=C([O-])CCCCCCCCC(=O)[O-]
REMARK SMILES IDX 7 1 6 2 5 3 4 4 2 5 1 6 3 7 8 8 9 9 10 10 11 11 12 12 13 13
REMARK SMILES IDX 14 14
REMARK H PARENT
REMARK Flexibility Score: inf
ROOT
ATOM      1  C   UNL     1      15.263  45.204   3.668  1.00  0.00     0.000 C 
ENDROOT
BRANCH   1   2
ATOM      2  C   UNL     1      14.162  45.505   4.692  1.00  0.00     0.000 C 
BRANCH   2   3
ATOM      3  C   UNL     1      12.815  44.920   4.241  1.00  0.00     0.006 C 
BRANCH   3   4
ATOM      4  C   UNL     1      12.354  43.763   5.137  1.00  0.00     0.053 C 
BRANCH   4   5
ATOM      5  C   UNL     1      12.419  42.448   4.424  1.00  0.00     0.041 C 
ATOM      6  O   UNL     1      12.270  41.372   5.060  1.00  0.00    -0.550 OA
ATOM      7  O   UNL     1      12.613  42.413   3.048  1.00  0.00    -0.550 OA
ENDBRANCH   4   5
ENDBRANCH   3   4
ENDBRANCH   2   3
ENDBRANCH   1   2
BRANCH   1   8
ATOM      8  C   UNL     1      15.781  43.767   3.826  1.00  0.00     0.000 C 
BRANCH   8   9
ATOM      9  C   UNL     1      16.707  43.602   5.042  1.00  0.00     0.000 C 
BRANCH   9  10
ATOM     10  C   UNL     1      16.126  42.653   6.104  1.00  0.00     0.006 C 
BRANCH  10  11
ATOM     11  C   UNL     1      15.779  43.384   7.407  1.00  0.00     0.053 C 
BRANCH  11  12
ATOM     12  C   UNL     1      17.009  43.797   8.156  1.00  0.00     0.041 C 
ATOM     13  O   UNL     1      17.265  45.017   8.330  1.00  0.00    -0.550 OA
ATOM     14  O   UNL     1      17.890  42.835   8.632  1.00  0.00    -0.550 OA
ENDBRANCH  11  12
ENDBRANCH  10  11
ENDBRANCH   9  10
ENDBRANCH   8   9
ENDBRANCH   1   8
TORSDOF 9
ENDMDL
MODEL 7
REMARK VINA RESULT:    -4.508      1.527      2.124
REMARK INTER + INTRA:          -7.940
REMARK INTER:                  -6.860
REMARK INTRA:                  -1.080
REMARK UNBOUND:                -1.060
REMARK SMILES O=C([O-])CCCCCCCCC(=O)[O-]
REMARK SMILES IDX 7 1 6 2 5 3 4 4 2 5 1 6 3 7 8 8 9 9 10 10 11 11 12 12 13 13
REMARK SMILES IDX 14 14
REMARK H PARENT
REMARK Flexibility Score: inf
ROOT
ATOM      1  C   UNL     1      15.249  43.650   3.787  1.00  0.00     0.000 C 
ENDROOT
BRANCH   1   2
ATOM      2  C   UNL     1      16.724  43.286   3.996  1.00  0.00     0.000 C 
BRANCH   2   3
ATOM      3  C   UNL     1      17.119  43.420   5.474  1.00  0.00     0.006 C 
BRANCH   3   4
ATOM      4  C   UNL     1      15.950  43.112   6.418  1.00  0.00     0.053 C 
BRANCH   4   5
ATOM      5  C   UNL     1      15.700  44.235   7.377  1.00  0.00     0.041 C 
ATOM      6  O   UNL     1      15.988  45.419   7.058  1.00  0.00    -0.550 OA
ATOM      7  O   UNL     1      15.118  43.977   8.613  1.00  0.00    -0.550 OA
ENDBRANCH   4   5
ENDBRANCH   3   4
ENDBRANCH   2   3
ENDBRANCH   1   2
BRANCH   1   8
ATOM      8  C   UNL     1      15.083  45.162   3.566  1.00  0.00     0.000 C 
BRANCH   8   9
ATOM      9  C   UNL     1      13.833  45.727   4.260  1.00  0.00     0.000 C 
BRANCH   9  10
ATOM     10  C   UNL     1      12.760  44.654   4.514  1.00  0.00     0.006 C 
BRANCH  10  11
ATOM     11  C   UNL     1      12.379  44.555   5.996  1.00  0.00     0.053 C 
BRANCH  11  12
ATOM     12  C   UNL     1      12.006  45.891   6.564  1.00  0.00     0.041 C 
ATOM     13  O   UNL     1      10.986  46.496   6.144  1.00  0.00    -0.550 OA
ATOM     14  O   UNL     1      12.807  46.483   7.533  1.00  0.00    -0.550 OA
ENDBRANCH  11  12
ENDBRANCH  10  11
ENDBRANCH   9  10
ENDBRANCH   8   9
ENDBRANCH   1   8
TORSDOF 9
ENDMDL
MODEL 8
REMARK VINA RESULT:    -4.472      1.548      4.057
REMARK INTER + INTRA:          -7.886
REMARK INTER:                  -7.002
REMARK INTRA:                  -0.884
REMARK UNBOUND:                -1.060
REMARK SMILES O=C([O-])CCCCCCCCC(=O)[O-]
REMARK SMILES IDX 7 1 6 2 5 3 4 4 2 5 1 6 3 7 8 8 9 9 10 10 11 11 12 12 13 13
REMARK SMILES IDX 14 14
REMARK H PARENT
REMARK Flexibility Score: inf
ROOT
ATOM      1  C   UNL     1      15.794  44.899   4.764  1.00  0.00     0.000 C 
ENDROOT
BRANCH   1   2
ATOM      2  C   UNL     1      14.866  44.771   3.550  1.00  0.00     0.000 C 
BRANCH   2   3
ATOM      3  C   UNL     1      14.303  43.346   3.435  1.00  0.00     0.006 C 
BRANCH   3   4
ATOM      4  C   UNL     1      12.815  43.279   3.803  1.00  0.00     0.053 C 
BRANCH   4   5
ATOM      5  C   UNL     1      12.616  43.026   5.266  1.00  0.00     0.041 C 
ATOM      6  O   UNL     1      13.434  42.312   5.904  1.00  0.00    -0.550 OA
ATOM      7  O   UNL     1      11.543  43.606   5.932  1.00  0.00    -0.550 OA
ENDBRANCH   4   5
ENDBRANCH   3   4
ENDBRANCH   2   3
ENDBRANCH   1   2
BRANCH   1   8
ATOM      8  C   UNL     1      16.632  43.625   4.951  1.00  0.00     0.000 C 
BRANCH   8   9
ATOM      9  C   UNL     1      17.533  43.687   6.195  1.00  0.00     0.000 C 
BRANCH   9  10
ATOM     10  C   UNL     1      17.257  44.925   7.065  1.00  0.00     0.006 C 
BRANCH  10  11
ATOM     11  C   UNL     1      16.796  44.549   8.479  1.00  0.00     0.053 C 
BRANCH  11  12
ATOM     12  C   UNL     1      15.370  44.088   8.494  1.00  0.00     0.041 C 
ATOM     13  O   UNL     1      15.072  42.962   8.971  1.00  0.00    -0.550 OA
ATOM     14  O   UNL     1      14.375  44.889   7.948  1.00  0.00    -0.550 OA
ENDBRANCH  11  12
ENDBRANCH  10  11
ENDBRANCH   9  10
ENDBRANCH   8   9
ENDBRANCH   1   8
TORSDOF 9
ENDMDL
MODEL 9
REMARK VINA RESULT:    -4.443      1.438      4.229
REMARK INTER + INTRA:          -7.841
REMARK INTER:                  -6.866
REMARK INTRA:                  -0.975
REMARK UNBOUND:                -1.060
REMARK SMILES O=C([O-])CCCCCCCCC(=O)[O-]
REMARK SMILES IDX 7 1 6 2 5 3 4 4 2 5 1 6 3 7 8 8 9 9 10 10 11 11 12 12 13 13
REMARK SMILES IDX 14 14
REMARK H PARENT
REMARK Flexibility Score: inf
ROOT
ATOM      1  C   UNL     1      14.121  45.702   4.698  1.00  0.00     0.000 C 
ENDROOT
BRANCH   1   2
ATOM      2  C   UNL     1      12.731  45.085   4.495  1.00  0.00     0.000 C 
BRANCH   2   3
ATOM      3  C   UNL     1      12.313  44.256   5.719  1.00  0.00     0.006 C 
BRANCH   3   4
ATOM      4  C   UNL     1      13.235  44.492   6.922  1.00  0.00     0.053 C 
BRANCH   4   5
ATOM      5  C   UNL     1      12.519  45.180   8.043  1.00  0.00     0.041 C 
ATOM      6  O   UNL     1      12.133  46.371   7.914  1.00  0.00    -0.550 OA
ATOM      7  O   UNL     1      12.249  44.493   9.221  1.00  0.00    -0.550 OA
ENDBRANCH   4   5
ENDBRANCH   3   4
ENDBRANCH   2   3
ENDBRANCH   1   2
BRANCH   1   8
ATOM      8  C   UNL     1      15.090  45.246   3.596  1.00  0.00     0.000 C 
BRANCH   8   9
ATOM      9  C   UNL     1      15.342  43.730   3.620  1.00  0.00     0.000 C 
BRANCH   9  10
ATOM     10  C   UNL     1      16.644  43.357   4.350  1.00  0.00     0.006 C 
BRANCH  10  11
ATOM     11  C   UNL     1      16.389  42.885   5.787  1.00  0.00     0.053 C 
BRANCH  11  12
ATOM     12  C   UNL     1      17.115  43.732   6.787  1.00  0.00     0.041 C 
ATOM     13  O   UNL     1      17.850  43.196   7.658  1.00  0.00    -0.550 OA
ATOM     14  O   UNL     1      16.954  45.112   6.779  1.00  0.00    -0.550 OA
ENDBRANCH  11  12
ENDBRANCH  10  11
ENDBRANCH   9  10
ENDBRANCH   8   9
ENDBRANCH   1   8
TORSDOF 9
ENDMDL
