MODEL 1
REMARK VINA RESULT:    -4.765      0.000      0.000
REMARK INTER + INTRA:          -5.974
REMARK INTER:                  -5.740
REMARK INTRA:                  -0.235
REMARK UNBOUND:                -0.235
REMARK SMILES NC(=O)C[C@H]([NH3+])C(=O)[O-]
REMARK SMILES IDX 4 1 5 2 6 3 7 7 8 8 9 9 2 10 3 11 1 12
REMARK H PARENT 6 4 6 5 6 6 1 13 1 14
REMARK Flexibility Score: inf
ROOT
ATOM      1  C   UNL     1      13.072  -3.352  21.781  1.00  0.00     0.171 C 
ENDROOT
BRANCH   1   2
ATOM      2  C   UNL     1      13.295  -4.554  22.720  1.00  0.00     0.237 C 
BRANCH   2   3
ATOM      3  N   UNL     1      12.197  -4.693  23.686  1.00  0.00    -0.350 N 
ATOM      4  H   UNL     1      11.771  -3.762  23.902  1.00  0.00     0.345 HD
ATOM      5  H   UNL     1      11.459  -5.327  23.301  1.00  0.00     0.345 HD
ATOM      6  H   UNL     1      12.555  -5.120  24.572  1.00  0.00     0.345 HD
ENDBRANCH   2   3
BRANCH   2   7
ATOM      7  C   UNL     1      14.603  -4.391  23.448  1.00  0.00     0.100 C 
ATOM      8  O   UNL     1      14.687  -3.612  24.433  1.00  0.00    -0.544 OA
ATOM      9  O   UNL     1      15.721  -5.115  23.049  1.00  0.00    -0.544 OA
ENDBRANCH   2   7
ENDBRANCH   1   2
BRANCH   1  10
ATOM     10  C   UNL     1      12.141  -3.695  20.653  1.00  0.00     0.223 C 
ATOM     11  O   UNL     1      10.917  -3.878  20.888  1.00  0.00    -0.275 OA
ATOM     12  N   UNL     1      12.626  -3.782  19.313  1.00  0.00    -0.369 N 
ATOM     13  H   UNL     1      13.633  -3.611  19.098  1.00  0.00     0.159 HD
ATOM     14  H   UNL     1      11.973  -4.011  18.531  1.00  0.00     0.159 HD
ENDBRANCH   1  10
TORSDOF 4
ENDMDL
MODEL 2
REMARK VINA RESULT:    -4.724      1.762      4.021
REMARK INTER + INTRA:          -5.925
REMARK INTER:                  -5.640
REMARK INTRA:                  -0.285
REMARK UNBOUND:                -0.235
REMARK SMILES NC(=O)C[C@H]([NH3+])C(=O)[O-]
REMARK SMILES IDX 4 1 5 2 6 3 7 7 8 8 9 9 2 10 3 11 1 12
REMARK H PARENT 6 4 6 5 6 6 1 13 1 14
REMARK Flexibility Score: inf
ROOT
ATOM      1  C   UNL     1      13.806  -3.580  22.211  1.00  0.00     0.171 C 
ENDROOT
BRANCH   1   2
ATOM      2  C   UNL     1      12.307  -3.896  22.391  1.00  0.00     0.237 C 
BRANCH   2   3
ATOM      3  N   UNL     1      12.107  -5.088  23.227  1.00  0.00    -0.350 N 
ATOM      4  H   UNL     1      13.007  -5.604  23.363  1.00  0.00     0.345 HD
ATOM      5  H   UNL     1      11.725  -4.811  24.161  1.00  0.00     0.345 HD
ATOM      6  H   UNL     1      11.411  -5.726  22.775  1.00  0.00     0.345 HD
ENDBRANCH   2   3
BRANCH   2   7
ATOM      7  C   UNL     1      11.666  -4.098  21.044  1.00  0.00     0.100 C 
ATOM      8  O   UNL     1      11.284  -5.245  20.691  1.00  0.00    -0.544 OA
ATOM      9  O   UNL     1      11.475  -3.018  20.191  1.00  0.00    -0.544 OA
ENDBRANCH   2   7
ENDBRANCH   1   2
BRANCH   1  10
ATOM     10  C   UNL     1      14.645  -4.255  23.256  1.00  0.00     0.223 C 
ATOM     11  O   UNL     1      15.008  -5.450  23.090  1.00  0.00    -0.275 OA
ATOM     12  N   UNL     1      15.063  -3.543  24.421  1.00  0.00    -0.369 N 
ATOM     13  H   UNL     1      14.791  -2.546  24.564  1.00  0.00     0.159 HD
ATOM     14  H   UNL     1      15.656  -4.014  25.141  1.00  0.00     0.159 HD
ENDBRANCH   1  10
TORSDOF 4
ENDMDL
MODEL 3
REMARK VINA RESULT:    -4.715     19.479     20.175
REMARK INTER + INTRA:          -5.914
REMARK INTER:                  -5.693
REMARK INTRA:                  -0.221
REMARK UNBOUND:                -0.235
REMARK SMILES NC(=O)C[C@H]([NH3+])C(=O)[O-]
REMARK SMILES IDX 4 1 5 2 6 3 7 7 8 8 9 9 2 10 3 11 1 12
REMARK H PARENT 6 4 6 5 6 6 1 13 1 14
REMARK Flexibility Score: inf
ROOT
ATOM      1  C   UNL     1      18.199  12.063  13.138  1.00  0.00     0.171 C 
ENDROOT
BRANCH   1   2
ATOM      2  C   UNL     1      19.252  13.081  12.657  1.00  0.00     0.237 C 
BRANCH   2   3
ATOM      3  N   UNL     1      19.008  13.491  11.267  1.00  0.00    -0.350 N 
ATOM      4  H   UNL     1      18.801  14.515  11.213  1.00  0.00     0.345 HD
ATOM      5  H   UNL     1      19.846  13.279  10.678  1.00  0.00     0.345 HD
ATOM      6  H   UNL     1      18.198  12.956  10.876  1.00  0.00     0.345 HD
ENDBRANCH   2   3
BRANCH   2   7
ATOM      7  C   UNL     1      20.628  12.483  12.784  1.00  0.00     0.100 C 
ATOM      8  O   UNL     1      21.012  11.600  11.973  1.00  0.00    -0.544 OA
ATOM      9  O   UNL     1      21.491  12.917  13.783  1.00  0.00    -0.544 OA
ENDBRANCH   2   7
ENDBRANCH   1   2
BRANCH   1  10
ATOM     10  C   UNL     1      16.930  12.739  13.570  1.00  0.00     0.223 C 
ATOM     11  O   UNL     1      16.128  13.174  12.702  1.00  0.00    -0.275 OA
ATOM     12  N   UNL     1      16.610  12.864  14.956  1.00  0.00    -0.369 N 
ATOM     13  H   UNL     1      17.252  12.489  15.688  1.00  0.00     0.159 HD
ATOM     14  H   UNL     1      15.721  13.327  15.251  1.00  0.00     0.159 HD
ENDBRANCH   1  10
TORSDOF 4
ENDMDL
MODEL 4
REMARK VINA RESULT:    -4.686     19.072     19.874
REMARK INTER + INTRA:          -5.880
REMARK INTER:                  -5.620
REMARK INTRA:                  -0.260
REMARK UNBOUND:                -0.235
REMARK SMILES NC(=O)C[C@H]([NH3+])C(=O)[O-]
REMARK SMILES IDX 4 1 5 2 6 3 7 7 8 8 9 9 2 10 3 11 1 12
REMARK H PARENT 6 4 6 5 6 6 1 13 1 14
REMARK Flexibility Score: inf
ROOT
ATOM      1  C   UNL     1      18.815  11.934  13.188  1.00  0.00     0.171 C 
ENDROOT
BRANCH   1   2
ATOM      2  C   UNL     1      17.527  12.671  12.770  1.00  0.00     0.237 C 
BRANCH   2   3
ATOM      3  N   UNL     1      17.735  14.124  12.705  1.00  0.00    -0.350 N 
ATOM      4  H   UNL     1      18.609  14.352  12.178  1.00  0.00     0.345 HD
ATOM      5  H   UNL     1      16.921  14.583  12.236  1.00  0.00     0.345 HD
ATOM      6  H   UNL     1      17.808  14.516  13.673  1.00  0.00     0.345 HD
ENDBRANCH   2   3
BRANCH   2   7
ATOM      7  C   UNL     1      16.422  12.351  13.741  1.00  0.00     0.100 C 
ATOM      8  O   UNL     1      15.271  12.064  13.319  1.00  0.00    -0.544 OA
ATOM      9  O   UNL     1      16.670  12.351  15.109  1.00  0.00    -0.544 OA
ENDBRANCH   2   7
ENDBRANCH   1   2
BRANCH   1  10
ATOM     10  C   UNL     1      19.875  12.024  12.129  1.00  0.00     0.223 C 
ATOM     11  O   UNL     1      19.604  12.553  11.018  1.00  0.00    -0.275 OA
ATOM     12  N   UNL     1      21.196  11.545  12.382  1.00  0.00    -0.369 N 
ATOM     13  H   UNL     1      21.444  11.125  13.304  1.00  0.00     0.159 HD
ATOM     14  H   UNL     1      21.932  11.620  11.645  1.00  0.00     0.159 HD
ENDBRANCH   1  10
TORSDOF 4
ENDMDL
MODEL 5
REMARK VINA RESULT:    -4.357      2.225      2.871
REMARK INTER + INTRA:          -5.484
REMARK INTER:                  -5.253
REMARK INTRA:                  -0.231
REMARK UNBOUND:                -0.235
REMARK SMILES NC(=O)C[C@H]([NH3+])C(=O)[O-]
REMARK SMILES IDX 4 1 5 2 6 3 7 7 8 8 9 9 2 10 3 11 1 12
REMARK H PARENT 6 4 6 5 6 6 1 13 1 14
REMARK Flexibility Score: inf
ROOT
ATOM      1  C   UNL     1      11.846  -2.938  19.854  1.00  0.00     0.171 C 
ENDROOT
BRANCH   1   2
ATOM      2  C   UNL     1      12.211  -4.220  20.628  1.00  0.00     0.237 C 
BRANCH   2   3
ATOM      3  N   UNL     1      11.072  -5.146  20.703  1.00  0.00    -0.350 N 
ATOM      4  H   UNL     1      10.683  -5.180  21.674  1.00  0.00     0.345 HD
ATOM      5  H   UNL     1      10.319  -4.842  20.042  1.00  0.00     0.345 HD
ATOM      6  H   UNL     1      11.376  -6.107  20.421  1.00  0.00     0.345 HD
ENDBRANCH   2   3
BRANCH   2   7
ATOM      7  C   UNL     1      12.674  -3.861  22.015  1.00  0.00     0.100 C 
ATOM      8  O   UNL     1      13.816  -3.362  22.191  1.00  0.00    -0.544 OA
ATOM      9  O   UNL     1      11.836  -4.058  23.106  1.00  0.00    -0.544 OA
ENDBRANCH   2   7
ENDBRANCH   1   2
BRANCH   1  10
ATOM     10  C   UNL     1      12.949  -2.518  18.926  1.00  0.00     0.223 C 
ATOM     11  O   UNL     1      12.708  -1.693  18.004  1.00  0.00    -0.275 OA
ATOM     12  N   UNL     1      14.274  -3.020  19.099  1.00  0.00    -0.369 N 
ATOM     13  H   UNL     1      14.496  -3.686  19.871  1.00  0.00     0.159 HD
ATOM     14  H   UNL     1      15.039  -2.716  18.456  1.00  0.00     0.159 HD
ENDBRANCH   1  10
TORSDOF 4
ENDMDL
MODEL 6
REMARK VINA RESULT:    -4.315      1.105      4.289
REMARK INTER + INTRA:          -5.432
REMARK INTER:                  -5.268
REMARK INTRA:                  -0.164
REMARK UNBOUND:                -0.235
REMARK SMILES NC(=O)C[C@H]([NH3+])C(=O)[O-]
REMARK SMILES IDX 4 1 5 2 6 3 7 7 8 8 9 9 2 10 3 11 1 12
REMARK H PARENT 6 4 6 5 6 6 1 13 1 14
REMARK Flexibility Score: inf
ROOT
ATOM      1  C   UNL     1      13.238  -3.189  21.910  1.00  0.00     0.171 C 
ENDROOT
BRANCH   1   2
ATOM      2  C   UNL     1      12.963  -3.663  20.469  1.00  0.00     0.237 C 
BRANCH   2   3
ATOM      3  N   UNL     1      13.439  -2.686  19.480  1.00  0.00    -0.350 N 
ATOM      4  H   UNL     1      13.647  -3.151  18.567  1.00  0.00     0.345 HD
ATOM      5  H   UNL     1      12.716  -1.945  19.332  1.00  0.00     0.345 HD
ATOM      6  H   UNL     1      14.307  -2.219  19.833  1.00  0.00     0.345 HD
ENDBRANCH   2   3
BRANCH   2   7
ATOM      7  C   UNL     1      11.487  -3.902  20.287  1.00  0.00     0.100 C 
ATOM      8  O   UNL     1      11.025  -5.072  20.338  1.00  0.00    -0.544 OA
ATOM      9  O   UNL     1      10.624  -2.832  20.083  1.00  0.00    -0.544 OA
ENDBRANCH   2   7
ENDBRANCH   1   2
BRANCH   1  10
ATOM     10  C   UNL     1      13.352  -4.344  22.862  1.00  0.00     0.223 C 
ATOM     11  O   UNL     1      14.490  -4.768  23.196  1.00  0.00    -0.275 OA
ATOM     12  N   UNL     1      12.181  -4.945  23.417  1.00  0.00    -0.369 N 
ATOM     13  H   UNL     1      11.231  -4.592  23.169  1.00  0.00     0.159 HD
ATOM     14  H   UNL     1      12.266  -5.741  24.087  1.00  0.00     0.159 HD
ENDBRANCH   1  10
TORSDOF 4
ENDMDL
MODEL 7
REMARK VINA RESULT:    -4.221     19.028     19.855
REMARK INTER + INTRA:          -5.319
REMARK INTER:                  -5.199
REMARK INTRA:                  -0.121
REMARK UNBOUND:                -0.235
REMARK SMILES NC(=O)C[C@H]([NH3+])C(=O)[O-]
REMARK SMILES IDX 4 1 5 2 6 3 7 7 8 8 9 9 2 10 3 11 1 12
REMARK H PARENT 6 4 6 5 6 6 1 13 1 14
REMARK Flexibility Score: inf
ROOT
ATOM      1  C   UNL     1      18.485  11.857  13.025  1.00  0.00     0.171 C 
ENDROOT
BRANCH   1   2
ATOM      2  C   UNL     1      17.667  12.465  14.182  1.00  0.00     0.237 C 
BRANCH   2   3
ATOM      3  N   UNL     1      17.495  11.505  15.281  1.00  0.00    -0.350 N 
ATOM      4  H   UNL     1      16.493  11.455  15.578  1.00  0.00     0.345 HD
ATOM      5  H   UNL     1      17.813  10.555  14.981  1.00  0.00     0.345 HD
ATOM      6  H   UNL     1      18.080  11.794  16.100  1.00  0.00     0.345 HD
ENDBRANCH   2   3
BRANCH   2   7
ATOM      7  C   UNL     1      16.322  12.910  13.671  1.00  0.00     0.100 C 
ATOM      8  O   UNL     1      15.997  14.125  13.719  1.00  0.00    -0.544 OA
ATOM      9  O   UNL     1      15.439  11.985  13.126  1.00  0.00    -0.544 OA
ENDBRANCH   2   7
ENDBRANCH   1   2
BRANCH   1  10
ATOM     10  C   UNL     1      19.372  12.880  12.376  1.00  0.00     0.223 C 
ATOM     11  O   UNL     1      20.543  13.055  12.808  1.00  0.00    -0.275 OA
ATOM     12  N   UNL     1      18.912  13.633  11.254  1.00  0.00    -0.369 N 
ATOM     13  H   UNL     1      17.953  13.484  10.869  1.00  0.00     0.159 HD
ATOM     14  H   UNL     1      19.537  14.336  10.800  1.00  0.00     0.159 HD
ENDBRANCH   1  10
TORSDOF 4
ENDMDL
MODEL 8
REMARK VINA RESULT:    -4.176     18.454     19.196
REMARK INTER + INTRA:          -5.265
REMARK INTER:                  -4.792
REMARK INTRA:                  -0.474
REMARK UNBOUND:                -0.235
REMARK SMILES NC(=O)C[C@H]([NH3+])C(=O)[O-]
REMARK SMILES IDX 4 1 5 2 6 3 7 7 8 8 9 9 2 10 3 11 1 12
REMARK H PARENT 6 4 6 5 6 6 1 13 1 14
REMARK Flexibility Score: inf
ROOT
ATOM      1  C   UNL     1      17.313  12.161  12.944  1.00  0.00     0.171 C 
ENDROOT
BRANCH   1   2
ATOM      2  C   UNL     1      16.385  12.599  14.094  1.00  0.00     0.237 C 
BRANCH   2   3
ATOM      3  N   UNL     1      16.624  13.997  14.476  1.00  0.00    -0.350 N 
ATOM      4  H   UNL     1      17.512  14.087  15.023  1.00  0.00     0.345 HD
ATOM      5  H   UNL     1      16.686  14.597  13.621  1.00  0.00     0.345 HD
ATOM      6  H   UNL     1      15.828  14.348  15.057  1.00  0.00     0.345 HD
ENDBRANCH   2   3
BRANCH   2   7
ATOM      7  C   UNL     1      16.591  11.698  15.282  1.00  0.00     0.100 C 
ATOM      8  O   UNL     1      17.750  11.502  15.734  1.00  0.00    -0.544 OA
ATOM      9  O   UNL     1      15.503  11.092  15.899  1.00  0.00    -0.544 OA
ENDBRANCH   2   7
ENDBRANCH   1   2
BRANCH   1  10
ATOM     10  C   UNL     1      18.540  13.024  12.862  1.00  0.00     0.223 C 
ATOM     11  O   UNL     1      18.490  14.124  12.250  1.00  0.00    -0.275 OA
ATOM     12  N   UNL     1      19.752  12.622  13.500  1.00  0.00    -0.369 N 
ATOM     13  H   UNL     1      19.805  11.725  14.030  1.00  0.00     0.159 HD
ATOM     14  H   UNL     1      20.600  13.231  13.449  1.00  0.00     0.159 HD
ENDBRANCH   1  10
TORSDOF 4
ENDMDL
MODEL 9
REMARK VINA RESULT:    -4.133      2.319      3.971
REMARK INTER + INTRA:          -5.214
REMARK INTER:                  -4.736
REMARK INTRA:                  -0.478
REMARK UNBOUND:                -0.235
REMARK SMILES NC(=O)C[C@H]([NH3+])C(=O)[O-]
REMARK SMILES IDX 4 1 5 2 6 3 7 7 8 8 9 9 2 10 3 11 1 12
REMARK H PARENT 6 4 6 5 6 6 1 13 1 14
REMARK Flexibility Score: inf
ROOT
ATOM      1  C   UNL     1      12.043  -3.219  21.449  1.00  0.00     0.171 C 
ENDROOT
BRANCH   1   2
ATOM      2  C   UNL     1      11.913  -3.503  19.939  1.00  0.00     0.237 C 
BRANCH   2   3
ATOM      3  N   UNL     1      11.991  -4.943  19.654  1.00  0.00    -0.350 N 
ATOM      4  H   UNL     1      12.193  -5.111  18.641  1.00  0.00     0.345 HD
ATOM      5  H   UNL     1      12.743  -5.382  20.232  1.00  0.00     0.345 HD
ATOM      6  H   UNL     1      11.085  -5.404  19.904  1.00  0.00     0.345 HD
ENDBRANCH   2   3
BRANCH   2   7
ATOM      7  C   UNL     1      12.994  -2.770  19.190  1.00  0.00     0.100 C 
ATOM      8  O   UNL     1      14.205  -2.972  19.469  1.00  0.00    -0.544 OA
ATOM      9  O   UNL     1      12.663  -1.882  18.174  1.00  0.00    -0.544 OA
ENDBRANCH   2   7
ENDBRANCH   1   2
BRANCH   1  10
ATOM     10  C   UNL     1      12.802  -4.306  22.154  1.00  0.00     0.223 C 
ATOM     11  O   UNL     1      12.192  -5.330  22.561  1.00  0.00    -0.275 OA
ATOM     12  N   UNL     1      14.214  -4.202  22.339  1.00  0.00    -0.369 N 
ATOM     13  H   UNL     1      14.739  -3.372  21.988  1.00  0.00     0.159 HD
ATOM     14  H   UNL     1      14.739  -4.966  22.821  1.00  0.00     0.159 HD
ENDBRANCH   1  10
TORSDOF 4
ENDMDL
