MODEL 1
REMARK VINA RESULT:    -4.566      0.000      0.000
REMARK INTER + INTRA:          -7.268
REMARK INTER:                  -6.969
REMARK INTRA:                  -0.299
REMARK UNBOUND:                -0.299
REMARK SMILES O=C([O-])CCCCCCCCC(=O)[O-]
REMARK SMILES IDX 7 1 6 2 5 3 4 4 2 5 1 6 3 7 8 8 9 9 10 10 11 11 12 12 13 13
REMARK SMILES IDX 14 14
REMARK H PARENT
REMARK Flexibility Score: inf
ROOT
ATOM      1  C   UNL     1      -9.479   5.107 -10.733  1.00  0.00     0.000 C 
ENDROOT
BRANCH   1   2
ATOM      2  C   UNL     1      -8.253   4.999 -11.660  1.00  0.00     0.000 C 
BRANCH   2   3
ATOM      3  C   UNL     1      -8.538   4.452 -13.071  1.00  0.00     0.006 C 
BRANCH   3   4
ATOM      4  C   UNL     1      -8.069   5.380 -14.208  1.00  0.00     0.053 C 
BRANCH   4   5
ATOM      5  C   UNL     1      -6.722   5.000 -14.743  1.00  0.00     0.041 C 
ATOM      6  O   UNL     1      -6.002   5.860 -15.318  1.00  0.00    -0.550 OA
ATOM      7  O   UNL     1      -6.244   3.707 -14.576  1.00  0.00    -0.550 OA
ENDBRANCH   4   5
ENDBRANCH   3   4
ENDBRANCH   2   3
ENDBRANCH   1   2
BRANCH   1   8
ATOM      8  C   UNL     1      -9.306   4.465  -9.345  1.00  0.00     0.000 C 
BRANCH   8   9
ATOM      9  C   UNL     1      -9.116   5.504  -8.225  1.00  0.00     0.000 C 
BRANCH   9  10
ATOM     10  C   UNL     1      -7.699   5.477  -7.625  1.00  0.00     0.006 C 
BRANCH  10  11
ATOM     11  C   UNL     1      -7.662   5.547  -6.090  1.00  0.00     0.053 C 
BRANCH  11  12
ATOM     12  C   UNL     1      -8.183   6.852  -5.573  1.00  0.00     0.041 C 
ATOM     13  O   UNL     1      -7.467   7.886  -5.630  1.00  0.00    -0.550 OA
ATOM     14  O   UNL     1      -9.470   6.933  -5.057  1.00  0.00    -0.550 OA
ENDBRANCH  11  12
ENDBRANCH  10  11
ENDBRANCH   9  10
ENDBRANCH   8   9
ENDBRANCH   1   8
TORSDOF 9
ENDMDL
MODEL 2
REMARK VINA RESULT:    -4.474      1.873      7.789
REMARK INTER + INTRA:          -7.128
REMARK INTER:                  -6.798
REMARK INTRA:                  -0.330
REMARK UNBOUND:                -0.299
REMARK SMILES O=C([O-])CCCCCCCCC(=O)[O-]
REMARK SMILES IDX 7 1 6 2 5 3 4 4 2 5 1 6 3 7 8 8 9 9 10 10 11 11 12 12 13 13
REMARK SMILES IDX 14 14
REMARK H PARENT
REMARK Flexibility Score: inf
ROOT
ATOM      1  C   UNL     1      -8.361   5.119 -11.651  1.00  0.00     0.000 C 
ENDROOT
BRANCH   1   2
ATOM      2  C   UNL     1      -9.567   5.133 -10.691  1.00  0.00     0.000 C 
BRANCH   2   3
ATOM      3  C   UNL     1      -9.309   4.530  -9.298  1.00  0.00     0.006 C 
BRANCH   3   4
ATOM      4  C   UNL     1      -9.179   5.577  -8.177  1.00  0.00     0.053 C 
BRANCH   4   5
ATOM      5  C   UNL     1      -7.845   5.529  -7.495  1.00  0.00     0.041 C 
ATOM      6  O   UNL     1      -6.804   5.884  -8.110  1.00  0.00    -0.550 OA
ATOM      7  O   UNL     1      -7.754   5.127  -6.168  1.00  0.00    -0.550 OA
ENDBRANCH   4   5
ENDBRANCH   3   4
ENDBRANCH   2   3
ENDBRANCH   1   2
BRANCH   1   8
ATOM      8  C   UNL     1      -8.606   4.412 -12.996  1.00  0.00     0.000 C 
BRANCH   8   9
ATOM      9  C   UNL     1      -7.309   4.173 -13.790  1.00  0.00     0.000 C 
BRANCH   9  10
ATOM     10  C   UNL     1      -6.888   5.396 -14.624  1.00  0.00     0.006 C 
BRANCH  10  11
ATOM     11  C   UNL     1      -8.045   6.078 -15.372  1.00  0.00     0.053 C 
BRANCH  11  12
ATOM     12  C   UNL     1      -7.639   6.537 -16.738  1.00  0.00     0.041 C 
ATOM     13  O   UNL     1      -8.290   6.166 -17.750  1.00  0.00    -0.550 OA
ATOM     14  O   UNL     1      -6.562   7.401 -16.891  1.00  0.00    -0.550 OA
ENDBRANCH  11  12
ENDBRANCH  10  11
ENDBRANCH   9  10
ENDBRANCH   8   9
ENDBRANCH   1   8
TORSDOF 9
ENDMDL
MODEL 3
REMARK VINA RESULT:    -4.416      1.282      7.884
REMARK INTER + INTRA:          -7.038
REMARK INTER:                  -6.772
REMARK INTRA:                  -0.266
REMARK UNBOUND:                -0.299
REMARK SMILES O=C([O-])CCCCCCCCC(=O)[O-]
REMARK SMILES IDX 7 1 6 2 5 3 4 4 2 5 1 6 3 7 8 8 9 9 10 10 11 11 12 12 13 13
REMARK SMILES IDX 14 14
REMARK H PARENT
REMARK Flexibility Score: inf
ROOT
ATOM      1  C   UNL     1      -9.437   5.144 -10.738  1.00  0.00     0.000 C 
ENDROOT
BRANCH   1   2
ATOM      2  C   UNL     1      -9.155   4.536  -9.350  1.00  0.00     0.000 C 
BRANCH   2   3
ATOM      3  C   UNL     1      -9.115   5.542  -8.184  1.00  0.00     0.006 C 
BRANCH   3   4
ATOM      4  C   UNL     1      -7.893   5.383  -7.261  1.00  0.00     0.053 C 
BRANCH   4   5
ATOM      5  C   UNL     1      -8.271   5.292  -5.813  1.00  0.00     0.041 C 
ATOM      6  O   UNL     1      -7.525   4.685  -4.999  1.00  0.00    -0.550 OA
ATOM      7  O   UNL     1      -9.429   5.907  -5.355  1.00  0.00    -0.550 OA
ENDBRANCH   4   5
ENDBRANCH   3   4
ENDBRANCH   2   3
ENDBRANCH   1   2
BRANCH   1   8
ATOM      8  C   UNL     1      -8.581   4.577 -11.884  1.00  0.00     0.000 C 
BRANCH   8   9
ATOM      9  C   UNL     1      -7.548   5.588 -12.414  1.00  0.00     0.000 C 
BRANCH   9  10
ATOM     10  C   UNL     1      -6.306   4.907 -13.017  1.00  0.00     0.006 C 
BRANCH  10  11
ATOM     11  C   UNL     1      -6.603   4.019 -14.237  1.00  0.00     0.053 C 
BRANCH  11  12
ATOM     12  C   UNL     1      -6.184   4.668 -15.520  1.00  0.00     0.041 C 
ATOM     13  O   UNL     1      -6.313   5.911 -15.673  1.00  0.00    -0.550 OA
ATOM     14  O   UNL     1      -5.622   3.904 -16.535  1.00  0.00    -0.550 OA
ENDBRANCH  11  12
ENDBRANCH  10  11
ENDBRANCH   9  10
ENDBRANCH   8   9
ENDBRANCH   1   8
TORSDOF 9
ENDMDL
MODEL 4
REMARK VINA RESULT:    -4.382      1.417      7.693
REMARK INTER + INTRA:          -6.987
REMARK INTER:                  -6.632
REMARK INTRA:                  -0.355
REMARK UNBOUND:                -0.299
REMARK SMILES O=C([O-])CCCCCCCCC(=O)[O-]
REMARK SMILES IDX 7 1 6 2 5 3 4 4 2 5 1 6 3 7 8 8 9 9 10 10 11 11 12 12 13 13
REMARK SMILES IDX 14 14
REMARK H PARENT
REMARK Flexibility Score: inf
ROOT
ATOM      1  C   UNL     1      -9.180   4.814  -8.761  1.00  0.00     0.000 C 
ENDROOT
BRANCH   1   2
ATOM      2  C   UNL     1      -7.865   5.493  -8.333  1.00  0.00     0.000 C 
BRANCH   2   3
ATOM      3  C   UNL     1      -7.935   6.303  -7.024  1.00  0.00     0.006 C 
BRANCH   3   4
ATOM      4  C   UNL     1      -8.942   5.750  -6.000  1.00  0.00     0.053 C 
BRANCH   4   5
ATOM      5  C   UNL     1      -8.280   5.250  -4.751  1.00  0.00     0.041 C 
ATOM      6  O   UNL     1      -7.408   4.342  -4.815  1.00  0.00    -0.550 OA
ATOM      7  O   UNL     1      -8.597   5.810  -3.521  1.00  0.00    -0.550 OA
ENDBRANCH   4   5
ENDBRANCH   3   4
ENDBRANCH   2   3
ENDBRANCH   1   2
BRANCH   1   8
ATOM      8  C   UNL     1      -9.631   5.114 -10.201  1.00  0.00     0.000 C 
BRANCH   8   9
ATOM      9  C   UNL     1      -8.458   5.162 -11.197  1.00  0.00     0.000 C 
BRANCH   9  10
ATOM     10  C   UNL     1      -8.776   4.451 -12.524  1.00  0.00     0.006 C 
BRANCH  10  11
ATOM     11  C   UNL     1      -8.082   5.066 -13.751  1.00  0.00     0.053 C 
BRANCH  11  12
ATOM     12  C   UNL     1      -6.654   4.633 -13.865  1.00  0.00     0.041 C 
ATOM     13  O   UNL     1      -6.356   3.593 -14.509  1.00  0.00    -0.550 OA
ATOM     14  O   UNL     1      -5.647   5.395 -13.286  1.00  0.00    -0.550 OA
ENDBRANCH  11  12
ENDBRANCH  10  11
ENDBRANCH   9  10
ENDBRANCH   8   9
ENDBRANCH   1   8
TORSDOF 9
ENDMDL
MODEL 5
REMARK VINA RESULT:    -4.333      1.553      2.350
REMARK INTER + INTRA:          -6.913
REMARK INTER:                  -6.574
REMARK INTRA:                  -0.339
REMARK UNBOUND:                -0.299
REMARK SMILES O=C([O-])CCCCCCCCC(=O)[O-]
REMARK SMILES IDX 7 1 6 2 5 3 4 4 2 5 1 6 3 7 8 8 9 9 10 10 11 11 12 12 13 13
REMARK SMILES IDX 14 14
REMARK H PARENT
REMARK Flexibility Score: inf
ROOT
ATOM      1  C   UNL     1      -7.904   5.391 -12.199  1.00  0.00     0.000 C 
ENDROOT
BRANCH   1   2
ATOM      2  C   UNL     1      -6.877   4.597 -13.028  1.00  0.00     0.000 C 
BRANCH   2   3
ATOM      3  C   UNL     1      -6.757   5.013 -14.506  1.00  0.00     0.006 C 
BRANCH   3   4
ATOM      4  C   UNL     1      -7.930   5.874 -15.011  1.00  0.00     0.053 C 
BRANCH   4   5
ATOM      5  C   UNL     1      -7.734   6.347 -16.420  1.00  0.00     0.041 C 
ATOM      6  O   UNL     1      -7.193   5.594 -17.273  1.00  0.00    -0.550 OA
ATOM      7  O   UNL     1      -8.178   7.606 -16.800  1.00  0.00    -0.550 OA
ENDBRANCH   4   5
ENDBRANCH   3   4
ENDBRANCH   2   3
ENDBRANCH   1   2
BRANCH   1   8
ATOM      8  C   UNL     1      -8.959   4.536 -11.474  1.00  0.00     0.000 C 
BRANCH   8   9
ATOM      9  C   UNL     1      -9.668   5.297 -10.339  1.00  0.00     0.000 C 
BRANCH   9  10
ATOM     10  C   UNL     1      -9.271   4.785  -8.943  1.00  0.00     0.006 C 
BRANCH  10  11
ATOM     11  C   UNL     1      -8.090   5.537  -8.308  1.00  0.00     0.053 C 
BRANCH  11  12
ATOM     12  C   UNL     1      -8.373   5.938  -6.893  1.00  0.00     0.041 C 
ATOM     13  O   UNL     1      -7.463   6.442  -6.184  1.00  0.00    -0.550 OA
ATOM     14  O   UNL     1      -9.650   5.783  -6.368  1.00  0.00    -0.550 OA
ENDBRANCH  11  12
ENDBRANCH  10  11
ENDBRANCH   9  10
ENDBRANCH   8   9
ENDBRANCH   1   8
TORSDOF 9
ENDMDL
MODEL 6
REMARK VINA RESULT:    -4.243      1.484      2.183
REMARK INTER + INTRA:          -6.775
REMARK INTER:                  -6.431
REMARK INTRA:                  -0.345
REMARK UNBOUND:                -0.299
REMARK SMILES O=C([O-])CCCCCCCCC(=O)[O-]
REMARK SMILES IDX 7 1 6 2 5 3 4 4 2 5 1 6 3 7 8 8 9 9 10 10 11 11 12 12 13 13
REMARK SMILES IDX 14 14
REMARK H PARENT
REMARK Flexibility Score: inf
ROOT
ATOM      1  C   UNL     1      -9.109   4.832  -8.674  1.00  0.00     0.000 C 
ENDROOT
BRANCH   1   2
ATOM      2  C   UNL     1      -9.590   5.009 -10.128  1.00  0.00     0.000 C 
BRANCH   2   3
ATOM      3  C   UNL     1      -8.475   5.177 -11.177  1.00  0.00     0.006 C 
BRANCH   3   4
ATOM      4  C   UNL     1      -8.739   4.429 -12.496  1.00  0.00     0.053 C 
BRANCH   4   5
ATOM      5  C   UNL     1      -7.781   4.818 -13.582  1.00  0.00     0.041 C 
ATOM      6  O   UNL     1      -8.086   5.723 -14.404  1.00  0.00    -0.550 OA
ATOM      7  O   UNL     1      -6.537   4.207 -13.665  1.00  0.00    -0.550 OA
ENDBRANCH   4   5
ENDBRANCH   3   4
ENDBRANCH   2   3
ENDBRANCH   1   2
BRANCH   1   8
ATOM      8  C   UNL     1      -7.822   5.595  -8.316  1.00  0.00     0.000 C 
BRANCH   8   9
ATOM      9  C   UNL     1      -7.719   5.923  -6.816  1.00  0.00     0.000 C 
BRANCH   9  10
ATOM     10  C   UNL     1      -9.047   5.709  -6.068  1.00  0.00     0.006 C 
BRANCH  10  11
ATOM     11  C   UNL     1      -9.409   6.837  -5.088  1.00  0.00     0.053 C 
BRANCH  11  12
ATOM     12  C   UNL     1      -8.881   6.578  -3.712  1.00  0.00     0.041 C 
ATOM     13  O   UNL     1      -8.484   5.426  -3.392  1.00  0.00    -0.550 OA
ATOM     14  O   UNL     1      -8.798   7.615  -2.791  1.00  0.00    -0.550 OA
ENDBRANCH  11  12
ENDBRANCH  10  11
ENDBRANCH   9  10
ENDBRANCH   8   9
ENDBRANCH   1   8
TORSDOF 9
ENDMDL
MODEL 7
REMARK VINA RESULT:    -4.217      2.540      3.251
REMARK INTER + INTRA:          -6.736
REMARK INTER:                  -6.320
REMARK INTRA:                  -0.416
REMARK UNBOUND:                -0.299
REMARK SMILES O=C([O-])CCCCCCCCC(=O)[O-]
REMARK SMILES IDX 7 1 6 2 5 3 4 4 2 5 1 6 3 7 8 8 9 9 10 10 11 11 12 12 13 13
REMARK SMILES IDX 14 14
REMARK H PARENT
REMARK Flexibility Score: inf
ROOT
ATOM      1  C   UNL     1      -4.482   6.717 -10.024  1.00  0.00     0.000 C 
ENDROOT
BRANCH   1   2
ATOM      2  C   UNL     1      -4.775   6.375 -11.498  1.00  0.00     0.000 C 
BRANCH   2   3
ATOM      3  C   UNL     1      -6.221   5.935 -11.799  1.00  0.00     0.006 C 
BRANCH   3   4
ATOM      4  C   UNL     1      -6.379   5.175 -13.129  1.00  0.00     0.053 C 
BRANCH   4   5
ATOM      5  C   UNL     1      -7.810   5.057 -13.558  1.00  0.00     0.041 C 
ATOM      6  O   UNL     1      -8.609   4.327 -12.911  1.00  0.00    -0.550 OA
ATOM      7  O   UNL     1      -8.273   5.778 -14.651  1.00  0.00    -0.550 OA
ENDBRANCH   4   5
ENDBRANCH   3   4
ENDBRANCH   2   3
ENDBRANCH   1   2
BRANCH   1   8
ATOM      8  C   UNL     1      -5.559   6.263  -9.023  1.00  0.00     0.000 C 
BRANCH   8   9
ATOM      9  C   UNL     1      -5.565   7.100  -7.731  1.00  0.00     0.000 C 
BRANCH   9  10
ATOM     10  C   UNL     1      -6.771   6.789  -6.828  1.00  0.00     0.006 C 
BRANCH  10  11
ATOM     11  C   UNL     1      -7.469   5.455  -7.143  1.00  0.00     0.053 C 
BRANCH  11  12
ATOM     12  C   UNL     1      -8.941   5.626  -7.354  1.00  0.00     0.041 C 
ATOM     13  O   UNL     1      -9.696   5.875  -6.378  1.00  0.00    -0.550 OA
ATOM     14  O   UNL     1      -9.475   5.541  -8.633  1.00  0.00    -0.550 OA
ENDBRANCH  11  12
ENDBRANCH  10  11
ENDBRANCH   9  10
ENDBRANCH   8   9
ENDBRANCH   1   8
TORSDOF 9
ENDMDL
MODEL 8
REMARK VINA RESULT:    -4.198      2.553      7.089
REMARK INTER + INTRA:          -6.707
REMARK INTER:                  -6.281
REMARK INTRA:                  -0.426
REMARK UNBOUND:                -0.299
REMARK SMILES O=C([O-])CCCCCCCCC(=O)[O-]
REMARK SMILES IDX 7 1 6 2 5 3 4 4 2 5 1 6 3 7 8 8 9 9 10 10 11 11 12 12 13 13
REMARK SMILES IDX 14 14
REMARK H PARENT
REMARK Flexibility Score: inf
ROOT
ATOM      1  C   UNL     1      -5.676   6.389  -8.911  1.00  0.00     0.000 C 
ENDROOT
BRANCH   1   2
ATOM      2  C   UNL     1      -5.611   7.108  -7.549  1.00  0.00     0.000 C 
BRANCH   2   3
ATOM      3  C   UNL     1      -6.776   6.807  -6.587  1.00  0.00     0.006 C 
BRANCH   3   4
ATOM      4  C   UNL     1      -7.480   5.464  -6.857  1.00  0.00     0.053 C 
BRANCH   4   5
ATOM      5  C   UNL     1      -8.941   5.628  -7.149  1.00  0.00     0.041 C 
ATOM      6  O   UNL     1      -9.752   5.867  -6.214  1.00  0.00    -0.550 OA
ATOM      7  O   UNL     1      -9.404   5.552  -8.456  1.00  0.00    -0.550 OA
ENDBRANCH   4   5
ENDBRANCH   3   4
ENDBRANCH   2   3
ENDBRANCH   1   2
BRANCH   1   8
ATOM      8  C   UNL     1      -4.425   6.548  -9.792  1.00  0.00     0.000 C 
BRANCH   8   9
ATOM      9  C   UNL     1      -4.743   6.486 -11.297  1.00  0.00     0.000 C 
BRANCH   9  10
ATOM     10  C   UNL     1      -6.174   5.997 -11.583  1.00  0.00     0.006 C 
BRANCH  10  11
ATOM     11  C   UNL     1      -6.350   5.327 -12.955  1.00  0.00     0.053 C 
BRANCH  11  12
ATOM     12  C   UNL     1      -7.793   5.132 -13.306  1.00  0.00     0.041 C 
ATOM     13  O   UNL     1      -8.556   4.508 -12.523  1.00  0.00    -0.550 OA
ATOM     14  O   UNL     1      -8.302   5.667 -14.482  1.00  0.00    -0.550 OA
ENDBRANCH  11  12
ENDBRANCH  10  11
ENDBRANCH   9  10
ENDBRANCH   8   9
ENDBRANCH   1   8
TORSDOF 9
ENDMDL
MODEL 9
REMARK VINA RESULT:    -4.153      2.023      8.051
REMARK INTER + INTRA:          -6.638
REMARK INTER:                  -6.222
REMARK INTRA:                  -0.416
REMARK UNBOUND:                -0.299
REMARK SMILES O=C([O-])CCCCCCCCC(=O)[O-]
REMARK SMILES IDX 7 1 6 2 5 3 4 4 2 5 1 6 3 7 8 8 9 9 10 10 11 11 12 12 13 13
REMARK SMILES IDX 14 14
REMARK H PARENT
REMARK Flexibility Score: inf
ROOT
ATOM      1  C   UNL     1      -7.357   6.265  -6.444  1.00  0.00     0.000 C 
ENDROOT
BRANCH   1   2
ATOM      2  C   UNL     1      -7.613   5.256  -5.308  1.00  0.00     0.000 C 
BRANCH   2   3
ATOM      3  C   UNL     1      -8.800   5.589  -4.384  1.00  0.00     0.006 C 
BRANCH   3   4
ATOM      4  C   UNL     1      -8.470   6.620  -3.289  1.00  0.00     0.053 C 
BRANCH   4   5
ATOM      5  C   UNL     1      -9.073   7.965  -3.563  1.00  0.00     0.041 C 
ATOM      6  O   UNL     1     -10.321   8.090  -3.682  1.00  0.00    -0.550 OA
ATOM      7  O   UNL     1      -8.260   9.088  -3.653  1.00  0.00    -0.550 OA
ENDBRANCH   4   5
ENDBRANCH   3   4
ENDBRANCH   2   3
ENDBRANCH   1   2
BRANCH   1   8
ATOM      8  C   UNL     1      -7.522   5.701  -7.866  1.00  0.00     0.000 C 
BRANCH   8   9
ATOM      9  C   UNL     1      -8.991   5.427  -8.234  1.00  0.00     0.000 C 
BRANCH   9  10
ATOM     10  C   UNL     1      -9.135   4.474  -9.434  1.00  0.00     0.006 C 
BRANCH  10  11
ATOM     11  C   UNL     1      -9.547   5.166 -10.743  1.00  0.00     0.053 C 
BRANCH  11  12
ATOM     12  C   UNL     1      -8.525   4.983 -11.822  1.00  0.00     0.041 C 
ATOM     13  O   UNL     1      -7.367   5.458 -11.685  1.00  0.00    -0.550 OA
ATOM     14  O   UNL     1      -8.843   4.262 -12.966  1.00  0.00    -0.550 OA
ENDBRANCH  11  12
ENDBRANCH  10  11
ENDBRANCH   9  10
ENDBRANCH   8   9
ENDBRANCH   1   8
TORSDOF 9
ENDMDL
