MODEL 1
REMARK VINA RESULT:    -4.738      0.000      0.000
REMARK INTER + INTRA:          -5.015
REMARK INTER:                  -5.015
REMARK INTRA:                   0.000
REMARK UNBOUND:                 0.000
REMARK SMILES Cc1cc(O)c(C)c(C)c1O
REMARK SMILES IDX 1 1 2 2 3 3 4 4 6 5 8 6 10 7 9 8 7 9 11 10 5 12
REMARK H PARENT 11 11 5 13
REMARK Flexibility Score: inf
ROOT
ATOM      1  C   UNL     1     -27.779 -52.669  50.875  1.00  0.00     0.048 C 
ATOM      2  C   UNL     1     -27.479 -52.769  52.346  1.00  0.00    -0.005 A 
ATOM      3  C   UNL     1     -26.660 -51.816  52.957  1.00  0.00     0.053 A 
ATOM      4  C   UNL     1     -26.340 -51.908  54.311  1.00  0.00     0.119 A 
ATOM      5  C   UNL     1     -26.833 -52.986  55.085  1.00  0.00    -0.003 A 
ATOM      6  C   UNL     1     -27.767 -53.887  54.502  1.00  0.00    -0.002 A 
ATOM      7  C   UNL     1     -28.028 -53.813  53.110  1.00  0.00     0.121 A 
ATOM      8  C   UNL     1     -28.473 -54.931  55.340  1.00  0.00     0.049 C 
ATOM      9  C   UNL     1     -26.375 -53.152  56.517  1.00  0.00     0.049 C 
ENDROOT
BRANCH   7  10
ATOM     10  O   UNL     1     -28.817 -54.766  52.456  1.00  0.00    -0.507 OA
ATOM     11  H   UNL     1     -29.673 -55.144  52.837  1.00  0.00     0.293 HD
ENDBRANCH   7  10
BRANCH   4  12
ATOM     12  O   UNL     1     -25.539 -50.901  54.854  1.00  0.00    -0.508 OA
ATOM     13  H   UNL     1     -25.906 -50.057  55.275  1.00  0.00     0.293 HD
ENDBRANCH   4  12
TORSDOF 2
ENDMDL
MODEL 2
REMARK VINA RESULT:    -4.494      1.369      2.931
REMARK INTER + INTRA:          -4.757
REMARK INTER:                  -4.757
REMARK INTRA:                   0.000
REMARK UNBOUND:                 0.000
REMARK SMILES Cc1cc(O)c(C)c(C)c1O
REMARK SMILES IDX 1 1 2 2 3 3 4 4 6 5 8 6 10 7 9 8 7 9 11 10 5 12
REMARK H PARENT 11 11 5 13
REMARK Flexibility Score: inf
ROOT
ATOM      1  C   UNL     1     -28.055 -52.876  50.879  1.00  0.00     0.048 C 
ATOM      2  C   UNL     1     -27.599 -53.091  52.297  1.00  0.00    -0.005 A 
ATOM      3  C   UNL     1     -27.772 -54.337  52.904  1.00  0.00     0.053 A 
ATOM      4  C   UNL     1     -27.390 -54.550  54.228  1.00  0.00     0.119 A 
ATOM      5  C   UNL     1     -26.832 -53.490  54.984  1.00  0.00    -0.003 A 
ATOM      6  C   UNL     1     -26.537 -52.258  54.336  1.00  0.00    -0.002 A 
ATOM      7  C   UNL     1     -26.992 -52.044  53.010  1.00  0.00     0.121 A 
ATOM      8  C   UNL     1     -25.761 -51.170  55.045  1.00  0.00     0.049 C 
ATOM      9  C   UNL     1     -26.543 -53.690  56.455  1.00  0.00     0.049 C 
ENDROOT
BRANCH   7  10
ATOM     10  O   UNL     1     -26.865 -50.801  52.379  1.00  0.00    -0.507 OA
ATOM     11  H   UNL     1     -26.608 -49.950  52.860  1.00  0.00     0.293 HD
ENDBRANCH   7  10
BRANCH   4  12
ATOM     12  O   UNL     1     -27.570 -55.831  54.754  1.00  0.00    -0.508 OA
ATOM     13  H   UNL     1     -28.241 -56.497  54.393  1.00  0.00     0.293 HD
ENDBRANCH   4  12
TORSDOF 2
ENDMDL
MODEL 3
REMARK VINA RESULT:    -4.460      1.147      4.288
REMARK INTER + INTRA:          -4.720
REMARK INTER:                  -4.720
REMARK INTRA:                   0.000
REMARK UNBOUND:                 0.000
REMARK SMILES Cc1cc(O)c(C)c(C)c1O
REMARK SMILES IDX 1 1 2 2 3 3 4 4 6 5 8 6 10 7 9 8 7 9 11 10 5 12
REMARK H PARENT 11 11 5 13
REMARK Flexibility Score: inf
ROOT
ATOM      1  C   UNL     1     -26.154 -52.949  56.420  1.00  0.00     0.048 C 
ATOM      2  C   UNL     1     -27.003 -53.160  55.196  1.00  0.00    -0.005 A 
ATOM      3  C   UNL     1     -28.051 -54.084  55.226  1.00  0.00     0.053 A 
ATOM      4  C   UNL     1     -28.829 -54.323  54.094  1.00  0.00     0.119 A 
ATOM      5  C   UNL     1     -28.552 -53.637  52.886  1.00  0.00    -0.003 A 
ATOM      6  C   UNL     1     -27.572 -52.606  52.883  1.00  0.00    -0.002 A 
ATOM      7  C   UNL     1     -26.752 -52.425  54.026  1.00  0.00     0.121 A 
ATOM      8  C   UNL     1     -27.382 -51.713  51.677  1.00  0.00     0.049 C 
ATOM      9  C   UNL     1     -29.313 -53.997  51.629  1.00  0.00     0.049 C 
ENDROOT
BRANCH   7  10
ATOM     10  O   UNL     1     -25.673 -51.533  54.025  1.00  0.00    -0.507 OA
ATOM     11  H   UNL     1     -24.929 -51.550  54.709  1.00  0.00     0.293 HD
ENDBRANCH   7  10
BRANCH   4  12
ATOM     12  O   UNL     1     -29.876 -55.240  54.211  1.00  0.00    -0.508 OA
ATOM     13  H   UNL     1     -30.854 -54.980  54.201  1.00  0.00     0.293 HD
ENDBRANCH   4  12
TORSDOF 2
ENDMDL
MODEL 4
REMARK VINA RESULT:    -4.315      1.252      3.193
REMARK INTER + INTRA:          -4.567
REMARK INTER:                  -4.567
REMARK INTRA:                   0.000
REMARK UNBOUND:                 0.000
REMARK SMILES Cc1cc(O)c(C)c(C)c1O
REMARK SMILES IDX 1 1 2 2 3 3 4 4 6 5 8 6 10 7 9 8 7 9 11 10 5 12
REMARK H PARENT 11 11 5 13
REMARK Flexibility Score: inf
ROOT
ATOM      1  C   UNL     1     -29.777 -55.615  56.119  1.00  0.00     0.048 C 
ATOM      2  C   UNL     1     -28.803 -54.704  55.424  1.00  0.00    -0.005 A 
ATOM      3  C   UNL     1     -27.775 -54.097  56.151  1.00  0.00     0.053 A 
ATOM      4  C   UNL     1     -26.881 -53.221  55.536  1.00  0.00     0.119 A 
ATOM      5  C   UNL     1     -27.017 -52.921  54.159  1.00  0.00    -0.003 A 
ATOM      6  C   UNL     1     -27.980 -53.630  53.387  1.00  0.00    -0.002 A 
ATOM      7  C   UNL     1     -28.917 -54.467  54.044  1.00  0.00     0.121 A 
ATOM      8  C   UNL     1     -28.028 -53.493  51.881  1.00  0.00     0.049 C 
ATOM      9  C   UNL     1     -26.129 -51.872  53.529  1.00  0.00     0.049 C 
ENDROOT
BRANCH   7  10
ATOM     10  O   UNL     1     -29.979 -55.067  53.357  1.00  0.00    -0.507 OA
ATOM     11  H   UNL     1     -30.700 -54.549  52.874  1.00  0.00     0.293 HD
ENDBRANCH   7  10
BRANCH   4  12
ATOM     12  O   UNL     1     -25.864 -52.678  56.324  1.00  0.00    -0.508 OA
ATOM     13  H   UNL     1     -26.002 -52.355  57.273  1.00  0.00     0.293 HD
ENDBRANCH   4  12
TORSDOF 2
ENDMDL
MODEL 5
REMARK VINA RESULT:    -4.296      2.046      2.472
REMARK INTER + INTRA:          -4.547
REMARK INTER:                  -4.547
REMARK INTRA:                   0.000
REMARK UNBOUND:                 0.000
REMARK SMILES Cc1cc(O)c(C)c(C)c1O
REMARK SMILES IDX 1 1 2 2 3 3 4 4 6 5 8 6 10 7 9 8 7 9 11 10 5 12
REMARK H PARENT 11 11 5 13
REMARK Flexibility Score: inf
ROOT
ATOM      1  C   UNL     1     -29.326 -50.077  50.875  1.00  0.00     0.048 C 
ATOM      2  C   UNL     1     -28.669 -51.226  51.589  1.00  0.00    -0.005 A 
ATOM      3  C   UNL     1     -27.434 -51.043  52.216  1.00  0.00     0.053 A 
ATOM      4  C   UNL     1     -26.789 -52.102  52.854  1.00  0.00     0.119 A 
ATOM      5  C   UNL     1     -27.377 -53.391  52.858  1.00  0.00    -0.003 A 
ATOM      6  C   UNL     1     -28.689 -53.556  52.334  1.00  0.00    -0.002 A 
ATOM      7  C   UNL     1     -29.298 -52.482  51.635  1.00  0.00     0.121 A 
ATOM      8  C   UNL     1     -29.436 -54.861  52.496  1.00  0.00     0.049 C 
ATOM      9  C   UNL     1     -26.612 -54.561  53.435  1.00  0.00     0.049 C 
ENDROOT
BRANCH   7  10
ATOM     10  O   UNL     1     -30.518 -52.634  50.967  1.00  0.00    -0.507 OA
ATOM     11  H   UNL     1     -31.413 -52.680  51.435  1.00  0.00     0.293 HD
ENDBRANCH   7  10
BRANCH   4  12
ATOM     12  O   UNL     1     -25.571 -51.832  53.482  1.00  0.00    -0.508 OA
ATOM     13  H   UNL     1     -25.413 -51.030  54.078  1.00  0.00     0.293 HD
ENDBRANCH   4  12
TORSDOF 2
ENDMDL
MODEL 6
REMARK VINA RESULT:    -4.294      1.559      3.381
REMARK INTER + INTRA:          -4.545
REMARK INTER:                  -4.545
REMARK INTRA:                   0.000
REMARK UNBOUND:                 0.000
REMARK SMILES Cc1cc(O)c(C)c(C)c1O
REMARK SMILES IDX 1 1 2 2 3 3 4 4 6 5 8 6 10 7 9 8 7 9 11 10 5 12
REMARK H PARENT 11 11 5 13
REMARK Flexibility Score: inf
ROOT
ATOM      1  C   UNL     1     -25.482 -50.765  55.646  1.00  0.00     0.048 C 
ATOM      2  C   UNL     1     -26.211 -51.826  54.867  1.00  0.00    -0.005 A 
ATOM      3  C   UNL     1     -26.484 -51.632  53.511  1.00  0.00     0.053 A 
ATOM      4  C   UNL     1     -27.189 -52.585  52.777  1.00  0.00     0.119 A 
ATOM      5  C   UNL     1     -27.655 -53.764  53.410  1.00  0.00    -0.003 A 
ATOM      6  C   UNL     1     -27.272 -54.026  54.755  1.00  0.00    -0.002 A 
ATOM      7  C   UNL     1     -26.611 -53.016  55.498  1.00  0.00     0.121 A 
ATOM      8  C   UNL     1     -27.574 -55.358  55.406  1.00  0.00     0.049 C 
ATOM      9  C   UNL     1     -28.531 -54.729  52.643  1.00  0.00     0.049 C 
ENDROOT
BRANCH   7  10
ATOM     10  O   UNL     1     -26.348 -53.159  56.865  1.00  0.00    -0.507 OA
ATOM     11  H   UNL     1     -25.754 -52.533  57.392  1.00  0.00     0.293 HD
ENDBRANCH   7  10
BRANCH   4  12
ATOM     12  O   UNL     1     -27.398 -52.331  51.420  1.00  0.00    -0.508 OA
ATOM     13  H   UNL     1     -27.147 -51.462  50.967  1.00  0.00     0.293 HD
ENDBRANCH   4  12
TORSDOF 2
ENDMDL
MODEL 7
REMARK VINA RESULT:    -4.241      1.005      3.161
REMARK INTER + INTRA:          -4.488
REMARK INTER:                  -4.488
REMARK INTRA:                   0.000
REMARK UNBOUND:                 0.000
REMARK SMILES Cc1cc(O)c(C)c(C)c1O
REMARK SMILES IDX 1 1 2 2 3 3 4 4 6 5 8 6 10 7 9 8 7 9 11 10 5 12
REMARK H PARENT 11 11 5 13
REMARK Flexibility Score: inf
ROOT
ATOM      1  C   UNL     1     -27.316 -51.731  51.613  1.00  0.00     0.048 C 
ATOM      2  C   UNL     1     -27.617 -52.604  52.801  1.00  0.00    -0.005 A 
ATOM      3  C   UNL     1     -28.654 -53.538  52.736  1.00  0.00     0.053 A 
ATOM      4  C   UNL     1     -28.973 -54.333  53.835  1.00  0.00     0.119 A 
ATOM      5  C   UNL     1     -28.254 -54.190  55.047  1.00  0.00    -0.003 A 
ATOM      6  C   UNL     1     -27.118 -53.333  55.081  1.00  0.00    -0.002 A 
ATOM      7  C   UNL     1     -26.851 -52.489  53.973  1.00  0.00     0.121 A 
ATOM      8  C   UNL     1     -26.203 -53.299  56.285  1.00  0.00     0.049 C 
ATOM      9  C   UNL     1     -28.692 -54.959  56.273  1.00  0.00     0.049 C 
ENDROOT
BRANCH   7  10
ATOM     10  O   UNL     1     -25.842 -51.520  54.011  1.00  0.00    -0.507 OA
ATOM     11  H   UNL     1     -25.625 -50.966  54.828  1.00  0.00     0.293 HD
ENDBRANCH   7  10
BRANCH   4  12
ATOM     12  O   UNL     1     -30.005 -55.262  53.682  1.00  0.00    -0.508 OA
ATOM     13  H   UNL     1     -30.981 -55.048  53.840  1.00  0.00     0.293 HD
ENDBRANCH   4  12
TORSDOF 2
ENDMDL
MODEL 8
REMARK VINA RESULT:    -4.182      1.399      4.262
REMARK INTER + INTRA:          -4.426
REMARK INTER:                  -4.426
REMARK INTRA:                   0.000
REMARK UNBOUND:                 0.000
REMARK SMILES Cc1cc(O)c(C)c(C)c1O
REMARK SMILES IDX 1 1 2 2 3 3 4 4 6 5 8 6 10 7 9 8 7 9 11 10 5 12
REMARK H PARENT 11 11 5 13
REMARK Flexibility Score: inf
ROOT
ATOM      1  C   UNL     1     -28.527 -55.093  56.038  1.00  0.00     0.048 C 
ATOM      2  C   UNL     1     -28.383 -54.304  54.765  1.00  0.00    -0.005 A 
ATOM      3  C   UNL     1     -29.374 -54.380  53.782  1.00  0.00     0.053 A 
ATOM      4  C   UNL     1     -29.246 -53.686  52.580  1.00  0.00     0.119 A 
ATOM      5  C   UNL     1     -28.092 -52.903  52.332  1.00  0.00    -0.003 A 
ATOM      6  C   UNL     1     -27.142 -52.720  53.376  1.00  0.00    -0.002 A 
ATOM      7  C   UNL     1     -27.260 -53.484  54.564  1.00  0.00     0.121 A 
ATOM      8  C   UNL     1     -26.002 -51.736  53.229  1.00  0.00     0.049 C 
ATOM      9  C   UNL     1     -27.899 -52.261  50.976  1.00  0.00     0.049 C 
ENDROOT
BRANCH   7  10
ATOM     10  O   UNL     1     -26.274 -53.460  55.557  1.00  0.00    -0.507 OA
ATOM     11  H   UNL     1     -25.293 -53.625  55.379  1.00  0.00     0.293 HD
ENDBRANCH   7  10
BRANCH   4  12
ATOM     12  O   UNL     1     -30.292 -53.790  51.660  1.00  0.00    -0.508 OA
ATOM     13  H   UNL     1     -30.810 -54.643  51.494  1.00  0.00     0.293 HD
ENDBRANCH   4  12
TORSDOF 2
ENDMDL
MODEL 9
REMARK VINA RESULT:    -4.144      1.462      2.166
REMARK INTER + INTRA:          -4.386
REMARK INTER:                  -4.386
REMARK INTRA:                   0.000
REMARK UNBOUND:                 0.000
REMARK SMILES Cc1cc(O)c(C)c(C)c1O
REMARK SMILES IDX 1 1 2 2 3 3 4 4 6 5 8 6 10 7 9 8 7 9 11 10 5 12
REMARK H PARENT 11 11 5 13
REMARK Flexibility Score: inf
ROOT
ATOM      1  C   UNL     1     -28.296 -55.498  52.123  1.00  0.00     0.048 C 
ATOM      2  C   UNL     1     -27.706 -54.361  52.912  1.00  0.00    -0.005 A 
ATOM      3  C   UNL     1     -27.493 -53.123  52.300  1.00  0.00     0.053 A 
ATOM      4  C   UNL     1     -26.916 -52.066  53.002  1.00  0.00     0.119 A 
ATOM      5  C   UNL     1     -26.519 -52.242  54.350  1.00  0.00    -0.003 A 
ATOM      6  C   UNL     1     -26.847 -53.456  55.016  1.00  0.00    -0.002 A 
ATOM      7  C   UNL     1     -27.376 -54.538  54.267  1.00  0.00     0.121 A 
ATOM      8  C   UNL     1     -26.626 -53.614  56.504  1.00  0.00     0.049 C 
ATOM      9  C   UNL     1     -25.774 -51.135  55.062  1.00  0.00     0.049 C 
ENDROOT
BRANCH   7  10
ATOM     10  O   UNL     1     -27.574 -55.801  54.835  1.00  0.00    -0.507 OA
ATOM     11  H   UNL     1     -28.308 -56.011  55.497  1.00  0.00     0.293 HD
ENDBRANCH   7  10
BRANCH   4  12
ATOM     12  O   UNL     1     -26.762 -50.852  52.328  1.00  0.00    -0.508 OA
ATOM     13  H   UNL     1     -26.301 -50.761  51.432  1.00  0.00     0.293 HD
ENDBRANCH   4  12
TORSDOF 2
ENDMDL
