MODEL 1
REMARK VINA RESULT:    -2.957      0.000      0.000
REMARK INTER + INTRA:          -3.544
REMARK INTER:                  -3.476
REMARK INTRA:                  -0.068
REMARK UNBOUND:                -0.068
REMARK SMILES CCCCC(=O)[O-]
REMARK SMILES IDX 4 1 5 2 6 3 7 4 3 5 2 6 1 7
REMARK H PARENT
REMARK Flexibility Score: inf
ROOT
ATOM      1  C   UNL     1      31.376   8.629  29.414  1.00  0.00     0.053 C 
ENDROOT
BRANCH   1   2
ATOM      2  C   UNL     1      32.639   8.465  28.624  1.00  0.00     0.041 C 
ATOM      3  O   UNL     1      32.598   8.012  27.451  1.00  0.00    -0.550 OA
ATOM      4  O   UNL     1      33.866   8.781  29.195  1.00  0.00    -0.550 OA
ENDBRANCH   1   2
BRANCH   1   5
ATOM      5  C   UNL     1      30.366   7.498  29.155  1.00  0.00     0.006 C 
BRANCH   5   6
ATOM      6  C   UNL     1      30.340   6.423  30.257  1.00  0.00    -0.003 C 
ATOM      7  C   UNL     1      31.039   6.860  31.543  1.00  0.00     0.004 C 
ENDBRANCH   5   6
ENDBRANCH   1   5
TORSDOF 3
ENDMDL
MODEL 2
REMARK VINA RESULT:    -2.948      3.088      3.899
REMARK INTER + INTRA:          -3.533
REMARK INTER:                  -3.443
REMARK INTRA:                  -0.089
REMARK UNBOUND:                -0.068
REMARK SMILES CCCCC(=O)[O-]
REMARK SMILES IDX 4 1 5 2 6 3 7 4 3 5 2 6 1 7
REMARK H PARENT
REMARK Flexibility Score: inf
ROOT
ATOM      1  C   UNL     1      29.956   9.732  27.620  1.00  0.00     0.053 C 
ENDROOT
BRANCH   1   2
ATOM      2  C   UNL     1      29.775  11.041  28.326  1.00  0.00     0.041 C 
ATOM      3  O   UNL     1      30.725  11.545  28.980  1.00  0.00    -0.550 OA
ATOM      4  O   UNL     1      28.546  11.690  28.290  1.00  0.00    -0.550 OA
ENDBRANCH   1   2
BRANCH   1   5
ATOM      5  C   UNL     1      30.726   8.705  28.467  1.00  0.00     0.006 C 
BRANCH   5   6
ATOM      6  C   UNL     1      32.145   8.409  27.949  1.00  0.00    -0.003 C 
ATOM      7  C   UNL     1      33.232   8.654  28.993  1.00  0.00     0.004 C 
ENDBRANCH   5   6
ENDBRANCH   1   5
TORSDOF 3
ENDMDL
MODEL 3
REMARK VINA RESULT:    -2.926      2.763      3.244
REMARK INTER + INTRA:          -3.507
REMARK INTER:                  -3.377
REMARK INTRA:                  -0.130
REMARK UNBOUND:                -0.068
REMARK SMILES CCCCC(=O)[O-]
REMARK SMILES IDX 4 1 5 2 6 3 7 4 3 5 2 6 1 7
REMARK H PARENT
REMARK Flexibility Score: inf
ROOT
ATOM      1  C   UNL     1      30.239   9.104  29.257  1.00  0.00     0.053 C 
ENDROOT
BRANCH   1   2
ATOM      2  C   UNL     1      30.058  10.350  28.446  1.00  0.00     0.041 C 
ATOM      3  O   UNL     1      29.373  10.326  27.390  1.00  0.00    -0.550 OA
ATOM      4  O   UNL     1      30.673  11.534  28.838  1.00  0.00    -0.550 OA
ENDBRANCH   1   2
BRANCH   1   5
ATOM      5  C   UNL     1      30.931   7.980  28.467  1.00  0.00     0.006 C 
BRANCH   5   6
ATOM      6  C   UNL     1      32.345   8.343  27.978  1.00  0.00    -0.003 C 
ATOM      7  C   UNL     1      33.316   8.651  29.116  1.00  0.00     0.004 C 
ENDBRANCH   5   6
ENDBRANCH   1   5
TORSDOF 3
ENDMDL
MODEL 4
REMARK VINA RESULT:    -2.923      3.592      4.101
REMARK INTER + INTRA:          -3.504
REMARK INTER:                  -3.483
REMARK INTRA:                  -0.021
REMARK UNBOUND:                -0.068
REMARK SMILES CCCCC(=O)[O-]
REMARK SMILES IDX 4 1 5 2 6 3 7 4 3 5 2 6 1 7
REMARK H PARENT
REMARK Flexibility Score: inf
ROOT
ATOM      1  C   UNL     1      30.434  10.450  28.494  1.00  0.00     0.053 C 
ENDROOT
BRANCH   1   2
ATOM      2  C   UNL     1      29.073  10.912  28.074  1.00  0.00     0.041 C 
ATOM      3  O   UNL     1      28.829  11.145  26.861  1.00  0.00    -0.550 OA
ATOM      4  O   UNL     1      28.080  11.116  29.024  1.00  0.00    -0.550 OA
ENDBRANCH   1   2
BRANCH   1   5
ATOM      5  C   UNL     1      30.644   8.943  28.265  1.00  0.00     0.006 C 
BRANCH   5   6
ATOM      6  C   UNL     1      32.073   8.573  27.829  1.00  0.00    -0.003 C 
ATOM      7  C   UNL     1      33.084   8.622  28.972  1.00  0.00     0.004 C 
ENDBRANCH   5   6
ENDBRANCH   1   5
TORSDOF 3
ENDMDL
MODEL 5
REMARK VINA RESULT:    -2.909      3.688      4.403
REMARK INTER + INTRA:          -3.487
REMARK INTER:                  -3.430
REMARK INTRA:                  -0.057
REMARK UNBOUND:                -0.068
REMARK SMILES CCCCC(=O)[O-]
REMARK SMILES IDX 4 1 5 2 6 3 7 4 3 5 2 6 1 7
REMARK H PARENT
REMARK Flexibility Score: inf
ROOT
ATOM      1  C   UNL     1      30.370  11.460  28.853  1.00  0.00     0.053 C 
ENDROOT
BRANCH   1   2
ATOM      2  C   UNL     1      28.992  11.226  28.312  1.00  0.00     0.041 C 
ATOM      3  O   UNL     1      28.011  11.136  29.095  1.00  0.00    -0.550 OA
ATOM      4  O   UNL     1      28.795  11.076  26.944  1.00  0.00    -0.550 OA
ENDBRANCH   1   2
BRANCH   1   5
ATOM      5  C   UNL     1      31.035  10.166  29.352  1.00  0.00     0.006 C 
BRANCH   5   6
ATOM      6  C   UNL     1      31.570   9.265  28.225  1.00  0.00    -0.003 C 
ATOM      7  C   UNL     1      32.833   8.500  28.611  1.00  0.00     0.004 C 
ENDBRANCH   5   6
ENDBRANCH   1   5
TORSDOF 3
ENDMDL
MODEL 6
REMARK VINA RESULT:    -2.883      1.709      2.148
REMARK INTER + INTRA:          -3.456
REMARK INTER:                  -3.427
REMARK INTRA:                  -0.030
REMARK UNBOUND:                -0.068
REMARK SMILES CCCCC(=O)[O-]
REMARK SMILES IDX 4 1 5 2 6 3 7 4 3 5 2 6 1 7
REMARK H PARENT
REMARK Flexibility Score: inf
ROOT
ATOM      1  C   UNL     1      30.289   8.628  29.247  1.00  0.00     0.053 C 
ENDROOT
BRANCH   1   2
ATOM      2  C   UNL     1      30.593   9.358  27.975  1.00  0.00     0.041 C 
ATOM      3  O   UNL     1      31.732   9.263  27.447  1.00  0.00    -0.550 OA
ATOM      4  O   UNL     1      29.630  10.169  27.387  1.00  0.00    -0.550 OA
ENDBRANCH   1   2
BRANCH   1   5
ATOM      5  C   UNL     1      30.258   7.102  29.060  1.00  0.00     0.006 C 
BRANCH   5   6
ATOM      6  C   UNL     1      30.297   6.312  30.381  1.00  0.00    -0.003 C 
ATOM      7  C   UNL     1      31.130   6.990  31.466  1.00  0.00     0.004 C 
ENDBRANCH   5   6
ENDBRANCH   1   5
TORSDOF 3
ENDMDL
MODEL 7
REMARK VINA RESULT:    -2.811     11.559     12.306
REMARK INTER + INTRA:          -3.372
REMARK INTER:                  -3.348
REMARK INTRA:                  -0.025
REMARK UNBOUND:                -0.068
REMARK SMILES CCCCC(=O)[O-]
REMARK SMILES IDX 4 1 5 2 6 3 7 4 3 5 2 6 1 7
REMARK H PARENT
REMARK Flexibility Score: inf
ROOT
ATOM      1  C   UNL     1      28.974  17.012  21.848  1.00  0.00     0.053 C 
ENDROOT
BRANCH   1   2
ATOM      2  C   UNL     1      28.283  16.836  20.531  1.00  0.00     0.041 C 
ATOM      3  O   UNL     1      28.844  17.204  19.466  1.00  0.00    -0.550 OA
ATOM      4  O   UNL     1      27.004  16.295  20.480  1.00  0.00    -0.550 OA
ENDBRANCH   1   2
BRANCH   1   5
ATOM      5  C   UNL     1      29.950  15.865  22.161  1.00  0.00     0.006 C 
BRANCH   5   6
ATOM      6  C   UNL     1      31.046  16.240  23.175  1.00  0.00    -0.003 C 
ATOM      7  C   UNL     1      30.614  17.325  24.158  1.00  0.00     0.004 C 
ENDBRANCH   5   6
ENDBRANCH   1   5
TORSDOF 3
ENDMDL
MODEL 8
REMARK VINA RESULT:    -2.784     10.044     11.089
REMARK INTER + INTRA:          -3.340
REMARK INTER:                  -3.281
REMARK INTRA:                  -0.059
REMARK UNBOUND:                -0.068
REMARK SMILES CCCCC(=O)[O-]
REMARK SMILES IDX 4 1 5 2 6 3 7 4 3 5 2 6 1 7
REMARK H PARENT
REMARK Flexibility Score: inf
ROOT
ATOM      1  C   UNL     1      21.928   3.569  25.673  1.00  0.00     0.053 C 
ENDROOT
BRANCH   1   2
ATOM      2  C   UNL     1      21.845   3.731  24.186  1.00  0.00     0.041 C 
ATOM      3  O   UNL     1      22.676   4.457  23.580  1.00  0.00    -0.550 OA
ATOM      4  O   UNL     1      20.830   3.106  23.470  1.00  0.00    -0.550 OA
ENDBRANCH   1   2
BRANCH   1   5
ATOM      5  C   UNL     1      22.443   4.836  26.377  1.00  0.00     0.006 C 
BRANCH   5   6
ATOM      6  C   UNL     1      23.348   4.550  27.589  1.00  0.00    -0.003 C 
ATOM      7  C   UNL     1      24.286   3.364  27.375  1.00  0.00     0.004 C 
ENDBRANCH   5   6
ENDBRANCH   1   5
TORSDOF 3
ENDMDL
MODEL 9
REMARK VINA RESULT:    -2.699      2.902      3.224
REMARK INTER + INTRA:          -3.241
REMARK INTER:                  -3.174
REMARK INTRA:                  -0.066
REMARK UNBOUND:                -0.068
REMARK SMILES CCCCC(=O)[O-]
REMARK SMILES IDX 4 1 5 2 6 3 7 4 3 5 2 6 1 7
REMARK H PARENT
REMARK Flexibility Score: inf
ROOT
ATOM      1  C   UNL     1      29.112  10.064  29.874  1.00  0.00     0.053 C 
ENDROOT
BRANCH   1   2
ATOM      2  C   UNL     1      29.592  10.912  28.737  1.00  0.00     0.041 C 
ATOM      3  O   UNL     1      29.065  10.804  27.599  1.00  0.00    -0.550 OA
ATOM      4  O   UNL     1      30.645  11.800  28.923  1.00  0.00    -0.550 OA
ENDBRANCH   1   2
BRANCH   1   5
ATOM      5  C   UNL     1      30.158   9.028  30.322  1.00  0.00     0.006 C 
BRANCH   5   6
ATOM      6  C   UNL     1      30.316   7.844  29.352  1.00  0.00    -0.003 C 
ATOM      7  C   UNL     1      29.992   6.495  29.989  1.00  0.00     0.004 C 
ENDBRANCH   5   6
ENDBRANCH   1   5
TORSDOF 3
ENDMDL
