MODEL 1
REMARK VINA RESULT:     1.379      0.000      0.000
REMARK INTER + INTRA:           2.953
REMARK INTER:                   2.105
REMARK INTRA:                   0.848
REMARK UNBOUND:                 0.848
REMARK SMILES CC1=CCC[C@@H](C)C(=O)C[C@@H](C(C)C)C(=O)C1
REMARK SMILES IDX 8 1 9 2 6 3 7 4 5 5 4 6 3 7 2 8 1 9 10 11 11 12 15 13 16 14
REMARK SMILES IDX 17 15 12 17 13 18 14 19
REMARK H PARENT
REMARK Flexibility Score: 70.00
ROOT
ATOM      1  C   UNL     1      73.730  74.186  75.650  1.00  0.00     0.136 C 
ATOM      2  O   UNL     1      72.755  73.894  76.326  1.00  0.00    -0.299 OA
ENDROOT
BRANCH   1   3
ATOM      3  C   UNL     1      75.092  74.257  76.320  1.00  0.00     0.053 C 
ATOM      4  C   UNL     1      74.983  73.870  77.799  1.00  0.00     0.016 C 
BRANCH   3   5
ATOM      5  C   UNL     1      75.752  75.642  76.161  1.00  0.00     0.015 C 
BRANCH   5   6
ATOM      6  C   UNL     1      76.702  75.685  74.951  1.00  0.00     0.028 C 
BRANCH   6   7
ATOM      7  C   UNL     1      76.088  76.333  73.736  1.00  0.00    -0.028 C 
ATOM      8  C   UNL     1      75.956  75.766  72.509  1.00  0.00    -0.070 CG0
ATOM      9  C   UNL     1      75.431  76.643  71.398  1.00  0.00     0.039 C 
ATOM     10  G   UNL     1      76.226  74.295  72.204  1.00  0.00     0.000 G0
ENDBRANCH   6   7
ENDBRANCH   5   6
ENDBRANCH   3   5
ENDBRANCH   1   3
BRANCH   1  11
ATOM     11  C   UNL     1      73.530  74.522  74.188  1.00  0.00     0.087 C 
BRANCH  11  12
ATOM     12  C   UNL     1      73.967  73.374  73.235  1.00  0.00     0.066 C 
BRANCH  12  13
ATOM     13  C   UNL     1      75.484  73.314  73.093  1.00  0.00     0.140 C 
ATOM     14  O   UNL     1      76.089  72.376  73.594  1.00  0.00    -0.299 OA
BRANCH  13  15
ATOM     15  C   UNL     1      76.230  74.292  72.214  1.00  0.00     0.106 CG0
ATOM     16  G   UNL     1      75.960  75.764  72.515  1.00  0.00     0.000 G0
ENDBRANCH  13  15
ENDBRANCH  12  13
BRANCH  12  17
ATOM     17  C   UNL     1      73.289  73.472  71.830  1.00  0.00    -0.006 C 
ATOM     18  C   UNL     1      72.573  72.157  71.463  1.00  0.00     0.008 C 
ATOM     19  C   UNL     1      72.274  74.627  71.743  1.00  0.00     0.008 C 
ENDBRANCH  12  17
ENDBRANCH  11  12
ENDBRANCH   1  11
TORSDOF 1
ENDMDL
MODEL 2
REMARK VINA RESULT:     2.288      1.876      3.497
REMARK INTER + INTRA:           4.340
REMARK INTER:                   2.353
REMARK INTRA:                   1.986
REMARK UNBOUND:                 0.848
REMARK SMILES CC1=CCC[C@@H](C)C(=O)C[C@@H](C(C)C)C(=O)C1
REMARK SMILES IDX 8 1 9 2 6 3 7 4 5 5 4 6 3 7 2 8 1 9 10 11 11 12 15 13 16 14
REMARK SMILES IDX 17 15 12 17 13 18 14 19
REMARK H PARENT
REMARK Flexibility Score: 70.00
ROOT
ATOM      1  C   UNL     1      75.942  75.048  75.925  1.00  0.00     0.136 C 
ATOM      2  O   UNL     1      76.889  75.696  76.343  1.00  0.00    -0.299 OA
ENDROOT
BRANCH   1   3
ATOM      3  C   UNL     1      74.824  74.680  76.886  1.00  0.00     0.053 C 
ATOM      4  C   UNL     1      75.386  74.413  78.286  1.00  0.00     0.016 C 
BRANCH   3   5
ATOM      5  C   UNL     1      73.995  73.479  76.387  1.00  0.00     0.015 C 
BRANCH   5   6
ATOM      6  C   UNL     1      72.984  73.893  75.302  1.00  0.00     0.028 C 
BRANCH   6   7
ATOM      7  C   UNL     1      73.089  73.068  74.045  1.00  0.00    -0.028 C 
ATOM      8  C   UNL     1      73.127  73.547  72.776  1.00  0.00    -0.070 CG0
ATOM      9  C   UNL     1      73.100  72.535  71.656  1.00  0.00     0.039 C 
ATOM     10  G   UNL     1      73.274  75.023  72.414  1.00  0.00     0.000 G0
ENDBRANCH   6   7
ENDBRANCH   5   6
ENDBRANCH   3   5
ENDBRANCH   1   3
BRANCH   1  11
ATOM     11  C   UNL     1      75.950  74.592  74.482  1.00  0.00     0.087 C 
BRANCH  11  12
ATOM     12  C   UNL     1      75.578  75.723  73.483  1.00  0.00     0.066 C 
BRANCH  12  13
ATOM     13  C   UNL     1      74.066  75.879  73.356  1.00  0.00     0.140 C 
ATOM     14  O   UNL     1      73.516  76.804  73.939  1.00  0.00    -0.299 OA
BRANCH  13  15
ATOM     15  C   UNL     1      73.266  75.024  72.402  1.00  0.00     0.106 CG0
ATOM     16  G   UNL     1      73.157  73.552  72.793  1.00  0.00     0.000 G0
ENDBRANCH  13  15
ENDBRANCH  12  13
BRANCH  12  17
ATOM     17  C   UNL     1      76.227  75.517  72.076  1.00  0.00    -0.006 C 
ATOM     18  C   UNL     1      76.549  74.031  71.822  1.00  0.00     0.008 C 
ATOM     19  C   UNL     1      75.330  76.029  70.933  1.00  0.00     0.008 C 
ENDBRANCH  12  17
ENDBRANCH  11  12
ENDBRANCH   1  11
TORSDOF 1
ENDMDL
MODEL 3
REMARK VINA RESULT:     2.424      1.695      4.016
REMARK INTER + INTRA:           4.548
REMARK INTER:                   4.382
REMARK INTRA:                   0.166
REMARK UNBOUND:                 0.848
REMARK SMILES CC1=CCC[C@@H](C)C(=O)C[C@@H](C(C)C)C(=O)C1
REMARK SMILES IDX 8 1 9 2 6 3 7 4 5 5 4 6 3 7 2 8 1 9 10 11 11 12 15 13 16 14
REMARK SMILES IDX 17 15 12 17 13 18 14 19
REMARK H PARENT
REMARK Flexibility Score: 70.00
ROOT
ATOM      1  C   UNL     1      76.119  74.552  72.495  1.00  0.00     0.136 C 
ATOM      2  O   UNL     1      77.094  74.183  71.858  1.00  0.00    -0.299 OA
ENDROOT
BRANCH   1   3
ATOM      3  C   UNL     1      75.886  76.042  72.682  1.00  0.00     0.053 C 
ATOM      4  C   UNL     1      76.863  76.850  71.822  1.00  0.00     0.016 C 
BRANCH   3   5
ATOM      5  C   UNL     1      75.973  76.466  74.162  1.00  0.00     0.015 C 
BRANCH   5   6
ATOM      6  C   UNL     1      76.760  75.445  75.003  1.00  0.00     0.028 C 
BRANCH   6   7
ATOM      7  C   UNL     1      76.234  75.302  76.409  1.00  0.00    -0.028 C 
ATOM      8  C   UNL     1      75.241  74.467  76.809  1.00  0.00    -0.070 CG0
ATOM      9  C   UNL     1      74.781  74.581  78.242  1.00  0.00     0.039 C 
ATOM     10  G   UNL     1      74.623  73.379  75.935  1.00  0.00     0.000 G0
ENDBRANCH   6   7
ENDBRANCH   5   6
ENDBRANCH   3   5
ENDBRANCH   1   3
BRANCH   1  11
ATOM     11  C   UNL     1      75.217  73.508  73.118  1.00  0.00     0.087 C 
BRANCH  11  12
ATOM     12  C   UNL     1      73.824  74.068  73.518  1.00  0.00     0.066 C 
BRANCH  12  13
ATOM     13  C   UNL     1      73.534  73.837  74.998  1.00  0.00     0.140 C 
ATOM     14  O   UNL     1      72.378  73.900  75.391  1.00  0.00    -0.299 OA
BRANCH  13  15
ATOM     15  C   UNL     1      74.616  73.374  75.947  1.00  0.00     0.106 CG0
ATOM     16  G   UNL     1      75.220  74.471  76.820  1.00  0.00     0.000 G0
ENDBRANCH  13  15
ENDBRANCH  12  13
BRANCH  12  17
ATOM     17  C   UNL     1      72.669  73.488  72.638  1.00  0.00    -0.006 C 
ATOM     18  C   UNL     1      72.048  74.579  71.744  1.00  0.00     0.008 C 
ATOM     19  C   UNL     1      73.137  72.324  71.744  1.00  0.00     0.008 C 
ENDBRANCH  12  17
ENDBRANCH  11  12
ENDBRANCH   1  11
TORSDOF 1
ENDMDL
MODEL 4
REMARK VINA RESULT:     3.133      1.793      4.313
REMARK INTER + INTRA:           5.630
REMARK INTER:                   4.104
REMARK INTRA:                   1.526
REMARK UNBOUND:                 0.848
REMARK SMILES CC1=CCC[C@@H](C)C(=O)C[C@@H](C(C)C)C(=O)C1
REMARK SMILES IDX 8 1 9 2 6 3 7 4 5 5 4 6 3 7 2 8 1 9 10 11 11 12 15 13 16 14
REMARK SMILES IDX 17 15 12 17 13 18 14 19
REMARK H PARENT
REMARK Flexibility Score: 70.00
ROOT
ATOM      1  C   UNL     1      76.102  75.851  73.333  1.00  0.00     0.136 C 
ATOM      2  O   UNL     1      77.240  76.113  72.973  1.00  0.00    -0.299 OA
ENDROOT
BRANCH   1   3
ATOM      3  C   UNL     1      74.996  75.812  72.293  1.00  0.00     0.053 C 
ATOM      4  C   UNL     1      75.455  76.485  70.995  1.00  0.00     0.016 C 
BRANCH   3   5
ATOM      5  C   UNL     1      73.686  76.443  72.807  1.00  0.00     0.015 C 
BRANCH   5   6
ATOM      6  C   UNL     1      72.553  75.406  72.908  1.00  0.00     0.028 C 
BRANCH   6   7
ATOM      7  C   UNL     1      72.753  74.218  72.001  1.00  0.00    -0.028 C 
ATOM      8  C   UNL     1      73.466  73.101  72.294  1.00  0.00    -0.070 CG0
ATOM      9  C   UNL     1      73.646  72.089  71.188  1.00  0.00     0.039 C 
ATOM     10  G   UNL     1      74.023  72.769  73.676  1.00  0.00     0.000 G0
ENDBRANCH   6   7
ENDBRANCH   5   6
ENDBRANCH   3   5
ENDBRANCH   1   3
BRANCH   1  11
ATOM     11  C   UNL     1      75.835  75.634  74.806  1.00  0.00     0.087 C 
BRANCH  11  12
ATOM     12  C   UNL     1      75.710  74.132  75.187  1.00  0.00     0.066 C 
BRANCH  12  13
ATOM     13  C   UNL     1      75.418  73.269  73.964  1.00  0.00     0.140 C 
ATOM     14  O   UNL     1      76.353  72.872  73.283  1.00  0.00    -0.299 OA
BRANCH  13  15
ATOM     15  C   UNL     1      74.023  72.762  73.676  1.00  0.00     0.106 CG0
ATOM     16  G   UNL     1      73.481  73.118  72.294  1.00  0.00     0.000 G0
ENDBRANCH  13  15
ENDBRANCH  12  13
BRANCH  12  17
ATOM     17  C   UNL     1      74.642  73.883  76.301  1.00  0.00    -0.006 C 
ATOM     18  C   UNL     1      75.080  74.500  77.643  1.00  0.00     0.008 C 
ATOM     19  C   UNL     1      73.258  74.447  75.927  1.00  0.00     0.008 C 
ENDBRANCH  12  17
ENDBRANCH  11  12
ENDBRANCH   1  11
TORSDOF 1
ENDMDL
MODEL 5
REMARK VINA RESULT:     3.323      1.696      4.490
REMARK INTER + INTRA:           5.919
REMARK INTER:                   4.670
REMARK INTRA:                   1.249
REMARK UNBOUND:                 0.848
REMARK SMILES CC1=CCC[C@@H](C)C(=O)C[C@@H](C(C)C)C(=O)C1
REMARK SMILES IDX 8 1 9 2 6 3 7 4 5 5 4 6 3 7 2 8 1 9 10 11 11 12 15 13 16 14
REMARK SMILES IDX 17 15 12 17 13 18 14 19
REMARK H PARENT
REMARK Flexibility Score: 70.00
ROOT
ATOM      1  C   UNL     1      76.155  75.921  74.250  1.00  0.00     0.136 C 
ATOM      2  O   UNL     1      77.255  76.058  74.763  1.00  0.00    -0.299 OA
ENDROOT
BRANCH   1   3
ATOM      3  C   UNL     1      76.045  75.936  72.735  1.00  0.00     0.053 C 
ATOM      4  C   UNL     1      74.641  76.373  72.302  1.00  0.00     0.016 C 
BRANCH   3   5
ATOM      5  C   UNL     1      76.417  74.577  72.107  1.00  0.00     0.015 C 
BRANCH   5   6
ATOM      6  C   UNL     1      75.727  73.407  72.831  1.00  0.00     0.028 C 
BRANCH   6   7
ATOM      7  C   UNL     1      74.473  72.936  72.138  1.00  0.00    -0.028 C 
ATOM      8  C   UNL     1      73.200  73.225  72.508  1.00  0.00    -0.070 CG0
ATOM      9  C   UNL     1      72.089  72.539  71.749  1.00  0.00     0.039 C 
ATOM     10  G   UNL     1      72.821  74.247  73.577  1.00  0.00     0.000 G0
ENDBRANCH   6   7
ENDBRANCH   5   6
ENDBRANCH   3   5
ENDBRANCH   1   3
BRANCH   1  11
ATOM     11  C   UNL     1      74.941  75.800  75.146  1.00  0.00     0.087 C 
BRANCH  11  12
ATOM     12  C   UNL     1      74.596  74.329  75.509  1.00  0.00     0.066 C 
BRANCH  12  13
ATOM     13  C   UNL     1      73.222  73.932  74.980  1.00  0.00     0.140 C 
ATOM     14  O   UNL     1      72.402  73.463  75.757  1.00  0.00    -0.299 OA
BRANCH  13  15
ATOM     15  C   UNL     1      72.800  74.258  73.566  1.00  0.00     0.106 CG0
ATOM     16  G   UNL     1      73.208  73.225  72.518  1.00  0.00     0.000 G0
ENDBRANCH  13  15
ENDBRANCH  12  13
BRANCH  12  17
ATOM     17  C   UNL     1      74.693  74.051  77.044  1.00  0.00    -0.006 C 
ATOM     18  C   UNL     1      76.135  74.237  77.555  1.00  0.00     0.008 C 
ATOM     19  C   UNL     1      73.758  74.957  77.868  1.00  0.00     0.008 C 
ENDBRANCH  12  17
ENDBRANCH  11  12
ENDBRANCH   1  11
TORSDOF 1
ENDMDL
MODEL 6
REMARK VINA RESULT:     3.371      1.635      4.133
REMARK INTER + INTRA:           5.993
REMARK INTER:                   4.563
REMARK INTRA:                   1.430
REMARK UNBOUND:                 0.848
REMARK SMILES CC1=CCC[C@@H](C)C(=O)C[C@@H](C(C)C)C(=O)C1
REMARK SMILES IDX 8 1 9 2 6 3 7 4 5 5 4 6 3 7 2 8 1 9 10 11 11 12 15 13 16 14
REMARK SMILES IDX 17 15 12 17 13 18 14 19
REMARK H PARENT
REMARK Flexibility Score: 70.00
ROOT
ATOM      1  C   UNL     1      73.167  75.197  73.525  1.00  0.00     0.136 C 
ATOM      2  O   UNL     1      73.167  76.414  73.631  1.00  0.00    -0.299 OA
ENDROOT
BRANCH   1   3
ATOM      3  C   UNL     1      72.918  74.579  72.159  1.00  0.00     0.053 C 
ATOM      4  C   UNL     1      71.496  74.892  71.681  1.00  0.00     0.016 C 
BRANCH   3   5
ATOM      5  C   UNL     1      73.182  73.060  72.147  1.00  0.00     0.015 C 
BRANCH   5   6
ATOM      6  C   UNL     1      74.603  72.732  71.654  1.00  0.00     0.028 C 
BRANCH   6   7
ATOM      7  C   UNL     1      75.473  73.953  71.492  1.00  0.00    -0.028 C 
ATOM      8  C   UNL     1      76.119  74.611  72.488  1.00  0.00    -0.070 CG0
ATOM      9  C   UNL     1      76.830  75.891  72.120  1.00  0.00     0.039 C 
ATOM     10  G   UNL     1      76.237  74.106  73.924  1.00  0.00     0.000 G0
ENDBRANCH   6   7
ENDBRANCH   5   6
ENDBRANCH   3   5
ENDBRANCH   1   3
BRANCH   1  11
ATOM     11  C   UNL     1      73.360  74.356  74.769  1.00  0.00     0.087 C 
BRANCH  11  12
ATOM     12  C   UNL     1      74.458  74.914  75.716  1.00  0.00     0.066 C 
BRANCH  12  13
ATOM     13  C   UNL     1      75.790  75.078  74.991  1.00  0.00     0.140 C 
ATOM     14  O   UNL     1      76.574  75.933  75.378  1.00  0.00    -0.299 OA
BRANCH  13  15
ATOM     15  C   UNL     1      76.227  74.103  73.921  1.00  0.00     0.106 CG0
ATOM     16  G   UNL     1      76.113  74.624  72.491  1.00  0.00     0.000 G0
ENDBRANCH  13  15
ENDBRANCH  12  13
BRANCH  12  17
ATOM     17  C   UNL     1      74.639  74.043  77.002  1.00  0.00    -0.006 C 
ATOM     18  C   UNL     1      76.128  73.903  77.376  1.00  0.00     0.008 C 
ATOM     19  C   UNL     1      73.878  74.616  78.214  1.00  0.00     0.008 C 
ENDBRANCH  12  17
ENDBRANCH  11  12
ENDBRANCH   1  11
TORSDOF 1
ENDMDL
MODEL 7
REMARK VINA RESULT:     3.590      2.015      4.458
REMARK INTER + INTRA:           6.326
REMARK INTER:                   4.412
REMARK INTRA:                   1.914
REMARK UNBOUND:                 0.848
REMARK SMILES CC1=CCC[C@@H](C)C(=O)C[C@@H](C(C)C)C(=O)C1
REMARK SMILES IDX 8 1 9 2 6 3 7 4 5 5 4 6 3 7 2 8 1 9 10 11 11 12 15 13 16 14
REMARK SMILES IDX 17 15 12 17 13 18 14 19
REMARK H PARENT
REMARK Flexibility Score: 70.00
ROOT
ATOM      1  C   UNL     1      74.289  73.303  72.335  1.00  0.00     0.136 C 
ATOM      2  O   UNL     1      74.486  73.190  71.135  1.00  0.00    -0.299 OA
ENDROOT
BRANCH   1   3
ATOM      3  C   UNL     1      72.875  73.563  72.825  1.00  0.00     0.053 C 
ATOM      4  C   UNL     1      72.060  74.293  71.751  1.00  0.00     0.016 C 
BRANCH   3   5
ATOM      5  C   UNL     1      72.850  74.340  74.158  1.00  0.00     0.015 C 
BRANCH   5   6
ATOM      6  C   UNL     1      73.124  73.419  75.360  1.00  0.00     0.028 C 
BRANCH   6   7
ATOM      7  C   UNL     1      73.630  74.159  76.572  1.00  0.00    -0.028 C 
ATOM      8  C   UNL     1      74.931  74.351  76.906  1.00  0.00    -0.070 CG0
ATOM      9  C   UNL     1      75.213  75.008  78.236  1.00  0.00     0.039 C 
ATOM     10  G   UNL     1      76.114  74.020  75.998  1.00  0.00     0.000 G0
ENDBRANCH   6   7
ENDBRANCH   5   6
ENDBRANCH   3   5
ENDBRANCH   1   3
BRANCH   1  11
ATOM     11  C   UNL     1      75.471  73.236  73.278  1.00  0.00     0.087 C 
BRANCH  11  12
ATOM     12  C   UNL     1      76.220  74.590  73.412  1.00  0.00     0.066 C 
BRANCH  12  13
ATOM     13  C   UNL     1      76.355  75.010  74.873  1.00  0.00     0.140 C 
ATOM     14  O   UNL     1      76.524  76.193  75.135  1.00  0.00    -0.299 OA
BRANCH  13  15
ATOM     15  C   UNL     1      76.120  74.028  75.997  1.00  0.00     0.106 CG0
ATOM     16  G   UNL     1      74.941  74.363  76.908  1.00  0.00     0.000 G0
ENDBRANCH  13  15
ENDBRANCH  12  13
BRANCH  12  17
ATOM     17  C   UNL     1      75.554  75.730  72.575  1.00  0.00    -0.006 C 
ATOM     18  C   UNL     1      74.619  76.590  73.447  1.00  0.00     0.008 C 
ATOM     19  C   UNL     1      76.590  76.653  71.905  1.00  0.00     0.008 C 
ENDBRANCH  12  17
ENDBRANCH  11  12
ENDBRANCH   1  11
TORSDOF 1
ENDMDL
MODEL 8
REMARK VINA RESULT:     3.762      1.364      4.465
REMARK INTER + INTRA:           6.589
REMARK INTER:                   5.468
REMARK INTRA:                   1.121
REMARK UNBOUND:                 0.848
REMARK SMILES CC1=CCC[C@@H](C)C(=O)C[C@@H](C(C)C)C(=O)C1
REMARK SMILES IDX 8 1 9 2 6 3 7 4 5 5 4 6 3 7 2 8 1 9 10 11 11 12 15 13 16 14
REMARK SMILES IDX 17 15 12 17 13 18 14 19
REMARK H PARENT
REMARK Flexibility Score: 70.00
ROOT
ATOM      1  C   UNL     1      76.131  73.925  73.362  1.00  0.00     0.136 C 
ATOM      2  O   UNL     1      76.024  72.708  73.391  1.00  0.00    -0.299 OA
ENDROOT
BRANCH   1   3
ATOM      3  C   UNL     1      76.472  74.600  72.045  1.00  0.00     0.053 C 
ATOM      4  C   UNL     1      77.954  74.404  71.709  1.00  0.00     0.016 C 
BRANCH   3   5
ATOM      5  C   UNL     1      76.100  76.097  72.041  1.00  0.00     0.015 C 
BRANCH   5   6
ATOM      6  C   UNL     1      74.717  76.340  71.411  1.00  0.00     0.028 C 
BRANCH   6   7
ATOM      7  C   UNL     1      73.842  75.112  71.405  1.00  0.00    -0.028 C 
ATOM      8  C   UNL     1      73.256  74.543  72.489  1.00  0.00    -0.070 CG0
ATOM      9  C   UNL     1      72.528  73.238  72.275  1.00  0.00     0.039 C 
ATOM     10  G   UNL     1      73.219  75.172  73.881  1.00  0.00     0.000 G0
ENDBRANCH   6   7
ENDBRANCH   5   6
ENDBRANCH   3   5
ENDBRANCH   1   3
BRANCH   1  11
ATOM     11  C   UNL     1      75.974  74.701  74.652  1.00  0.00     0.087 C 
BRANCH  11  12
ATOM     12  C   UNL     1      74.905  74.094  75.602  1.00  0.00     0.066 C 
BRANCH  12  13
ATOM     13  C   UNL     1      73.498  74.258  75.036  1.00  0.00     0.140 C 
ATOM     14  O   UNL     1      72.560  73.729  75.617  1.00  0.00    -0.299 OA
BRANCH  13  15
ATOM     15  C   UNL     1      73.221  75.190  73.879  1.00  0.00     0.106 CG0
ATOM     16  G   UNL     1      73.251  74.532  72.501  1.00  0.00     0.000 G0
ENDBRANCH  13  15
ENDBRANCH  12  13
BRANCH  12  17
ATOM     17  C   UNL     1      74.985  74.681  77.048  1.00  0.00    -0.006 C 
ATOM     18  C   UNL     1      74.953  73.563  78.108  1.00  0.00     0.008 C 
ATOM     19  C   UNL     1      76.249  75.534  77.269  1.00  0.00     0.008 C 
ENDBRANCH  12  17
ENDBRANCH  11  12
ENDBRANCH   1  11
TORSDOF 1
ENDMDL
MODEL 9
REMARK VINA RESULT:     3.940      1.342      2.026
REMARK INTER + INTRA:           6.861
REMARK INTER:                   5.723
REMARK INTRA:                   1.138
REMARK UNBOUND:                 0.848
REMARK SMILES CC1=CCC[C@@H](C)C(=O)C[C@@H](C(C)C)C(=O)C1
REMARK SMILES IDX 8 1 9 2 6 3 7 4 5 5 4 6 3 7 2 8 1 9 10 11 11 12 15 13 16 14
REMARK SMILES IDX 17 15 12 17 13 18 14 19
REMARK H PARENT
REMARK Flexibility Score: 70.00
ROOT
ATOM      1  C   UNL     1      73.431  74.216  75.617  1.00  0.00     0.136 C 
ATOM      2  O   UNL     1      72.521  73.642  76.195  1.00  0.00    -0.299 OA
ENDROOT
BRANCH   1   3
ATOM      3  C   UNL     1      74.786  74.316  76.297  1.00  0.00     0.053 C 
ATOM      4  C   UNL     1      74.657  74.017  77.795  1.00  0.00     0.016 C 
BRANCH   3   5
ATOM      5  C   UNL     1      75.459  75.683  76.064  1.00  0.00     0.015 C 
BRANCH   5   6
ATOM      6  C   UNL     1      76.673  75.569  75.125  1.00  0.00     0.028 C 
BRANCH   6   7
ATOM      7  C   UNL     1      76.879  74.176  74.587  1.00  0.00    -0.028 C 
ATOM      8  C   UNL     1      76.531  73.738  73.350  1.00  0.00    -0.070 CG0
ATOM      9  C   UNL     1      76.709  72.266  73.065  1.00  0.00     0.039 C 
ATOM     10  G   UNL     1      76.050  74.641  72.217  1.00  0.00     0.000 G0
ENDBRANCH   6   7
ENDBRANCH   5   6
ENDBRANCH   3   5
ENDBRANCH   1   3
BRANCH   1  11
ATOM     11  C   UNL     1      73.153  74.852  74.272  1.00  0.00     0.087 C 
BRANCH  11  12
ATOM     12  C   UNL     1      73.640  73.987  73.077  1.00  0.00     0.066 C 
BRANCH  12  13
ATOM     13  C   UNL     1      74.559  74.780  72.153  1.00  0.00     0.140 C 
ATOM     14  O   UNL     1      74.076  75.648  71.440  1.00  0.00    -0.299 OA
BRANCH  13  15
ATOM     15  C   UNL     1      76.062  74.629  72.222  1.00  0.00     0.106 CG0
ATOM     16  G   UNL     1      76.567  73.733  73.350  1.00  0.00     0.000 G0
ENDBRANCH  13  15
ENDBRANCH  12  13
BRANCH  12  17
ATOM     17  C   UNL     1      72.457  73.363  72.267  1.00  0.00    -0.006 C 
ATOM     18  C   UNL     1      71.770  74.419  71.379  1.00  0.00     0.008 C 
ATOM     19  C   UNL     1      72.906  72.188  71.379  1.00  0.00     0.008 C 
ENDBRANCH  12  17
ENDBRANCH  11  12
ENDBRANCH   1  11
TORSDOF 1
ENDMDL
