MODEL 1
REMARK VINA RESULT:    -4.268      0.000      0.000
REMARK INTER + INTRA:          -6.060
REMARK INTER:                  -5.765
REMARK INTRA:                  -0.294
REMARK UNBOUND:                -0.294
REMARK SMILES CCCCCCCC(=O)[O-]
REMARK SMILES IDX 5 1 6 2 7 3 8 4 9 5 10 6 4 7 3 8 2 9 1 10
REMARK H PARENT
REMARK Flexibility Score: inf
ROOT
ATOM      1  C   UNL     1       1.080 -20.906  -5.144  1.00  0.00     0.000 C 
ENDROOT
BRANCH   1   2
ATOM      2  C   UNL     1       0.415 -20.050  -4.053  1.00  0.00     0.006 C 
BRANCH   2   3
ATOM      3  C   UNL     1       1.434 -19.257  -3.222  1.00  0.00     0.053 C 
BRANCH   3   4
ATOM      4  C   UNL     1       2.243 -20.184  -2.370  1.00  0.00     0.041 C 
ATOM      5  O   UNL     1       3.493 -20.238  -2.503  1.00  0.00    -0.550 OA
ATOM      6  O   UNL     1       1.611 -21.023  -1.461  1.00  0.00    -0.550 OA
ENDBRANCH   3   4
ENDBRANCH   2   3
ENDBRANCH   1   2
BRANCH   1   7
ATOM      7  C   UNL     1       0.137 -21.977  -5.712  1.00  0.00     0.000 C 
BRANCH   7   8
ATOM      8  C   UNL     1       0.628 -22.468  -7.083  1.00  0.00    -0.000 C 
BRANCH   8   9
ATOM      9  C   UNL     1       1.786 -21.622  -7.632  1.00  0.00    -0.003 C 
ATOM     10  C   UNL     1       1.415 -20.867  -8.909  1.00  0.00     0.004 C 
ENDBRANCH   8   9
ENDBRANCH   7   8
ENDBRANCH   1   7
TORSDOF 6
ENDMDL
MODEL 2
REMARK VINA RESULT:    -4.055      2.346      4.089
REMARK INTER + INTRA:          -5.772
REMARK INTER:                  -5.300
REMARK INTRA:                  -0.472
REMARK UNBOUND:                -0.294
REMARK SMILES CCCCCCCC(=O)[O-]
REMARK SMILES IDX 5 1 6 2 7 3 8 4 9 5 10 6 4 7 3 8 2 9 1 10
REMARK H PARENT
REMARK Flexibility Score: inf
ROOT
ATOM      1  C   UNL     1       1.267 -20.680  -7.712  1.00  0.00     0.000 C 
ENDROOT
BRANCH   1   2
ATOM      2  C   UNL     1       2.707 -20.864  -8.219  1.00  0.00     0.006 C 
BRANCH   2   3
ATOM      3  C   UNL     1       3.742 -20.168  -7.323  1.00  0.00     0.053 C 
BRANCH   3   4
ATOM      4  C   UNL     1       4.507 -21.180  -6.531  1.00  0.00     0.041 C 
ATOM      5  O   UNL     1       5.443 -21.829  -7.067  1.00  0.00    -0.550 OA
ATOM      6  O   UNL     1       4.157 -21.441  -5.212  1.00  0.00    -0.550 OA
ENDBRANCH   3   4
ENDBRANCH   2   3
ENDBRANCH   1   2
BRANCH   1   7
ATOM      7  C   UNL     1       0.667 -21.977  -7.150  1.00  0.00     0.000 C 
BRANCH   7   8
ATOM      8  C   UNL     1       0.437 -21.863  -5.635  1.00  0.00    -0.000 C 
BRANCH   8   9
ATOM      9  C   UNL     1       0.799 -20.475  -5.086  1.00  0.00    -0.003 C 
ATOM     10  C   UNL     1       0.422 -20.303  -3.614  1.00  0.00     0.004 C 
ENDBRANCH   8   9
ENDBRANCH   7   8
ENDBRANCH   1   7
TORSDOF 6
ENDMDL
MODEL 3
REMARK VINA RESULT:    -4.048      2.100      2.484
REMARK INTER + INTRA:          -5.763
REMARK INTER:                  -5.287
REMARK INTRA:                  -0.476
REMARK UNBOUND:                -0.294
REMARK SMILES CCCCCCCC(=O)[O-]
REMARK SMILES IDX 5 1 6 2 7 3 8 4 9 5 10 6 4 7 3 8 2 9 1 10
REMARK H PARENT
REMARK Flexibility Score: inf
ROOT
ATOM      1  C   UNL     1       0.141 -21.412  -5.232  1.00  0.00     0.000 C 
ENDROOT
BRANCH   1   2
ATOM      2  C   UNL     1       0.556 -20.517  -4.052  1.00  0.00     0.006 C 
BRANCH   2   3
ATOM      3  C   UNL     1       1.870 -19.769  -4.312  1.00  0.00     0.053 C 
BRANCH   3   4
ATOM      4  C   UNL     1       1.602 -18.319  -4.563  1.00  0.00     0.041 C 
ATOM      5  O   UNL     1       1.222 -17.573  -3.624  1.00  0.00    -0.550 OA
ATOM      6  O   UNL     1       1.726 -17.800  -5.846  1.00  0.00    -0.550 OA
ENDBRANCH   3   4
ENDBRANCH   2   3
ENDBRANCH   1   2
BRANCH   1   7
ATOM      7  C   UNL     1       1.328 -21.801  -6.126  1.00  0.00     0.000 C 
BRANCH   7   8
ATOM      8  C   UNL     1       0.886 -21.945  -7.591  1.00  0.00    -0.000 C 
BRANCH   8   9
ATOM      9  C   UNL     1       1.561 -20.919  -8.514  1.00  0.00    -0.003 C 
ATOM     10  C   UNL     1       2.900 -20.423  -7.970  1.00  0.00     0.004 C 
ENDBRANCH   8   9
ENDBRANCH   7   8
ENDBRANCH   1   7
TORSDOF 6
ENDMDL
MODEL 4
REMARK VINA RESULT:    -4.037      2.193      3.574
REMARK INTER + INTRA:          -5.747
REMARK INTER:                  -5.305
REMARK INTRA:                  -0.442
REMARK UNBOUND:                -0.294
REMARK SMILES CCCCCCCC(=O)[O-]
REMARK SMILES IDX 5 1 6 2 7 3 8 4 9 5 10 6 4 7 3 8 2 9 1 10
REMARK H PARENT
REMARK Flexibility Score: inf
ROOT
ATOM      1  C   UNL     1       2.591 -20.623  -8.320  1.00  0.00     0.000 C 
ENDROOT
BRANCH   1   2
ATOM      2  C   UNL     1       3.332 -20.220  -7.034  1.00  0.00     0.006 C 
BRANCH   2   3
ATOM      3  C   UNL     1       4.385 -21.253  -6.610  1.00  0.00     0.053 C 
BRANCH   3   4
ATOM      4  C   UNL     1       4.620 -21.181  -5.134  1.00  0.00     0.041 C 
ATOM      5  O   UNL     1       3.742 -20.693  -4.376  1.00  0.00    -0.550 OA
ATOM      6  O   UNL     1       5.829 -21.611  -4.600  1.00  0.00    -0.550 OA
ENDBRANCH   3   4
ENDBRANCH   2   3
ENDBRANCH   1   2
BRANCH   1   7
ATOM      7  C   UNL     1       1.116 -20.969  -8.069  1.00  0.00     0.000 C 
BRANCH   7   8
ATOM      8  C   UNL     1       0.967 -22.423  -7.594  1.00  0.00    -0.000 C 
BRANCH   8   9
ATOM      9  C   UNL     1       0.094 -22.545  -6.335  1.00  0.00    -0.003 C 
ATOM     10  C   UNL     1       0.362 -21.435  -5.319  1.00  0.00     0.004 C 
ENDBRANCH   8   9
ENDBRANCH   7   8
ENDBRANCH   1   7
TORSDOF 6
ENDMDL
MODEL 5
REMARK VINA RESULT:    -4.008      1.321      2.227
REMARK INTER + INTRA:          -5.708
REMARK INTER:                  -5.243
REMARK INTRA:                  -0.465
REMARK UNBOUND:                -0.294
REMARK SMILES CCCCCCCC(=O)[O-]
REMARK SMILES IDX 5 1 6 2 7 3 8 4 9 5 10 6 4 7 3 8 2 9 1 10
REMARK H PARENT
REMARK Flexibility Score: inf
ROOT
ATOM      1  C   UNL     1       2.860 -20.166  -5.733  1.00  0.00     0.000 C 
ENDROOT
BRANCH   1   2
ATOM      2  C   UNL     1       1.570 -19.429  -5.337  1.00  0.00     0.006 C 
BRANCH   2   3
ATOM      3  C   UNL     1       0.814 -20.130  -4.200  1.00  0.00     0.053 C 
BRANCH   3   4
ATOM      4  C   UNL     1       1.452 -19.819  -2.883  1.00  0.00     0.041 C 
ATOM      5  O   UNL     1       1.456 -20.677  -1.963  1.00  0.00    -0.550 OA
ATOM      6  O   UNL     1       1.999 -18.562  -2.655  1.00  0.00    -0.550 OA
ENDBRANCH   3   4
ENDBRANCH   2   3
ENDBRANCH   1   2
BRANCH   1   7
ATOM      7  C   UNL     1       2.935 -20.461  -7.239  1.00  0.00     0.000 C 
BRANCH   7   8
ATOM      8  C   UNL     1       1.530 -20.658  -7.829  1.00  0.00    -0.000 C 
BRANCH   8   9
ATOM      9  C   UNL     1       1.152 -22.140  -7.971  1.00  0.00    -0.003 C 
ATOM     10  C   UNL     1       0.337 -22.659  -6.787  1.00  0.00     0.004 C 
ENDBRANCH   8   9
ENDBRANCH   7   8
ENDBRANCH   1   7
TORSDOF 6
ENDMDL
MODEL 6
REMARK VINA RESULT:    -4.003      3.640      4.824
REMARK INTER + INTRA:          -5.702
REMARK INTER:                  -5.408
REMARK INTRA:                  -0.294
REMARK UNBOUND:                -0.294
REMARK SMILES CCCCCCCC(=O)[O-]
REMARK SMILES IDX 5 1 6 2 7 3 8 4 9 5 10 6 4 7 3 8 2 9 1 10
REMARK H PARENT
REMARK Flexibility Score: inf
ROOT
ATOM      1  C   UNL     1       3.419 -21.005  -7.209  1.00  0.00     0.000 C 
ENDROOT
BRANCH   1   2
ATOM      2  C   UNL     1       1.931 -20.695  -7.439  1.00  0.00     0.006 C 
BRANCH   2   3
ATOM      3  C   UNL     1       1.115 -21.945  -7.796  1.00  0.00     0.053 C 
BRANCH   3   4
ATOM      4  C   UNL     1       0.475 -22.516  -6.570  1.00  0.00     0.041 C 
ATOM      5  O   UNL     1       0.142 -23.729  -6.535  1.00  0.00    -0.550 OA
ATOM      6  O   UNL     1       0.203 -21.696  -5.482  1.00  0.00    -0.550 OA
ENDBRANCH   3   4
ENDBRANCH   2   3
ENDBRANCH   1   2
BRANCH   1   7
ATOM      7  C   UNL     1       3.761 -21.202  -5.725  1.00  0.00     0.000 C 
BRANCH   7   8
ATOM      8  C   UNL     1       5.236 -21.596  -5.550  1.00  0.00    -0.000 C 
BRANCH   8   9
ATOM      9  C   UNL     1       5.926 -21.909  -6.886  1.00  0.00    -0.003 C 
ATOM     10  C   UNL     1       7.398 -21.499  -6.903  1.00  0.00     0.004 C 
ENDBRANCH   8   9
ENDBRANCH   7   8
ENDBRANCH   1   7
TORSDOF 6
ENDMDL
MODEL 7
REMARK VINA RESULT:    -3.993      1.689      2.633
REMARK INTER + INTRA:          -5.688
REMARK INTER:                  -5.221
REMARK INTRA:                  -0.467
REMARK UNBOUND:                -0.294
REMARK SMILES CCCCCCCC(=O)[O-]
REMARK SMILES IDX 5 1 6 2 7 3 8 4 9 5 10 6 4 7 3 8 2 9 1 10
REMARK H PARENT
REMARK Flexibility Score: inf
ROOT
ATOM      1  C   UNL     1       3.486 -21.127  -7.035  1.00  0.00     0.000 C 
ENDROOT
BRANCH   1   2
ATOM      2  C   UNL     1       3.550 -20.791  -5.535  1.00  0.00     0.006 C 
BRANCH   2   3
ATOM      3  C   UNL     1       2.618 -19.634  -5.149  1.00  0.00     0.053 C 
BRANCH   3   4
ATOM      4  C   UNL     1       1.836 -19.983  -3.923  1.00  0.00     0.041 C 
ATOM      5  O   UNL     1       2.430 -20.243  -2.845  1.00  0.00    -0.550 OA
ATOM      6  O   UNL     1       0.450 -20.068  -3.982  1.00  0.00    -0.550 OA
ENDBRANCH   3   4
ENDBRANCH   2   3
ENDBRANCH   1   2
BRANCH   1   7
ATOM      7  C   UNL     1       2.191 -20.633  -7.697  1.00  0.00     0.000 C 
BRANCH   7   8
ATOM      8  C   UNL     1       1.236 -21.805  -7.973  1.00  0.00    -0.000 C 
BRANCH   8   9
ATOM      9  C   UNL     1       0.313 -22.106  -6.783  1.00  0.00    -0.003 C 
ATOM     10  C   UNL     1       0.255 -23.594  -6.439  1.00  0.00     0.004 C 
ENDBRANCH   8   9
ENDBRANCH   7   8
ENDBRANCH   1   7
TORSDOF 6
ENDMDL
MODEL 8
REMARK VINA RESULT:    -3.986     10.258     11.300
REMARK INTER + INTRA:          -5.678
REMARK INTER:                  -5.347
REMARK INTRA:                  -0.331
REMARK UNBOUND:                -0.294
REMARK SMILES CCCCCCCC(=O)[O-]
REMARK SMILES IDX 5 1 6 2 7 3 8 4 9 5 10 6 4 7 3 8 2 9 1 10
REMARK H PARENT
REMARK Flexibility Score: inf
ROOT
ATOM      1  C   UNL     1      -6.162 -27.136  -1.513  1.00  0.00     0.000 C 
ENDROOT
BRANCH   1   2
ATOM      2  C   UNL     1      -5.470 -27.063  -2.885  1.00  0.00     0.006 C 
BRANCH   2   3
ATOM      3  C   UNL     1      -5.142 -28.451  -3.454  1.00  0.00     0.053 C 
BRANCH   3   4
ATOM      4  C   UNL     1      -6.388 -29.122  -3.938  1.00  0.00     0.041 C 
ATOM      5  O   UNL     1      -6.547 -30.359  -3.770  1.00  0.00    -0.550 OA
ATOM      6  O   UNL     1      -7.354 -28.390  -4.616  1.00  0.00    -0.550 OA
ENDBRANCH   3   4
ENDBRANCH   2   3
ENDBRANCH   1   2
BRANCH   1   7
ATOM      7  C   UNL     1      -7.378 -26.203  -1.413  1.00  0.00     0.000 C 
BRANCH   7   8
ATOM      8  C   UNL     1      -7.270 -25.052  -2.425  1.00  0.00    -0.000 C 
BRANCH   8   9
ATOM      9  C   UNL     1      -8.168 -23.860  -2.061  1.00  0.00    -0.003 C 
ATOM     10  C   UNL     1      -7.377 -22.653  -1.560  1.00  0.00     0.004 C 
ENDBRANCH   8   9
ENDBRANCH   7   8
ENDBRANCH   1   7
TORSDOF 6
ENDMDL
MODEL 9
REMARK VINA RESULT:    -3.916     10.360     11.770
REMARK INTER + INTRA:          -5.584
REMARK INTER:                  -5.035
REMARK INTRA:                  -0.549
REMARK UNBOUND:                -0.294
REMARK SMILES CCCCCCCC(=O)[O-]
REMARK SMILES IDX 5 1 6 2 7 3 8 4 9 5 10 6 4 7 3 8 2 9 1 10
REMARK H PARENT
REMARK Flexibility Score: inf
ROOT
ATOM      1  C   UNL     1      -6.936 -28.218  -4.301  1.00  0.00     0.000 C 
ENDROOT
BRANCH   1   2
ATOM      2  C   UNL     1      -5.537 -27.897  -3.750  1.00  0.00     0.006 C 
BRANCH   2   3
ATOM      3  C   UNL     1      -5.538 -26.688  -2.804  1.00  0.00     0.053 C 
BRANCH   3   4
ATOM      4  C   UNL     1      -6.106 -27.069  -1.473  1.00  0.00     0.041 C 
ATOM      5  O   UNL     1      -5.467 -27.837  -0.709  1.00  0.00    -0.550 OA
ATOM      6  O   UNL     1      -7.364 -26.614  -1.097  1.00  0.00    -0.550 OA
ENDBRANCH   3   4
ENDBRANCH   2   3
ENDBRANCH   1   2
BRANCH   1   7
ATOM      7  C   UNL     1      -7.241 -29.723  -4.300  1.00  0.00     0.000 C 
BRANCH   7   8
ATOM      8  C   UNL     1      -6.647 -30.402  -3.056  1.00  0.00    -0.000 C 
BRANCH   8   9
ATOM      9  C   UNL     1      -7.636 -30.450  -1.882  1.00  0.00    -0.003 C 
ATOM     10  C   UNL     1      -9.095 -30.495  -2.337  1.00  0.00     0.004 C 
ENDBRANCH   8   9
ENDBRANCH   7   8
ENDBRANCH   1   7
TORSDOF 6
ENDMDL
