MODEL 1
REMARK VINA RESULT:    -2.944      0.000      0.000
REMARK INTER + INTRA:          -3.484
REMARK INTER:                  -3.460
REMARK INTRA:                  -0.023
REMARK UNBOUND:                -0.023
REMARK SMILES CCCCC(=O)[O-]
REMARK SMILES IDX 4 1 5 2 6 3 7 4 3 5 2 6 1 7
REMARK H PARENT
REMARK Flexibility Score: inf
ROOT
ATOM      1  C   UNL     1      24.309  -7.172   7.036  1.00  0.00     0.053 C 
ENDROOT
BRANCH   1   2
ATOM      2  C   UNL     1      23.873  -5.786   7.392  1.00  0.00     0.041 C 
ATOM      3  O   UNL     1      22.978  -5.608   8.261  1.00  0.00    -0.550 OA
ATOM      4  O   UNL     1      24.488  -4.689   6.802  1.00  0.00    -0.550 OA
ENDBRANCH   1   2
BRANCH   1   5
ATOM      5  C   UNL     1      23.694  -8.192   7.997  1.00  0.00     0.006 C 
BRANCH   5   6
ATOM      6  C   UNL     1      24.495  -9.499   7.998  1.00  0.00    -0.003 C 
ATOM      7  C   UNL     1      23.711 -10.626   8.664  1.00  0.00     0.004 C 
ENDBRANCH   5   6
ENDBRANCH   1   5
TORSDOF 3
ENDMDL
MODEL 2
REMARK VINA RESULT:    -2.927      3.295      4.510
REMARK INTER + INTRA:          -3.463
REMARK INTER:                  -3.439
REMARK INTRA:                  -0.024
REMARK UNBOUND:                -0.023
REMARK SMILES CCCCC(=O)[O-]
REMARK SMILES IDX 4 1 5 2 6 3 7 4 3 5 2 6 1 7
REMARK H PARENT
REMARK Flexibility Score: inf
ROOT
ATOM      1  C   UNL     1      24.816  -9.369   7.680  1.00  0.00     0.053 C 
ENDROOT
BRANCH   1   2
ATOM      2  C   UNL     1      24.423 -10.771   8.029  1.00  0.00     0.041 C 
ATOM      3  O   UNL     1      23.355 -10.990   8.659  1.00  0.00    -0.550 OA
ATOM      4  O   UNL     1      25.210 -11.837   7.614  1.00  0.00    -0.550 OA
ENDBRANCH   1   2
BRANCH   1   5
ATOM      5  C   UNL     1      23.695  -8.392   8.042  1.00  0.00     0.006 C 
BRANCH   5   6
ATOM      6  C   UNL     1      23.789  -7.113   7.203  1.00  0.00    -0.003 C 
ATOM      7  C   UNL     1      23.194  -5.921   7.947  1.00  0.00     0.004 C 
ENDBRANCH   5   6
ENDBRANCH   1   5
TORSDOF 3
ENDMDL
MODEL 3
REMARK VINA RESULT:    -2.882      8.313      8.789
REMARK INTER + INTRA:          -3.411
REMARK INTER:                  -3.365
REMARK INTRA:                  -0.046
REMARK UNBOUND:                -0.023
REMARK SMILES CCCCC(=O)[O-]
REMARK SMILES IDX 4 1 5 2 6 3 7 4 3 5 2 6 1 7
REMARK H PARENT
REMARK Flexibility Score: inf
ROOT
ATOM      1  C   UNL     1      23.186 -13.432   0.875  1.00  0.00     0.053 C 
ENDROOT
BRANCH   1   2
ATOM      2  C   UNL     1      23.685 -12.242   1.632  1.00  0.00     0.041 C 
ATOM      3  O   UNL     1      24.111 -12.374   2.810  1.00  0.00    -0.550 OA
ATOM      4  O   UNL     1      23.726 -10.996   1.020  1.00  0.00    -0.550 OA
ENDBRANCH   1   2
BRANCH   1   5
ATOM      5  C   UNL     1      21.773 -13.803   1.330  1.00  0.00     0.006 C 
BRANCH   5   6
ATOM      6  C   UNL     1      21.799 -15.007   2.279  1.00  0.00    -0.003 C 
ATOM      7  C   UNL     1      21.054 -16.197   1.680  1.00  0.00     0.004 C 
ENDBRANCH   5   6
ENDBRANCH   1   5
TORSDOF 3
ENDMDL
MODEL 4
REMARK VINA RESULT:    -2.844      6.851      8.019
REMARK INTER + INTRA:          -3.366
REMARK INTER:                  -3.323
REMARK INTRA:                  -0.043
REMARK UNBOUND:                -0.023
REMARK SMILES CCCCC(=O)[O-]
REMARK SMILES IDX 4 1 5 2 6 3 7 4 3 5 2 6 1 7
REMARK H PARENT
REMARK Flexibility Score: inf
ROOT
ATOM      1  C   UNL     1      21.600 -14.128   6.784  1.00  0.00     0.053 C 
ENDROOT
BRANCH   1   2
ATOM      2  C   UNL     1      21.582 -13.858   8.256  1.00  0.00     0.041 C 
ATOM      3  O   UNL     1      21.619 -14.815   9.075  1.00  0.00    -0.550 OA
ATOM      4  O   UNL     1      21.576 -12.551   8.723  1.00  0.00    -0.550 OA
ENDBRANCH   1   2
BRANCH   1   5
ATOM      5  C   UNL     1      21.111 -15.550   6.494  1.00  0.00     0.006 C 
BRANCH   5   6
ATOM      6  C   UNL     1      21.439 -15.960   5.053  1.00  0.00    -0.003 C 
ATOM      7  C   UNL     1      22.146 -14.832   4.306  1.00  0.00     0.004 C 
ENDBRANCH   5   6
ENDBRANCH   1   5
TORSDOF 3
ENDMDL
MODEL 5
REMARK VINA RESULT:    -2.799     12.602     13.929
REMARK INTER + INTRA:          -3.314
REMARK INTER:                  -3.297
REMARK INTRA:                  -0.016
REMARK UNBOUND:                -0.023
REMARK SMILES CCCCC(=O)[O-]
REMARK SMILES IDX 4 1 5 2 6 3 7 4 3 5 2 6 1 7
REMARK H PARENT
REMARK Flexibility Score: inf
ROOT
ATOM      1  C   UNL     1      15.135   1.891  12.481  1.00  0.00     0.053 C 
ENDROOT
BRANCH   1   2
ATOM      2  C   UNL     1      16.166   0.906  12.026  1.00  0.00     0.041 C 
ATOM      3  O   UNL     1      16.669   1.003  10.875  1.00  0.00    -0.550 OA
ATOM      4  O   UNL     1      16.607  -0.088  12.889  1.00  0.00    -0.550 OA
ENDBRANCH   1   2
BRANCH   1   5
ATOM      5  C   UNL     1      13.987   1.175  13.197  1.00  0.00     0.006 C 
BRANCH   5   6
ATOM      6  C   UNL     1      12.802   2.121  13.419  1.00  0.00    -0.003 C 
ATOM      7  C   UNL     1      11.479   1.362  13.401  1.00  0.00     0.004 C 
ENDBRANCH   5   6
ENDBRANCH   1   5
TORSDOF 3
ENDMDL
MODEL 6
REMARK VINA RESULT:    -2.764      8.257      9.381
REMARK INTER + INTRA:          -3.272
REMARK INTER:                  -3.224
REMARK INTRA:                  -0.048
REMARK UNBOUND:                -0.023
REMARK SMILES CCCCC(=O)[O-]
REMARK SMILES IDX 4 1 5 2 6 3 7 4 3 5 2 6 1 7
REMARK H PARENT
REMARK Flexibility Score: inf
ROOT
ATOM      1  C   UNL     1      22.130 -14.728   3.966  1.00  0.00     0.053 C 
ENDROOT
BRANCH   1   2
ATOM      2  C   UNL     1      21.838 -14.994   5.409  1.00  0.00     0.041 C 
ATOM      3  O   UNL     1      21.013 -15.889   5.732  1.00  0.00    -0.550 OA
ATOM      4  O   UNL     1      22.513 -14.290   6.397  1.00  0.00    -0.550 OA
ENDBRANCH   1   2
BRANCH   1   5
ATOM      5  C   UNL     1      21.680 -15.907   3.100  1.00  0.00     0.006 C 
BRANCH   5   6
ATOM      6  C   UNL     1      21.432 -15.464   1.654  1.00  0.00    -0.003 C 
ATOM      7  C   UNL     1      21.792 -13.994   1.458  1.00  0.00     0.004 C 
ENDBRANCH   5   6
ENDBRANCH   1   5
TORSDOF 3
ENDMDL
MODEL 7
REMARK VINA RESULT:    -2.721      5.607      6.829
REMARK INTER + INTRA:          -3.222
REMARK INTER:                  -3.176
REMARK INTRA:                  -0.045
REMARK UNBOUND:                -0.023
REMARK SMILES CCCCC(=O)[O-]
REMARK SMILES IDX 4 1 5 2 6 3 7 4 3 5 2 6 1 7
REMARK H PARENT
REMARK Flexibility Score: inf
ROOT
ATOM      1  C   UNL     1      24.312  -2.411  10.392  1.00  0.00     0.053 C 
ENDROOT
BRANCH   1   2
ATOM      2  C   UNL     1      22.936  -2.623   9.845  1.00  0.00     0.041 C 
ATOM      3  O   UNL     1      22.247  -1.639   9.464  1.00  0.00    -0.550 OA
ATOM      4  O   UNL     1      22.432  -3.910   9.708  1.00  0.00    -0.550 OA
ENDBRANCH   1   2
BRANCH   1   5
ATOM      5  C   UNL     1      24.453  -0.995  10.956  1.00  0.00     0.006 C 
BRANCH   5   6
ATOM      6  C   UNL     1      25.928  -0.594  11.075  1.00  0.00    -0.003 C 
ATOM      7  C   UNL     1      26.846  -1.769  10.750  1.00  0.00     0.004 C 
ENDBRANCH   5   6
ENDBRANCH   1   5
TORSDOF 3
ENDMDL
MODEL 8
REMARK VINA RESULT:    -2.695      9.462     10.228
REMARK INTER + INTRA:          -3.191
REMARK INTER:                  -3.134
REMARK INTRA:                  -0.057
REMARK UNBOUND:                -0.023
REMARK SMILES CCCCC(=O)[O-]
REMARK SMILES IDX 4 1 5 2 6 3 7 4 3 5 2 6 1 7
REMARK H PARENT
REMARK Flexibility Score: inf
ROOT
ATOM      1  C   UNL     1      21.811 -14.356   2.396  1.00  0.00     0.053 C 
ENDROOT
BRANCH   1   2
ATOM      2  C   UNL     1      21.665 -15.833   2.207  1.00  0.00     0.041 C 
ATOM      3  O   UNL     1      20.704 -16.292   1.533  1.00  0.00    -0.550 OA
ATOM      4  O   UNL     1      22.615 -16.699   2.731  1.00  0.00    -0.550 OA
ENDBRANCH   1   2
BRANCH   1   5
ATOM      5  C   UNL     1      21.772 -13.635   1.047  1.00  0.00     0.006 C 
BRANCH   5   6
ATOM      6  C   UNL     1      22.990 -12.720   0.876  1.00  0.00    -0.003 C 
ATOM      7  C   UNL     1      23.811 -12.650   2.161  1.00  0.00     0.004 C 
ENDBRANCH   5   6
ENDBRANCH   1   5
TORSDOF 3
ENDMDL
MODEL 9
REMARK VINA RESULT:    -2.626      7.722      8.571
REMARK INTER + INTRA:          -3.110
REMARK INTER:                  -3.034
REMARK INTRA:                  -0.075
REMARK UNBOUND:                -0.023
REMARK SMILES CCCCC(=O)[O-]
REMARK SMILES IDX 4 1 5 2 6 3 7 4 3 5 2 6 1 7
REMARK H PARENT
REMARK Flexibility Score: inf
ROOT
ATOM      1  C   UNL     1      27.940  -0.510  10.888  1.00  0.00     0.053 C 
ENDROOT
BRANCH   1   2
ATOM      2  C   UNL     1      26.509  -0.937  10.986  1.00  0.00     0.041 C 
ATOM      3  O   UNL     1      26.158  -2.075  10.575  1.00  0.00    -0.550 OA
ATOM      4  O   UNL     1      25.572  -0.099  11.577  1.00  0.00    -0.550 OA
ENDBRANCH   1   2
BRANCH   1   5
ATOM      5  C   UNL     1      28.566  -0.410  12.281  1.00  0.00     0.006 C 
BRANCH   5   6
ATOM      6  C   UNL     1      29.821  -1.285  12.384  1.00  0.00    -0.003 C 
ATOM      7  C   UNL     1      29.478  -2.762  12.215  1.00  0.00     0.004 C 
ENDBRANCH   5   6
ENDBRANCH   1   5
TORSDOF 3
ENDMDL
