MODEL 1
REMARK VINA RESULT:    -4.070      0.000      0.000
REMARK INTER + INTRA:          -4.838
REMARK INTER:                  -4.665
REMARK INTRA:                  -0.173
REMARK UNBOUND:                -0.173
REMARK SMILES CC=Cc1ccc(O)c(OC)c1
REMARK SMILES IDX 4 1 12 2 9 3 7 4 6 5 5 6 3 7 1 8 2 9 10 10 11 11 8 12
REMARK H PARENT 8 13
REMARK Flexibility Score: inf
ROOT
ATOM      1  C   UNL     1      -3.871  -4.240 -29.547  1.00  0.00    -0.022 A 
ATOM      2  C   UNL     1      -4.644  -4.416 -28.382  1.00  0.00     0.058 A 
ATOM      3  C   UNL     1      -4.071  -4.955 -27.213  1.00  0.00     0.161 A 
ATOM      4  C   UNL     1      -2.716  -5.329 -27.220  1.00  0.00     0.157 A 
ATOM      5  C   UNL     1      -1.953  -5.171 -28.380  1.00  0.00     0.051 A 
ATOM      6  C   UNL     1      -2.526  -4.636 -29.535  1.00  0.00     0.012 A 
ENDROOT
BRANCH   1   7
ATOM      7  C   UNL     1      -4.433  -3.685 -30.803  1.00  0.00     0.003 C 
ATOM      8  C   UNL     1      -4.350  -2.493 -32.958  1.00  0.00     0.035 C 
ATOM      9  C   UNL     1      -3.714  -3.008 -31.708  1.00  0.00    -0.030 C 
ENDBRANCH   1   7
BRANCH   3  10
ATOM     10  O   UNL     1      -4.816  -5.136 -26.035  1.00  0.00    -0.493 OA
ATOM     11  C   UNL     1      -4.934  -4.170 -24.995  1.00  0.00     0.278 C 
ENDBRANCH   3  10
BRANCH   4  12
ATOM     12  O   UNL     1      -2.109  -5.863 -26.084  1.00  0.00    -0.504 OA
ATOM     13  H   UNL     1      -1.687  -5.280 -25.372  1.00  0.00     0.293 HD
ENDBRANCH   4  12
TORSDOF 3
ENDMDL
MODEL 2
REMARK VINA RESULT:    -4.031      7.121      9.459
REMARK INTER + INTRA:          -4.793
REMARK INTER:                  -4.636
REMARK INTRA:                  -0.157
REMARK UNBOUND:                -0.173
REMARK SMILES CC=Cc1ccc(O)c(OC)c1
REMARK SMILES IDX 4 1 12 2 9 3 7 4 6 5 5 6 3 7 1 8 2 9 10 10 11 11 8 12
REMARK H PARENT 8 13
REMARK Flexibility Score: inf
ROOT
ATOM      1  C   UNL     1      -1.065  -1.468 -35.047  1.00  0.00    -0.022 A 
ATOM      2  C   UNL     1      -0.442  -1.555 -36.308  1.00  0.00     0.058 A 
ATOM      3  C   UNL     1       0.864  -1.061 -36.501  1.00  0.00     0.161 A 
ATOM      4  C   UNL     1       1.541  -0.467 -35.422  1.00  0.00     0.157 A 
ATOM      5  C   UNL     1       0.918  -0.365 -34.175  1.00  0.00     0.051 A 
ATOM      6  C   UNL     1      -0.375  -0.856 -33.990  1.00  0.00     0.012 A 
ENDROOT
BRANCH   1   7
ATOM      7  C   UNL     1      -2.440  -1.966 -34.799  1.00  0.00     0.003 C 
ATOM      8  C   UNL     1      -4.363  -2.635 -33.411  1.00  0.00     0.035 C 
ATOM      9  C   UNL     1      -2.961  -2.143 -33.579  1.00  0.00    -0.030 C 
ENDBRANCH   1   7
BRANCH   3  10
ATOM     10  O   UNL     1       1.513  -1.139 -37.745  1.00  0.00    -0.493 OA
ATOM     11  C   UNL     1       2.413  -2.175 -38.125  1.00  0.00     0.278 C 
ENDBRANCH   3  10
BRANCH   4  12
ATOM     12  O   UNL     1       2.836   0.031 -35.569  1.00  0.00    -0.504 OA
ATOM     13  H   UNL     1       3.086   0.974 -35.294  1.00  0.00     0.293 HD
ENDBRANCH   4  12
TORSDOF 3
ENDMDL
MODEL 3
REMARK VINA RESULT:    -3.949      1.074      2.405
REMARK INTER + INTRA:          -4.699
REMARK INTER:                  -4.542
REMARK INTRA:                  -0.157
REMARK UNBOUND:                -0.173
REMARK SMILES CC=Cc1ccc(O)c(OC)c1
REMARK SMILES IDX 4 1 12 2 9 3 7 4 6 5 5 6 3 7 1 8 2 9 10 10 11 11 8 12
REMARK H PARENT 8 13
REMARK Flexibility Score: inf
ROOT
ATOM      1  C   UNL     1      -3.425  -4.489 -29.240  1.00  0.00    -0.022 A 
ATOM      2  C   UNL     1      -2.400  -5.118 -28.506  1.00  0.00     0.058 A 
ATOM      3  C   UNL     1      -2.608  -5.506 -27.167  1.00  0.00     0.161 A 
ATOM      4  C   UNL     1      -3.851  -5.252 -26.562  1.00  0.00     0.157 A 
ATOM      5  C   UNL     1      -4.863  -4.613 -27.284  1.00  0.00     0.051 A 
ATOM      6  C   UNL     1      -4.651  -4.230 -28.610  1.00  0.00     0.012 A 
ENDROOT
BRANCH   1   7
ATOM      7  C   UNL     1      -3.249  -4.055 -30.648  1.00  0.00     0.003 C 
ATOM      8  C   UNL     1      -3.570  -2.574 -32.591  1.00  0.00     0.035 C 
ATOM      9  C   UNL     1      -3.809  -2.954 -31.165  1.00  0.00    -0.030 C 
ENDBRANCH   1   7
BRANCH   3  10
ATOM     10  O   UNL     1      -1.607  -6.140 -26.412  1.00  0.00    -0.493 OA
ATOM     11  C   UNL     1      -1.473  -7.550 -26.266  1.00  0.00     0.278 C 
ENDBRANCH   3  10
BRANCH   4  12
ATOM     12  O   UNL     1      -4.101  -5.622 -25.241  1.00  0.00    -0.504 OA
ATOM     13  H   UNL     1      -3.720  -6.469 -24.836  1.00  0.00     0.293 HD
ENDBRANCH   4  12
TORSDOF 3
ENDMDL
MODEL 4
REMARK VINA RESULT:    -3.911      3.918      6.026
REMARK INTER + INTRA:          -4.655
REMARK INTER:                  -4.492
REMARK INTRA:                  -0.163
REMARK UNBOUND:                -0.173
REMARK SMILES CC=Cc1ccc(O)c(OC)c1
REMARK SMILES IDX 4 1 12 2 9 3 7 4 6 5 5 6 3 7 1 8 2 9 10 10 11 11 8 12
REMARK H PARENT 8 13
REMARK Flexibility Score: inf
ROOT
ATOM      1  C   UNL     1      -3.449  -4.470 -30.662  1.00  0.00    -0.022 A 
ATOM      2  C   UNL     1      -3.559  -5.582 -31.521  1.00  0.00     0.058 A 
ATOM      3  C   UNL     1      -3.832  -5.406 -32.893  1.00  0.00     0.161 A 
ATOM      4  C   UNL     1      -4.004  -4.106 -33.399  1.00  0.00     0.157 A 
ATOM      5  C   UNL     1      -3.912  -3.005 -32.545  1.00  0.00     0.051 A 
ATOM      6  C   UNL     1      -3.642  -3.185 -31.187  1.00  0.00     0.012 A 
ENDROOT
BRANCH   1   7
ATOM      7  C   UNL     1      -3.172  -4.607 -29.210  1.00  0.00     0.003 C 
ATOM      8  C   UNL     1      -1.900  -5.344 -27.233  1.00  0.00     0.035 C 
ATOM      9  C   UNL     1      -2.118  -5.264 -28.710  1.00  0.00    -0.030 C 
ENDBRANCH   1   7
BRANCH   3  10
ATOM     10  O   UNL     1      -3.941  -6.494 -33.775  1.00  0.00    -0.493 OA
ATOM     11  C   UNL     1      -2.837  -7.163 -34.377  1.00  0.00     0.278 C 
ENDBRANCH   3  10
BRANCH   4  12
ATOM     12  O   UNL     1      -4.272  -3.888 -34.751  1.00  0.00    -0.504 OA
ATOM     13  H   UNL     1      -3.949  -3.061 -35.238  1.00  0.00     0.293 HD
ENDBRANCH   4  12
TORSDOF 3
ENDMDL
MODEL 5
REMARK VINA RESULT:    -3.802     19.751     20.611
REMARK INTER + INTRA:          -4.530
REMARK INTER:                  -4.388
REMARK INTRA:                  -0.142
REMARK UNBOUND:                -0.173
REMARK SMILES CC=Cc1ccc(O)c(OC)c1
REMARK SMILES IDX 4 1 12 2 9 3 7 4 6 5 5 6 3 7 1 8 2 9 10 10 11 11 8 12
REMARK H PARENT 8 13
REMARK Flexibility Score: inf
ROOT
ATOM      1  C   UNL     1       8.930   9.701 -21.705  1.00  0.00    -0.022 A 
ATOM      2  C   UNL     1       8.905   9.893 -23.101  1.00  0.00     0.058 A 
ATOM      3  C   UNL     1      10.104   9.947 -23.841  1.00  0.00     0.161 A 
ATOM      4  C   UNL     1      11.333   9.818 -23.170  1.00  0.00     0.157 A 
ATOM      5  C   UNL     1      11.358   9.646 -21.784  1.00  0.00     0.051 A 
ATOM      6  C   UNL     1      10.168   9.592 -21.057  1.00  0.00     0.012 A 
ENDROOT
BRANCH   1   7
ATOM      7  C   UNL     1       7.695   9.646 -20.885  1.00  0.00     0.003 C 
ATOM      8  C   UNL     1       5.320   9.160 -20.444  1.00  0.00     0.035 C 
ATOM      9  C   UNL     1       6.517   9.199 -21.338  1.00  0.00    -0.030 C 
ENDBRANCH   1   7
BRANCH   3  10
ATOM     10  O   UNL     1      10.111  10.131 -25.233  1.00  0.00    -0.493 OA
ATOM     11  C   UNL     1       9.016  10.640 -25.989  1.00  0.00     0.278 C 
ENDBRANCH   3  10
BRANCH   4  12
ATOM     12  O   UNL     1      12.542   9.864 -23.864  1.00  0.00    -0.504 OA
ATOM     13  H   UNL     1      13.437   9.845 -23.391  1.00  0.00     0.293 HD
ENDBRANCH   4  12
TORSDOF 3
ENDMDL
MODEL 6
REMARK VINA RESULT:    -3.740      3.294      5.539
REMARK INTER + INTRA:          -4.460
REMARK INTER:                  -4.328
REMARK INTRA:                  -0.132
REMARK UNBOUND:                -0.173
REMARK SMILES CC=Cc1ccc(O)c(OC)c1
REMARK SMILES IDX 4 1 12 2 9 3 7 4 6 5 5 6 3 7 1 8 2 9 10 10 11 11 8 12
REMARK H PARENT 8 13
REMARK Flexibility Score: inf
ROOT
ATOM      1  C   UNL     1      -2.765  -5.193 -29.826  1.00  0.00    -0.022 A 
ATOM      2  C   UNL     1      -3.261  -4.050 -30.486  1.00  0.00     0.058 A 
ATOM      3  C   UNL     1      -3.835  -4.154 -31.770  1.00  0.00     0.161 A 
ATOM      4  C   UNL     1      -3.899  -5.411 -32.395  1.00  0.00     0.157 A 
ATOM      5  C   UNL     1      -3.392  -6.541 -31.748  1.00  0.00     0.051 A 
ATOM      6  C   UNL     1      -2.825  -6.433 -30.478  1.00  0.00     0.012 A 
ENDROOT
BRANCH   1   7
ATOM      7  C   UNL     1      -2.146  -5.131 -28.479  1.00  0.00     0.003 C 
ATOM      8  C   UNL     1      -1.794  -5.829 -26.142  1.00  0.00     0.035 C 
ATOM      9  C   UNL     1      -2.477  -5.943 -27.467  1.00  0.00    -0.030 C 
ENDBRANCH   1   7
BRANCH   3  10
ATOM     10  O   UNL     1      -4.343  -3.034 -32.449  1.00  0.00    -0.493 OA
ATOM     11  C   UNL     1      -3.633  -2.297 -33.440  1.00  0.00     0.278 C 
ENDBRANCH   3  10
BRANCH   4  12
ATOM     12  O   UNL     1      -4.461  -5.558 -33.663  1.00  0.00    -0.504 OA
ATOM     13  H   UNL     1      -3.898  -5.586 -34.504  1.00  0.00     0.293 HD
ENDBRANCH   4  12
TORSDOF 3
ENDMDL
MODEL 7
REMARK VINA RESULT:    -3.539      2.066      2.445
REMARK INTER + INTRA:          -4.230
REMARK INTER:                  -4.040
REMARK INTRA:                  -0.189
REMARK UNBOUND:                -0.173
REMARK SMILES CC=Cc1ccc(O)c(OC)c1
REMARK SMILES IDX 4 1 12 2 9 3 7 4 6 5 5 6 3 7 1 8 2 9 10 10 11 11 8 12
REMARK H PARENT 8 13
REMARK Flexibility Score: inf
ROOT
ATOM      1  C   UNL     1      -2.914  -5.388 -29.492  1.00  0.00    -0.022 A 
ATOM      2  C   UNL     1      -3.423  -6.674 -29.222  1.00  0.00     0.058 A 
ATOM      3  C   UNL     1      -3.094  -7.341 -28.024  1.00  0.00     0.161 A 
ATOM      4  C   UNL     1      -2.240  -6.714 -27.100  1.00  0.00     0.157 A 
ATOM      5  C   UNL     1      -1.721  -5.446 -27.375  1.00  0.00     0.051 A 
ATOM      6  C   UNL     1      -2.050  -4.791 -28.563  1.00  0.00     0.012 A 
ENDROOT
BRANCH   1   7
ATOM      7  C   UNL     1      -3.226  -4.652 -30.742  1.00  0.00     0.003 C 
ATOM      8  C   UNL     1      -3.600  -2.648 -32.127  1.00  0.00     0.035 C 
ATOM      9  C   UNL     1      -3.295  -3.317 -30.825  1.00  0.00    -0.030 C 
ENDBRANCH   1   7
BRANCH   3  10
ATOM     10  O   UNL     1      -3.591  -8.620 -27.724  1.00  0.00    -0.493 OA
ATOM     11  C   UNL     1      -4.878  -8.880 -27.174  1.00  0.00     0.278 C 
ENDBRANCH   3  10
BRANCH   4  12
ATOM     12  O   UNL     1      -1.891  -7.337 -25.902  1.00  0.00    -0.504 OA
ATOM     13  H   UNL     1      -1.377  -6.857 -25.173  1.00  0.00     0.293 HD
ENDBRANCH   4  12
TORSDOF 3
ENDMDL
MODEL 8
REMARK VINA RESULT:    -3.535      2.986      4.864
REMARK INTER + INTRA:          -4.224
REMARK INTER:                  -4.060
REMARK INTRA:                  -0.164
REMARK UNBOUND:                -0.173
REMARK SMILES CC=Cc1ccc(O)c(OC)c1
REMARK SMILES IDX 4 1 12 2 9 3 7 4 6 5 5 6 3 7 1 8 2 9 10 10 11 11 8 12
REMARK H PARENT 8 13
REMARK Flexibility Score: inf
ROOT
ATOM      1  C   UNL     1      -2.861  -5.383 -25.646  1.00  0.00    -0.022 A 
ATOM      2  C   UNL     1      -1.710  -5.836 -24.971  1.00  0.00     0.058 A 
ATOM      3  C   UNL     1      -1.546  -5.600 -23.590  1.00  0.00     0.161 A 
ATOM      4  C   UNL     1      -2.541  -4.898 -22.889  1.00  0.00     0.157 A 
ATOM      5  C   UNL     1      -3.675  -4.434 -23.561  1.00  0.00     0.051 A 
ATOM      6  C   UNL     1      -3.832  -4.669 -24.928  1.00  0.00     0.012 A 
ENDROOT
BRANCH   1   7
ATOM      7  C   UNL     1      -3.072  -5.599 -27.098  1.00  0.00     0.003 C 
ATOM      8  C   UNL     1      -2.506  -5.438 -29.491  1.00  0.00     0.035 C 
ATOM      9  C   UNL     1      -2.232  -5.167 -28.047  1.00  0.00    -0.030 C 
ENDBRANCH   1   7
BRANCH   3  10
ATOM     10  O   UNL     1      -0.413  -6.045 -22.889  1.00  0.00    -0.493 OA
ATOM     11  C   UNL     1       0.867  -5.422 -22.940  1.00  0.00     0.278 C 
ENDBRANCH   3  10
BRANCH   4  12
ATOM     12  O   UNL     1      -2.421  -4.647 -21.523  1.00  0.00    -0.504 OA
ATOM     13  H   UNL     1      -2.660  -3.751 -21.115  1.00  0.00     0.293 HD
ENDBRANCH   4  12
TORSDOF 3
ENDMDL
MODEL 9
REMARK VINA RESULT:    -3.426      6.653      9.155
REMARK INTER + INTRA:          -4.100
REMARK INTER:                  -3.934
REMARK INTRA:                  -0.166
REMARK UNBOUND:                -0.173
REMARK SMILES CC=Cc1ccc(O)c(OC)c1
REMARK SMILES IDX 4 1 12 2 9 3 7 4 6 5 5 6 3 7 1 8 2 9 10 10 11 11 8 12
REMARK H PARENT 8 13
REMARK Flexibility Score: inf
ROOT
ATOM      1  C   UNL     1      -1.801  -2.246 -35.547  1.00  0.00    -0.022 A 
ATOM      2  C   UNL     1      -1.017  -1.162 -35.103  1.00  0.00     0.058 A 
ATOM      3  C   UNL     1       0.063  -0.690 -35.877  1.00  0.00     0.161 A 
ATOM      4  C   UNL     1       0.359  -1.319 -37.099  1.00  0.00     0.157 A 
ATOM      5  C   UNL     1      -0.407  -2.405 -37.531  1.00  0.00     0.051 A 
ATOM      6  C   UNL     1      -1.475  -2.868 -36.760  1.00  0.00     0.012 A 
ENDROOT
BRANCH   1   7
ATOM      7  C   UNL     1      -2.940  -2.782 -34.762  1.00  0.00     0.003 C 
ATOM      8  C   UNL     1      -4.502  -2.871 -32.858  1.00  0.00     0.035 C 
ATOM      9  C   UNL     1      -3.333  -2.285 -33.582  1.00  0.00    -0.030 C 
ENDBRANCH   1   7
BRANCH   3  10
ATOM     10  O   UNL     1       0.858   0.391 -35.464  1.00  0.00    -0.493 OA
ATOM     11  C   UNL     1       1.912   0.304 -34.510  1.00  0.00     0.278 C 
ENDBRANCH   3  10
BRANCH   4  12
ATOM     12  O   UNL     1       1.416  -0.883 -37.897  1.00  0.00    -0.504 OA
ATOM     13  H   UNL     1       1.591  -1.264 -38.819  1.00  0.00     0.293 HD
ENDBRANCH   4  12
TORSDOF 3
ENDMDL
