MODEL 1
REMARK VINA RESULT:    -6.123      0.000      0.000
REMARK INTER + INTRA:         -16.273
REMARK INTER:                 -13.998
REMARK INTRA:                  -2.275
REMARK UNBOUND:                -2.275
REMARK SMILES CCCCCCCCCCCCCCCCCCCCCCCC(=O)[O-]
REMARK SMILES IDX 13 1 14 2 15 3 16 4 17 5 18 6 19 7 20 8 21 9 22 10 23 11
REMARK SMILES IDX 24 12 25 13 26 14 12 15 11 16 10 17 9 18 8 19 7 20 6 21 5 22
REMARK SMILES IDX 4 23 3 24 2 25 1 26
REMARK H PARENT
REMARK Flexibility Score: inf
ROOT
ATOM      1  C   UNL     1      89.943 326.076 200.395  1.00  0.00     0.000 C 
ENDROOT
BRANCH   1   2
ATOM      2  C   UNL     1      89.219 326.201 199.040  1.00  0.00     0.000 C 
BRANCH   2   3
ATOM      3  C   UNL     1      88.931 324.871 198.312  1.00  0.00     0.000 C 
BRANCH   3   4
ATOM      4  C   UNL     1      88.721 325.016 196.789  1.00  0.00     0.000 C 
BRANCH   4   5
ATOM      5  C   UNL     1      88.379 326.458 196.378  1.00  0.00     0.000 C 
BRANCH   5   6
ATOM      6  C   UNL     1      86.950 326.551 195.829  1.00  0.00     0.000 C 
BRANCH   6   7
ATOM      7  C   UNL     1      86.953 326.596 194.296  1.00  0.00     0.000 C 
BRANCH   7   8
ATOM      8  C   UNL     1      85.980 325.564 193.714  1.00  0.00     0.000 C 
BRANCH   8   9
ATOM      9  C   UNL     1      86.726 324.520 192.869  1.00  0.00     0.000 C 
BRANCH   9  10
ATOM     10  C   UNL     1      88.149 324.968 192.499  1.00  0.00     0.006 C 
BRANCH  10  11
ATOM     11  C   UNL     1      88.547 324.567 191.073  1.00  0.00     0.053 C 
BRANCH  11  12
ATOM     12  C   UNL     1      88.492 323.081 190.887  1.00  0.00     0.041 C 
ATOM     13  O   UNL     1      87.861 322.582 189.916  1.00  0.00    -0.550 OA
ATOM     14  O   UNL     1      89.180 322.247 191.758  1.00  0.00    -0.550 OA
ENDBRANCH  11  12
ENDBRANCH  10  11
ENDBRANCH   9  10
ENDBRANCH   8   9
ENDBRANCH   7   8
ENDBRANCH   6   7
ENDBRANCH   5   6
ENDBRANCH   4   5
ENDBRANCH   3   4
ENDBRANCH   2   3
ENDBRANCH   1   2
BRANCH   1  15
ATOM     15  C   UNL     1      89.087 326.460 201.616  1.00  0.00     0.000 C 
BRANCH  15  16
ATOM     16  C   UNL     1      89.942 326.934 202.806  1.00  0.00     0.000 C 
BRANCH  16  17
ATOM     17  C   UNL     1      89.118 327.601 203.926  1.00  0.00     0.000 C 
BRANCH  17  18
ATOM     18  C   UNL     1      89.672 327.404 205.353  1.00  0.00    -0.000 C 
BRANCH  18  19
ATOM     19  C   UNL     1      88.800 326.574 206.316  1.00  0.00    -0.000 C 
BRANCH  19  20
ATOM     20  C   UNL     1      88.394 325.182 205.805  1.00  0.00    -0.000 C 
BRANCH  20  21
ATOM     21  C   UNL     1      86.875 325.024 205.628  1.00  0.00    -0.000 C 
BRANCH  21  22
ATOM     22  C   UNL     1      86.526 323.617 205.118  1.00  0.00    -0.000 C 
BRANCH  22  23
ATOM     23  C   UNL     1      87.269 323.247 203.824  1.00  0.00    -0.000 C 
BRANCH  23  24
ATOM     24  C   UNL     1      86.592 323.826 202.568  1.00  0.00    -0.000 C 
BRANCH  24  25
ATOM     25  C   UNL     1      87.042 323.122 201.282  1.00  0.00    -0.003 C 
ATOM     26  C   UNL     1      88.505 322.677 201.328  1.00  0.00     0.004 C 
ENDBRANCH  24  25
ENDBRANCH  23  24
ENDBRANCH  22  23
ENDBRANCH  21  22
ENDBRANCH  20  21
ENDBRANCH  19  20
ENDBRANCH  18  19
ENDBRANCH  17  18
ENDBRANCH  16  17
ENDBRANCH  15  16
ENDBRANCH   1  15
TORSDOF 22
ENDMDL
MODEL 2
REMARK VINA RESULT:    -6.059      1.584      3.028
REMARK INTER + INTRA:         -16.127
REMARK INTER:                 -14.647
REMARK INTRA:                  -1.480
REMARK UNBOUND:                -2.275
REMARK SMILES CCCCCCCCCCCCCCCCCCCCCCCC(=O)[O-]
REMARK SMILES IDX 13 1 14 2 15 3 16 4 17 5 18 6 19 7 20 8 21 9 22 10 23 11
REMARK SMILES IDX 24 12 25 13 26 14 12 15 11 16 10 17 9 18 8 19 7 20 6 21 5 22
REMARK SMILES IDX 4 23 3 24 2 25 1 26
REMARK H PARENT
REMARK Flexibility Score: inf
ROOT
ATOM      1  C   UNL     1      89.199 325.071 198.454  1.00  0.00     0.000 C 
ENDROOT
BRANCH   1   2
ATOM      2  C   UNL     1      88.875 325.009 196.948  1.00  0.00     0.000 C 
BRANCH   2   3
ATOM      3  C   UNL     1      88.527 326.357 196.284  1.00  0.00     0.000 C 
BRANCH   3   4
ATOM      4  C   UNL     1      87.032 326.525 195.938  1.00  0.00     0.000 C 
BRANCH   4   5
ATOM      5  C   UNL     1      86.720 326.148 194.480  1.00  0.00     0.000 C 
BRANCH   5   6
ATOM      6  C   UNL     1      87.994 326.139 193.627  1.00  0.00     0.000 C 
BRANCH   6   7
ATOM      7  C   UNL     1      88.255 324.744 193.045  1.00  0.00     0.000 C 
BRANCH   7   8
ATOM      8  C   UNL     1      88.245 324.776 191.513  1.00  0.00     0.000 C 
BRANCH   8   9
ATOM      9  C   UNL     1      88.492 323.375 190.932  1.00  0.00     0.000 C 
BRANCH   9  10
ATOM     10  C   UNL     1      88.608 323.385 189.399  1.00  0.00     0.006 C 
BRANCH  10  11
ATOM     11  C   UNL     1      89.909 324.030 188.905  1.00  0.00     0.053 C 
BRANCH  11  12
ATOM     12  C   UNL     1      90.781 323.034 188.201  1.00  0.00     0.041 C 
ATOM     13  O   UNL     1      92.017 323.245 188.076  1.00  0.00    -0.550 OA
ATOM     14  O   UNL     1      90.236 321.849 187.725  1.00  0.00    -0.550 OA
ENDBRANCH  11  12
ENDBRANCH  10  11
ENDBRANCH   9  10
ENDBRANCH   8   9
ENDBRANCH   7   8
ENDBRANCH   6   7
ENDBRANCH   5   6
ENDBRANCH   4   5
ENDBRANCH   3   4
ENDBRANCH   2   3
ENDBRANCH   1   2
BRANCH   1  15
ATOM     15  C   UNL     1      89.099 326.479 199.072  1.00  0.00     0.000 C 
BRANCH  15  16
ATOM     16  C   UNL     1      89.437 326.485 200.574  1.00  0.00     0.000 C 
BRANCH  16  17
ATOM     17  C   UNL     1      90.941 326.672 200.863  1.00  0.00     0.000 C 
BRANCH  17  18
ATOM     18  C   UNL     1      91.276 327.200 202.274  1.00  0.00    -0.000 C 
BRANCH  18  19
ATOM     19  C   UNL     1      90.434 326.634 203.434  1.00  0.00    -0.000 C 
BRANCH  19  20
ATOM     20  C   UNL     1      89.399 327.603 204.032  1.00  0.00    -0.000 C 
BRANCH  20  21
ATOM     21  C   UNL     1      89.070 327.300 205.503  1.00  0.00    -0.000 C 
BRANCH  21  22
ATOM     22  C   UNL     1      88.869 325.792 205.720  1.00  0.00    -0.000 C 
BRANCH  22  23
ATOM     23  C   UNL     1      87.389 325.400 205.870  1.00  0.00    -0.000 C 
BRANCH  23  24
ATOM     24  C   UNL     1      87.005 324.198 204.987  1.00  0.00    -0.000 C 
BRANCH  24  25
ATOM     25  C   UNL     1      87.534 324.333 203.553  1.00  0.00    -0.003 C 
ATOM     26  C   UNL     1      86.690 323.566 202.534  1.00  0.00     0.004 C 
ENDBRANCH  24  25
ENDBRANCH  23  24
ENDBRANCH  22  23
ENDBRANCH  21  22
ENDBRANCH  20  21
ENDBRANCH  19  20
ENDBRANCH  18  19
ENDBRANCH  17  18
ENDBRANCH  16  17
ENDBRANCH  15  16
ENDBRANCH   1  15
TORSDOF 22
ENDMDL
MODEL 3
REMARK VINA RESULT:    -6.000      1.026      3.167
REMARK INTER + INTRA:         -15.993
REMARK INTER:                 -13.723
REMARK INTRA:                  -2.270
REMARK UNBOUND:                -2.275
REMARK SMILES CCCCCCCCCCCCCCCCCCCCCCCC(=O)[O-]
REMARK SMILES IDX 13 1 14 2 15 3 16 4 17 5 18 6 19 7 20 8 21 9 22 10 23 11
REMARK SMILES IDX 24 12 25 13 26 14 12 15 11 16 10 17 9 18 8 19 7 20 6 21 5 22
REMARK SMILES IDX 4 23 3 24 2 25 1 26
REMARK H PARENT
REMARK Flexibility Score: inf
ROOT
ATOM      1  C   UNL     1      88.705 323.658 197.976  1.00  0.00     0.000 C 
ENDROOT
BRANCH   1   2
ATOM      2  C   UNL     1      88.452 324.011 196.496  1.00  0.00     0.000 C 
BRANCH   2   3
ATOM      3  C   UNL     1      88.837 325.445 196.077  1.00  0.00     0.000 C 
BRANCH   3   4
ATOM      4  C   UNL     1      87.899 326.539 196.629  1.00  0.00     0.000 C 
BRANCH   4   5
ATOM      5  C   UNL     1      86.638 326.721 195.767  1.00  0.00     0.000 C 
BRANCH   5   6
ATOM      6  C   UNL     1      86.949 326.508 194.281  1.00  0.00     0.000 C 
BRANCH   6   7
ATOM      7  C   UNL     1      85.909 325.589 193.629  1.00  0.00     0.000 C 
BRANCH   7   8
ATOM      8  C   UNL     1      86.572 324.614 192.650  1.00  0.00     0.000 C 
BRANCH   8   9
ATOM      9  C   UNL     1      88.020 325.031 192.354  1.00  0.00     0.000 C 
BRANCH   9  10
ATOM     10  C   UNL     1      88.619 324.276 191.157  1.00  0.00     0.006 C 
BRANCH  10  11
ATOM     11  C   UNL     1      87.593 323.391 190.438  1.00  0.00     0.053 C 
BRANCH  11  12
ATOM     12  C   UNL     1      87.968 321.941 190.519  1.00  0.00     0.041 C 
ATOM     13  O   UNL     1      88.249 321.296 189.473  1.00  0.00    -0.550 OA
ATOM     14  O   UNL     1      88.056 321.315 191.755  1.00  0.00    -0.550 OA
ENDBRANCH  11  12
ENDBRANCH  10  11
ENDBRANCH   9  10
ENDBRANCH   8   9
ENDBRANCH   7   8
ENDBRANCH   6   7
ENDBRANCH   5   6
ENDBRANCH   4   5
ENDBRANCH   3   4
ENDBRANCH   2   3
ENDBRANCH   1   2
BRANCH   1  15
ATOM     15  C   UNL     1      90.055 324.152 198.529  1.00  0.00     0.000 C 
BRANCH  15  16
ATOM     16  C   UNL     1      89.890 325.020 199.790  1.00  0.00     0.000 C 
BRANCH  16  17
ATOM     17  C   UNL     1      88.962 324.391 200.849  1.00  0.00     0.000 C 
BRANCH  17  18
ATOM     18  C   UNL     1      88.468 325.360 201.944  1.00  0.00    -0.000 C 
BRANCH  18  19
ATOM     19  C   UNL     1      89.068 326.780 201.924  1.00  0.00    -0.000 C 
BRANCH  19  20
ATOM     20  C   UNL     1      89.889 327.166 203.166  1.00  0.00    -0.000 C 
BRANCH  20  21
ATOM     21  C   UNL     1      89.041 327.814 204.272  1.00  0.00    -0.000 C 
BRANCH  21  22
ATOM     22  C   UNL     1      89.474 327.313 205.659  1.00  0.00    -0.000 C 
BRANCH  22  23
ATOM     23  C   UNL     1      88.387 326.484 206.363  1.00  0.00    -0.000 C 
BRANCH  23  24
ATOM     24  C   UNL     1      88.252 325.067 205.775  1.00  0.00    -0.000 C 
BRANCH  24  25
ATOM     25  C   UNL     1      86.789 324.653 205.576  1.00  0.00    -0.003 C 
ATOM     26  C   UNL     1      86.620 323.546 204.534  1.00  0.00     0.004 C 
ENDBRANCH  24  25
ENDBRANCH  23  24
ENDBRANCH  22  23
ENDBRANCH  21  22
ENDBRANCH  20  21
ENDBRANCH  19  20
ENDBRANCH  18  19
ENDBRANCH  17  18
ENDBRANCH  16  17
ENDBRANCH  15  16
ENDBRANCH   1  15
TORSDOF 22
ENDMDL
MODEL 4
REMARK VINA RESULT:    -5.982      4.114     10.692
REMARK INTER + INTRA:         -15.952
REMARK INTER:                 -14.150
REMARK INTRA:                  -1.802
REMARK UNBOUND:                -2.275
REMARK SMILES CCCCCCCCCCCCCCCCCCCCCCCC(=O)[O-]
REMARK SMILES IDX 13 1 14 2 15 3 16 4 17 5 18 6 19 7 20 8 21 9 22 10 23 11
REMARK SMILES IDX 24 12 25 13 26 14 12 15 11 16 10 17 9 18 8 19 7 20 6 21 5 22
REMARK SMILES IDX 4 23 3 24 2 25 1 26
REMARK H PARENT
REMARK Flexibility Score: inf
ROOT
ATOM      1  C   UNL     1      88.636 326.124 200.689  1.00  0.00     0.000 C 
ENDROOT
BRANCH   1   2
ATOM      2  C   UNL     1      89.604 326.467 201.838  1.00  0.00     0.000 C 
BRANCH   2   3
ATOM      3  C   UNL     1      91.023 326.895 201.411  1.00  0.00     0.000 C 
BRANCH   3   4
ATOM      4  C   UNL     1      91.929 327.340 202.579  1.00  0.00     0.000 C 
BRANCH   4   5
ATOM      5  C   UNL     1      91.123 327.760 203.820  1.00  0.00     0.000 C 
BRANCH   5   6
ATOM      6  C   UNL     1      91.854 327.372 205.111  1.00  0.00     0.000 C 
BRANCH   6   7
ATOM      7  C   UNL     1      90.893 327.371 206.306  1.00  0.00     0.000 C 
BRANCH   7   8
ATOM      8  C   UNL     1      89.437 327.483 205.843  1.00  0.00     0.000 C 
BRANCH   8   9
ATOM      9  C   UNL     1      88.610 326.285 206.334  1.00  0.00     0.000 C 
BRANCH   9  10
ATOM     10  C   UNL     1      88.127 325.389 205.183  1.00  0.00     0.006 C 
BRANCH  10  11
ATOM     11  C   UNL     1      86.893 324.557 205.554  1.00  0.00     0.053 C 
BRANCH  11  12
ATOM     12  C   UNL     1      87.197 323.089 205.541  1.00  0.00     0.041 C 
ATOM     13  O   UNL     1      86.721 322.346 204.641  1.00  0.00    -0.550 OA
ATOM     14  O   UNL     1      88.049 322.549 206.496  1.00  0.00    -0.550 OA
ENDBRANCH  11  12
ENDBRANCH  10  11
ENDBRANCH   9  10
ENDBRANCH   8   9
ENDBRANCH   7   8
ENDBRANCH   6   7
ENDBRANCH   5   6
ENDBRANCH   4   5
ENDBRANCH   3   4
ENDBRANCH   2   3
ENDBRANCH   1   2
BRANCH   1  15
ATOM     15  C   UNL     1      89.245 326.255 199.280  1.00  0.00     0.000 C 
BRANCH  15  16
ATOM     16  C   UNL     1      89.256 324.916 198.519  1.00  0.00     0.000 C 
BRANCH  16  17
ATOM     17  C   UNL     1      88.978 325.066 197.010  1.00  0.00     0.000 C 
BRANCH  17  18
ATOM     18  C   UNL     1      88.377 326.423 196.586  1.00  0.00    -0.000 C 
BRANCH  18  19
ATOM     19  C   UNL     1      86.979 326.380 195.938  1.00  0.00    -0.000 C 
BRANCH  19  20
ATOM     20  C   UNL     1      86.909 326.883 194.486  1.00  0.00    -0.000 C 
BRANCH  20  21
ATOM     21  C   UNL     1      86.584 325.770 193.477  1.00  0.00    -0.000 C 
BRANCH  21  22
ATOM     22  C   UNL     1      87.187 324.430 193.927  1.00  0.00    -0.000 C 
BRANCH  22  23
ATOM     23  C   UNL     1      88.413 324.015 193.097  1.00  0.00    -0.000 C 
BRANCH  23  24
ATOM     24  C   UNL     1      88.408 324.636 191.688  1.00  0.00    -0.000 C 
BRANCH  24  25
ATOM     25  C   UNL     1      88.308 323.579 190.581  1.00  0.00    -0.003 C 
ATOM     26  C   UNL     1      89.167 323.912 189.361  1.00  0.00     0.004 C 
ENDBRANCH  24  25
ENDBRANCH  23  24
ENDBRANCH  22  23
ENDBRANCH  21  22
ENDBRANCH  20  21
ENDBRANCH  19  20
ENDBRANCH  18  19
ENDBRANCH  17  18
ENDBRANCH  16  17
ENDBRANCH  15  16
ENDBRANCH   1  15
TORSDOF 22
ENDMDL
MODEL 5
REMARK VINA RESULT:    -5.940      3.357     10.775
REMARK INTER + INTRA:         -15.856
REMARK INTER:                 -14.435
REMARK INTRA:                  -1.421
REMARK UNBOUND:                -2.275
REMARK SMILES CCCCCCCCCCCCCCCCCCCCCCCC(=O)[O-]
REMARK SMILES IDX 13 1 14 2 15 3 16 4 17 5 18 6 19 7 20 8 21 9 22 10 23 11
REMARK SMILES IDX 24 12 25 13 26 14 12 15 11 16 10 17 9 18 8 19 7 20 6 21 5 22
REMARK SMILES IDX 4 23 3 24 2 25 1 26
REMARK H PARENT
REMARK Flexibility Score: inf
ROOT
ATOM      1  C   UNL     1      89.224 325.807 198.947  1.00  0.00     0.000 C 
ENDROOT
BRANCH   1   2
ATOM      2  C   UNL     1      89.884 326.486 200.164  1.00  0.00     0.000 C 
BRANCH   2   3
ATOM      3  C   UNL     1      89.061 326.462 201.469  1.00  0.00     0.000 C 
BRANCH   3   4
ATOM      4  C   UNL     1      89.887 326.740 202.743  1.00  0.00     0.000 C 
BRANCH   4   5
ATOM      5  C   UNL     1      89.090 327.522 203.801  1.00  0.00     0.000 C 
BRANCH   5   6
ATOM      6  C   UNL     1      89.811 327.511 205.154  1.00  0.00     0.000 C 
BRANCH   6   7
ATOM      7  C   UNL     1      88.944 326.850 206.232  1.00  0.00     0.000 C 
BRANCH   7   8
ATOM      8  C   UNL     1      88.515 325.442 205.807  1.00  0.00     0.000 C 
BRANCH   8   9
ATOM      9  C   UNL     1      86.999 325.256 205.967  1.00  0.00     0.000 C 
BRANCH   9  10
ATOM     10  C   UNL     1      86.463 324.059 205.165  1.00  0.00     0.006 C 
BRANCH  10  11
ATOM     11  C   UNL     1      87.523 323.435 204.248  1.00  0.00     0.053 C 
BRANCH  11  12
ATOM     12  C   UNL     1      86.961 323.128 202.893  1.00  0.00     0.041 C 
ATOM     13  O   UNL     1      87.131 321.991 202.375  1.00  0.00    -0.550 OA
ATOM     14  O   UNL     1      86.207 324.081 202.221  1.00  0.00    -0.550 OA
ENDBRANCH  11  12
ENDBRANCH  10  11
ENDBRANCH   9  10
ENDBRANCH   8   9
ENDBRANCH   7   8
ENDBRANCH   6   7
ENDBRANCH   5   6
ENDBRANCH   4   5
ENDBRANCH   3   4
ENDBRANCH   2   3
ENDBRANCH   1   2
BRANCH   1  15
ATOM     15  C   UNL     1      88.830 326.772 197.812  1.00  0.00     0.000 C 
BRANCH  15  16
ATOM     16  C   UNL     1      88.161 326.046 196.631  1.00  0.00     0.000 C 
BRANCH  16  17
ATOM     17  C   UNL     1      86.928 326.786 196.075  1.00  0.00     0.000 C 
BRANCH  17  18
ATOM     18  C   UNL     1      87.039 327.229 194.601  1.00  0.00    -0.000 C 
BRANCH  18  19
ATOM     19  C   UNL     1      88.075 326.483 193.738  1.00  0.00    -0.000 C 
BRANCH  19  20
ATOM     20  C   UNL     1      87.553 325.225 193.022  1.00  0.00    -0.000 C 
BRANCH  20  21
ATOM     21  C   UNL     1      88.402 323.975 193.303  1.00  0.00    -0.000 C 
BRANCH  21  22
ATOM     22  C   UNL     1      88.818 323.289 191.992  1.00  0.00    -0.000 C 
BRANCH  22  23
ATOM     23  C   UNL     1      88.183 323.935 190.749  1.00  0.00    -0.000 C 
BRANCH  23  24
ATOM     24  C   UNL     1      87.848 322.904 189.655  1.00  0.00    -0.000 C 
BRANCH  24  25
ATOM     25  C   UNL     1      88.894 322.880 188.534  1.00  0.00    -0.003 C 
ATOM     26  C   UNL     1      89.958 323.967 188.689  1.00  0.00     0.004 C 
ENDBRANCH  24  25
ENDBRANCH  23  24
ENDBRANCH  22  23
ENDBRANCH  21  22
ENDBRANCH  20  21
ENDBRANCH  19  20
ENDBRANCH  18  19
ENDBRANCH  17  18
ENDBRANCH  16  17
ENDBRANCH  15  16
ENDBRANCH   1  15
TORSDOF 22
ENDMDL
MODEL 6
REMARK VINA RESULT:    -5.937      1.108      2.028
REMARK INTER + INTRA:         -15.849
REMARK INTER:                 -14.473
REMARK INTRA:                  -1.376
REMARK UNBOUND:                -2.275
REMARK SMILES CCCCCCCCCCCCCCCCCCCCCCCC(=O)[O-]
REMARK SMILES IDX 13 1 14 2 15 3 16 4 17 5 18 6 19 7 20 8 21 9 22 10 23 11
REMARK SMILES IDX 24 12 25 13 26 14 12 15 11 16 10 17 9 18 8 19 7 20 6 21 5 22
REMARK SMILES IDX 4 23 3 24 2 25 1 26
REMARK H PARENT
REMARK Flexibility Score: inf
ROOT
ATOM      1  C   UNL     1      89.127 325.856 199.357  1.00  0.00     0.000 C 
ENDROOT
BRANCH   1   2
ATOM      2  C   UNL     1      88.887 326.678 198.075  1.00  0.00     0.000 C 
BRANCH   2   3
ATOM      3  C   UNL     1      88.407 325.876 196.848  1.00  0.00     0.000 C 
BRANCH   3   4
ATOM      4  C   UNL     1      87.199 326.499 196.117  1.00  0.00     0.000 C 
BRANCH   4   5
ATOM      5  C   UNL     1      87.493 326.790 194.636  1.00  0.00     0.000 C 
BRANCH   5   6
ATOM      6  C   UNL     1      87.796 325.498 193.869  1.00  0.00     0.000 C 
BRANCH   6   7
ATOM      7  C   UNL     1      86.539 324.967 193.170  1.00  0.00     0.000 C 
BRANCH   7   8
ATOM      8  C   UNL     1      86.901 324.193 191.898  1.00  0.00     0.000 C 
BRANCH   8   9
ATOM      9  C   UNL     1      88.371 324.421 191.515  1.00  0.00     0.000 C 
BRANCH   9  10
ATOM     10  C   UNL     1      88.930 323.300 190.623  1.00  0.00     0.006 C 
BRANCH  10  11
ATOM     11  C   UNL     1      88.680 323.548 189.130  1.00  0.00     0.053 C 
BRANCH  11  12
ATOM     12  C   UNL     1      88.220 322.300 188.438  1.00  0.00     0.041 C 
ATOM     13  O   UNL     1      89.023 321.349 188.238  1.00  0.00    -0.550 OA
ATOM     14  O   UNL     1      86.892 322.167 188.057  1.00  0.00    -0.550 OA
ENDBRANCH  11  12
ENDBRANCH  10  11
ENDBRANCH   9  10
ENDBRANCH   8   9
ENDBRANCH   7   8
ENDBRANCH   6   7
ENDBRANCH   5   6
ENDBRANCH   4   5
ENDBRANCH   3   4
ENDBRANCH   2   3
ENDBRANCH   1   2
BRANCH   1  15
ATOM     15  C   UNL     1      89.896 326.605 200.462  1.00  0.00     0.000 C 
BRANCH  15  16
ATOM     16  C   UNL     1      89.191 326.519 201.828  1.00  0.00     0.000 C 
BRANCH  16  17
ATOM     17  C   UNL     1      89.950 327.245 202.957  1.00  0.00     0.000 C 
BRANCH  17  18
ATOM     18  C   UNL     1      89.083 327.671 204.161  1.00  0.00    -0.000 C 
BRANCH  18  19
ATOM     19  C   UNL     1      89.638 327.332 205.558  1.00  0.00    -0.000 C 
BRANCH  19  20
ATOM     20  C   UNL     1      88.701 326.508 206.458  1.00  0.00    -0.000 C 
BRANCH  20  21
ATOM     21  C   UNL     1      88.353 325.132 205.866  1.00  0.00    -0.000 C 
BRANCH  21  22
ATOM     22  C   UNL     1      86.832 324.972 205.711  1.00  0.00    -0.000 C 
BRANCH  22  23
ATOM     23  C   UNL     1      86.442 323.764 204.843  1.00  0.00    -0.000 C 
BRANCH  23  24
ATOM     24  C   UNL     1      87.520 323.414 203.800  1.00  0.00    -0.000 C 
BRANCH  24  25
ATOM     25  C   UNL     1      87.140 323.875 202.388  1.00  0.00    -0.003 C 
ATOM     26  C   UNL     1      86.129 322.949 201.711  1.00  0.00     0.004 C 
ENDBRANCH  24  25
ENDBRANCH  23  24
ENDBRANCH  22  23
ENDBRANCH  21  22
ENDBRANCH  20  21
ENDBRANCH  19  20
ENDBRANCH  18  19
ENDBRANCH  17  18
ENDBRANCH  16  17
ENDBRANCH  15  16
ENDBRANCH   1  15
TORSDOF 22
ENDMDL
MODEL 7
REMARK VINA RESULT:    -5.865      3.142      9.927
REMARK INTER + INTRA:         -15.684
REMARK INTER:                 -13.866
REMARK INTRA:                  -1.818
REMARK UNBOUND:                -2.275
REMARK SMILES CCCCCCCCCCCCCCCCCCCCCCCC(=O)[O-]
REMARK SMILES IDX 13 1 14 2 15 3 16 4 17 5 18 6 19 7 20 8 21 9 22 10 23 11
REMARK SMILES IDX 24 12 25 13 26 14 12 15 11 16 10 17 9 18 8 19 7 20 6 21 5 22
REMARK SMILES IDX 4 23 3 24 2 25 1 26
REMARK H PARENT
REMARK Flexibility Score: inf
ROOT
ATOM      1  C   UNL     1      90.106 326.539 200.683  1.00  0.00     0.000 C 
ENDROOT
BRANCH   1   2
ATOM      2  C   UNL     1      89.287 326.482 201.987  1.00  0.00     0.000 C 
BRANCH   2   3
ATOM      3  C   UNL     1      90.011 326.990 203.252  1.00  0.00     0.000 C 
BRANCH   3   4
ATOM      4  C   UNL     1      89.075 327.624 204.304  1.00  0.00     0.000 C 
BRANCH   4   5
ATOM      5  C   UNL     1      89.480 327.263 205.743  1.00  0.00     0.000 C 
BRANCH   5   6
ATOM      6  C   UNL     1      88.366 326.484 206.451  1.00  0.00     0.000 C 
BRANCH   6   7
ATOM      7  C   UNL     1      88.345 325.020 205.995  1.00  0.00     0.000 C 
BRANCH   7   8
ATOM      8  C   UNL     1      86.948 324.613 205.513  1.00  0.00     0.000 C 
BRANCH   8   9
ATOM      9  C   UNL     1      87.036 323.607 204.355  1.00  0.00     0.000 C 
BRANCH   9  10
ATOM     10  C   UNL     1      86.537 324.192 203.025  1.00  0.00     0.006 C 
BRANCH  10  11
ATOM     11  C   UNL     1      86.479 323.149 201.901  1.00  0.00     0.053 C 
BRANCH  11  12
ATOM     12  C   UNL     1      87.732 322.327 201.852  1.00  0.00     0.041 C 
ATOM     13  O   UNL     1      87.669 321.068 201.840  1.00  0.00    -0.550 OA
ATOM     14  O   UNL     1      88.969 322.952 201.770  1.00  0.00    -0.550 OA
ENDBRANCH  11  12
ENDBRANCH  10  11
ENDBRANCH   9  10
ENDBRANCH   8   9
ENDBRANCH   7   8
ENDBRANCH   6   7
ENDBRANCH   5   6
ENDBRANCH   4   5
ENDBRANCH   3   4
ENDBRANCH   2   3
ENDBRANCH   1   2
BRANCH   1  15
ATOM     15  C   UNL     1      89.261 326.501 199.395  1.00  0.00     0.000 C 
BRANCH  15  16
ATOM     16  C   UNL     1      89.226 325.100 198.757  1.00  0.00     0.000 C 
BRANCH  16  17
ATOM     17  C   UNL     1      88.859 325.117 197.260  1.00  0.00     0.000 C 
BRANCH  17  18
ATOM     18  C   UNL     1      88.413 326.489 196.710  1.00  0.00    -0.000 C 
BRANCH  18  19
ATOM     19  C   UNL     1      87.298 326.471 195.647  1.00  0.00    -0.000 C 
BRANCH  19  20
ATOM     20  C   UNL     1      87.746 326.807 194.214  1.00  0.00    -0.000 C 
BRANCH  20  21
ATOM     21  C   UNL     1      87.494 325.662 193.220  1.00  0.00    -0.000 C 
BRANCH  21  22
ATOM     22  C   UNL     1      88.396 324.457 193.532  1.00  0.00    -0.000 C 
BRANCH  22  23
ATOM     23  C   UNL     1      88.624 323.547 192.313  1.00  0.00    -0.000 C 
BRANCH  23  24
ATOM     24  C   UNL     1      88.591 324.324 190.984  1.00  0.00    -0.000 C 
BRANCH  24  25
ATOM     25  C   UNL     1      88.240 323.427 189.790  1.00  0.00    -0.003 C 
ATOM     26  C   UNL     1      87.014 322.550 190.045  1.00  0.00     0.004 C 
ENDBRANCH  24  25
ENDBRANCH  23  24
ENDBRANCH  22  23
ENDBRANCH  21  22
ENDBRANCH  20  21
ENDBRANCH  19  20
ENDBRANCH  18  19
ENDBRANCH  17  18
ENDBRANCH  16  17
ENDBRANCH  15  16
ENDBRANCH   1  15
TORSDOF 22
ENDMDL
MODEL 8
REMARK VINA RESULT:    -5.849      1.198      3.242
REMARK INTER + INTRA:         -15.647
REMARK INTER:                 -13.607
REMARK INTRA:                  -2.041
REMARK UNBOUND:                -2.275
REMARK SMILES CCCCCCCCCCCCCCCCCCCCCCCC(=O)[O-]
REMARK SMILES IDX 13 1 14 2 15 3 16 4 17 5 18 6 19 7 20 8 21 9 22 10 23 11
REMARK SMILES IDX 24 12 25 13 26 14 12 15 11 16 10 17 9 18 8 19 7 20 6 21 5 22
REMARK SMILES IDX 4 23 3 24 2 25 1 26
REMARK H PARENT
REMARK Flexibility Score: inf
ROOT
ATOM      1  C   UNL     1      89.245 324.967 198.502  1.00  0.00     0.000 C 
ENDROOT
BRANCH   1   2
ATOM      2  C   UNL     1      88.887 325.029 197.004  1.00  0.00     0.000 C 
BRANCH   2   3
ATOM      3  C   UNL     1      88.472 326.417 196.474  1.00  0.00     0.000 C 
BRANCH   3   4
ATOM      4  C   UNL     1      87.000 326.507 196.019  1.00  0.00     0.000 C 
BRANCH   4   5
ATOM      5  C   UNL     1      86.864 326.934 194.547  1.00  0.00     0.000 C 
BRANCH   5   6
ATOM      6  C   UNL     1      86.704 325.716 193.631  1.00  0.00     0.000 C 
BRANCH   6   7
ATOM      7  C   UNL     1      88.022 325.390 192.917  1.00  0.00     0.000 C 
BRANCH   7   8
ATOM      8  C   UNL     1      88.458 323.948 193.199  1.00  0.00     0.000 C 
BRANCH   8   9
ATOM      9  C   UNL     1      88.836 323.223 191.898  1.00  0.00     0.000 C 
BRANCH   9  10
ATOM     10  C   UNL     1      88.542 324.065 190.646  1.00  0.00     0.006 C 
BRANCH  10  11
ATOM     11  C   UNL     1      88.143 323.212 189.436  1.00  0.00     0.053 C 
BRANCH  11  12
ATOM     12  C   UNL     1      89.349 322.703 188.704  1.00  0.00     0.041 C 
ATOM     13  O   UNL     1      89.391 321.512 188.295  1.00  0.00    -0.550 OA
ATOM     14  O   UNL     1      90.406 323.560 188.429  1.00  0.00    -0.550 OA
ENDBRANCH  11  12
ENDBRANCH  10  11
ENDBRANCH   9  10
ENDBRANCH   8   9
ENDBRANCH   7   8
ENDBRANCH   6   7
ENDBRANCH   5   6
ENDBRANCH   4   5
ENDBRANCH   3   4
ENDBRANCH   2   3
ENDBRANCH   1   2
BRANCH   1  15
ATOM     15  C   UNL     1      89.269 326.334 199.211  1.00  0.00     0.000 C 
BRANCH  15  16
ATOM     16  C   UNL     1      89.426 326.200 200.736  1.00  0.00     0.000 C 
BRANCH  16  17
ATOM     17  C   UNL     1      88.137 325.743 201.448  1.00  0.00     0.000 C 
BRANCH  17  18
ATOM     18  C   UNL     1      88.130 324.269 201.908  1.00  0.00    -0.000 C 
BRANCH  18  19
ATOM     19  C   UNL     1      86.865 323.787 202.644  1.00  0.00    -0.000 C 
BRANCH  19  20
ATOM     20  C   UNL     1      87.058 322.562 203.554  1.00  0.00    -0.000 C 
BRANCH  20  21
ATOM     21  C   UNL     1      86.671 322.831 205.017  1.00  0.00    -0.000 C 
BRANCH  21  22
ATOM     22  C   UNL     1      86.784 324.328 205.347  1.00  0.00    -0.000 C 
BRANCH  22  23
ATOM     23  C   UNL     1      88.125 324.698 206.002  1.00  0.00    -0.000 C 
BRANCH  23  24
ATOM     24  C   UNL     1      88.428 326.206 205.915  1.00  0.00    -0.000 C 
BRANCH  24  25
ATOM     25  C   UNL     1      89.469 326.533 204.838  1.00  0.00    -0.003 C 
ATOM     26  C   UNL     1      89.197 327.862 204.131  1.00  0.00     0.004 C 
ENDBRANCH  24  25
ENDBRANCH  23  24
ENDBRANCH  22  23
ENDBRANCH  21  22
ENDBRANCH  20  21
ENDBRANCH  19  20
ENDBRANCH  18  19
ENDBRANCH  17  18
ENDBRANCH  16  17
ENDBRANCH  15  16
ENDBRANCH   1  15
TORSDOF 22
ENDMDL
MODEL 9
REMARK VINA RESULT:    -5.802      3.595     10.156
REMARK INTER + INTRA:         -15.540
REMARK INTER:                 -13.302
REMARK INTRA:                  -2.238
REMARK UNBOUND:                -2.275
REMARK SMILES CCCCCCCCCCCCCCCCCCCCCCCC(=O)[O-]
REMARK SMILES IDX 13 1 14 2 15 3 16 4 17 5 18 6 19 7 20 8 21 9 22 10 23 11
REMARK SMILES IDX 24 12 25 13 26 14 12 15 11 16 10 17 9 18 8 19 7 20 6 21 5 22
REMARK SMILES IDX 4 23 3 24 2 25 1 26
REMARK H PARENT
REMARK Flexibility Score: inf
ROOT
ATOM      1  C   UNL     1      88.781 324.632 201.179  1.00  0.00     0.000 C 
ENDROOT
BRANCH   1   2
ATOM      2  C   UNL     1      87.490 324.306 201.956  1.00  0.00     0.000 C 
BRANCH   2   3
ATOM      3  C   UNL     1      87.692 323.728 203.372  1.00  0.00     0.000 C 
BRANCH   3   4
ATOM      4  C   UNL     1      86.570 324.092 204.369  1.00  0.00     0.000 C 
BRANCH   4   5
ATOM      5  C   UNL     1      87.120 324.549 205.731  1.00  0.00     0.000 C 
BRANCH   5   6
ATOM      6  C   UNL     1      88.601 324.183 205.880  1.00  0.00     0.000 C 
BRANCH   6   7
ATOM      7  C   UNL     1      89.427 325.403 206.306  1.00  0.00     0.000 C 
BRANCH   7   8
ATOM      8  C   UNL     1      88.656 326.704 206.058  1.00  0.00     0.000 C 
BRANCH   8   9
ATOM      9  C   UNL     1      89.157 327.407 204.787  1.00  0.00     0.000 C 
BRANCH   9  10
ATOM     10  C   UNL     1      90.344 326.677 204.138  1.00  0.00     0.006 C 
BRANCH  10  11
ATOM     11  C   UNL     1      91.170 327.586 203.219  1.00  0.00     0.053 C 
BRANCH  11  12
ATOM     12  C   UNL     1      92.276 326.827 202.549  1.00  0.00     0.041 C 
ATOM     13  O   UNL     1      92.170 325.586 202.353  1.00  0.00    -0.550 OA
ATOM     14  O   UNL     1      93.403 327.499 202.096  1.00  0.00    -0.550 OA
ENDBRANCH  11  12
ENDBRANCH  10  11
ENDBRANCH   9  10
ENDBRANCH   8   9
ENDBRANCH   7   8
ENDBRANCH   6   7
ENDBRANCH   5   6
ENDBRANCH   4   5
ENDBRANCH   3   4
ENDBRANCH   2   3
ENDBRANCH   1   2
BRANCH   1  15
ATOM     15  C   UNL     1      88.931 326.112 200.779  1.00  0.00     0.000 C 
BRANCH  15  16
ATOM     16  C   UNL     1      89.261 326.285 199.285  1.00  0.00     0.000 C 
BRANCH  16  17
ATOM     17  C   UNL     1      89.193 324.968 198.486  1.00  0.00     0.000 C 
BRANCH  17  18
ATOM     18  C   UNL     1      88.681 325.108 197.036  1.00  0.00    -0.000 C 
BRANCH  18  19
ATOM     19  C   UNL     1      88.576 326.542 196.482  1.00  0.00    -0.000 C 
BRANCH  19  20
ATOM     20  C   UNL     1      88.245 326.648 194.984  1.00  0.00    -0.000 C 
BRANCH  20  21
ATOM     21  C   UNL     1      86.801 326.238 194.655  1.00  0.00    -0.000 C 
BRANCH  21  22
ATOM     22  C   UNL     1      86.741 325.457 193.333  1.00  0.00    -0.000 C 
BRANCH  22  23
ATOM     23  C   UNL     1      88.110 325.340 192.642  1.00  0.00    -0.000 C 
BRANCH  23  24
ATOM     24  C   UNL     1      88.433 323.897 192.213  1.00  0.00    -0.000 C 
BRANCH  24  25
ATOM     25  C   UNL     1      88.027 323.614 190.761  1.00  0.00    -0.003 C 
ATOM     26  C   UNL     1      89.130 323.951 189.757  1.00  0.00     0.004 C 
ENDBRANCH  24  25
ENDBRANCH  23  24
ENDBRANCH  22  23
ENDBRANCH  21  22
ENDBRANCH  20  21
ENDBRANCH  19  20
ENDBRANCH  18  19
ENDBRANCH  17  18
ENDBRANCH  16  17
ENDBRANCH  15  16
ENDBRANCH   1  15
TORSDOF 22
ENDMDL
