MODEL 1
REMARK VINA RESULT:    -5.972      0.000      0.000
REMARK INTER + INTRA:          -8.933
REMARK INTER:                  -8.067
REMARK INTRA:                  -0.866
REMARK UNBOUND:                -0.866
REMARK SMILES CC(=O)CCC=C(C)CCC=C(C)C
REMARK SMILES IDX 7 1 6 2 8 3 9 4 10 5 11 6 13 7 12 8 14 9 5 10 4 11 2 12 3 13
REMARK SMILES IDX 1 14
REMARK H PARENT
REMARK Flexibility Score: inf
ROOT
ATOM      1  C   UNL     1     -10.233  74.616  31.817  1.00  0.00    -0.077 C 
ATOM      2  C   UNL     1     -10.428  73.396  32.369  1.00  0.00    -0.028 C 
ATOM      3  C   UNL     1     -10.969  75.840  32.307  1.00  0.00     0.039 C 
ENDROOT
BRANCH   1   4
ATOM      4  C   UNL     1      -9.229  74.759  30.693  1.00  0.00     0.034 C 
BRANCH   4   5
ATOM      5  C   UNL     1      -9.481  73.711  29.603  1.00  0.00     0.032 C 
BRANCH   5   6
ATOM      6  C   UNL     1     -10.717  74.052  28.810  1.00  0.00    -0.028 C 
ATOM      7  C   UNL     1     -12.925  73.687  27.793  1.00  0.00     0.039 C 
ATOM      8  C   UNL     1     -11.772  73.224  28.647  1.00  0.00    -0.080 C 
ATOM      9  C   UNL     1     -11.834  71.866  29.307  1.00  0.00     0.039 C 
ENDBRANCH   5   6
ENDBRANCH   4   5
ENDBRANCH   1   4
BRANCH   2  10
ATOM     10  C   UNL     1     -11.426  73.104  33.461  1.00  0.00     0.035 C 
BRANCH  10  11
ATOM     11  C   UNL     1     -10.836  72.129  34.484  1.00  0.00     0.079 C 
BRANCH  11  12
ATOM     12  C   UNL     1     -11.011  72.656  35.885  1.00  0.00     0.130 C 
ATOM     13  O   UNL     1     -10.678  73.803  36.140  1.00  0.00    -0.300 OA
ATOM     14  C   UNL     1     -11.598  71.807  36.972  1.00  0.00     0.087 C 
ENDBRANCH  11  12
ENDBRANCH  10  11
ENDBRANCH   2  10
TORSDOF 6
ENDMDL
MODEL 2
REMARK VINA RESULT:    -5.919      3.853      7.179
REMARK INTER + INTRA:          -8.861
REMARK INTER:                  -7.844
REMARK INTRA:                  -1.017
REMARK UNBOUND:                -0.866
REMARK SMILES CC(=O)CCC=C(C)CCC=C(C)C
REMARK SMILES IDX 7 1 6 2 8 3 9 4 10 5 11 6 13 7 12 8 14 9 5 10 4 11 2 12 3 13
REMARK SMILES IDX 1 14
REMARK H PARENT
REMARK Flexibility Score: inf
ROOT
ATOM      1  C   UNL     1     -11.091  72.923  28.447  1.00  0.00    -0.077 C 
ATOM      2  C   UNL     1      -9.786  72.914  28.092  1.00  0.00    -0.028 C 
ATOM      3  C   UNL     1     -12.105  73.789  27.736  1.00  0.00     0.039 C 
ENDROOT
BRANCH   1   4
ATOM      4  C   UNL     1     -11.551  72.020  29.571  1.00  0.00     0.034 C 
BRANCH   4   5
ATOM      5  C   UNL     1     -10.748  72.291  30.848  1.00  0.00     0.032 C 
BRANCH   5   6
ATOM      6  C   UNL     1     -11.212  73.564  31.511  1.00  0.00    -0.028 C 
ATOM      7  C   UNL     1     -11.057  75.880  32.319  1.00  0.00     0.039 C 
ATOM      8  C   UNL     1     -10.477  74.695  31.591  1.00  0.00    -0.080 C 
ATOM      9  C   UNL     1      -9.108  74.806  30.961  1.00  0.00     0.039 C 
ENDBRANCH   5   6
ENDBRANCH   4   5
ENDBRANCH   1   4
BRANCH   2  10
ATOM     10  C   UNL     1      -9.187  73.793  27.023  1.00  0.00     0.035 C 
BRANCH  10  11
ATOM     11  C   UNL     1      -9.073  73.031  25.699  1.00  0.00     0.079 C 
BRANCH  11  12
ATOM     12  C   UNL     1      -9.906  73.693  24.631  1.00  0.00     0.130 C 
ATOM     13  O   UNL     1     -10.144  74.889  24.712  1.00  0.00    -0.300 OA
ATOM     14  C   UNL     1     -10.438  72.919  23.463  1.00  0.00     0.087 C 
ENDBRANCH  11  12
ENDBRANCH  10  11
ENDBRANCH   2  10
TORSDOF 6
ENDMDL
MODEL 3
REMARK VINA RESULT:    -5.890      2.000      2.407
REMARK INTER + INTRA:          -8.822
REMARK INTER:                  -8.350
REMARK INTRA:                  -0.472
REMARK UNBOUND:                -0.866
REMARK SMILES CC(=O)CCC=C(C)CCC=C(C)C
REMARK SMILES IDX 7 1 6 2 8 3 9 4 10 5 11 6 13 7 12 8 14 9 5 10 4 11 2 12 3 13
REMARK SMILES IDX 1 14
REMARK H PARENT
REMARK Flexibility Score: inf
ROOT
ATOM      1  C   UNL     1     -11.041  73.895  30.737  1.00  0.00    -0.077 C 
ATOM      2  C   UNL     1     -11.575  72.881  31.457  1.00  0.00    -0.028 C 
ATOM      3  C   UNL     1     -10.378  75.080  31.399  1.00  0.00     0.039 C 
ENDROOT
BRANCH   1   4
ATOM      4  C   UNL     1     -11.090  73.824  29.226  1.00  0.00     0.034 C 
BRANCH   4   5
ATOM      5  C   UNL     1      -9.923  74.601  28.608  1.00  0.00     0.032 C 
BRANCH   5   6
ATOM      6  C   UNL     1     -10.183  74.888  27.151  1.00  0.00    -0.028 C 
ATOM      7  C   UNL     1      -9.968  74.614  24.718  1.00  0.00     0.039 C 
ATOM      8  C   UNL     1      -9.647  74.187  26.127  1.00  0.00    -0.080 C 
ATOM      9  C   UNL     1      -8.756  72.989  26.358  1.00  0.00     0.039 C 
ENDBRANCH   5   6
ENDBRANCH   4   5
ENDBRANCH   1   4
BRANCH   2  10
ATOM     10  C   UNL     1     -11.634  72.844  32.964  1.00  0.00     0.035 C 
BRANCH  10  11
ATOM     11  C   UNL     1     -10.491  71.993  33.528  1.00  0.00     0.079 C 
BRANCH  11  12
ATOM     12  C   UNL     1     -10.429  72.113  35.028  1.00  0.00     0.130 C 
ATOM     13  O   UNL     1      -9.540  71.539  35.640  1.00  0.00    -0.300 OA
ATOM     14  C   UNL     1     -11.426  72.934  35.790  1.00  0.00     0.087 C 
ENDBRANCH  11  12
ENDBRANCH  10  11
ENDBRANCH   2  10
TORSDOF 6
ENDMDL
MODEL 4
REMARK VINA RESULT:    -5.747      1.659      2.833
REMARK INTER + INTRA:          -8.629
REMARK INTER:                  -7.920
REMARK INTRA:                  -0.709
REMARK UNBOUND:                -0.866
REMARK SMILES CC(=O)CCC=C(C)CCC=C(C)C
REMARK SMILES IDX 7 1 6 2 8 3 9 4 10 5 11 6 13 7 12 8 14 9 5 10 4 11 2 12 3 13
REMARK SMILES IDX 1 14
REMARK H PARENT
REMARK Flexibility Score: inf
ROOT
ATOM      1  C   UNL     1     -10.857  72.134  30.231  1.00  0.00    -0.077 C 
ATOM      2  C   UNL     1     -11.427  72.358  31.437  1.00  0.00    -0.028 C 
ATOM      3  C   UNL     1      -9.365  71.962  30.073  1.00  0.00     0.039 C 
ENDROOT
BRANCH   1   4
ATOM      4  C   UNL     1     -11.746  72.027  29.010  1.00  0.00     0.034 C 
BRANCH   4   5
ATOM      5  C   UNL     1     -12.121  73.418  28.488  1.00  0.00     0.032 C 
BRANCH   5   6
ATOM      6  C   UNL     1     -11.543  73.648  27.114  1.00  0.00    -0.028 C 
ATOM      7  C   UNL     1      -9.979  74.532  25.438  1.00  0.00     0.039 C 
ATOM      8  C   UNL     1     -10.416  74.353  26.869  1.00  0.00    -0.080 C 
ATOM      9  C   UNL     1      -9.583  74.944  27.982  1.00  0.00     0.039 C 
ENDBRANCH   5   6
ENDBRANCH   4   5
ENDBRANCH   1   4
BRANCH   2  10
ATOM     10  C   UNL     1     -10.660  72.530  32.724  1.00  0.00     0.035 C 
BRANCH  10  11
ATOM     11  C   UNL     1     -11.539  73.186  33.793  1.00  0.00     0.079 C 
BRANCH  11  12
ATOM     12  C   UNL     1     -11.127  72.736  35.171  1.00  0.00     0.130 C 
ATOM     13  O   UNL     1     -11.837  73.005  36.127  1.00  0.00    -0.300 OA
ATOM     14  C   UNL     1      -9.867  71.953  35.394  1.00  0.00     0.087 C 
ENDBRANCH  11  12
ENDBRANCH  10  11
ENDBRANCH   2  10
TORSDOF 6
ENDMDL
MODEL 5
REMARK VINA RESULT:    -5.641      3.684      7.160
REMARK INTER + INTRA:          -8.485
REMARK INTER:                  -8.025
REMARK INTRA:                  -0.460
REMARK UNBOUND:                -0.866
REMARK SMILES CC(=O)CCC=C(C)CCC=C(C)C
REMARK SMILES IDX 7 1 6 2 8 3 9 4 10 5 11 6 13 7 12 8 14 9 5 10 4 11 2 12 3 13
REMARK SMILES IDX 1 14
REMARK H PARENT
REMARK Flexibility Score: inf
ROOT
ATOM      1  C   UNL     1     -10.817  74.058  29.484  1.00  0.00    -0.077 C 
ATOM      2  C   UNL     1      -9.801  74.576  28.756  1.00  0.00    -0.028 C 
ATOM      3  C   UNL     1     -12.034  73.445  28.830  1.00  0.00     0.039 C 
ENDROOT
BRANCH   1   4
ATOM      4  C   UNL     1     -10.718  74.071  30.994  1.00  0.00     0.034 C 
BRANCH   4   5
ATOM      5  C   UNL     1     -11.594  72.972  31.605  1.00  0.00     0.032 C 
BRANCH   5   6
ATOM      6  C   UNL     1     -11.840  73.237  33.069  1.00  0.00    -0.028 C 
ATOM      7  C   UNL     1     -11.590  72.935  35.495  1.00  0.00     0.039 C 
ATOM      8  C   UNL     1     -11.214  72.591  34.077  1.00  0.00    -0.080 C 
ATOM      9  C   UNL     1     -10.144  71.554  33.822  1.00  0.00     0.039 C 
ENDBRANCH   5   6
ENDBRANCH   4   5
ENDBRANCH   1   4
BRANCH   2  10
ATOM     10  C   UNL     1      -9.790  74.668  27.251  1.00  0.00     0.035 C 
BRANCH  10  11
ATOM     11  C   UNL     1      -9.045  73.476  26.643  1.00  0.00     0.079 C 
BRANCH  11  12
ATOM     12  C   UNL     1      -9.442  73.278  25.203  1.00  0.00     0.130 C 
ATOM     13  O   UNL     1      -9.377  72.161  24.711  1.00  0.00    -0.300 OA
ATOM     14  C   UNL     1      -9.929  74.419  24.361  1.00  0.00     0.087 C 
ENDBRANCH  11  12
ENDBRANCH  10  11
ENDBRANCH   2  10
TORSDOF 6
ENDMDL
MODEL 6
REMARK VINA RESULT:    -5.615      4.711      8.082
REMARK INTER + INTRA:          -8.450
REMARK INTER:                  -7.723
REMARK INTRA:                  -0.728
REMARK UNBOUND:                -0.866
REMARK SMILES CC(=O)CCC=C(C)CCC=C(C)C
REMARK SMILES IDX 7 1 6 2 8 3 9 4 10 5 11 6 13 7 12 8 14 9 5 10 4 11 2 12 3 13
REMARK SMILES IDX 1 14
REMARK H PARENT
REMARK Flexibility Score: inf
ROOT
ATOM      1  C   UNL     1     -10.853  74.040  27.521  1.00  0.00    -0.077 C 
ATOM      2  C   UNL     1     -10.837  73.872  26.179  1.00  0.00    -0.028 C 
ATOM      3  C   UNL     1      -9.746  74.767  28.247  1.00  0.00     0.039 C 
ENDROOT
BRANCH   1   4
ATOM      4  C   UNL     1     -12.027  73.505  28.312  1.00  0.00     0.034 C 
BRANCH   4   5
ATOM      5  C   UNL     1     -11.700  72.131  28.907  1.00  0.00     0.032 C 
BRANCH   5   6
ATOM      6  C   UNL     1     -11.575  72.215  30.408  1.00  0.00    -0.028 C 
ATOM      7  C   UNL     1     -10.447  72.158  32.590  1.00  0.00     0.039 C 
ATOM      8  C   UNL     1     -10.413  72.090  31.085  1.00  0.00    -0.080 C 
ATOM      9  C   UNL     1      -9.090  71.904  30.379  1.00  0.00     0.039 C 
ENDBRANCH   5   6
ENDBRANCH   4   5
ENDBRANCH   1   4
BRANCH   2  10
ATOM     10  C   UNL     1      -9.713  74.315  25.277  1.00  0.00     0.035 C 
BRANCH  10  11
ATOM     11  C   UNL     1      -9.339  73.201  24.294  1.00  0.00     0.079 C 
BRANCH  11  12
ATOM     12  C   UNL     1     -10.136  73.325  23.021  1.00  0.00     0.130 C 
ATOM     13  O   UNL     1     -11.172  72.689  22.898  1.00  0.00    -0.300 OA
ATOM     14  C   UNL     1      -9.693  74.222  21.904  1.00  0.00     0.087 C 
ENDBRANCH  11  12
ENDBRANCH  10  11
ENDBRANCH   2  10
TORSDOF 6
ENDMDL
MODEL 7
REMARK VINA RESULT:    -5.609      4.980      6.770
REMARK INTER + INTRA:          -8.443
REMARK INTER:                  -7.659
REMARK INTRA:                  -0.784
REMARK UNBOUND:                -0.866
REMARK SMILES CC(=O)CCC=C(C)CCC=C(C)C
REMARK SMILES IDX 7 1 6 2 8 3 9 4 10 5 11 6 13 7 12 8 14 9 5 10 4 11 2 12 3 13
REMARK SMILES IDX 1 14
REMARK H PARENT
REMARK Flexibility Score: inf
ROOT
ATOM      1  C   UNL     1      -9.701  74.197  26.074  1.00  0.00    -0.077 C 
ATOM      2  C   UNL     1     -10.198  74.900  27.117  1.00  0.00    -0.028 C 
ATOM      3  C   UNL     1      -8.791  73.008  26.276  1.00  0.00     0.039 C 
ENDROOT
BRANCH   1   4
ATOM      4  C   UNL     1     -10.089  74.598  24.668  1.00  0.00     0.034 C 
BRANCH   4   5
ATOM      5  C   UNL     1     -10.048  73.389  23.727  1.00  0.00     0.032 C 
BRANCH   5   6
ATOM      6  C   UNL     1      -9.796  73.826  22.306  1.00  0.00    -0.028 C 
ATOM      7  C   UNL     1      -8.471  74.472  20.339  1.00  0.00     0.039 C 
ATOM      8  C   UNL     1      -8.569  73.993  21.765  1.00  0.00    -0.080 C 
ATOM      9  C   UNL     1      -7.306  73.697  22.539  1.00  0.00     0.039 C 
ENDBRANCH   5   6
ENDBRANCH   4   5
ENDBRANCH   1   4
BRANCH   2  10
ATOM     10  C   UNL     1      -9.859  74.637  28.563  1.00  0.00     0.035 C 
BRANCH  10  11
ATOM     11  C   UNL     1     -11.034  73.965  29.279  1.00  0.00     0.079 C 
BRANCH  11  12
ATOM     12  C   UNL     1     -10.788  72.486  29.431  1.00  0.00     0.130 C 
ATOM     13  O   UNL     1     -11.699  71.701  29.212  1.00  0.00    -0.300 OA
ATOM     14  C   UNL     1      -9.446  71.953  29.835  1.00  0.00     0.087 C 
ENDBRANCH  11  12
ENDBRANCH  10  11
ENDBRANCH   2  10
TORSDOF 6
ENDMDL
MODEL 8
REMARK VINA RESULT:    -5.602      2.356      6.585
REMARK INTER + INTRA:          -8.434
REMARK INTER:                  -7.812
REMARK INTRA:                  -0.622
REMARK UNBOUND:                -0.866
REMARK SMILES CC(=O)CCC=C(C)CCC=C(C)C
REMARK SMILES IDX 7 1 6 2 8 3 9 4 10 5 11 6 13 7 12 8 14 9 5 10 4 11 2 12 3 13
REMARK SMILES IDX 1 14
REMARK H PARENT
REMARK Flexibility Score: inf
ROOT
ATOM      1  C   UNL     1     -10.780  73.445  32.270  1.00  0.00    -0.077 C 
ATOM      2  C   UNL     1     -10.219  72.463  31.527  1.00  0.00    -0.028 C 
ATOM      3  C   UNL     1     -10.612  74.905  31.921  1.00  0.00     0.039 C 
ENDROOT
BRANCH   1   4
ATOM      4  C   UNL     1     -11.619  73.065  33.471  1.00  0.00     0.034 C 
BRANCH   4   5
ATOM      5  C   UNL     1     -10.729  72.720  34.669  1.00  0.00     0.032 C 
BRANCH   5   6
ATOM      6  C   UNL     1     -11.433  73.031  35.966  1.00  0.00    -0.028 C 
ATOM      7  C   UNL     1     -12.044  72.757  38.331  1.00  0.00     0.039 C 
ATOM      8  C   UNL     1     -11.239  72.357  37.121  1.00  0.00    -0.080 C 
ATOM      9  C   UNL     1     -10.233  71.235  37.234  1.00  0.00     0.039 C 
ENDBRANCH   5   6
ENDBRANCH   4   5
ENDBRANCH   1   4
BRANCH   2  10
ATOM     10  C   UNL     1      -9.325  72.701  30.336  1.00  0.00     0.035 C 
BRANCH  10  11
ATOM     11  C   UNL     1     -10.078  72.417  29.032  1.00  0.00     0.079 C 
BRANCH  11  12
ATOM     12  C   UNL     1     -10.702  73.678  28.492  1.00  0.00     0.130 C 
ATOM     13  O   UNL     1     -11.916  73.811  28.531  1.00  0.00    -0.300 OA
ATOM     14  C   UNL     1      -9.864  74.781  27.918  1.00  0.00     0.087 C 
ENDBRANCH  11  12
ENDBRANCH  10  11
ENDBRANCH   2  10
TORSDOF 6
ENDMDL
MODEL 9
REMARK VINA RESULT:    -5.591      2.655      3.974
REMARK INTER + INTRA:          -8.419
REMARK INTER:                  -7.655
REMARK INTRA:                  -0.764
REMARK UNBOUND:                -0.866
REMARK SMILES CC(=O)CCC=C(C)CCC=C(C)C
REMARK SMILES IDX 7 1 6 2 8 3 9 4 10 5 11 6 13 7 12 8 14 9 5 10 4 11 2 12 3 13
REMARK SMILES IDX 1 14
REMARK H PARENT
REMARK Flexibility Score: inf
ROOT
ATOM      1  C   UNL     1     -11.025  73.494  28.888  1.00  0.00    -0.077 C 
ATOM      2  C   UNL     1     -10.341  74.295  29.737  1.00  0.00    -0.028 C 
ATOM      3  C   UNL     1     -11.479  72.110  29.288  1.00  0.00     0.039 C 
ENDROOT
BRANCH   1   4
ATOM      4  C   UNL     1     -11.366  74.012  27.507  1.00  0.00     0.034 C 
BRANCH   4   5
ATOM      5  C   UNL     1     -10.175  74.759  26.898  1.00  0.00     0.032 C 
BRANCH   5   6
ATOM      6  C   UNL     1      -9.193  73.792  26.286  1.00  0.00    -0.028 C 
ATOM      7  C   UNL     1      -8.127  72.475  24.506  1.00  0.00     0.039 C 
ATOM      8  C   UNL     1      -9.138  73.491  24.969  1.00  0.00    -0.080 C 
ATOM      9  C   UNL     1     -10.043  74.155  23.958  1.00  0.00     0.039 C 
ENDBRANCH   5   6
ENDBRANCH   4   5
ENDBRANCH   1   4
BRANCH   2  10
ATOM     10  C   UNL     1      -9.898  73.890  31.120  1.00  0.00     0.035 C 
BRANCH  10  11
ATOM     11  C   UNL     1     -10.902  74.374  32.171  1.00  0.00     0.079 C 
BRANCH  11  12
ATOM     12  C   UNL     1     -11.420  73.217  32.986  1.00  0.00     0.130 C 
ATOM     13  O   UNL     1     -12.390  73.380  33.710  1.00  0.00    -0.300 OA
ATOM     14  C   UNL     1     -10.778  71.864  32.919  1.00  0.00     0.087 C 
ENDBRANCH  11  12
ENDBRANCH  10  11
ENDBRANCH   2  10
TORSDOF 6
ENDMDL
