MODEL 1
REMARK VINA RESULT:    -4.404      0.000      0.000
REMARK INTER + INTRA:          -9.569
REMARK INTER:                  -7.752
REMARK INTRA:                  -1.817
REMARK UNBOUND:                -1.817
REMARK SMILES CCCCCCCCCCCCCCC(=O)[O-]
REMARK SMILES IDX 9 1 10 2 11 3 12 4 13 5 14 6 15 7 16 8 17 9 8 10 7 11 6 12
REMARK SMILES IDX 5 13 4 14 3 15 2 16 1 17
REMARK H PARENT
REMARK Flexibility Score: inf
ROOT
ATOM      1  C   UNL     1       7.270  11.893   8.369  1.00  0.00     0.000 C 
ENDROOT
BRANCH   1   2
ATOM      2  C   UNL     1       6.228  12.467   9.340  1.00  0.00     0.000 C 
BRANCH   2   3
ATOM      3  C   UNL     1       4.926  12.893   8.640  1.00  0.00     0.000 C 
BRANCH   3   4
ATOM      4  C   UNL     1       3.649  12.762   9.496  1.00  0.00     0.000 C 
BRANCH   4   5
ATOM      5  C   UNL     1       2.740  11.574   9.136  1.00  0.00     0.006 C 
BRANCH   5   6
ATOM      6  C   UNL     1       3.176  10.266   9.808  1.00  0.00     0.053 C 
BRANCH   6   7
ATOM      7  C   UNL     1       3.924   9.405   8.840  1.00  0.00     0.041 C 
ATOM      8  O   UNL     1       3.350   8.967   7.808  1.00  0.00    -0.550 OA
ATOM      9  O   UNL     1       5.240   9.046   9.101  1.00  0.00    -0.550 OA
ENDBRANCH   6   7
ENDBRANCH   5   6
ENDBRANCH   4   5
ENDBRANCH   3   4
ENDBRANCH   2   3
ENDBRANCH   1   2
BRANCH   1  10
ATOM     10  C   UNL     1       8.561  12.725   8.393  1.00  0.00     0.000 C 
BRANCH  10  11
ATOM     11  C   UNL     1       9.499  12.398   7.221  1.00  0.00    -0.000 C 
BRANCH  11  12
ATOM     12  C   UNL     1       8.957  11.274   6.325  1.00  0.00    -0.000 C 
BRANCH  12  13
ATOM     13  C   UNL     1       8.684  11.791   4.903  1.00  0.00    -0.000 C 
BRANCH  13  14
ATOM     14  C   UNL     1       7.916  13.125   4.889  1.00  0.00    -0.000 C 
BRANCH  14  15
ATOM     15  C   UNL     1       6.380  12.994   4.852  1.00  0.00    -0.000 C 
BRANCH  15  16
ATOM     16  C   UNL     1       5.856  11.607   4.440  1.00  0.00    -0.003 C 
ATOM     17  C   UNL     1       5.011  10.943   5.526  1.00  0.00     0.004 C 
ENDBRANCH  15  16
ENDBRANCH  14  15
ENDBRANCH  13  14
ENDBRANCH  12  13
ENDBRANCH  11  12
ENDBRANCH  10  11
ENDBRANCH   1  10
TORSDOF 13
ENDMDL
MODEL 2
REMARK VINA RESULT:    -4.322      1.022      1.527
REMARK INTER + INTRA:          -9.423
REMARK INTER:                  -7.836
REMARK INTRA:                  -1.587
REMARK UNBOUND:                -1.817
REMARK SMILES CCCCCCCCCCCCCCC(=O)[O-]
REMARK SMILES IDX 9 1 10 2 11 3 12 4 13 5 14 6 15 7 16 8 17 9 8 10 7 11 6 12
REMARK SMILES IDX 5 13 4 14 3 15 2 16 1 17
REMARK H PARENT
REMARK Flexibility Score: inf
ROOT
ATOM      1  C   UNL     1       6.747  10.864   7.946  1.00  0.00     0.000 C 
ENDROOT
BRANCH   1   2
ATOM      2  C   UNL     1       6.117  12.253   8.121  1.00  0.00     0.000 C 
BRANCH   2   3
ATOM      3  C   UNL     1       5.314  12.388   9.427  1.00  0.00     0.000 C 
BRANCH   3   4
ATOM      4  C   UNL     1       3.887  12.950   9.264  1.00  0.00     0.000 C 
BRANCH   4   5
ATOM      5  C   UNL     1       2.755  11.940   9.520  1.00  0.00     0.006 C 
BRANCH   5   6
ATOM      6  C   UNL     1       3.272  10.520   9.787  1.00  0.00     0.053 C 
BRANCH   6   7
ATOM      7  C   UNL     1       3.333   9.739   8.513  1.00  0.00     0.041 C 
ATOM      8  O   UNL     1       3.978   8.659   8.463  1.00  0.00    -0.550 OA
ATOM      9  O   UNL     1       2.719  10.228   7.367  1.00  0.00    -0.550 OA
ENDBRANCH   6   7
ENDBRANCH   5   6
ENDBRANCH   4   5
ENDBRANCH   3   4
ENDBRANCH   2   3
ENDBRANCH   1   2
BRANCH   1  10
ATOM     10  C   UNL     1       8.233  10.978   7.570  1.00  0.00     0.000 C 
BRANCH  10  11
ATOM     11  C   UNL     1       8.800  12.384   7.818  1.00  0.00    -0.000 C 
BRANCH  11  12
ATOM     12  C   UNL     1      10.100  12.645   7.041  1.00  0.00    -0.000 C 
BRANCH  12  13
ATOM     13  C   UNL     1      10.059  11.969   5.662  1.00  0.00    -0.000 C 
BRANCH  13  14
ATOM     14  C   UNL     1       9.446  12.868   4.572  1.00  0.00    -0.000 C 
BRANCH  14  15
ATOM     15  C   UNL     1       8.265  12.246   3.801  1.00  0.00    -0.000 C 
BRANCH  15  16
ATOM     16  C   UNL     1       6.893  12.393   4.483  1.00  0.00    -0.003 C 
ATOM     17  C   UNL     1       6.008  11.159   4.310  1.00  0.00     0.004 C 
ENDBRANCH  15  16
ENDBRANCH  14  15
ENDBRANCH  13  14
ENDBRANCH  12  13
ENDBRANCH  11  12
ENDBRANCH  10  11
ENDBRANCH   1  10
TORSDOF 13
ENDMDL
MODEL 3
REMARK VINA RESULT:    -4.086      1.246      1.932
REMARK INTER + INTRA:          -9.008
REMARK INTER:                  -7.334
REMARK INTRA:                  -1.674
REMARK UNBOUND:                -1.817
REMARK SMILES CCCCCCCCCCCCCCC(=O)[O-]
REMARK SMILES IDX 9 1 10 2 11 3 12 4 13 5 14 6 15 7 16 8 17 9 8 10 7 11 6 12
REMARK SMILES IDX 5 13 4 14 3 15 2 16 1 17
REMARK H PARENT
REMARK Flexibility Score: inf
ROOT
ATOM      1  C   UNL     1       8.678  11.370   7.455  1.00  0.00     0.000 C 
ENDROOT
BRANCH   1   2
ATOM      2  C   UNL     1       8.177  12.728   7.966  1.00  0.00     0.000 C 
BRANCH   2   3
ATOM      3  C   UNL     1       7.014  12.601   8.965  1.00  0.00     0.000 C 
BRANCH   3   4
ATOM      4  C   UNL     1       5.653  13.117   8.455  1.00  0.00     0.000 C 
BRANCH   4   5
ATOM      5  C   UNL     1       4.422  12.427   9.069  1.00  0.00     0.006 C 
BRANCH   5   6
ATOM      6  C   UNL     1       4.740  11.040   9.642  1.00  0.00     0.053 C 
BRANCH   6   7
ATOM      7  C   UNL     1       3.554  10.138   9.516  1.00  0.00     0.041 C 
ATOM      8  O   UNL     1       2.508  10.372  10.176  1.00  0.00    -0.550 OA
ATOM      9  O   UNL     1       3.619   9.011   8.706  1.00  0.00    -0.550 OA
ENDBRANCH   6   7
ENDBRANCH   5   6
ENDBRANCH   4   5
ENDBRANCH   3   4
ENDBRANCH   2   3
ENDBRANCH   1   2
BRANCH   1  10
ATOM     10  C   UNL     1       9.879  11.546   6.513  1.00  0.00     0.000 C 
BRANCH  10  11
ATOM     11  C   UNL     1       9.991  12.973   5.957  1.00  0.00    -0.000 C 
BRANCH  11  12
ATOM     12  C   UNL     1       9.785  13.035   4.436  1.00  0.00    -0.000 C 
BRANCH  12  13
ATOM     13  C   UNL     1       8.290  13.125   4.089  1.00  0.00    -0.000 C 
BRANCH  13  14
ATOM     14  C   UNL     1       7.612  11.746   4.000  1.00  0.00    -0.000 C 
BRANCH  14  15
ATOM     15  C   UNL     1       6.110  11.733   4.347  1.00  0.00    -0.000 C 
BRANCH  15  16
ATOM     16  C   UNL     1       5.714  10.777   5.486  1.00  0.00    -0.003 C 
ATOM     17  C   UNL     1       4.225  10.839   5.823  1.00  0.00     0.004 C 
ENDBRANCH  15  16
ENDBRANCH  14  15
ENDBRANCH  13  14
ENDBRANCH  12  13
ENDBRANCH  11  12
ENDBRANCH  10  11
ENDBRANCH   1  10
TORSDOF 13
ENDMDL
MODEL 4
REMARK VINA RESULT:    -4.051      1.783      5.199
REMARK INTER + INTRA:          -8.946
REMARK INTER:                  -7.312
REMARK INTRA:                  -1.634
REMARK UNBOUND:                -1.817
REMARK SMILES CCCCCCCCCCCCCCC(=O)[O-]
REMARK SMILES IDX 9 1 10 2 11 3 12 4 13 5 14 6 15 7 16 8 17 9 8 10 7 11 6 12
REMARK SMILES IDX 5 13 4 14 3 15 2 16 1 17
REMARK H PARENT
REMARK Flexibility Score: inf
ROOT
ATOM      1  C   UNL     1       7.586  11.389   8.065  1.00  0.00     0.000 C 
ENDROOT
BRANCH   1   2
ATOM      2  C   UNL     1       8.925  11.632   7.355  1.00  0.00     0.000 C 
BRANCH   2   3
ATOM      3  C   UNL     1       8.917  12.895   6.476  1.00  0.00     0.000 C 
BRANCH   3   4
ATOM      4  C   UNL     1       9.333  12.673   5.007  1.00  0.00     0.000 C 
BRANCH   4   5
ATOM      5  C   UNL     1       8.173  12.654   3.996  1.00  0.00     0.006 C 
BRANCH   5   6
ATOM      6  C   UNL     1       6.795  12.676   4.671  1.00  0.00     0.053 C 
BRANCH   6   7
ATOM      7  C   UNL     1       6.192  11.308   4.669  1.00  0.00     0.041 C 
ATOM      8  O   UNL     1       4.940  11.167   4.657  1.00  0.00    -0.550 OA
ATOM      9  O   UNL     1       7.010  10.186   4.730  1.00  0.00    -0.550 OA
ENDBRANCH   6   7
ENDBRANCH   5   6
ENDBRANCH   4   5
ENDBRANCH   3   4
ENDBRANCH   2   3
ENDBRANCH   1   2
BRANCH   1  10
ATOM     10  C   UNL     1       7.083  12.672   8.744  1.00  0.00     0.000 C 
BRANCH  10  11
ATOM     11  C   UNL     1       5.778  12.456   9.525  1.00  0.00    -0.000 C 
BRANCH  11  12
ATOM     12  C   UNL     1       4.534  12.885   8.732  1.00  0.00    -0.000 C 
BRANCH  12  13
ATOM     13  C   UNL     1       3.249  12.421   9.435  1.00  0.00    -0.000 C 
BRANCH  13  14
ATOM     14  C   UNL     1       2.890  10.957   9.121  1.00  0.00    -0.000 C 
BRANCH  14  15
ATOM     15  C   UNL     1       3.225  10.496   7.688  1.00  0.00    -0.000 C 
BRANCH  15  16
ATOM     16  C   UNL     1       4.301   9.401   7.593  1.00  0.00    -0.003 C 
ATOM     17  C   UNL     1       4.878   9.013   8.954  1.00  0.00     0.004 C 
ENDBRANCH  15  16
ENDBRANCH  14  15
ENDBRANCH  13  14
ENDBRANCH  12  13
ENDBRANCH  11  12
ENDBRANCH  10  11
ENDBRANCH   1  10
TORSDOF 13
ENDMDL
MODEL 5
REMARK VINA RESULT:    -4.019      1.925      2.685
REMARK INTER + INTRA:          -8.890
REMARK INTER:                  -7.698
REMARK INTRA:                  -1.193
REMARK UNBOUND:                -1.817
REMARK SMILES CCCCCCCCCCCCCCC(=O)[O-]
REMARK SMILES IDX 9 1 10 2 11 3 12 4 13 5 14 6 15 7 16 8 17 9 8 10 7 11 6 12
REMARK SMILES IDX 5 13 4 14 3 15 2 16 1 17
REMARK H PARENT
REMARK Flexibility Score: inf
ROOT
ATOM      1  C   UNL     1       7.234  10.801   7.809  1.00  0.00     0.000 C 
ENDROOT
BRANCH   1   2
ATOM      2  C   UNL     1       5.788  10.335   7.593  1.00  0.00     0.000 C 
BRANCH   2   3
ATOM      3  C   UNL     1       5.255   9.476   8.752  1.00  0.00     0.000 C 
BRANCH   3   4
ATOM      4  C   UNL     1       3.722   9.493   8.931  1.00  0.00     0.000 C 
BRANCH   4   5
ATOM      5  C   UNL     1       3.008  10.713   8.323  1.00  0.00     0.006 C 
BRANCH   5   6
ATOM      6  C   UNL     1       2.868  11.876   9.313  1.00  0.00     0.053 C 
BRANCH   6   7
ATOM      7  C   UNL     1       1.508  11.869   9.936  1.00  0.00     0.041 C 
ATOM      8  O   UNL     1       0.690  12.792   9.682  1.00  0.00    -0.550 OA
ATOM      9  O   UNL     1       1.160  10.870  10.837  1.00  0.00    -0.550 OA
ENDBRANCH   6   7
ENDBRANCH   5   6
ENDBRANCH   4   5
ENDBRANCH   3   4
ENDBRANCH   2   3
ENDBRANCH   1   2
BRANCH   1  10
ATOM     10  C   UNL     1       7.276  12.256   8.301  1.00  0.00     0.000 C 
BRANCH  10  11
ATOM     11  C   UNL     1       8.313  13.106   7.552  1.00  0.00    -0.000 C 
BRANCH  11  12
ATOM     12  C   UNL     1       9.656  12.382   7.374  1.00  0.00    -0.000 C 
BRANCH  12  13
ATOM     13  C   UNL     1       9.772  11.778   5.966  1.00  0.00    -0.000 C 
BRANCH  13  14
ATOM     14  C   UNL     1       9.784  12.846   4.856  1.00  0.00    -0.000 C 
BRANCH  14  15
ATOM     15  C   UNL     1       8.506  12.907   3.996  1.00  0.00    -0.000 C 
BRANCH  15  16
ATOM     16  C   UNL     1       7.617  11.653   4.062  1.00  0.00    -0.003 C 
ATOM     17  C   UNL     1       6.163  11.972   4.404  1.00  0.00     0.004 C 
ENDBRANCH  15  16
ENDBRANCH  14  15
ENDBRANCH  13  14
ENDBRANCH  12  13
ENDBRANCH  11  12
ENDBRANCH  10  11
ENDBRANCH   1  10
TORSDOF 13
ENDMDL
MODEL 6
REMARK VINA RESULT:    -3.977      1.880      3.391
REMARK INTER + INTRA:          -8.817
REMARK INTER:                  -7.751
REMARK INTRA:                  -1.066
REMARK UNBOUND:                -1.817
REMARK SMILES CCCCCCCCCCCCCCC(=O)[O-]
REMARK SMILES IDX 9 1 10 2 11 3 12 4 13 5 14 6 15 7 16 8 17 9 8 10 7 11 6 12
REMARK SMILES IDX 5 13 4 14 3 15 2 16 1 17
REMARK H PARENT
REMARK Flexibility Score: inf
ROOT
ATOM      1  C   UNL     1       5.703  10.917   5.926  1.00  0.00     0.000 C 
ENDROOT
BRANCH   1   2
ATOM      2  C   UNL     1       4.342  10.532   6.522  1.00  0.00     0.000 C 
BRANCH   2   3
ATOM      3  C   UNL     1       4.445   9.428   7.589  1.00  0.00     0.000 C 
BRANCH   3   4
ATOM      4  C   UNL     1       3.660   9.698   8.889  1.00  0.00     0.000 C 
BRANCH   4   5
ATOM      5  C   UNL     1       4.093  10.955   9.664  1.00  0.00     0.006 C 
BRANCH   5   6
ATOM      6  C   UNL     1       3.143  12.141   9.455  1.00  0.00     0.053 C 
BRANCH   6   7
ATOM      7  C   UNL     1       1.750  11.770   9.852  1.00  0.00     0.041 C 
ATOM      8  O   UNL     1       0.766  12.389   9.367  1.00  0.00    -0.550 OA
ATOM      9  O   UNL     1       1.538  10.773  10.796  1.00  0.00    -0.550 OA
ENDBRANCH   6   7
ENDBRANCH   5   6
ENDBRANCH   4   5
ENDBRANCH   3   4
ENDBRANCH   2   3
ENDBRANCH   1   2
BRANCH   1  10
ATOM     10  C   UNL     1       6.008  12.404   6.166  1.00  0.00     0.000 C 
BRANCH  10  11
ATOM     11  C   UNL     1       6.858  12.638   7.424  1.00  0.00    -0.000 C 
BRANCH  11  12
ATOM     12  C   UNL     1       7.709  11.416   7.801  1.00  0.00    -0.000 C 
BRANCH  12  13
ATOM     13  C   UNL     1       8.847  11.207   6.790  1.00  0.00    -0.000 C 
BRANCH  13  14
ATOM     14  C   UNL     1       9.836  12.387   6.750  1.00  0.00    -0.000 C 
BRANCH  14  15
ATOM     15  C   UNL     1      10.077  12.990   5.351  1.00  0.00    -0.000 C 
BRANCH  15  16
ATOM     16  C   UNL     1       9.030  12.608   4.290  1.00  0.00    -0.003 C 
ATOM     17  C   UNL     1       9.418  13.060   2.882  1.00  0.00     0.004 C 
ENDBRANCH  15  16
ENDBRANCH  14  15
ENDBRANCH  13  14
ENDBRANCH  12  13
ENDBRANCH  11  12
ENDBRANCH  10  11
ENDBRANCH   1  10
TORSDOF 13
ENDMDL
MODEL 7
REMARK VINA RESULT:    -3.863      1.987      3.425
REMARK INTER + INTRA:          -8.615
REMARK INTER:                  -7.393
REMARK INTRA:                  -1.221
REMARK UNBOUND:                -1.817
REMARK SMILES CCCCCCCCCCCCCCC(=O)[O-]
REMARK SMILES IDX 9 1 10 2 11 3 12 4 13 5 14 6 15 7 16 8 17 9 8 10 7 11 6 12
REMARK SMILES IDX 5 13 4 14 3 15 2 16 1 17
REMARK H PARENT
REMARK Flexibility Score: inf
ROOT
ATOM      1  C   UNL     1       5.858  12.180   6.962  1.00  0.00     0.000 C 
ENDROOT
BRANCH   1   2
ATOM      2  C   UNL     1       5.432  11.856   8.401  1.00  0.00     0.000 C 
BRANCH   2   3
ATOM      3  C   UNL     1       5.608  10.371   8.758  1.00  0.00     0.000 C 
BRANCH   3   4
ATOM      4  C   UNL     1       4.332   9.660   9.257  1.00  0.00     0.000 C 
BRANCH   4   5
ATOM      5  C   UNL     1       3.470  10.478  10.234  1.00  0.00     0.006 C 
BRANCH   5   6
ATOM      6  C   UNL     1       2.055  10.742   9.702  1.00  0.00     0.053 C 
BRANCH   6   7
ATOM      7  C   UNL     1       1.776  12.211   9.667  1.00  0.00     0.041 C 
ATOM      8  O   UNL     1       0.589  12.629   9.613  1.00  0.00    -0.550 OA
ATOM      9  O   UNL     1       2.827  13.119   9.646  1.00  0.00    -0.550 OA
ENDBRANCH   6   7
ENDBRANCH   5   6
ENDBRANCH   4   5
ENDBRANCH   3   4
ENDBRANCH   2   3
ENDBRANCH   1   2
BRANCH   1  10
ATOM     10  C   UNL     1       5.434  11.063   5.998  1.00  0.00     0.000 C 
BRANCH  10  11
ATOM     11  C   UNL     1       5.609  11.455   4.523  1.00  0.00    -0.000 C 
BRANCH  11  12
ATOM     12  C   UNL     1       6.720  12.495   4.313  1.00  0.00    -0.000 C 
BRANCH  12  13
ATOM     13  C   UNL     1       8.037  11.816   3.906  1.00  0.00    -0.000 C 
BRANCH  13  14
ATOM     14  C   UNL     1       9.254  12.751   4.024  1.00  0.00    -0.000 C 
BRANCH  14  15
ATOM     15  C   UNL     1       9.653  13.125   5.466  1.00  0.00    -0.000 C 
BRANCH  15  16
ATOM     16  C   UNL     1       9.632  11.959   6.469  1.00  0.00    -0.003 C 
ATOM     17  C   UNL     1       9.295  12.404   7.892  1.00  0.00     0.004 C 
ENDBRANCH  15  16
ENDBRANCH  14  15
ENDBRANCH  13  14
ENDBRANCH  12  13
ENDBRANCH  11  12
ENDBRANCH  10  11
ENDBRANCH   1  10
TORSDOF 13
ENDMDL
MODEL 8
REMARK VINA RESULT:    -3.772      2.300      5.752
REMARK INTER + INTRA:          -8.455
REMARK INTER:                  -7.360
REMARK INTRA:                  -1.096
REMARK UNBOUND:                -1.817
REMARK SMILES CCCCCCCCCCCCCCC(=O)[O-]
REMARK SMILES IDX 9 1 10 2 11 3 12 4 13 5 14 6 15 7 16 8 17 9 8 10 7 11 6 12
REMARK SMILES IDX 5 13 4 14 3 15 2 16 1 17
REMARK H PARENT
REMARK Flexibility Score: inf
ROOT
ATOM      1  C   UNL     1       6.262  12.574   8.199  1.00  0.00     0.000 C 
ENDROOT
BRANCH   1   2
ATOM      2  C   UNL     1       7.691  13.006   8.557  1.00  0.00     0.000 C 
BRANCH   2   3
ATOM      3  C   UNL     1       8.649  12.966   7.354  1.00  0.00     0.000 C 
BRANCH   3   4
ATOM      4  C   UNL     1       9.175  11.564   6.981  1.00  0.00     0.000 C 
BRANCH   4   5
ATOM      5  C   UNL     1       8.530  10.935   5.734  1.00  0.00     0.006 C 
BRANCH   5   6
ATOM      6  C   UNL     1       8.150  11.975   4.671  1.00  0.00     0.053 C 
BRANCH   6   7
ATOM      7  C   UNL     1       6.667  12.009   4.481  1.00  0.00     0.041 C 
ATOM      8  O   UNL     1       6.015  13.047   4.768  1.00  0.00    -0.550 OA
ATOM      9  O   UNL     1       5.997  10.877   4.033  1.00  0.00    -0.550 OA
ENDBRANCH   6   7
ENDBRANCH   5   6
ENDBRANCH   4   5
ENDBRANCH   3   4
ENDBRANCH   2   3
ENDBRANCH   1   2
BRANCH   1  10
ATOM     10  C   UNL     1       5.946  11.186   8.778  1.00  0.00     0.000 C 
BRANCH  10  11
ATOM     11  C   UNL     1       5.487  10.187   7.705  1.00  0.00    -0.000 C 
BRANCH  11  12
ATOM     12  C   UNL     1       3.969  10.220   7.474  1.00  0.00    -0.000 C 
BRANCH  12  13
ATOM     13  C   UNL     1       3.285  11.182   8.459  1.00  0.00    -0.000 C 
BRANCH  13  14
ATOM     14  C   UNL     1       2.615  10.454   9.638  1.00  0.00    -0.000 C 
BRANCH  14  15
ATOM     15  C   UNL     1       1.513  11.256  10.359  1.00  0.00    -0.000 C 
BRANCH  15  16
ATOM     16  C   UNL     1       1.391  12.727   9.927  1.00  0.00    -0.003 C 
ATOM     17  C   UNL     1       0.068  13.034   9.226  1.00  0.00     0.004 C 
ENDBRANCH  15  16
ENDBRANCH  14  15
ENDBRANCH  13  14
ENDBRANCH  12  13
ENDBRANCH  11  12
ENDBRANCH  10  11
ENDBRANCH   1  10
TORSDOF 13
ENDMDL
