MODEL 1
REMARK VINA RESULT:    -4.663      0.000      0.000
REMARK INTER + INTRA:          -5.164
REMARK INTER:                  -5.071
REMARK INTRA:                  -0.092
REMARK UNBOUND:                -0.092
REMARK SMILES C=C(C)[C@H]1CC[C@@H](C)[C@@H](O)C1
REMARK SMILES IDX 8 1 7 2 6 3 5 4 4 5 11 6 9 7 10 8 2 10 1 11 3 12
REMARK H PARENT 10 9
REMARK Flexibility Score: inf
ROOT
ATOM      1  C   UNL     1     132.107 136.674 138.965  1.00  0.00     0.010 C 
ATOM      2  C   UNL     1     132.519 137.033 140.398  1.00  0.00     0.015 C 
ATOM      3  C   UNL     1     132.915 138.527 140.501  1.00  0.00     0.006 C 
ATOM      4  C   UNL     1     133.747 138.867 141.758  1.00  0.00     0.008 C 
ATOM      5  C   UNL     1     133.592 137.812 142.869  1.00  0.00     0.017 C 
ATOM      6  C   UNL     1     134.050 136.415 142.385  1.00  0.00     0.040 C 
ATOM      7  C   UNL     1     133.633 136.092 140.922  1.00  0.00     0.117 C 
ENDROOT
BRANCH   7   8
ATOM      8  O   UNL     1     134.750 136.091 140.066  1.00  0.00    -0.393 OA
ATOM      9  H   UNL     1     135.018 137.034 139.912  1.00  0.00     0.210 HD
ENDBRANCH   7   8
BRANCH   5  10
ATOM     10  C   UNL     1     134.317 138.229 144.143  1.00  0.00    -0.077 C 
ATOM     11  C   UNL     1     134.622 137.333 145.098  1.00  0.00     0.008 C 
ATOM     12  C   UNL     1     134.713 139.667 144.353  1.00  0.00     0.039 C 
ENDBRANCH   5  10
TORSDOF 2
ENDMDL
MODEL 2
REMARK VINA RESULT:    -4.415     14.751     15.804
REMARK INTER + INTRA:          -4.895
REMARK INTER:                  -4.807
REMARK INTRA:                  -0.088
REMARK UNBOUND:                -0.092
REMARK SMILES C=C(C)[C@H]1CC[C@@H](C)[C@@H](O)C1
REMARK SMILES IDX 8 1 7 2 6 3 5 4 4 5 11 6 9 7 10 8 2 10 1 11 3 12
REMARK H PARENT 10 9
REMARK Flexibility Score: inf
ROOT
ATOM      1  C   UNL     1     149.282 143.470 141.374  1.00  0.00     0.010 C 
ATOM      2  C   UNL     1     149.366 141.959 141.117  1.00  0.00     0.015 C 
ATOM      3  C   UNL     1     148.565 141.569 139.850  1.00  0.00     0.006 C 
ATOM      4  C   UNL     1     148.227 140.064 139.765  1.00  0.00     0.008 C 
ATOM      5  C   UNL     1     149.146 139.203 140.650  1.00  0.00     0.017 C 
ATOM      6  C   UNL     1     149.033 139.611 142.140  1.00  0.00     0.040 C 
ATOM      7  C   UNL     1     148.930 141.146 142.362  1.00  0.00     0.117 C 
ENDROOT
BRANCH   7   8
ATOM      8  O   UNL     1     147.638 141.509 142.787  1.00  0.00    -0.393 OA
ATOM      9  H   UNL     1     147.397 140.935 143.559  1.00  0.00     0.210 HD
ENDBRANCH   7   8
BRANCH   5  10
ATOM     10  C   UNL     1     148.880 137.715 140.455  1.00  0.00    -0.077 C 
ATOM     11  C   UNL     1     147.922 137.079 141.152  1.00  0.00     0.008 C 
ATOM     12  C   UNL     1     149.693 136.924 139.463  1.00  0.00     0.039 C 
ENDBRANCH   5  10
TORSDOF 2
ENDMDL
MODEL 3
REMARK VINA RESULT:    -4.329      1.356      1.883
REMARK INTER + INTRA:          -4.801
REMARK INTER:                  -4.713
REMARK INTRA:                  -0.088
REMARK UNBOUND:                -0.092
REMARK SMILES C=C(C)[C@H]1CC[C@@H](C)[C@@H](O)C1
REMARK SMILES IDX 8 1 7 2 6 3 5 4 4 5 11 6 9 7 10 8 2 10 1 11 3 12
REMARK H PARENT 10 9
REMARK Flexibility Score: inf
ROOT
ATOM      1  C   UNL     1     132.592 138.123 140.397  1.00  0.00     0.010 C 
ATOM      2  C   UNL     1     133.319 137.881 141.726  1.00  0.00     0.015 C 
ATOM      3  C   UNL     1     133.914 139.200 142.278  1.00  0.00     0.006 C 
ATOM      4  C   UNL     1     135.012 138.991 143.345  1.00  0.00     0.008 C 
ATOM      5  C   UNL     1     134.944 137.597 143.993  1.00  0.00     0.017 C 
ATOM      6  C   UNL     1     135.117 136.477 142.937  1.00  0.00     0.040 C 
ATOM      7  C   UNL     1     134.385 136.764 141.597  1.00  0.00     0.117 C 
ENDROOT
BRANCH   7   8
ATOM      8  O   UNL     1     135.303 137.047 140.569  1.00  0.00    -0.393 OA
ATOM      9  H   UNL     1     135.930 137.741 140.901  1.00  0.00     0.210 HD
ENDBRANCH   7   8
BRANCH   5  10
ATOM     10  C   UNL     1     135.951 137.456 145.128  1.00  0.00    -0.077 C 
ATOM     11  C   UNL     1     135.892 136.427 145.992  1.00  0.00     0.008 C 
ATOM     12  C   UNL     1     137.046 138.477 145.300  1.00  0.00     0.039 C 
ENDBRANCH   5  10
TORSDOF 2
ENDMDL
MODEL 4
REMARK VINA RESULT:    -4.321      2.459      2.971
REMARK INTER + INTRA:          -4.793
REMARK INTER:                  -4.704
REMARK INTRA:                  -0.089
REMARK UNBOUND:                -0.092
REMARK SMILES C=C(C)[C@H]1CC[C@@H](C)[C@@H](O)C1
REMARK SMILES IDX 8 1 7 2 6 3 5 4 4 5 11 6 9 7 10 8 2 10 1 11 3 12
REMARK H PARENT 10 9
REMARK Flexibility Score: inf
ROOT
ATOM      1  C   UNL     1     132.576 137.727 140.272  1.00  0.00     0.010 C 
ATOM      2  C   UNL     1     133.870 138.034 141.037  1.00  0.00     0.015 C 
ATOM      3  C   UNL     1     134.854 136.841 140.961  1.00  0.00     0.006 C 
ATOM      4  C   UNL     1     135.961 136.874 142.039  1.00  0.00     0.008 C 
ATOM      5  C   UNL     1     136.167 138.282 142.626  1.00  0.00     0.017 C 
ATOM      6  C   UNL     1     134.871 138.810 143.289  1.00  0.00     0.040 C 
ATOM      7  C   UNL     1     133.579 138.464 142.498  1.00  0.00     0.117 C 
ENDROOT
BRANCH   7   8
ATOM      8  O   UNL     1     132.815 137.495 143.176  1.00  0.00    -0.393 OA
ATOM      9  H   UNL     1     132.040 137.259 142.602  1.00  0.00     0.210 HD
ENDBRANCH   7   8
BRANCH   5  10
ATOM     10  C   UNL     1     137.345 138.320 143.592  1.00  0.00    -0.077 C 
ATOM     11  C   UNL     1     138.610 138.181 143.158  1.00  0.00     0.008 C 
ATOM     12  C   UNL     1     137.109 138.523 145.066  1.00  0.00     0.039 C 
ENDBRANCH   5  10
TORSDOF 2
ENDMDL
MODEL 5
REMARK VINA RESULT:    -4.277     14.703     15.280
REMARK INTER + INTRA:          -4.745
REMARK INTER:                  -4.658
REMARK INTRA:                  -0.086
REMARK UNBOUND:                -0.092
REMARK SMILES C=C(C)[C@H]1CC[C@@H](C)[C@@H](O)C1
REMARK SMILES IDX 8 1 7 2 6 3 5 4 4 5 11 6 9 7 10 8 2 10 1 11 3 12
REMARK H PARENT 10 9
REMARK Flexibility Score: inf
ROOT
ATOM      1  C   UNL     1     147.057 139.245 136.509  1.00  0.00     0.010 C 
ATOM      2  C   UNL     1     147.408 139.783 137.903  1.00  0.00     0.015 C 
ATOM      3  C   UNL     1     147.003 141.271 138.038  1.00  0.00     0.006 C 
ATOM      4  C   UNL     1     147.700 142.004 139.207  1.00  0.00     0.008 C 
ATOM      5  C   UNL     1     148.241 141.032 140.271  1.00  0.00     0.017 C 
ATOM      6  C   UNL     1     149.278 140.055 139.664  1.00  0.00     0.040 C 
ATOM      7  C   UNL     1     148.901 139.546 138.245  1.00  0.00     0.117 C 
ENDROOT
BRANCH   7   8
ATOM      8  O   UNL     1     149.747 140.102 137.267  1.00  0.00    -0.393 OA
ATOM      9  H   UNL     1     150.032 139.372 136.658  1.00  0.00     0.210 HD
ENDBRANCH   7   8
BRANCH   5  10
ATOM     10  C   UNL     1     148.809 141.775 141.474  1.00  0.00    -0.077 C 
ATOM     11  C   UNL     1     148.927 141.179 142.673  1.00  0.00     0.008 C 
ATOM     12  C   UNL     1     149.259 143.207 141.335  1.00  0.00     0.039 C 
ENDBRANCH   5  10
TORSDOF 2
ENDMDL
MODEL 6
REMARK VINA RESULT:    -4.210     14.972     15.834
REMARK INTER + INTRA:          -4.671
REMARK INTER:                  -4.586
REMARK INTRA:                  -0.086
REMARK UNBOUND:                -0.092
REMARK SMILES C=C(C)[C@H]1CC[C@@H](C)[C@@H](O)C1
REMARK SMILES IDX 8 1 7 2 6 3 5 4 4 5 11 6 9 7 10 8 2 10 1 11 3 12
REMARK H PARENT 10 9
REMARK Flexibility Score: inf
ROOT
ATOM      1  C   UNL     1     149.893 137.100 139.800  1.00  0.00     0.010 C 
ATOM      2  C   UNL     1     149.795 138.607 140.074  1.00  0.00     0.015 C 
ATOM      3  C   UNL     1     149.403 138.876 141.548  1.00  0.00     0.006 C 
ATOM      4  C   UNL     1     148.858 140.300 141.799  1.00  0.00     0.008 C 
ATOM      5  C   UNL     1     149.270 141.291 140.695  1.00  0.00     0.017 C 
ATOM      6  C   UNL     1     148.744 140.839 139.310  1.00  0.00     0.040 C 
ATOM      7  C   UNL     1     148.840 139.306 139.074  1.00  0.00     0.117 C 
ENDROOT
BRANCH   7   8
ATOM      8  O   UNL     1     147.563 138.713 139.082  1.00  0.00    -0.393 OA
ATOM      9  H   UNL     1     147.656 137.792 139.440  1.00  0.00     0.210 HD
ENDBRANCH   7   8
BRANCH   5  10
ATOM     10  C   UNL     1     148.832 142.712 141.024  1.00  0.00    -0.077 C 
ATOM     11  C   UNL     1     147.534 143.062 141.020  1.00  0.00     0.008 C 
ATOM     12  C   UNL     1     149.858 143.761 141.369  1.00  0.00     0.039 C 
ENDBRANCH   5  10
TORSDOF 2
ENDMDL
MODEL 7
REMARK VINA RESULT:    -4.195     19.130     20.112
REMARK INTER + INTRA:          -4.656
REMARK INTER:                  -4.563
REMARK INTRA:                  -0.093
REMARK UNBOUND:                -0.092
REMARK SMILES C=C(C)[C@H]1CC[C@@H](C)[C@@H](O)C1
REMARK SMILES IDX 8 1 7 2 6 3 5 4 4 5 11 6 9 7 10 8 2 10 1 11 3 12
REMARK H PARENT 10 9
REMARK Flexibility Score: inf
ROOT
ATOM      1  C   UNL     1     143.243 148.352 131.987  1.00  0.00     0.010 C 
ATOM      2  C   UNL     1     144.582 148.314 131.238  1.00  0.00     0.015 C 
ATOM      3  C   UNL     1     144.597 147.172 130.192  1.00  0.00     0.006 C 
ATOM      4  C   UNL     1     146.015 146.779 129.718  1.00  0.00     0.008 C 
ATOM      5  C   UNL     1     147.051 147.887 129.979  1.00  0.00     0.017 C 
ATOM      6  C   UNL     1     147.151 148.218 131.488  1.00  0.00     0.040 C 
ATOM      7  C   UNL     1     145.779 148.229 132.219  1.00  0.00     0.117 C 
ENDROOT
BRANCH   7   8
ATOM      8  O   UNL     1     145.658 147.125 133.083  1.00  0.00    -0.393 OA
ATOM      9  H   UNL     1     145.268 146.372 132.567  1.00  0.00     0.210 HD
ENDBRANCH   7   8
BRANCH   5  10
ATOM     10  C   UNL     1     148.411 147.532 129.392  1.00  0.00    -0.077 C 
ATOM     11  C   UNL     1     149.547 148.031 129.910  1.00  0.00     0.008 C 
ATOM     12  C   UNL     1     148.507 146.602 128.210  1.00  0.00     0.039 C 
ENDBRANCH   5  10
TORSDOF 2
ENDMDL
MODEL 8
REMARK VINA RESULT:    -4.057     17.492     18.408
REMARK INTER + INTRA:          -4.505
REMARK INTER:                  -4.416
REMARK INTRA:                  -0.089
REMARK UNBOUND:                -0.092
REMARK SMILES C=C(C)[C@H]1CC[C@@H](C)[C@@H](O)C1
REMARK SMILES IDX 8 1 7 2 6 3 5 4 4 5 11 6 9 7 10 8 2 10 1 11 3 12
REMARK H PARENT 10 9
REMARK Flexibility Score: inf
ROOT
ATOM      1  C   UNL     1     140.264 147.882 130.871  1.00  0.00     0.010 C 
ATOM      2  C   UNL     1     141.736 148.012 131.283  1.00  0.00     0.015 C 
ATOM      3  C   UNL     1     142.195 149.490 131.238  1.00  0.00     0.006 C 
ATOM      4  C   UNL     1     143.729 149.667 131.202  1.00  0.00     0.008 C 
ATOM      5  C   UNL     1     144.477 148.422 131.710  1.00  0.00     0.017 C 
ATOM      6  C   UNL     1     144.142 147.176 130.853  1.00  0.00     0.040 C 
ATOM      7  C   UNL     1     142.648 147.088 130.436  1.00  0.00     0.117 C 
ENDROOT
BRANCH   7   8
ATOM      8  O   UNL     1     142.491 147.333 129.059  1.00  0.00    -0.393 OA
ATOM      9  H   UNL     1     141.651 146.895 128.764  1.00  0.00     0.210 HD
ENDBRANCH   7   8
BRANCH   5  10
ATOM     10  C   UNL     1     145.980 148.662 131.786  1.00  0.00    -0.077 C 
ATOM     11  C   UNL     1     146.809 147.742 132.311  1.00  0.00     0.008 C 
ATOM     12  C   UNL     1     146.569 149.946 131.263  1.00  0.00     0.039 C 
ENDBRANCH   5  10
TORSDOF 2
ENDMDL
