MODEL 1
REMARK VINA RESULT:    -3.024      0.000      0.000
REMARK INTER + INTRA:          -3.657
REMARK INTER:                  -3.555
REMARK INTRA:                  -0.102
REMARK UNBOUND:                -0.102
REMARK SMILES O=C([O-])CCC(=O)[O-]
REMARK SMILES IDX 4 1 2 2 1 3 3 4 5 5 6 6 7 7 8 8
REMARK H PARENT
REMARK Flexibility Score: inf
ROOT
ATOM      1  C   UNL     1      18.873 129.770  64.806  1.00  0.00     0.059 C 
ENDROOT
BRANCH   1   2
ATOM      2  C   UNL     1      19.076 128.495  64.050  1.00  0.00     0.042 C 
ATOM      3  O   UNL     1      18.089 127.776  63.742  1.00  0.00    -0.550 OA
ATOM      4  O   UNL     1      20.351 128.123  63.644  1.00  0.00    -0.550 OA
ENDBRANCH   1   2
BRANCH   1   5
ATOM      5  C   UNL     1      18.221 130.825  63.909  1.00  0.00     0.059 C 
BRANCH   5   6
ATOM      6  C   UNL     1      19.172 131.950  63.651  1.00  0.00     0.042 C 
ATOM      7  O   UNL     1      18.880 133.122  64.010  1.00  0.00    -0.550 OA
ATOM      8  O   UNL     1      20.360 131.715  62.971  1.00  0.00    -0.550 OA
ENDBRANCH   5   6
ENDBRANCH   1   5
TORSDOF 3
ENDMDL
MODEL 2
REMARK VINA RESULT:    -3.013      0.110      3.787
REMARK INTER + INTRA:          -3.644
REMARK INTER:                  -3.551
REMARK INTRA:                  -0.093
REMARK UNBOUND:                -0.102
REMARK SMILES O=C([O-])CCC(=O)[O-]
REMARK SMILES IDX 4 1 2 2 1 3 3 4 5 5 6 6 7 7 8 8
REMARK H PARENT
REMARK Flexibility Score: inf
ROOT
ATOM      1  C   UNL     1      18.158 130.864  63.974  1.00  0.00     0.059 C 
ENDROOT
BRANCH   1   2
ATOM      2  C   UNL     1      19.102 131.980  63.660  1.00  0.00     0.042 C 
ATOM      3  O   UNL     1      18.827 133.159  64.005  1.00  0.00    -0.550 OA
ATOM      4  O   UNL     1      20.309 131.712  63.026  1.00  0.00    -0.550 OA
ENDBRANCH   1   2
BRANCH   1   5
ATOM      5  C   UNL     1      18.856 129.794  64.818  1.00  0.00     0.059 C 
BRANCH   5   6
ATOM      6  C   UNL     1      18.966 128.514  64.052  1.00  0.00     0.042 C 
ATOM      7  O   UNL     1      17.934 127.840  63.792  1.00  0.00    -0.550 OA
ATOM      8  O   UNL     1      20.213 128.040  63.665  1.00  0.00    -0.550 OA
ENDBRANCH   5   6
ENDBRANCH   1   5
TORSDOF 3
ENDMDL
MODEL 3
REMARK VINA RESULT:    -2.995      0.073      1.145
REMARK INTER + INTRA:          -3.623
REMARK INTER:                  -3.513
REMARK INTRA:                  -0.110
REMARK UNBOUND:                -0.102
REMARK SMILES O=C([O-])CCC(=O)[O-]
REMARK SMILES IDX 4 1 2 2 1 3 3 4 5 5 6 6 7 7 8 8
REMARK H PARENT
REMARK Flexibility Score: inf
ROOT
ATOM      1  C   UNL     1      18.898 129.757  64.811  1.00  0.00     0.059 C 
ENDROOT
BRANCH   1   2
ATOM      2  C   UNL     1      19.163 128.515  64.019  1.00  0.00     0.042 C 
ATOM      3  O   UNL     1      20.338 128.219  63.680  1.00  0.00    -0.550 OA
ATOM      4  O   UNL     1      18.117 127.660  63.696  1.00  0.00    -0.550 OA
ENDBRANCH   1   2
BRANCH   1   5
ATOM      5  C   UNL     1      18.236 130.820  63.932  1.00  0.00     0.059 C 
BRANCH   5   6
ATOM      6  C   UNL     1      19.181 131.952  63.679  1.00  0.00     0.042 C 
ATOM      7  O   UNL     1      18.895 133.115  64.067  1.00  0.00    -0.550 OA
ATOM      8  O   UNL     1      20.357 131.731  62.974  1.00  0.00    -0.550 OA
ENDBRANCH   5   6
ENDBRANCH   1   5
TORSDOF 3
ENDMDL
MODEL 4
REMARK VINA RESULT:    -2.921      0.987      1.640
REMARK INTER + INTRA:          -3.536
REMARK INTER:                  -3.485
REMARK INTRA:                  -0.051
REMARK UNBOUND:                -0.102
REMARK SMILES O=C([O-])CCC(=O)[O-]
REMARK SMILES IDX 4 1 2 2 1 3 3 4 5 5 6 6 7 7 8 8
REMARK H PARENT
REMARK Flexibility Score: inf
ROOT
ATOM      1  C   UNL     1      17.650 130.064  64.053  1.00  0.00     0.059 C 
ENDROOT
BRANCH   1   2
ATOM      2  C   UNL     1      17.693 128.585  64.275  1.00  0.00     0.042 C 
ATOM      3  O   UNL     1      16.745 128.006  64.869  1.00  0.00    -0.550 OA
ATOM      4  O   UNL     1      18.757 127.839  63.785  1.00  0.00    -0.550 OA
ENDBRANCH   1   2
BRANCH   1   5
ATOM      5  C   UNL     1      18.921 130.723  64.595  1.00  0.00     0.059 C 
BRANCH   5   6
ATOM      6  C   UNL     1      19.418 131.762  63.641  1.00  0.00     0.042 C 
ATOM      7  O   UNL     1      20.440 131.541  62.939  1.00  0.00    -0.550 OA
ATOM      8  O   UNL     1      18.781 132.994  63.560  1.00  0.00    -0.550 OA
ENDBRANCH   5   6
ENDBRANCH   1   5
TORSDOF 3
ENDMDL
MODEL 5
REMARK VINA RESULT:    -2.804      1.486      3.679
REMARK INTER + INTRA:          -3.398
REMARK INTER:                  -3.290
REMARK INTRA:                  -0.108
REMARK UNBOUND:                -0.102
REMARK SMILES O=C([O-])CCC(=O)[O-]
REMARK SMILES IDX 4 1 2 2 1 3 3 4 5 5 6 6 7 7 8 8
REMARK H PARENT
REMARK Flexibility Score: inf
ROOT
ATOM      1  C   UNL     1      19.076 131.597  64.447  1.00  0.00     0.059 C 
ENDROOT
BRANCH   1   2
ATOM      2  C   UNL     1      19.672 131.950  63.121  1.00  0.00     0.042 C 
ATOM      3  O   UNL     1      19.048 132.702  62.326  1.00  0.00    -0.550 OA
ATOM      4  O   UNL     1      20.937 131.488  62.782  1.00  0.00    -0.550 OA
ENDBRANCH   1   2
BRANCH   1   5
ATOM      5  C   UNL     1      18.991 130.077  64.606  1.00  0.00     0.059 C 
BRANCH   5   6
ATOM      6  C   UNL     1      17.634 129.585  64.213  1.00  0.00     0.042 C 
ATOM      7  O   UNL     1      17.484 128.409  63.790  1.00  0.00    -0.550 OA
ATOM      8  O   UNL     1      16.542 130.441  64.268  1.00  0.00    -0.550 OA
ENDBRANCH   5   6
ENDBRANCH   1   5
TORSDOF 3
ENDMDL
MODEL 6
REMARK VINA RESULT:    -2.787      2.227      3.710
REMARK INTER + INTRA:          -3.378
REMARK INTER:                  -3.262
REMARK INTRA:                  -0.116
REMARK UNBOUND:                -0.102
REMARK SMILES O=C([O-])CCC(=O)[O-]
REMARK SMILES IDX 4 1 2 2 1 3 3 4 5 5 6 6 7 7 8 8
REMARK H PARENT
REMARK Flexibility Score: inf
ROOT
ATOM      1  C   UNL     1      18.486 132.233  63.389  1.00  0.00     0.059 C 
ENDROOT
BRANCH   1   2
ATOM      2  C   UNL     1      19.718 132.362  62.549  1.00  0.00     0.042 C 
ATOM      3  O   UNL     1      20.724 131.642  62.786  1.00  0.00    -0.550 OA
ATOM      4  O   UNL     1      19.738 133.243  61.476  1.00  0.00    -0.550 OA
ENDBRANCH   1   2
BRANCH   1   5
ATOM      5  C   UNL     1      18.802 132.545  64.854  1.00  0.00     0.059 C 
BRANCH   5   6
ATOM      6  C   UNL     1      18.720 131.302  65.682  1.00  0.00     0.042 C 
ATOM      7  O   UNL     1      18.615 131.381  66.935  1.00  0.00    -0.550 OA
ATOM      8  O   UNL     1      18.807 130.055  65.076  1.00  0.00    -0.550 OA
ENDBRANCH   5   6
ENDBRANCH   1   5
TORSDOF 3
ENDMDL
MODEL 7
REMARK VINA RESULT:    -2.741      2.186      2.968
REMARK INTER + INTRA:          -3.324
REMARK INTER:                  -3.221
REMARK INTRA:                  -0.103
REMARK UNBOUND:                -0.102
REMARK SMILES O=C([O-])CCC(=O)[O-]
REMARK SMILES IDX 4 1 2 2 1 3 3 4 5 5 6 6 7 7 8 8
REMARK H PARENT
REMARK Flexibility Score: inf
ROOT
ATOM      1  C   UNL     1      18.867 129.662  64.429  1.00  0.00     0.059 C 
ENDROOT
BRANCH   1   2
ATOM      2  C   UNL     1      19.235 128.283  63.979  1.00  0.00     0.042 C 
ATOM      3  O   UNL     1      18.342 127.481  63.600  1.00  0.00    -0.550 OA
ATOM      4  O   UNL     1      20.569 127.900  63.934  1.00  0.00    -0.550 OA
ENDBRANCH   1   2
BRANCH   1   5
ATOM      5  C   UNL     1      17.383 129.931  64.169  1.00  0.00     0.059 C 
BRANCH   5   6
ATOM      6  C   UNL     1      16.617 129.920  65.455  1.00  0.00     0.042 C 
ATOM      7  O   UNL     1      15.822 128.978  65.711  1.00  0.00    -0.550 OA
ATOM      8  O   UNL     1      16.746 130.975  66.349  1.00  0.00    -0.550 OA
ENDBRANCH   5   6
ENDBRANCH   1   5
TORSDOF 3
ENDMDL
MODEL 8
REMARK VINA RESULT:    -2.649      1.967      3.860
REMARK INTER + INTRA:          -3.216
REMARK INTER:                  -3.095
REMARK INTRA:                  -0.121
REMARK UNBOUND:                -0.102
REMARK SMILES O=C([O-])CCC(=O)[O-]
REMARK SMILES IDX 4 1 2 2 1 3 3 4 5 5 6 6 7 7 8 8
REMARK H PARENT
REMARK Flexibility Score: inf
ROOT
ATOM      1  C   UNL     1      17.758 130.446  64.022  1.00  0.00     0.059 C 
ENDROOT
BRANCH   1   2
ATOM      2  C   UNL     1      16.588 130.564  64.947  1.00  0.00     0.042 C 
ATOM      3  O   UNL     1      16.221 129.573  65.632  1.00  0.00    -0.550 OA
ATOM      4  O   UNL     1      15.933 131.780  65.088  1.00  0.00    -0.550 OA
ENDBRANCH   1   2
BRANCH   1   5
ATOM      5  C   UNL     1      18.899 129.682  64.697  1.00  0.00     0.059 C 
BRANCH   5   6
ATOM      6  C   UNL     1      19.151 128.387  63.990  1.00  0.00     0.042 C 
ATOM      7  O   UNL     1      18.189 127.633  63.687  1.00  0.00    -0.550 OA
ATOM      8  O   UNL     1      20.452 127.991  63.708  1.00  0.00    -0.550 OA
ENDBRANCH   5   6
ENDBRANCH   1   5
TORSDOF 3
ENDMDL
MODEL 9
REMARK VINA RESULT:    -2.630      2.294      3.968
REMARK INTER + INTRA:          -3.193
REMARK INTER:                  -3.032
REMARK INTRA:                  -0.161
REMARK UNBOUND:                -0.102
REMARK SMILES O=C([O-])CCC(=O)[O-]
REMARK SMILES IDX 4 1 2 2 1 3 3 4 5 5 6 6 7 7 8 8
REMARK H PARENT
REMARK Flexibility Score: inf
ROOT
ATOM      1  C   UNL     1      18.888 131.632  65.242  1.00  0.00     0.059 C 
ENDROOT
BRANCH   1   2
ATOM      2  C   UNL     1      17.981 131.645  66.432  1.00  0.00     0.042 C 
ATOM      3  O   UNL     1      18.427 131.351  67.572  1.00  0.00    -0.550 OA
ATOM      4  O   UNL     1      16.653 132.027  66.290  1.00  0.00    -0.550 OA
ENDBRANCH   1   2
BRANCH   1   5
ATOM      5  C   UNL     1      18.244 130.860  64.088  1.00  0.00     0.059 C 
BRANCH   5   6
ATOM      6  C   UNL     1      18.259 129.391  64.369  1.00  0.00     0.042 C 
ATOM      7  O   UNL     1      17.182 128.776  64.588  1.00  0.00    -0.550 OA
ATOM      8  O   UNL     1      19.467 128.708  64.435  1.00  0.00    -0.550 OA
ENDBRANCH   5   6
ENDBRANCH   1   5
TORSDOF 3
ENDMDL
