MODEL 1
REMARK VINA RESULT:    -3.994      0.000      0.000
REMARK INTER + INTRA:         -12.068
REMARK INTER:                  -8.663
REMARK INTRA:                  -3.405
REMARK UNBOUND:                -3.405
REMARK SMILES CCCCCCCCCCCCCCCCCCCCCC(=O)[O-]
REMARK SMILES IDX 12 1 11 2 10 3 9 4 8 5 7 6 6 7 5 8 4 9 3 10 2 11 1 12 13 13
REMARK SMILES IDX 14 14 15 15 16 16 17 17 18 18 19 19 20 20 21 21 22 22 23 23
REMARK SMILES IDX 24 24
REMARK H PARENT
REMARK Flexibility Score: inf
ROOT
ATOM      1  C   UNL     1       7.313   6.372  -7.973  1.00  0.00     0.000 C 
ENDROOT
BRANCH   1   2
ATOM      2  C   UNL     1       8.418   7.332  -8.437  1.00  0.00     0.000 C 
BRANCH   2   3
ATOM      3  C   UNL     1       8.375   8.642  -7.641  1.00  0.00     0.000 C 
BRANCH   3   4
ATOM      4  C   UNL     1       9.669   8.845  -6.839  1.00  0.00    -0.000 C 
BRANCH   4   5
ATOM      5  C   UNL     1       9.492   9.806  -5.649  1.00  0.00    -0.000 C 
BRANCH   5   6
ATOM      6  C   UNL     1       8.033  10.169  -5.316  1.00  0.00    -0.000 C 
BRANCH   6   7
ATOM      7  C   UNL     1       7.857  10.681  -3.880  1.00  0.00    -0.000 C 
BRANCH   7   8
ATOM      8  C   UNL     1       8.505   9.722  -2.870  1.00  0.00    -0.000 C 
BRANCH   8   9
ATOM      9  C   UNL     1       7.580   9.430  -1.668  1.00  0.00    -0.000 C 
BRANCH   9  10
ATOM     10  C   UNL     1       6.126   9.131  -2.071  1.00  0.00    -0.000 C 
BRANCH  10  11
ATOM     11  C   UNL     1       5.110  10.028  -1.349  1.00  0.00    -0.003 C 
ATOM     12  C   UNL     1       3.960  10.408  -2.274  1.00  0.00     0.004 C 
ENDBRANCH  10  11
ENDBRANCH   9  10
ENDBRANCH   8   9
ENDBRANCH   7   8
ENDBRANCH   6   7
ENDBRANCH   5   6
ENDBRANCH   4   5
ENDBRANCH   3   4
ENDBRANCH   2   3
ENDBRANCH   1   2
BRANCH   1  13
ATOM     13  C   UNL     1       7.804   4.924  -7.808  1.00  0.00     0.000 C 
BRANCH  13  14
ATOM     14  C   UNL     1       9.272   4.682  -8.213  1.00  0.00     0.000 C 
BRANCH  14  15
ATOM     15  C   UNL     1      10.203   4.246  -7.065  1.00  0.00     0.000 C 
BRANCH  15  16
ATOM     16  C   UNL     1      10.593   5.369  -6.084  1.00  0.00     0.000 C 
BRANCH  16  17
ATOM     17  C   UNL     1       9.937   5.277  -4.691  1.00  0.00     0.000 C 
BRANCH  17  18
ATOM     18  C   UNL     1       8.963   6.419  -4.354  1.00  0.00     0.000 C 
BRANCH  18  19
ATOM     19  C   UNL     1       7.489   5.994  -4.434  1.00  0.00     0.000 C 
BRANCH  19  20
ATOM     20  C   UNL     1       7.095   5.143  -3.222  1.00  0.00     0.006 C 
BRANCH  20  21
ATOM     21  C   UNL     1       7.668   5.732  -1.929  1.00  0.00     0.053 C 
BRANCH  21  22
ATOM     22  C   UNL     1       7.695   4.701  -0.845  1.00  0.00     0.041 C 
ATOM     23  O   UNL     1       8.732   4.540  -0.150  1.00  0.00    -0.550 OA
ATOM     24  O   UNL     1       6.564   3.939  -0.581  1.00  0.00    -0.550 OA
ENDBRANCH  21  22
ENDBRANCH  20  21
ENDBRANCH  19  20
ENDBRANCH  18  19
ENDBRANCH  17  18
ENDBRANCH  16  17
ENDBRANCH  15  16
ENDBRANCH  14  15
ENDBRANCH  13  14
ENDBRANCH   1  13
TORSDOF 20
ENDMDL
MODEL 2
REMARK VINA RESULT:    -3.895     13.602     15.808
REMARK INTER + INTRA:         -11.855
REMARK INTER:                  -8.777
REMARK INTRA:                  -3.077
REMARK UNBOUND:                -3.405
REMARK SMILES CCCCCCCCCCCCCCCCCCCCCC(=O)[O-]
REMARK SMILES IDX 12 1 11 2 10 3 9 4 8 5 7 6 6 7 5 8 4 9 3 10 2 11 1 12 13 13
REMARK SMILES IDX 14 14 15 15 16 16 17 17 18 18 19 19 20 20 21 21 22 22 23 23
REMARK SMILES IDX 24 24
REMARK H PARENT
REMARK Flexibility Score: inf
ROOT
ATOM      1  C   UNL     1       2.091  -5.066  -7.387  1.00  0.00     0.000 C 
ENDROOT
BRANCH   1   2
ATOM      2  C   UNL     1       2.045  -4.572  -8.840  1.00  0.00     0.000 C 
BRANCH   2   3
ATOM      3  C   UNL     1       0.756  -3.786  -9.111  1.00  0.00     0.000 C 
BRANCH   3   4
ATOM      4  C   UNL     1       1.067  -2.348  -9.548  1.00  0.00    -0.000 C 
BRANCH   4   5
ATOM      5  C   UNL     1      -0.072  -1.364  -9.221  1.00  0.00    -0.000 C 
BRANCH   5   6
ATOM      6  C   UNL     1      -0.905  -1.721  -7.976  1.00  0.00    -0.000 C 
BRANCH   6   7
ATOM      7  C   UNL     1      -2.264  -2.344  -8.325  1.00  0.00    -0.000 C 
BRANCH   7   8
ATOM      8  C   UNL     1      -2.681  -1.988  -9.760  1.00  0.00    -0.000 C 
BRANCH   8   9
ATOM      9  C   UNL     1      -4.127  -1.450  -9.829  1.00  0.00    -0.000 C 
BRANCH   9  10
ATOM     10  C   UNL     1      -4.313  -0.097  -9.121  1.00  0.00    -0.000 C 
BRANCH  10  11
ATOM     11  C   UNL     1      -3.205   0.910  -9.457  1.00  0.00    -0.003 C 
ATOM     12  C   UNL     1      -2.955   1.860  -8.292  1.00  0.00     0.004 C 
ENDBRANCH  10  11
ENDBRANCH   9  10
ENDBRANCH   8   9
ENDBRANCH   7   8
ENDBRANCH   6   7
ENDBRANCH   5   6
ENDBRANCH   4   5
ENDBRANCH   3   4
ENDBRANCH   2   3
ENDBRANCH   1   2
BRANCH   1  13
ATOM     13  C   UNL     1       0.860  -4.640  -6.567  1.00  0.00     0.000 C 
BRANCH  13  14
ATOM     14  C   UNL     1      -0.118  -5.780  -6.218  1.00  0.00     0.000 C 
BRANCH  14  15
ATOM     15  C   UNL     1      -0.119  -6.964  -7.205  1.00  0.00     0.000 C 
BRANCH  15  16
ATOM     16  C   UNL     1      -1.220  -6.911  -8.282  1.00  0.00     0.000 C 
BRANCH  16  17
ATOM     17  C   UNL     1      -2.220  -5.745  -8.139  1.00  0.00     0.000 C 
BRANCH  17  18
ATOM     18  C   UNL     1      -3.471  -5.847  -9.029  1.00  0.00     0.000 C 
BRANCH  18  19
ATOM     19  C   UNL     1      -4.777  -5.916  -8.224  1.00  0.00     0.000 C 
BRANCH  19  20
ATOM     20  C   UNL     1      -5.267  -4.512  -7.851  1.00  0.00     0.006 C 
BRANCH  20  21
ATOM     21  C   UNL     1      -5.031  -4.225  -6.365  1.00  0.00     0.053 C 
BRANCH  21  22
ATOM     22  C   UNL     1      -6.324  -3.933  -5.672  1.00  0.00     0.041 C 
ATOM     23  O   UNL     1      -6.613  -2.752  -5.343  1.00  0.00    -0.550 OA
ATOM     24  O   UNL     1      -7.227  -4.958  -5.420  1.00  0.00    -0.550 OA
ENDBRANCH  21  22
ENDBRANCH  20  21
ENDBRANCH  19  20
ENDBRANCH  18  19
ENDBRANCH  17  18
ENDBRANCH  16  17
ENDBRANCH  15  16
ENDBRANCH  14  15
ENDBRANCH  13  14
ENDBRANCH   1  13
TORSDOF 20
ENDMDL
MODEL 3
REMARK VINA RESULT:    -3.868      4.848      7.294
REMARK INTER + INTRA:         -11.795
REMARK INTER:                  -9.899
REMARK INTRA:                  -1.896
REMARK UNBOUND:                -3.405
REMARK SMILES CCCCCCCCCCCCCCCCCCCCCC(=O)[O-]
REMARK SMILES IDX 12 1 11 2 10 3 9 4 8 5 7 6 6 7 5 8 4 9 3 10 2 11 1 12 13 13
REMARK SMILES IDX 14 14 15 15 16 16 17 17 18 18 19 19 20 20 21 21 22 22 23 23
REMARK SMILES IDX 24 24
REMARK H PARENT
REMARK Flexibility Score: inf
ROOT
ATOM      1  C   UNL     1       9.281   4.237  -1.207  1.00  0.00     0.000 C 
ENDROOT
BRANCH   1   2
ATOM      2  C   UNL     1       7.760   4.330  -1.019  1.00  0.00     0.000 C 
BRANCH   2   3
ATOM      3  C   UNL     1       7.171   5.458  -1.875  1.00  0.00     0.000 C 
BRANCH   3   4
ATOM      4  C   UNL     1       7.051   5.032  -3.345  1.00  0.00    -0.000 C 
BRANCH   4   5
ATOM      5  C   UNL     1       7.498   6.132  -4.326  1.00  0.00    -0.000 C 
BRANCH   5   6
ATOM      6  C   UNL     1       8.624   7.046  -3.809  1.00  0.00    -0.000 C 
BRANCH   6   7
ATOM      7  C   UNL     1       8.139   8.465  -3.480  1.00  0.00    -0.000 C 
BRANCH   7   8
ATOM      8  C   UNL     1       8.463   8.833  -2.024  1.00  0.00    -0.000 C 
BRANCH   8   9
ATOM      9  C   UNL     1       7.253   9.463  -1.300  1.00  0.00    -0.000 C 
BRANCH   9  10
ATOM     10  C   UNL     1       5.897   9.050  -1.898  1.00  0.00    -0.000 C 
BRANCH  10  11
ATOM     11  C   UNL     1       4.739   9.940  -1.423  1.00  0.00    -0.003 C 
ATOM     12  C   UNL     1       3.884  10.401  -2.598  1.00  0.00     0.004 C 
ENDBRANCH  10  11
ENDBRANCH   9  10
ENDBRANCH   8   9
ENDBRANCH   7   8
ENDBRANCH   6   7
ENDBRANCH   5   6
ENDBRANCH   4   5
ENDBRANCH   3   4
ENDBRANCH   2   3
ENDBRANCH   1   2
BRANCH   1  13
ATOM     13  C   UNL     1      10.055   5.270  -0.370  1.00  0.00     0.000 C 
BRANCH  13  14
ATOM     14  C   UNL     1       9.192   6.112   0.590  1.00  0.00     0.000 C 
BRANCH  14  15
ATOM     15  C   UNL     1       9.421   5.834   2.089  1.00  0.00     0.000 C 
BRANCH  15  16
ATOM     16  C   UNL     1       9.732   7.080   2.940  1.00  0.00     0.000 C 
BRANCH  16  17
ATOM     17  C   UNL     1       9.259   8.419   2.338  1.00  0.00     0.000 C 
BRANCH  17  18
ATOM     18  C   UNL     1       8.928   9.515   3.366  1.00  0.00     0.000 C 
BRANCH  18  19
ATOM     19  C   UNL     1       8.969   9.009   4.816  1.00  0.00     0.000 C 
BRANCH  19  20
ATOM     20  C   UNL     1       8.484  10.091   5.789  1.00  0.00     0.006 C 
BRANCH  20  21
ATOM     21  C   UNL     1       8.390   9.542   7.216  1.00  0.00     0.053 C 
BRANCH  21  22
ATOM     22  C   UNL     1       6.970   9.534   7.686  1.00  0.00     0.041 C 
ATOM     23  O   UNL     1       6.634   8.830   8.675  1.00  0.00    -0.550 OA
ATOM     24  O   UNL     1       6.023  10.330   7.055  1.00  0.00    -0.550 OA
ENDBRANCH  21  22
ENDBRANCH  20  21
ENDBRANCH  19  20
ENDBRANCH  18  19
ENDBRANCH  17  18
ENDBRANCH  16  17
ENDBRANCH  15  16
ENDBRANCH  14  15
ENDBRANCH  13  14
ENDBRANCH   1  13
TORSDOF 20
ENDMDL
MODEL 4
REMARK VINA RESULT:    -3.834     13.692     16.107
REMARK INTER + INTRA:         -11.722
REMARK INTER:                  -8.772
REMARK INTRA:                  -2.950
REMARK UNBOUND:                -3.405
REMARK SMILES CCCCCCCCCCCCCCCCCCCCCC(=O)[O-]
REMARK SMILES IDX 12 1 11 2 10 3 9 4 8 5 7 6 6 7 5 8 4 9 3 10 2 11 1 12 13 13
REMARK SMILES IDX 14 14 15 15 16 16 17 17 18 18 19 19 20 20 21 21 22 22 23 23
REMARK SMILES IDX 24 24
REMARK H PARENT
REMARK Flexibility Score: inf
ROOT
ATOM      1  C   UNL     1      -0.189  -5.595  -6.411  1.00  0.00     0.000 C 
ENDROOT
BRANCH   1   2
ATOM      2  C   UNL     1       0.127  -7.045  -6.807  1.00  0.00     0.000 C 
BRANCH   2   3
ATOM      3  C   UNL     1      -0.836  -7.539  -7.892  1.00  0.00     0.000 C 
BRANCH   3   4
ATOM      4  C   UNL     1      -1.378  -6.369  -8.726  1.00  0.00    -0.000 C 
BRANCH   4   5
ATOM      5  C   UNL     1      -2.916  -6.294  -8.724  1.00  0.00    -0.000 C 
BRANCH   5   6
ATOM      6  C   UNL     1      -3.510  -5.110  -7.940  1.00  0.00    -0.000 C 
BRANCH   6   7
ATOM      7  C   UNL     1      -4.654  -4.411  -8.687  1.00  0.00    -0.000 C 
BRANCH   7   8
ATOM      8  C   UNL     1      -5.467  -3.517  -7.737  1.00  0.00    -0.000 C 
BRANCH   8   9
ATOM      9  C   UNL     1      -5.427  -4.029  -6.281  1.00  0.00    -0.000 C 
BRANCH   9  10
ATOM     10  C   UNL     1      -6.784  -3.940  -5.561  1.00  0.00    -0.000 C 
BRANCH  10  11
ATOM     11  C   UNL     1      -7.663  -2.795  -6.084  1.00  0.00    -0.003 C 
ATOM     12  C   UNL     1      -7.335  -1.485  -5.376  1.00  0.00     0.004 C 
ENDBRANCH  10  11
ENDBRANCH   9  10
ENDBRANCH   8   9
ENDBRANCH   7   8
ENDBRANCH   6   7
ENDBRANCH   5   6
ENDBRANCH   4   5
ENDBRANCH   3   4
ENDBRANCH   2   3
ENDBRANCH   1   2
BRANCH   1  13
ATOM     13  C   UNL     1       1.044  -4.676  -6.459  1.00  0.00     0.000 C 
BRANCH  13  14
ATOM     14  C   UNL     1       2.160  -5.130  -7.420  1.00  0.00     0.000 C 
BRANCH  14  15
ATOM     15  C   UNL     1       1.952  -4.735  -8.896  1.00  0.00     0.000 C 
BRANCH  15  16
ATOM     16  C   UNL     1       1.231  -3.390  -9.113  1.00  0.00     0.000 C 
BRANCH  16  17
ATOM     17  C   UNL     1       0.015  -3.445 -10.059  1.00  0.00     0.000 C 
BRANCH  17  18
ATOM     18  C   UNL     1      -1.255  -2.755  -9.529  1.00  0.00     0.000 C 
BRANCH  18  19
ATOM     19  C   UNL     1      -1.112  -2.270  -8.079  1.00  0.00     0.000 C 
BRANCH  19  20
ATOM     20  C   UNL     1      -1.078  -0.738  -8.012  1.00  0.00     0.006 C 
BRANCH  20  21
ATOM     21  C   UNL     1      -1.652  -0.121  -9.291  1.00  0.00     0.053 C 
BRANCH  21  22
ATOM     22  C   UNL     1      -2.865   0.698  -8.982  1.00  0.00     0.041 C 
ATOM     23  O   UNL     1      -3.992   0.355  -9.429  1.00  0.00    -0.550 OA
ATOM     24  O   UNL     1      -2.760   1.823  -8.174  1.00  0.00    -0.550 OA
ENDBRANCH  21  22
ENDBRANCH  20  21
ENDBRANCH  19  20
ENDBRANCH  18  19
ENDBRANCH  17  18
ENDBRANCH  16  17
ENDBRANCH  15  16
ENDBRANCH  14  15
ENDBRANCH  13  14
ENDBRANCH   1  13
TORSDOF 20
ENDMDL
MODEL 5
REMARK VINA RESULT:    -3.834      3.507      5.737
REMARK INTER + INTRA:         -11.722
REMARK INTER:                  -8.277
REMARK INTRA:                  -3.445
REMARK UNBOUND:                -3.405
REMARK SMILES CCCCCCCCCCCCCCCCCCCCCC(=O)[O-]
REMARK SMILES IDX 12 1 11 2 10 3 9 4 8 5 7 6 6 7 5 8 4 9 3 10 2 11 1 12 13 13
REMARK SMILES IDX 14 14 15 15 16 16 17 17 18 18 19 19 20 20 21 21 22 22 23 23
REMARK SMILES IDX 24 24
REMARK H PARENT
REMARK Flexibility Score: inf
ROOT
ATOM      1  C   UNL     1       7.761   4.766  -1.480  1.00  0.00     0.000 C 
ENDROOT
BRANCH   1   2
ATOM      2  C   UNL     1       7.244   5.001  -2.906  1.00  0.00     0.000 C 
BRANCH   2   3
ATOM      3  C   UNL     1       7.040   6.496  -3.175  1.00  0.00     0.000 C 
BRANCH   3   4
ATOM      4  C   UNL     1       6.674   7.246  -1.886  1.00  0.00    -0.000 C 
BRANCH   4   5
ATOM      5  C   UNL     1       7.031   8.743  -1.942  1.00  0.00    -0.000 C 
BRANCH   5   6
ATOM      6  C   UNL     1       8.386   9.065  -2.599  1.00  0.00    -0.000 C 
BRANCH   6   7
ATOM      7  C   UNL     1       9.555   9.039  -1.604  1.00  0.00    -0.000 C 
BRANCH   7   8
ATOM      8  C   UNL     1       9.060   9.259  -0.166  1.00  0.00    -0.000 C 
BRANCH   8   9
ATOM      9  C   UNL     1       9.296   8.021   0.726  1.00  0.00    -0.000 C 
BRANCH   9  10
ATOM     10  C   UNL     1       9.154   8.312   2.230  1.00  0.00    -0.000 C 
BRANCH  10  11
ATOM     11  C   UNL     1       9.425   7.079   3.104  1.00  0.00    -0.003 C 
ATOM     12  C   UNL     1       9.512   5.814   2.257  1.00  0.00     0.004 C 
ENDBRANCH  10  11
ENDBRANCH   9  10
ENDBRANCH   8   9
ENDBRANCH   7   8
ENDBRANCH   6   7
ENDBRANCH   5   6
ENDBRANCH   4   5
ENDBRANCH   3   4
ENDBRANCH   2   3
ENDBRANCH   1   2
BRANCH   1  13
ATOM     13  C   UNL     1       9.240   4.343  -1.438  1.00  0.00     0.000 C 
BRANCH  13  14
ATOM     14  C   UNL     1      10.245   5.443  -1.836  1.00  0.00     0.000 C 
BRANCH  14  15
ATOM     15  C   UNL     1      10.803   5.329  -3.268  1.00  0.00     0.000 C 
BRANCH  15  16
ATOM     16  C   UNL     1      10.771   6.635  -4.084  1.00  0.00     0.000 C 
BRANCH  16  17
ATOM     17  C   UNL     1       9.996   6.557  -5.415  1.00  0.00     0.000 C 
BRANCH  17  18
ATOM     18  C   UNL     1       9.705   5.131  -5.916  1.00  0.00     0.000 C 
BRANCH  18  19
ATOM     19  C   UNL     1       8.291   4.976  -6.496  1.00  0.00     0.000 C 
BRANCH  19  20
ATOM     20  C   UNL     1       7.671   6.343  -6.807  1.00  0.00     0.006 C 
BRANCH  20  21
ATOM     21  C   UNL     1       7.461   6.520  -8.314  1.00  0.00     0.053 C 
BRANCH  21  22
ATOM     22  C   UNL     1       8.013   7.833  -8.772  1.00  0.00     0.041 C 
ATOM     23  O   UNL     1       8.017   8.825  -7.996  1.00  0.00    -0.550 OA
ATOM     24  O   UNL     1       8.555   7.954 -10.045  1.00  0.00    -0.550 OA
ENDBRANCH  21  22
ENDBRANCH  20  21
ENDBRANCH  19  20
ENDBRANCH  18  19
ENDBRANCH  17  18
ENDBRANCH  16  17
ENDBRANCH  15  16
ENDBRANCH  14  15
ENDBRANCH  13  14
ENDBRANCH   1  13
TORSDOF 20
ENDMDL
MODEL 6
REMARK VINA RESULT:    -3.760      2.628      4.951
REMARK INTER + INTRA:         -11.561
REMARK INTER:                  -8.590
REMARK INTRA:                  -2.971
REMARK UNBOUND:                -3.405
REMARK SMILES CCCCCCCCCCCCCCCCCCCCCC(=O)[O-]
REMARK SMILES IDX 12 1 11 2 10 3 9 4 8 5 7 6 6 7 5 8 4 9 3 10 2 11 1 12 13 13
REMARK SMILES IDX 14 14 15 15 16 16 17 17 18 18 19 19 20 20 21 21 22 22 23 23
REMARK SMILES IDX 24 24
REMARK H PARENT
REMARK Flexibility Score: inf
ROOT
ATOM      1  C   UNL     1       7.402   6.336  -7.496  1.00  0.00     0.000 C 
ENDROOT
BRANCH   1   2
ATOM      2  C   UNL     1       8.015   5.222  -6.635  1.00  0.00     0.000 C 
BRANCH   2   3
ATOM      3  C   UNL     1       7.841   5.524  -5.142  1.00  0.00     0.000 C 
BRANCH   3   4
ATOM      4  C   UNL     1       9.184   5.445  -4.401  1.00  0.00    -0.000 C 
BRANCH   4   5
ATOM      5  C   UNL     1       9.031   5.552  -2.873  1.00  0.00    -0.000 C 
BRANCH   5   6
ATOM      6  C   UNL     1       7.673   5.084  -2.319  1.00  0.00    -0.000 C 
BRANCH   6   7
ATOM      7  C   UNL     1       7.673   4.921  -0.792  1.00  0.00    -0.000 C 
BRANCH   7   8
ATOM      8  C   UNL     1       9.102   4.980  -0.232  1.00  0.00    -0.000 C 
BRANCH   8   9
ATOM      9  C   UNL     1       9.157   5.667   1.150  1.00  0.00    -0.000 C 
BRANCH   9  10
ATOM     10  C   UNL     1       9.465   7.172   1.076  1.00  0.00    -0.000 C 
BRANCH  10  11
ATOM     11  C   UNL     1       9.226   7.896   2.408  1.00  0.00    -0.003 C 
ATOM     12  C   UNL     1       8.947   9.378   2.184  1.00  0.00     0.004 C 
ENDBRANCH  10  11
ENDBRANCH   9  10
ENDBRANCH   8   9
ENDBRANCH   7   8
ENDBRANCH   6   7
ENDBRANCH   5   6
ENDBRANCH   4   5
ENDBRANCH   3   4
ENDBRANCH   2   3
ENDBRANCH   1   2
BRANCH   1  13
ATOM     13  C   UNL     1       8.456   7.285  -8.091  1.00  0.00     0.000 C 
BRANCH  13  14
ATOM     14  C   UNL     1       8.084   8.781  -8.052  1.00  0.00     0.000 C 
BRANCH  14  15
ATOM     15  C   UNL     1       8.480   9.519  -6.759  1.00  0.00     0.000 C 
BRANCH  15  16
ATOM     16  C   UNL     1       9.526   8.792  -5.891  1.00  0.00     0.000 C 
BRANCH  16  17
ATOM     17  C   UNL     1       9.626   9.289  -4.434  1.00  0.00     0.000 C 
BRANCH  17  18
ATOM     18  C   UNL     1       8.380   9.029  -3.570  1.00  0.00     0.000 C 
BRANCH  18  19
ATOM     19  C   UNL     1       8.654   9.165  -2.065  1.00  0.00     0.000 C 
BRANCH  19  20
ATOM     20  C   UNL     1       7.387   9.587  -1.312  1.00  0.00     0.006 C 
BRANCH  20  21
ATOM     21  C   UNL     1       6.151   8.884  -1.882  1.00  0.00     0.053 C 
BRANCH  21  22
ATOM     22  C   UNL     1       4.935   9.740  -1.719  1.00  0.00     0.041 C 
ATOM     23  O   UNL     1       3.811   9.324  -2.105  1.00  0.00    -0.550 OA
ATOM     24  O   UNL     1       5.035  10.984  -1.110  1.00  0.00    -0.550 OA
ENDBRANCH  21  22
ENDBRANCH  20  21
ENDBRANCH  19  20
ENDBRANCH  18  19
ENDBRANCH  17  18
ENDBRANCH  16  17
ENDBRANCH  15  16
ENDBRANCH  14  15
ENDBRANCH  13  14
ENDBRANCH   1  13
TORSDOF 20
ENDMDL
MODEL 7
REMARK VINA RESULT:    -3.738     14.919     17.279
REMARK INTER + INTRA:         -11.515
REMARK INTER:                  -8.481
REMARK INTRA:                  -3.034
REMARK UNBOUND:                -3.405
REMARK SMILES CCCCCCCCCCCCCCCCCCCCCC(=O)[O-]
REMARK SMILES IDX 12 1 11 2 10 3 9 4 8 5 7 6 6 7 5 8 4 9 3 10 2 11 1 12 13 13
REMARK SMILES IDX 14 14 15 15 16 16 17 17 18 18 19 19 20 20 21 21 22 22 23 23
REMARK SMILES IDX 24 24
REMARK H PARENT
REMARK Flexibility Score: inf
ROOT
ATOM      1  C   UNL     1      -1.982  -4.052  -7.184  1.00  0.00     0.000 C 
ENDROOT
BRANCH   1   2
ATOM      2  C   UNL     1      -0.657  -4.074  -6.408  1.00  0.00     0.000 C 
BRANCH   2   3
ATOM      3  C   UNL     1       0.003  -5.456  -6.491  1.00  0.00     0.000 C 
BRANCH   3   4
ATOM      4  C   UNL     1       1.533  -5.342  -6.440  1.00  0.00    -0.000 C 
BRANCH   4   5
ATOM      5  C   UNL     1       2.153  -4.977  -7.802  1.00  0.00    -0.000 C 
BRANCH   5   6
ATOM      6  C   UNL     1       1.407  -5.534  -9.027  1.00  0.00    -0.000 C 
BRANCH   6   7
ATOM      7  C   UNL     1       0.865  -4.434  -9.951  1.00  0.00    -0.000 C 
BRANCH   7   8
ATOM      8  C   UNL     1       1.227  -3.040  -9.417  1.00  0.00    -0.000 C 
BRANCH   8   9
ATOM      9  C   UNL     1       0.228  -1.960  -9.885  1.00  0.00    -0.000 C 
BRANCH   9  10
ATOM     10  C   UNL     1      -0.387  -1.150  -8.731  1.00  0.00    -0.000 C 
BRANCH  10  11
ATOM     11  C   UNL     1      -1.643  -0.373  -9.150  1.00  0.00    -0.003 C 
ATOM     12  C   UNL     1      -2.824  -1.314  -9.365  1.00  0.00     0.004 C 
ENDBRANCH  10  11
ENDBRANCH   9  10
ENDBRANCH   8   9
ENDBRANCH   7   8
ENDBRANCH   6   7
ENDBRANCH   5   6
ENDBRANCH   4   5
ENDBRANCH   3   4
ENDBRANCH   2   3
ENDBRANCH   1   2
BRANCH   1  13
ATOM     13  C   UNL     1      -2.178  -5.289  -8.077  1.00  0.00     0.000 C 
BRANCH  13  14
ATOM     14  C   UNL     1      -2.970  -5.039  -9.375  1.00  0.00     0.000 C 
BRANCH  14  15
ATOM     15  C   UNL     1      -4.501  -4.983  -9.205  1.00  0.00     0.000 C 
BRANCH  15  16
ATOM     16  C   UNL     1      -5.148  -6.291  -8.712  1.00  0.00     0.000 C 
BRANCH  16  17
ATOM     17  C   UNL     1      -5.972  -6.164  -7.414  1.00  0.00     0.000 C 
BRANCH  17  18
ATOM     18  C   UNL     1      -5.707  -4.887  -6.597  1.00  0.00     0.000 C 
BRANCH  18  19
ATOM     19  C   UNL     1      -6.746  -4.658  -5.488  1.00  0.00     0.000 C 
BRANCH  19  20
ATOM     20  C   UNL     1      -7.667  -5.874  -5.338  1.00  0.00     0.006 C 
BRANCH  20  21
ATOM     21  C   UNL     1      -7.543  -6.487  -3.940  1.00  0.00     0.053 C 
BRANCH  21  22
ATOM     22  C   UNL     1      -7.602  -7.980  -4.011  1.00  0.00     0.041 C 
ATOM     23  O   UNL     1      -8.663  -8.555  -4.372  1.00  0.00    -0.550 OA
ATOM     24  O   UNL     1      -6.477  -8.737  -3.712  1.00  0.00    -0.550 OA
ENDBRANCH  21  22
ENDBRANCH  20  21
ENDBRANCH  19  20
ENDBRANCH  18  19
ENDBRANCH  17  18
ENDBRANCH  16  17
ENDBRANCH  15  16
ENDBRANCH  14  15
ENDBRANCH  13  14
ENDBRANCH   1  13
TORSDOF 20
ENDMDL
MODEL 8
REMARK VINA RESULT:    -3.730      2.560      6.553
REMARK INTER + INTRA:         -11.496
REMARK INTER:                  -8.700
REMARK INTRA:                  -2.797
REMARK UNBOUND:                -3.405
REMARK SMILES CCCCCCCCCCCCCCCCCCCCCC(=O)[O-]
REMARK SMILES IDX 12 1 11 2 10 3 9 4 8 5 7 6 6 7 5 8 4 9 3 10 2 11 1 12 13 13
REMARK SMILES IDX 14 14 15 15 16 16 17 17 18 18 19 19 20 20 21 21 22 22 23 23
REMARK SMILES IDX 24 24
REMARK H PARENT
REMARK Flexibility Score: inf
ROOT
ATOM      1  C   UNL     1       7.386   4.813  -2.113  1.00  0.00     0.000 C 
ENDROOT
BRANCH   1   2
ATOM      2  C   UNL     1       7.001   6.260  -2.452  1.00  0.00     0.000 C 
BRANCH   2   3
ATOM      3  C   UNL     1       7.599   6.685  -3.798  1.00  0.00     0.000 C 
BRANCH   3   4
ATOM      4  C   UNL     1       8.832   5.840  -4.148  1.00  0.00    -0.000 C 
BRANCH   4   5
ATOM      5  C   UNL     1      10.071   6.694  -4.474  1.00  0.00    -0.000 C 
BRANCH   5   6
ATOM      6  C   UNL     1       9.882   7.705  -5.620  1.00  0.00    -0.000 C 
BRANCH   6   7
ATOM      7  C   UNL     1       9.653   7.032  -6.980  1.00  0.00    -0.000 C 
BRANCH   7   8
ATOM      8  C   UNL     1       8.289   7.425  -7.567  1.00  0.00    -0.000 C 
BRANCH   8   9
ATOM      9  C   UNL     1       7.354   6.208  -7.734  1.00  0.00    -0.000 C 
BRANCH   9  10
ATOM     10  C   UNL     1       8.030   4.865  -7.409  1.00  0.00    -0.000 C 
BRANCH  10  11
ATOM     11  C   UNL     1       8.905   4.344  -8.558  1.00  0.00    -0.003 C 
ATOM     12  C   UNL     1       9.631   3.064  -8.157  1.00  0.00     0.004 C 
ENDBRANCH  10  11
ENDBRANCH   9  10
ENDBRANCH   8   9
ENDBRANCH   7   8
ENDBRANCH   6   7
ENDBRANCH   5   6
ENDBRANCH   4   5
ENDBRANCH   3   4
ENDBRANCH   2   3
ENDBRANCH   1   2
BRANCH   1  13
ATOM     13  C   UNL     1       7.966   4.661  -0.696  1.00  0.00     0.000 C 
BRANCH  13  14
ATOM     14  C   UNL     1       9.284   5.421  -0.445  1.00  0.00     0.000 C 
BRANCH  14  15
ATOM     15  C   UNL     1       9.303   6.294   0.825  1.00  0.00     0.000 C 
BRANCH  15  16
ATOM     16  C   UNL     1       9.032   7.792   0.588  1.00  0.00     0.000 C 
BRANCH  16  17
ATOM     17  C   UNL     1       9.593   8.357  -0.734  1.00  0.00     0.000 C 
BRANCH  17  18
ATOM     18  C   UNL     1       8.671   9.354  -1.458  1.00  0.00     0.000 C 
BRANCH  18  19
ATOM     19  C   UNL     1       7.359   9.617  -0.704  1.00  0.00     0.000 C 
BRANCH  19  20
ATOM     20  C   UNL     1       6.536  10.708  -1.397  1.00  0.00     0.006 C 
BRANCH  20  21
ATOM     21  C   UNL     1       5.624  10.108  -2.472  1.00  0.00     0.053 C 
BRANCH  21  22
ATOM     22  C   UNL     1       4.186  10.361  -2.145  1.00  0.00     0.041 C 
ATOM     23  O   UNL     1       3.401  10.787  -3.033  1.00  0.00    -0.550 OA
ATOM     24  O   UNL     1       3.704  10.094  -0.870  1.00  0.00    -0.550 OA
ENDBRANCH  21  22
ENDBRANCH  20  21
ENDBRANCH  19  20
ENDBRANCH  18  19
ENDBRANCH  17  18
ENDBRANCH  16  17
ENDBRANCH  15  16
ENDBRANCH  14  15
ENDBRANCH  13  14
ENDBRANCH   1  13
TORSDOF 20
ENDMDL
MODEL 9
REMARK VINA RESULT:    -3.705      3.437      5.764
REMARK INTER + INTRA:         -11.442
REMARK INTER:                  -8.112
REMARK INTRA:                  -3.329
REMARK UNBOUND:                -3.405
REMARK SMILES CCCCCCCCCCCCCCCCCCCCCC(=O)[O-]
REMARK SMILES IDX 12 1 11 2 10 3 9 4 8 5 7 6 6 7 5 8 4 9 3 10 2 11 1 12 13 13
REMARK SMILES IDX 14 14 15 15 16 16 17 17 18 18 19 19 20 20 21 21 22 22 23 23
REMARK SMILES IDX 24 24
REMARK H PARENT
REMARK Flexibility Score: inf
ROOT
ATOM      1  C   UNL     1       7.721   5.846  -0.898  1.00  0.00     0.000 C 
ENDROOT
BRANCH   1   2
ATOM      2  C   UNL     1       7.000   6.465  -2.104  1.00  0.00     0.000 C 
BRANCH   2   3
ATOM      3  C   UNL     1       6.798   7.972  -1.907  1.00  0.00     0.000 C 
BRANCH   3   4
ATOM      4  C   UNL     1       7.605   8.779  -2.935  1.00  0.00    -0.000 C 
BRANCH   4   5
ATOM      5  C   UNL     1       8.914   9.347  -2.357  1.00  0.00    -0.000 C 
BRANCH   5   6
ATOM      6  C   UNL     1       9.018   9.309  -0.821  1.00  0.00    -0.000 C 
BRANCH   6   7
ATOM      7  C   UNL     1      10.469   9.301  -0.319  1.00  0.00    -0.000 C 
BRANCH   7   8
ATOM      8  C   UNL     1      10.645   8.309   0.840  1.00  0.00    -0.000 C 
BRANCH   8   9
ATOM      9  C   UNL     1       9.321   8.052   1.592  1.00  0.00    -0.000 C 
BRANCH   9  10
ATOM     10  C   UNL     1       9.451   8.156   3.120  1.00  0.00    -0.000 C 
BRANCH  10  11
ATOM     11  C   UNL     1       9.325   6.797   3.824  1.00  0.00    -0.003 C 
ATOM     12  C   UNL     1       9.607   5.651   2.859  1.00  0.00     0.004 C 
ENDBRANCH  10  11
ENDBRANCH   9  10
ENDBRANCH   8   9
ENDBRANCH   7   8
ENDBRANCH   6   7
ENDBRANCH   5   6
ENDBRANCH   4   5
ENDBRANCH   3   4
ENDBRANCH   2   3
ENDBRANCH   1   2
BRANCH   1  13
ATOM     13  C   UNL     1       8.083   4.365  -1.110  1.00  0.00     0.000 C 
BRANCH  13  14
ATOM     14  C   UNL     1       9.553   4.102  -1.496  1.00  0.00     0.000 C 
BRANCH  14  15
ATOM     15  C   UNL     1      10.480   5.330  -1.412  1.00  0.00     0.000 C 
BRANCH  15  16
ATOM     16  C   UNL     1      10.761   6.024  -2.758  1.00  0.00     0.000 C 
BRANCH  16  17
ATOM     17  C   UNL     1      10.066   5.389  -3.980  1.00  0.00     0.000 C 
BRANCH  17  18
ATOM     18  C   UNL     1       9.401   6.387  -4.944  1.00  0.00     0.000 C 
BRANCH  18  19
ATOM     19  C   UNL     1       8.009   5.936  -5.410  1.00  0.00     0.000 C 
BRANCH  19  20
ATOM     20  C   UNL     1       7.734   6.396  -6.846  1.00  0.00     0.006 C 
BRANCH  20  21
ATOM     21  C   UNL     1       7.499   5.197  -7.770  1.00  0.00     0.053 C 
BRANCH  21  22
ATOM     22  C   UNL     1       8.798   4.555  -8.142  1.00  0.00     0.041 C 
ATOM     23  O   UNL     1       8.865   3.307  -8.298  1.00  0.00    -0.550 OA
ATOM     24  O   UNL     1       9.928   5.336  -8.348  1.00  0.00    -0.550 OA
ENDBRANCH  21  22
ENDBRANCH  20  21
ENDBRANCH  19  20
ENDBRANCH  18  19
ENDBRANCH  17  18
ENDBRANCH  16  17
ENDBRANCH  15  16
ENDBRANCH  14  15
ENDBRANCH  13  14
ENDBRANCH   1  13
TORSDOF 20
ENDMDL
