MODEL 1
REMARK VINA RESULT:    -4.116      0.000      0.000
REMARK INTER + INTRA:          -7.175
REMARK INTER:                  -6.282
REMARK INTRA:                  -0.893
REMARK UNBOUND:                -0.893
REMARK SMILES O=C([O-])CCCCCCCCC(=O)[O-]
REMARK SMILES IDX 7 1 6 2 5 3 4 4 2 5 1 6 3 7 8 8 9 9 10 10 11 11 12 12 13 13
REMARK SMILES IDX 14 14
REMARK H PARENT
REMARK Flexibility Score: inf
ROOT
ATOM      1  C   UNL     1      -6.688  39.387  20.447  1.00  0.00     0.000 C 
ENDROOT
BRANCH   1   2
ATOM      2  C   UNL     1      -7.570  39.094  21.669  1.00  0.00     0.000 C 
BRANCH   2   3
ATOM      3  C   UNL     1      -6.806  38.384  22.802  1.00  0.00     0.006 C 
BRANCH   3   4
ATOM      4  C   UNL     1      -6.310  36.974  22.443  1.00  0.00     0.053 C 
BRANCH   4   5
ATOM      5  C   UNL     1      -4.819  36.867  22.515  1.00  0.00     0.041 C 
ATOM      6  O   UNL     1      -4.255  35.751  22.362  1.00  0.00    -0.550 OA
ATOM      7  O   UNL     1      -4.053  37.994  22.783  1.00  0.00    -0.550 OA
ENDBRANCH   4   5
ENDBRANCH   3   4
ENDBRANCH   2   3
ENDBRANCH   1   2
BRANCH   1   8
ATOM      8  C   UNL     1      -7.065  38.485  19.267  1.00  0.00     0.000 C 
BRANCH   8   9
ATOM      9  C   UNL     1      -5.839  37.739  18.728  1.00  0.00     0.000 C 
BRANCH   9  10
ATOM     10  C   UNL     1      -4.540  38.462  19.115  1.00  0.00     0.006 C 
BRANCH  10  11
ATOM     11  C   UNL     1      -3.373  37.490  19.322  1.00  0.00     0.053 C 
BRANCH  11  12
ATOM     12  C   UNL     1      -2.575  37.303  18.067  1.00  0.00     0.041 C 
ATOM     13  O   UNL     1      -2.671  38.134  17.126  1.00  0.00    -0.550 OA
ATOM     14  O   UNL     1      -1.750  36.194  17.924  1.00  0.00    -0.550 OA
ENDBRANCH  11  12
ENDBRANCH  10  11
ENDBRANCH   9  10
ENDBRANCH   8   9
ENDBRANCH   1   8
TORSDOF 9
ENDMDL
MODEL 2
REMARK VINA RESULT:    -4.056      1.187      4.301
REMARK INTER + INTRA:          -7.083
REMARK INTER:                  -6.074
REMARK INTRA:                  -1.010
REMARK UNBOUND:                -0.893
REMARK SMILES O=C([O-])CCCCCCCCC(=O)[O-]
REMARK SMILES IDX 7 1 6 2 5 3 4 4 2 5 1 6 3 7 8 8 9 9 10 10 11 11 12 12 13 13
REMARK SMILES IDX 14 14
REMARK H PARENT
REMARK Flexibility Score: inf
ROOT
ATOM      1  C   UNL     1      -7.125  38.072  19.634  1.00  0.00     0.000 C 
ENDROOT
BRANCH   1   2
ATOM      2  C   UNL     1      -5.760  37.794  18.987  1.00  0.00     0.000 C 
BRANCH   2   3
ATOM      3  C   UNL     1      -4.750  38.935  19.209  1.00  0.00     0.006 C 
BRANCH   3   4
ATOM      4  C   UNL     1      -3.449  38.793  18.404  1.00  0.00     0.053 C 
BRANCH   4   5
ATOM      5  C   UNL     1      -2.488  37.845  19.051  1.00  0.00     0.041 C 
ATOM      6  O   UNL     1      -1.842  38.196  20.074  1.00  0.00    -0.550 OA
ATOM      7  O   UNL     1      -2.281  36.584  18.507  1.00  0.00    -0.550 OA
ENDBRANCH   4   5
ENDBRANCH   3   4
ENDBRANCH   2   3
ENDBRANCH   1   2
BRANCH   1   8
ATOM      8  C   UNL     1      -7.085  39.355  20.472  1.00  0.00     0.000 C 
BRANCH   8   9
ATOM      9  C   UNL     1      -7.559  39.091  21.906  1.00  0.00     0.000 C 
BRANCH   9  10
ATOM     10  C   UNL     1      -6.594  38.149  22.641  1.00  0.00     0.006 C 
BRANCH  10  11
ATOM     11  C   UNL     1      -5.219  38.788  22.870  1.00  0.00     0.053 C 
BRANCH  11  12
ATOM     12  C   UNL     1      -4.117  37.774  22.810  1.00  0.00     0.041 C 
ATOM     13  O   UNL     1      -3.066  37.939  23.483  1.00  0.00    -0.550 OA
ATOM     14  O   UNL     1      -4.237  36.662  21.985  1.00  0.00    -0.550 OA
ENDBRANCH  11  12
ENDBRANCH  10  11
ENDBRANCH   9  10
ENDBRANCH   8   9
ENDBRANCH   1   8
TORSDOF 9
ENDMDL
MODEL 3
REMARK VINA RESULT:    -3.995      8.954     10.985
REMARK INTER + INTRA:          -6.991
REMARK INTER:                  -6.563
REMARK INTRA:                  -0.428
REMARK UNBOUND:                -0.893
REMARK SMILES O=C([O-])CCCCCCCCC(=O)[O-]
REMARK SMILES IDX 7 1 6 2 5 3 4 4 2 5 1 6 3 7 8 8 9 9 10 10 11 11 12 12 13 13
REMARK SMILES IDX 14 14
REMARK H PARENT
REMARK Flexibility Score: inf
ROOT
ATOM      1  C   UNL     1      -0.242  28.488  17.122  1.00  0.00     0.000 C 
ENDROOT
BRANCH   1   2
ATOM      2  C   UNL     1      -0.363  27.014  16.710  1.00  0.00     0.000 C 
BRANCH   2   3
ATOM      3  C   UNL     1       0.404  26.065  17.649  1.00  0.00     0.006 C 
BRANCH   3   4
ATOM      4  C   UNL     1      -0.495  25.200  18.547  1.00  0.00     0.053 C 
BRANCH   4   5
ATOM      5  C   UNL     1      -0.331  25.536  19.997  1.00  0.00     0.041 C 
ATOM      6  O   UNL     1      -0.602  26.692  20.415  1.00  0.00    -0.550 OA
ATOM      7  O   UNL     1       0.153  24.580  20.881  1.00  0.00    -0.550 OA
ENDBRANCH   4   5
ENDBRANCH   3   4
ENDBRANCH   2   3
ENDBRANCH   1   2
BRANCH   1   8
ATOM      8  C   UNL     1       1.061  29.101  16.596  1.00  0.00     0.000 C 
BRANCH   8   9
ATOM      9  C   UNL     1       1.048  30.627  16.734  1.00  0.00     0.000 C 
BRANCH   9  10
ATOM     10  C   UNL     1      -0.348  31.133  17.126  1.00  0.00     0.006 C 
BRANCH  10  11
ATOM     11  C   UNL     1      -0.292  32.469  17.879  1.00  0.00     0.053 C 
BRANCH  11  12
ATOM     12  C   UNL     1      -0.777  33.605  17.032  1.00  0.00     0.041 C 
ATOM     13  O   UNL     1      -0.191  33.887  15.953  1.00  0.00    -0.550 OA
ATOM     14  O   UNL     1      -1.856  34.375  17.449  1.00  0.00    -0.550 OA
ENDBRANCH  11  12
ENDBRANCH  10  11
ENDBRANCH   9  10
ENDBRANCH   8   9
ENDBRANCH   1   8
TORSDOF 9
ENDMDL
MODEL 4
REMARK VINA RESULT:    -3.952      1.229      1.794
REMARK INTER + INTRA:          -6.924
REMARK INTER:                  -6.018
REMARK INTRA:                  -0.906
REMARK UNBOUND:                -0.893
REMARK SMILES O=C([O-])CCCCCCCCC(=O)[O-]
REMARK SMILES IDX 7 1 6 2 5 3 4 4 2 5 1 6 3 7 8 8 9 9 10 10 11 11 12 12 13 13
REMARK SMILES IDX 14 14
REMARK H PARENT
REMARK Flexibility Score: inf
ROOT
ATOM      1  C   UNL     1      -6.685  39.630  20.586  1.00  0.00     0.000 C 
ENDROOT
BRANCH   1   2
ATOM      2  C   UNL     1      -7.574  39.187  21.758  1.00  0.00     0.000 C 
BRANCH   2   3
ATOM      3  C   UNL     1      -6.807  38.367  22.812  1.00  0.00     0.006 C 
BRANCH   3   4
ATOM      4  C   UNL     1      -6.269  37.022  22.298  1.00  0.00     0.053 C 
BRANCH   4   5
ATOM      5  C   UNL     1      -4.774  37.008  22.219  1.00  0.00     0.041 C 
ATOM      6  O   UNL     1      -4.095  37.812  22.910  1.00  0.00    -0.550 OA
ATOM      7  O   UNL     1      -4.131  36.128  21.357  1.00  0.00    -0.550 OA
ENDBRANCH   4   5
ENDBRANCH   3   4
ENDBRANCH   2   3
ENDBRANCH   1   2
BRANCH   1   8
ATOM      8  C   UNL     1      -5.552  40.542  21.069  1.00  0.00     0.000 C 
BRANCH   8   9
ATOM      9  C   UNL     1      -4.306  40.388  20.189  1.00  0.00     0.000 C 
BRANCH   9  10
ATOM     10  C   UNL     1      -4.401  39.128  19.316  1.00  0.00     0.006 C 
BRANCH  10  11
ATOM     11  C   UNL     1      -3.188  38.969  18.390  1.00  0.00     0.053 C 
BRANCH  11  12
ATOM     12  C   UNL     1      -2.281  37.868  18.846  1.00  0.00     0.041 C 
ATOM     13  O   UNL     1      -1.274  38.129  19.557  1.00  0.00    -0.550 OA
ATOM     14  O   UNL     1      -2.527  36.556  18.459  1.00  0.00    -0.550 OA
ENDBRANCH  11  12
ENDBRANCH  10  11
ENDBRANCH   9  10
ENDBRANCH   8   9
ENDBRANCH   1   8
TORSDOF 9
ENDMDL
MODEL 5
REMARK VINA RESULT:    -3.928      0.745      4.560
REMARK INTER + INTRA:          -6.888
REMARK INTER:                  -6.028
REMARK INTRA:                  -0.860
REMARK UNBOUND:                -0.893
REMARK SMILES O=C([O-])CCCCCCCCC(=O)[O-]
REMARK SMILES IDX 7 1 6 2 5 3 4 4 2 5 1 6 3 7 8 8 9 9 10 10 11 11 12 12 13 13
REMARK SMILES IDX 14 14
REMARK H PARENT
REMARK Flexibility Score: inf
ROOT
ATOM      1  C   UNL     1      -6.830  37.780  19.743  1.00  0.00     0.000 C 
ENDROOT
BRANCH   1   2
ATOM      2  C   UNL     1      -5.729  37.810  18.673  1.00  0.00     0.000 C 
BRANCH   2   3
ATOM      3  C   UNL     1      -4.398  38.376  19.201  1.00  0.00     0.006 C 
BRANCH   3   4
ATOM      4  C   UNL     1      -3.284  37.329  19.360  1.00  0.00     0.053 C 
BRANCH   4   5
ATOM      5  C   UNL     1      -2.581  37.056  18.067  1.00  0.00     0.041 C 
ATOM      6  O   UNL     1      -2.487  37.958  17.193  1.00  0.00    -0.550 OA
ATOM      7  O   UNL     1      -2.058  35.794  17.812  1.00  0.00    -0.550 OA
ENDBRANCH   4   5
ENDBRANCH   3   4
ENDBRANCH   2   3
ENDBRANCH   1   2
BRANCH   1   8
ATOM      8  C   UNL     1      -7.101  39.185  20.293  1.00  0.00     0.000 C 
BRANCH   8   9
ATOM      9  C   UNL     1      -7.510  39.130  21.769  1.00  0.00     0.000 C 
BRANCH   9  10
ATOM     10  C   UNL     1      -6.605  38.171  22.557  1.00  0.00     0.006 C 
BRANCH  10  11
ATOM     11  C   UNL     1      -5.255  38.807  22.913  1.00  0.00     0.053 C 
BRANCH  11  12
ATOM     12  C   UNL     1      -4.155  37.791  22.948  1.00  0.00     0.041 C 
ATOM     13  O   UNL     1      -3.011  38.110  23.369  1.00  0.00    -0.550 OA
ATOM     14  O   UNL     1      -4.381  36.501  22.485  1.00  0.00    -0.550 OA
ENDBRANCH  11  12
ENDBRANCH  10  11
ENDBRANCH   9  10
ENDBRANCH   8   9
ENDBRANCH   1   8
TORSDOF 9
ENDMDL
MODEL 6
REMARK VINA RESULT:    -3.926     10.046     12.416
REMARK INTER + INTRA:          -6.885
REMARK INTER:                  -6.437
REMARK INTRA:                  -0.447
REMARK UNBOUND:                -0.893
REMARK SMILES O=C([O-])CCCCCCCCC(=O)[O-]
REMARK SMILES IDX 7 1 6 2 5 3 4 4 2 5 1 6 3 7 8 8 9 9 10 10 11 11 12 12 13 13
REMARK SMILES IDX 14 14
REMARK H PARENT
REMARK Flexibility Score: inf
ROOT
ATOM      1  C   UNL     1      -0.457  27.024  16.149  1.00  0.00     0.000 C 
ENDROOT
BRANCH   1   2
ATOM      2  C   UNL     1       0.555  28.156  16.377  1.00  0.00     0.000 C 
BRANCH   2   3
ATOM      3  C   UNL     1      -0.030  29.326  17.190  1.00  0.00     0.006 C 
BRANCH   3   4
ATOM      4  C   UNL     1       0.590  30.694  16.864  1.00  0.00     0.053 C 
BRANCH   4   5
ATOM      5  C   UNL     1      -0.243  31.826  17.382  1.00  0.00     0.041 C 
ATOM      6  O   UNL     1      -0.923  31.684  18.432  1.00  0.00    -0.550 OA
ATOM      7  O   UNL     1      -0.294  33.027  16.686  1.00  0.00    -0.550 OA
ENDBRANCH   4   5
ENDBRANCH   3   4
ENDBRANCH   2   3
ENDBRANCH   1   2
BRANCH   1   8
ATOM      8  C   UNL     1       0.178  25.656  16.423  1.00  0.00     0.000 C 
BRANCH   8   9
ATOM      9  C   UNL     1       0.695  25.566  17.863  1.00  0.00     0.000 C 
BRANCH   9  10
ATOM     10  C   UNL     1      -0.462  25.373  18.854  1.00  0.00     0.006 C 
BRANCH  10  11
ATOM     11  C   UNL     1      -0.020  25.570  20.310  1.00  0.00     0.053 C 
BRANCH  11  12
ATOM     12  C   UNL     1      -1.045  25.061  21.276  1.00  0.00     0.041 C 
ATOM     13  O   UNL     1      -1.822  25.863  21.858  1.00  0.00    -0.550 OA
ATOM     14  O   UNL     1      -1.121  23.703  21.560  1.00  0.00    -0.550 OA
ENDBRANCH  11  12
ENDBRANCH  10  11
ENDBRANCH   9  10
ENDBRANCH   8   9
ENDBRANCH   1   8
TORSDOF 9
ENDMDL
MODEL 7
REMARK VINA RESULT:    -3.919      2.295      3.766
REMARK INTER + INTRA:          -6.874
REMARK INTER:                  -5.663
REMARK INTRA:                  -1.210
REMARK UNBOUND:                -0.893
REMARK SMILES O=C([O-])CCCCCCCCC(=O)[O-]
REMARK SMILES IDX 7 1 6 2 5 3 4 4 2 5 1 6 3 7 8 8 9 9 10 10 11 11 12 12 13 13
REMARK SMILES IDX 14 14
REMARK H PARENT
REMARK Flexibility Score: inf
ROOT
ATOM      1  C   UNL     1      -7.169  39.574  21.074  1.00  0.00     0.000 C 
ENDROOT
BRANCH   1   2
ATOM      2  C   UNL     1      -7.371  38.904  22.441  1.00  0.00     0.000 C 
BRANCH   2   3
ATOM      3  C   UNL     1      -6.501  37.647  22.624  1.00  0.00     0.006 C 
BRANCH   3   4
ATOM      4  C   UNL     1      -5.918  37.086  21.317  1.00  0.00     0.053 C 
BRANCH   4   5
ATOM      5  C   UNL     1      -4.494  36.653  21.477  1.00  0.00     0.041 C 
ATOM      6  O   UNL     1      -3.630  36.984  20.623  1.00  0.00    -0.550 OA
ATOM      7  O   UNL     1      -4.126  35.855  22.554  1.00  0.00    -0.550 OA
ENDBRANCH   4   5
ENDBRANCH   3   4
ENDBRANCH   2   3
ENDBRANCH   1   2
BRANCH   1   8
ATOM      8  C   UNL     1      -6.201  40.759  21.181  1.00  0.00     0.000 C 
BRANCH   8   9
ATOM      9  C   UNL     1      -4.923  40.501  20.376  1.00  0.00     0.000 C 
BRANCH   9  10
ATOM     10  C   UNL     1      -3.702  40.389  21.301  1.00  0.00     0.006 C 
BRANCH  10  11
ATOM     11  C   UNL     1      -4.079  40.530  22.781  1.00  0.00     0.053 C 
BRANCH  11  12
ATOM     12  C   UNL     1      -3.376  39.519  23.633  1.00  0.00     0.041 C 
ATOM     13  O   UNL     1      -3.786  39.276  24.799  1.00  0.00    -0.550 OA
ATOM     14  O   UNL     1      -2.246  38.867  23.153  1.00  0.00    -0.550 OA
ENDBRANCH  11  12
ENDBRANCH  10  11
ENDBRANCH   9  10
ENDBRANCH   8   9
ENDBRANCH   1   8
TORSDOF 9
ENDMDL
MODEL 8
REMARK VINA RESULT:    -3.905      9.882     11.758
REMARK INTER + INTRA:          -6.852
REMARK INTER:                  -6.427
REMARK INTRA:                  -0.425
REMARK UNBOUND:                -0.893
REMARK SMILES O=C([O-])CCCCCCCCC(=O)[O-]
REMARK SMILES IDX 7 1 6 2 5 3 4 4 2 5 1 6 3 7 8 8 9 9 10 10 11 11 12 12 13 13
REMARK SMILES IDX 14 14
REMARK H PARENT
REMARK Flexibility Score: inf
ROOT
ATOM      1  C   UNL     1      -0.024  25.908  16.296  1.00  0.00     0.000 C 
ENDROOT
BRANCH   1   2
ATOM      2  C   UNL     1       0.580  25.745  17.699  1.00  0.00     0.000 C 
BRANCH   2   3
ATOM      3  C   UNL     1      -0.459  25.310  18.750  1.00  0.00     0.006 C 
BRANCH   3   4
ATOM      4  C   UNL     1      -0.002  25.499  20.205  1.00  0.00     0.053 C 
BRANCH   4   5
ATOM      5  C   UNL     1      -1.104  25.223  21.180  1.00  0.00     0.041 C 
ATOM      6  O   UNL     1      -1.932  26.125  21.474  1.00  0.00    -0.550 OA
ATOM      7  O   UNL     1      -1.199  23.978  21.788  1.00  0.00    -0.550 OA
ENDBRANCH   4   5
ENDBRANCH   3   4
ENDBRANCH   2   3
ENDBRANCH   1   2
BRANCH   1   8
ATOM      8  C   UNL     1      -0.377  27.374  16.017  1.00  0.00     0.000 C 
BRANCH   8   9
ATOM      9  C   UNL     1       0.648  28.319  16.655  1.00  0.00     0.000 C 
BRANCH   9  10
ATOM     10  C   UNL     1      -0.042  29.545  17.271  1.00  0.00     0.006 C 
BRANCH  10  11
ATOM     11  C   UNL     1       0.495  30.863  16.699  1.00  0.00     0.053 C 
BRANCH  11  12
ATOM     12  C   UNL     1      -0.295  32.041  17.181  1.00  0.00     0.041 C 
ATOM     13  O   UNL     1      -0.848  32.014  18.312  1.00  0.00    -0.550 OA
ATOM     14  O   UNL     1      -0.449  33.157  16.366  1.00  0.00    -0.550 OA
ENDBRANCH  11  12
ENDBRANCH  10  11
ENDBRANCH   9  10
ENDBRANCH   8   9
ENDBRANCH   1   8
TORSDOF 9
ENDMDL
MODEL 9
REMARK VINA RESULT:    -3.855      1.149      2.190
REMARK INTER + INTRA:          -6.777
REMARK INTER:                  -5.922
REMARK INTRA:                  -0.855
REMARK UNBOUND:                -0.893
REMARK SMILES O=C([O-])CCCCCCCCC(=O)[O-]
REMARK SMILES IDX 7 1 6 2 5 3 4 4 2 5 1 6 3 7 8 8 9 9 10 10 11 11 12 12 13 13
REMARK SMILES IDX 14 14
REMARK H PARENT
REMARK Flexibility Score: inf
ROOT
ATOM      1  C   UNL     1      -5.680  38.091  19.041  1.00  0.00     0.000 C 
ENDROOT
BRANCH   1   2
ATOM      2  C   UNL     1      -7.092  38.377  19.572  1.00  0.00     0.000 C 
BRANCH   2   3
ATOM      3  C   UNL     1      -7.105  39.421  20.704  1.00  0.00     0.006 C 
BRANCH   3   4
ATOM      4  C   UNL     1      -7.396  38.840  22.097  1.00  0.00     0.053 C 
BRANCH   4   5
ATOM      5  C   UNL     1      -6.291  37.950  22.576  1.00  0.00     0.041 C 
ATOM      6  O   UNL     1      -6.452  36.702  22.608  1.00  0.00    -0.550 OA
ATOM      7  O   UNL     1      -5.095  38.501  23.017  1.00  0.00    -0.550 OA
ENDBRANCH   4   5
ENDBRANCH   3   4
ENDBRANCH   2   3
ENDBRANCH   1   2
BRANCH   1   8
ATOM      8  C   UNL     1      -4.711  39.217  19.423  1.00  0.00     0.000 C 
BRANCH   8   9
ATOM      9  C   UNL     1      -3.360  38.651  19.877  1.00  0.00     0.000 C 
BRANCH   9  10
ATOM     10  C   UNL     1      -3.219  37.175  19.479  1.00  0.00     0.006 C 
BRANCH  10  11
ATOM     11  C   UNL     1      -2.109  36.956  18.443  1.00  0.00     0.053 C 
BRANCH  11  12
ATOM     12  C   UNL     1      -2.665  36.577  17.104  1.00  0.00     0.041 C 
ATOM     13  O   UNL     1      -2.398  35.454  16.601  1.00  0.00    -0.550 OA
ATOM     14  O   UNL     1      -3.452  37.478  16.396  1.00  0.00    -0.550 OA
ENDBRANCH  11  12
ENDBRANCH  10  11
ENDBRANCH   9  10
ENDBRANCH   8   9
ENDBRANCH   1   8
TORSDOF 9
ENDMDL
