MODEL 1
REMARK VINA RESULT:    -2.461      0.000      0.000
REMARK INTER + INTRA:          -3.929
REMARK INTER:                  -3.469
REMARK INTRA:                  -0.460
REMARK UNBOUND:                -0.460
REMARK SMILES CCCCCCCCC(=O)[O-]
REMARK SMILES IDX 6 1 7 2 8 3 9 4 10 5 11 6 5 7 4 8 3 9 2 10 1 11
REMARK H PARENT
REMARK Flexibility Score: inf
ROOT
ATOM      1  C   UNL     1      19.213  22.507  47.125  1.00  0.00     0.000 C 
ENDROOT
BRANCH   1   2
ATOM      2  C   UNL     1      20.431  21.879  46.430  1.00  0.00     0.006 C 
BRANCH   2   3
ATOM      3  C   UNL     1      21.747  22.576  46.800  1.00  0.00     0.053 C 
BRANCH   3   4
ATOM      4  C   UNL     1      22.535  22.891  45.569  1.00  0.00     0.041 C 
ATOM      5  O   UNL     1      21.945  23.231  44.509  1.00  0.00    -0.550 OA
ATOM      6  O   UNL     1      23.923  22.859  45.604  1.00  0.00    -0.550 OA
ENDBRANCH   3   4
ENDBRANCH   2   3
ENDBRANCH   1   2
BRANCH   1   7
ATOM      7  C   UNL     1      19.033  23.994  46.779  1.00  0.00     0.000 C 
BRANCH   7   8
ATOM      8  C   UNL     1      17.549  24.330  46.566  1.00  0.00    -0.000 C 
BRANCH   8   9
ATOM      9  C   UNL     1      17.077  24.045  45.132  1.00  0.00    -0.000 C 
BRANCH   9  10
ATOM     10  C   UNL     1      18.178  24.283  44.089  1.00  0.00    -0.003 C 
ATOM     11  C   UNL     1      17.590  24.798  42.778  1.00  0.00     0.004 C 
ENDBRANCH   9  10
ENDBRANCH   8   9
ENDBRANCH   7   8
ENDBRANCH   1   7
TORSDOF 7
ENDMDL
MODEL 2
REMARK VINA RESULT:    -2.206     18.684     20.570
REMARK INTER + INTRA:          -3.569
REMARK INTER:                  -2.987
REMARK INTRA:                  -0.582
REMARK UNBOUND:                -0.460
REMARK SMILES CCCCCCCCC(=O)[O-]
REMARK SMILES IDX 6 1 7 2 8 3 9 4 10 5 11 6 5 7 4 8 3 9 2 10 1 11
REMARK H PARENT
REMARK Flexibility Score: inf
ROOT
ATOM      1  C   UNL     1      30.540  23.790  28.604  1.00  0.00     0.000 C 
ENDROOT
BRANCH   1   2
ATOM      2  C   UNL     1      30.453  25.044  29.489  1.00  0.00     0.006 C 
BRANCH   2   3
ATOM      3  C   UNL     1      31.435  25.003  30.668  1.00  0.00     0.053 C 
BRANCH   3   4
ATOM      4  C   UNL     1      30.691  24.938  31.964  1.00  0.00     0.041 C 
ATOM      5  O   UNL     1      31.318  24.951  33.056  1.00  0.00    -0.550 OA
ATOM      6  O   UNL     1      29.303  24.912  31.968  1.00  0.00    -0.550 OA
ENDBRANCH   3   4
ENDBRANCH   2   3
ENDBRANCH   1   2
BRANCH   1   7
ATOM      7  C   UNL     1      31.878  23.049  28.755  1.00  0.00     0.000 C 
BRANCH   7   8
ATOM      8  C   UNL     1      32.619  22.980  27.410  1.00  0.00    -0.000 C 
BRANCH   8   9
ATOM      9  C   UNL     1      33.630  24.123  27.233  1.00  0.00    -0.000 C 
BRANCH   9  10
ATOM     10  C   UNL     1      34.393  24.444  28.526  1.00  0.00    -0.003 C 
ATOM     11  C   UNL     1      35.864  24.056  28.407  1.00  0.00     0.004 C 
ENDBRANCH   9  10
ENDBRANCH   8   9
ENDBRANCH   7   8
ENDBRANCH   1   7
TORSDOF 7
ENDMDL
MODEL 3
REMARK VINA RESULT:    -2.107     17.311     18.941
REMARK INTER + INTRA:          -3.429
REMARK INTER:                  -2.982
REMARK INTRA:                  -0.447
REMARK UNBOUND:                -0.460
REMARK SMILES CCCCCCCCC(=O)[O-]
REMARK SMILES IDX 6 1 7 2 8 3 9 4 10 5 11 6 5 7 4 8 3 9 2 10 1 11
REMARK H PARENT
REMARK Flexibility Score: inf
ROOT
ATOM      1  C   UNL     1      30.073  24.236  31.377  1.00  0.00     0.000 C 
ENDROOT
BRANCH   1   2
ATOM      2  C   UNL     1      30.863  25.039  32.422  1.00  0.00     0.006 C 
BRANCH   2   3
ATOM      3  C   UNL     1      32.360  25.121  32.095  1.00  0.00     0.053 C 
BRANCH   3   4
ATOM      4  C   UNL     1      33.175  24.983  33.342  1.00  0.00     0.041 C 
ATOM      5  O   UNL     1      32.613  24.984  34.469  1.00  0.00    -0.550 OA
ATOM      6  O   UNL     1      34.549  24.803  33.258  1.00  0.00    -0.550 OA
ENDBRANCH   3   4
ENDBRANCH   2   3
ENDBRANCH   1   2
BRANCH   1   7
ATOM      7  C   UNL     1      29.468  25.125  30.279  1.00  0.00     0.000 C 
BRANCH   7   8
ATOM      8  C   UNL     1      30.291  25.031  28.985  1.00  0.00    -0.000 C 
BRANCH   8   9
ATOM      9  C   UNL     1      30.356  23.601  28.426  1.00  0.00    -0.000 C 
BRANCH   9  10
ATOM     10  C   UNL     1      31.692  22.909  28.728  1.00  0.00    -0.003 C 
ATOM     11  C   UNL     1      32.871  23.799  28.346  1.00  0.00     0.004 C 
ENDBRANCH   9  10
ENDBRANCH   8   9
ENDBRANCH   7   8
ENDBRANCH   1   7
TORSDOF 7
ENDMDL
MODEL 4
REMARK VINA RESULT:    -2.073     17.893     19.399
REMARK INTER + INTRA:          -3.381
REMARK INTER:                  -3.113
REMARK INTRA:                  -0.268
REMARK UNBOUND:                -0.460
REMARK SMILES CCCCCCCCC(=O)[O-]
REMARK SMILES IDX 6 1 7 2 8 3 9 4 10 5 11 6 5 7 4 8 3 9 2 10 1 11
REMARK H PARENT
REMARK Flexibility Score: inf
ROOT
ATOM      1  C   UNL     1      30.182  24.891  31.788  1.00  0.00     0.000 C 
ENDROOT
BRANCH   1   2
ATOM      2  C   UNL     1      30.046  24.033  30.519  1.00  0.00     0.006 C 
BRANCH   2   3
ATOM      3  C   UNL     1      30.378  24.814  29.241  1.00  0.00     0.053 C 
BRANCH   3   4
ATOM      4  C   UNL     1      30.927  23.895  28.196  1.00  0.00     0.041 C 
ATOM      5  O   UNL     1      30.276  23.674  27.141  1.00  0.00    -0.550 OA
ATOM      6  O   UNL     1      32.181  23.322  28.364  1.00  0.00    -0.550 OA
ENDBRANCH   3   4
ENDBRANCH   2   3
ENDBRANCH   1   2
BRANCH   1   7
ATOM      7  C   UNL     1      31.646  25.124  32.192  1.00  0.00     0.000 C 
BRANCH   7   8
ATOM      8  C   UNL     1      31.855  24.825  33.685  1.00  0.00    -0.000 C 
BRANCH   8   9
ATOM      9  C   UNL     1      33.315  25.008  34.126  1.00  0.00    -0.000 C 
BRANCH   9  10
ATOM     10  C   UNL     1      34.281  25.125  32.938  1.00  0.00    -0.003 C 
ATOM     11  C   UNL     1      35.620  24.462  33.252  1.00  0.00     0.004 C 
ENDBRANCH   9  10
ENDBRANCH   8   9
ENDBRANCH   7   8
ENDBRANCH   1   7
TORSDOF 7
ENDMDL
MODEL 5
REMARK VINA RESULT:    -2.058      2.059      4.671
REMARK INTER + INTRA:          -3.360
REMARK INTER:                  -2.890
REMARK INTRA:                  -0.470
REMARK UNBOUND:                -0.460
REMARK SMILES CCCCCCCCC(=O)[O-]
REMARK SMILES IDX 6 1 7 2 8 3 9 4 10 5 11 6 5 7 4 8 3 9 2 10 1 11
REMARK H PARENT
REMARK Flexibility Score: inf
ROOT
ATOM      1  C   UNL     1      18.431  23.243  46.951  1.00  0.00     0.000 C 
ENDROOT
BRANCH   1   2
ATOM      2  C   UNL     1      18.086  24.629  46.382  1.00  0.00     0.006 C 
BRANCH   2   3
ATOM      3  C   UNL     1      17.183  24.551  45.144  1.00  0.00     0.053 C 
BRANCH   3   4
ATOM      4  C   UNL     1      17.994  24.710  43.897  1.00  0.00     0.041 C 
ATOM      5  O   UNL     1      17.468  24.512  42.770  1.00  0.00    -0.550 OA
ATOM      6  O   UNL     1      19.316  25.125  43.975  1.00  0.00    -0.550 OA
ENDBRANCH   3   4
ENDBRANCH   2   3
ENDBRANCH   1   2
BRANCH   1   7
ATOM      7  C   UNL     1      19.943  22.975  46.983  1.00  0.00     0.000 C 
BRANCH   7   8
ATOM      8  C   UNL     1      20.389  22.206  45.729  1.00  0.00    -0.000 C 
BRANCH   8   9
ATOM      9  C   UNL     1      21.640  22.815  45.076  1.00  0.00    -0.000 C 
BRANCH   9  10
ATOM     10  C   UNL     1      22.840  22.867  46.031  1.00  0.00    -0.003 C 
ATOM     11  C   UNL     1      24.155  22.924  45.258  1.00  0.00     0.004 C 
ENDBRANCH   9  10
ENDBRANCH   8   9
ENDBRANCH   7   8
ENDBRANCH   1   7
TORSDOF 7
ENDMDL
MODEL 6
REMARK VINA RESULT:    -1.991     20.261     21.945
REMARK INTER + INTRA:          -3.266
REMARK INTER:                  -2.881
REMARK INTRA:                  -0.385
REMARK UNBOUND:                -0.460
REMARK SMILES CCCCCCCCC(=O)[O-]
REMARK SMILES IDX 6 1 7 2 8 3 9 4 10 5 11 6 5 7 4 8 3 9 2 10 1 11
REMARK H PARENT
REMARK Flexibility Score: inf
ROOT
ATOM      1  C   UNL     1      33.422  24.683  27.514  1.00  0.00     0.000 C 
ENDROOT
BRANCH   1   2
ATOM      2  C   UNL     1      34.944  24.854  27.388  1.00  0.00     0.006 C 
BRANCH   2   3
ATOM      3  C   UNL     1      35.672  23.519  27.176  1.00  0.00     0.053 C 
BRANCH   3   4
ATOM      4  C   UNL     1      36.612  23.252  28.309  1.00  0.00     0.041 C 
ATOM      5  O   UNL     1      37.125  22.111  28.451  1.00  0.00    -0.550 OA
ATOM      6  O   UNL     1      36.960  24.276  29.180  1.00  0.00    -0.550 OA
ENDBRANCH   3   4
ENDBRANCH   2   3
ENDBRANCH   1   2
BRANCH   1   7
ATOM      7  C   UNL     1      33.005  24.042  28.847  1.00  0.00     0.000 C 
BRANCH   7   8
ATOM      8  C   UNL     1      31.874  23.024  28.634  1.00  0.00    -0.000 C 
BRANCH   8   9
ATOM      9  C   UNL     1      30.523  23.520  29.171  1.00  0.00    -0.000 C 
BRANCH   9  10
ATOM     10  C   UNL     1      30.672  24.673  30.173  1.00  0.00    -0.003 C 
ATOM     11  C   UNL     1      30.248  24.242  31.574  1.00  0.00     0.004 C 
ENDBRANCH   9  10
ENDBRANCH   8   9
ENDBRANCH   7   8
ENDBRANCH   1   7
TORSDOF 7
ENDMDL
MODEL 7
REMARK VINA RESULT:    -1.883     18.099     19.653
REMARK INTER + INTRA:          -3.114
REMARK INTER:                  -2.762
REMARK INTRA:                  -0.352
REMARK UNBOUND:                -0.460
REMARK SMILES CCCCCCCCC(=O)[O-]
REMARK SMILES IDX 6 1 7 2 8 3 9 4 10 5 11 6 5 7 4 8 3 9 2 10 1 11
REMARK H PARENT
REMARK Flexibility Score: inf
ROOT
ATOM      1  C   UNL     1      32.069  24.864  32.926  1.00  0.00     0.000 C 
ENDROOT
BRANCH   1   2
ATOM      2  C   UNL     1      33.460  24.804  33.578  1.00  0.00     0.006 C 
BRANCH   2   3
ATOM      3  C   UNL     1      34.590  25.125  32.591  1.00  0.00     0.053 C 
BRANCH   3   4
ATOM      4  C   UNL     1      35.883  24.547  33.072  1.00  0.00     0.041 C 
ATOM      5  O   UNL     1      35.884  23.629  33.935  1.00  0.00    -0.550 OA
ATOM      6  O   UNL     1      37.085  24.987  32.534  1.00  0.00    -0.550 OA
ENDBRANCH   3   4
ENDBRANCH   2   3
ENDBRANCH   1   2
BRANCH   1   7
ATOM      7  C   UNL     1      32.135  25.124  31.413  1.00  0.00     0.000 C 
BRANCH   7   8
ATOM      8  C   UNL     1      30.782  24.827  30.748  1.00  0.00    -0.000 C 
BRANCH   8   9
ATOM      9  C   UNL     1      30.913  24.533  29.245  1.00  0.00    -0.000 C 
BRANCH   9  10
ATOM     10  C   UNL     1      32.363  24.262  28.820  1.00  0.00    -0.003 C 
ATOM     11  C   UNL     1      32.414  23.463  27.520  1.00  0.00     0.004 C 
ENDBRANCH   9  10
ENDBRANCH   8   9
ENDBRANCH   7   8
ENDBRANCH   1   7
TORSDOF 7
ENDMDL
MODEL 8
REMARK VINA RESULT:    -1.871     19.565     21.522
REMARK INTER + INTRA:          -3.097
REMARK INTER:                  -2.733
REMARK INTRA:                  -0.364
REMARK UNBOUND:                -0.460
REMARK SMILES CCCCCCCCC(=O)[O-]
REMARK SMILES IDX 6 1 7 2 8 3 9 4 10 5 11 6 5 7 4 8 3 9 2 10 1 11
REMARK H PARENT
REMARK Flexibility Score: inf
ROOT
ATOM      1  C   UNL     1      32.611  23.242  28.753  1.00  0.00     0.000 C 
ENDROOT
BRANCH   1   2
ATOM      2  C   UNL     1      32.047  24.482  29.465  1.00  0.00     0.006 C 
BRANCH   2   3
ATOM      3  C   UNL     1      30.636  24.252  30.022  1.00  0.00     0.053 C 
BRANCH   3   4
ATOM      4  C   UNL     1      30.555  24.712  31.443  1.00  0.00     0.041 C 
ATOM      5  O   UNL     1      29.456  24.684  32.056  1.00  0.00    -0.550 OA
ATOM      6  O   UNL     1      31.703  25.124  32.107  1.00  0.00    -0.550 OA
ENDBRANCH   3   4
ENDBRANCH   2   3
ENDBRANCH   1   2
BRANCH   1   7
ATOM      7  C   UNL     1      32.982  23.517  27.287  1.00  0.00     0.000 C 
BRANCH   7   8
ATOM      8  C   UNL     1      33.887  24.754  27.174  1.00  0.00    -0.000 C 
BRANCH   8   9
ATOM      9  C   UNL     1      35.244  24.558  27.869  1.00  0.00    -0.000 C 
BRANCH   9  10
ATOM     10  C   UNL     1      36.195  23.659  27.066  1.00  0.00    -0.003 C 
ATOM     11  C   UNL     1      36.842  22.606  27.962  1.00  0.00     0.004 C 
ENDBRANCH   9  10
ENDBRANCH   8   9
ENDBRANCH   7   8
ENDBRANCH   1   7
TORSDOF 7
ENDMDL
MODEL 9
REMARK VINA RESULT:    -1.844     17.982     19.755
REMARK INTER + INTRA:          -3.059
REMARK INTER:                  -3.024
REMARK INTRA:                  -0.035
REMARK UNBOUND:                -0.460
REMARK SMILES CCCCCCCCC(=O)[O-]
REMARK SMILES IDX 6 1 7 2 8 3 9 4 10 5 11 6 5 7 4 8 3 9 2 10 1 11
REMARK H PARENT
REMARK Flexibility Score: inf
ROOT
ATOM      1  C   UNL     1      30.833  23.657  29.765  1.00  0.00     0.000 C 
ENDROOT
BRANCH   1   2
ATOM      2  C   UNL     1      30.399  24.408  28.496  1.00  0.00     0.006 C 
BRANCH   2   3
ATOM      3  C   UNL     1      31.590  24.954  27.696  1.00  0.00     0.053 C 
BRANCH   3   4
ATOM      4  C   UNL     1      32.821  24.153  27.982  1.00  0.00     0.041 C 
ATOM      5  O   UNL     1      33.802  24.686  28.563  1.00  0.00    -0.550 OA
ATOM      6  O   UNL     1      32.866  22.805  27.652  1.00  0.00    -0.550 OA
ENDBRANCH   3   4
ENDBRANCH   2   3
ENDBRANCH   1   2
BRANCH   1   7
ATOM      7  C   UNL     1      30.132  24.176  31.030  1.00  0.00     0.000 C 
BRANCH   7   8
ATOM      8  C   UNL     1      31.089  25.034  31.873  1.00  0.00    -0.000 C 
BRANCH   8   9
ATOM      9  C   UNL     1      30.985  24.734  33.376  1.00  0.00    -0.000 C 
BRANCH   9  10
ATOM     10  C   UNL     1      32.253  25.125  34.147  1.00  0.00    -0.003 C 
ATOM     11  C   UNL     1      33.475  25.121  33.233  1.00  0.00     0.004 C 
ENDBRANCH   9  10
ENDBRANCH   8   9
ENDBRANCH   7   8
ENDBRANCH   1   7
TORSDOF 7
ENDMDL
