MODEL 1
REMARK VINA RESULT:    -4.074      0.000      0.000
REMARK INTER + INTRA:          -5.895
REMARK INTER:                  -5.504
REMARK INTRA:                  -0.392
REMARK UNBOUND:                -0.392
REMARK SMILES CCCCCCCC(=O)[O-]
REMARK SMILES IDX 5 1 6 2 7 3 8 4 9 5 10 6 4 7 3 8 2 9 1 10
REMARK H PARENT
REMARK Flexibility Score: inf
ROOT
ATOM      1  C   UNL     1      26.933   5.414   6.112  1.00  0.00     0.000 C 
ENDROOT
BRANCH   1   2
ATOM      2  C   UNL     1      27.961   5.972   7.116  1.00  0.00     0.006 C 
BRANCH   2   3
ATOM      3  C   UNL     1      27.600   5.720   8.592  1.00  0.00     0.053 C 
BRANCH   3   4
ATOM      4  C   UNL     1      27.299   6.989   9.332  1.00  0.00     0.041 C 
ATOM      5  O   UNL     1      27.488   7.058  10.575  1.00  0.00    -0.550 OA
ATOM      6  O   UNL     1      26.771   8.083   8.657  1.00  0.00    -0.550 OA
ENDBRANCH   3   4
ENDBRANCH   2   3
ENDBRANCH   1   2
BRANCH   1   7
ATOM      7  C   UNL     1      25.842   6.403   5.673  1.00  0.00     0.000 C 
BRANCH   7   8
ATOM      8  C   UNL     1      24.562   6.297   6.516  1.00  0.00    -0.000 C 
BRANCH   8   9
ATOM      9  C   UNL     1      23.537   7.355   6.091  1.00  0.00    -0.003 C 
ATOM     10  C   UNL     1      24.225   8.624   5.597  1.00  0.00     0.004 C 
ENDBRANCH   8   9
ENDBRANCH   7   8
ENDBRANCH   1   7
TORSDOF 6
ENDMDL
MODEL 2
REMARK VINA RESULT:    -4.043      2.854      4.887
REMARK INTER + INTRA:          -5.853
REMARK INTER:                  -5.654
REMARK INTRA:                  -0.199
REMARK UNBOUND:                -0.392
REMARK SMILES CCCCCCCC(=O)[O-]
REMARK SMILES IDX 5 1 6 2 7 3 8 4 9 5 10 6 4 7 3 8 2 9 1 10
REMARK H PARENT
REMARK Flexibility Score: inf
ROOT
ATOM      1  C   UNL     1      27.433   5.900   6.986  1.00  0.00     0.000 C 
ENDROOT
BRANCH   1   2
ATOM      2  C   UNL     1      26.205   5.784   6.061  1.00  0.00     0.006 C 
BRANCH   2   3
ATOM      3  C   UNL     1      25.637   7.139   5.599  1.00  0.00     0.053 C 
BRANCH   3   4
ATOM      4  C   UNL     1      24.198   7.315   5.980  1.00  0.00     0.041 C 
ATOM      5  O   UNL     1      23.592   6.408   6.609  1.00  0.00    -0.550 OA
ATOM      6  O   UNL     1      23.512   8.464   5.603  1.00  0.00    -0.550 OA
ENDBRANCH   3   4
ENDBRANCH   2   3
ENDBRANCH   1   2
BRANCH   1   7
ATOM      7  C   UNL     1      27.868   4.591   7.665  1.00  0.00     0.000 C 
BRANCH   7   8
ATOM      8  C   UNL     1      27.067   3.372   7.185  1.00  0.00    -0.000 C 
BRANCH   8   9
ATOM      9  C   UNL     1      27.602   2.081   7.816  1.00  0.00    -0.003 C 
ATOM     10  C   UNL     1      27.694   0.959   6.786  1.00  0.00     0.004 C 
ENDBRANCH   8   9
ENDBRANCH   7   8
ENDBRANCH   1   7
TORSDOF 6
ENDMDL
MODEL 3
REMARK VINA RESULT:    -3.865      2.257      3.876
REMARK INTER + INTRA:          -5.612
REMARK INTER:                  -5.090
REMARK INTRA:                  -0.522
REMARK UNBOUND:                -0.392
REMARK SMILES CCCCCCCC(=O)[O-]
REMARK SMILES IDX 5 1 6 2 7 3 8 4 9 5 10 6 4 7 3 8 2 9 1 10
REMARK H PARENT
REMARK Flexibility Score: inf
ROOT
ATOM      1  C   UNL     1      27.587   6.110   7.205  1.00  0.00     0.000 C 
ENDROOT
BRANCH   1   2
ATOM      2  C   UNL     1      26.383   5.615   6.379  1.00  0.00     0.006 C 
BRANCH   2   3
ATOM      3  C   UNL     1      25.724   6.705   5.513  1.00  0.00     0.053 C 
BRANCH   3   4
ATOM      4  C   UNL     1      24.425   7.183   6.087  1.00  0.00     0.041 C 
ATOM      5  O   UNL     1      23.607   6.360   6.577  1.00  0.00    -0.550 OA
ATOM      6  O   UNL     1      24.096   8.533   6.043  1.00  0.00    -0.550 OA
ENDBRANCH   3   4
ENDBRANCH   2   3
ENDBRANCH   1   2
BRANCH   1   7
ATOM      7  C   UNL     1      27.428   5.995   8.729  1.00  0.00     0.000 C 
BRANCH   7   8
ATOM      8  C   UNL     1      27.604   7.337   9.454  1.00  0.00    -0.000 C 
BRANCH   8   9
ATOM      9  C   UNL     1      27.111   8.499   8.584  1.00  0.00    -0.003 C 
ATOM     10  C   UNL     1      25.809   9.082   9.126  1.00  0.00     0.004 C 
ENDBRANCH   8   9
ENDBRANCH   7   8
ENDBRANCH   1   7
TORSDOF 6
ENDMDL
MODEL 4
REMARK VINA RESULT:    -3.769      1.690      3.858
REMARK INTER + INTRA:          -5.483
REMARK INTER:                  -5.226
REMARK INTRA:                  -0.257
REMARK UNBOUND:                -0.392
REMARK SMILES CCCCCCCC(=O)[O-]
REMARK SMILES IDX 5 1 6 2 7 3 8 4 9 5 10 6 4 7 3 8 2 9 1 10
REMARK H PARENT
REMARK Flexibility Score: inf
ROOT
ATOM      1  C   UNL     1      25.748   6.241   5.636  1.00  0.00     0.000 C 
ENDROOT
BRANCH   1   2
ATOM      2  C   UNL     1      24.902   6.875   6.759  1.00  0.00     0.006 C 
BRANCH   2   3
ATOM      3  C   UNL     1      25.091   8.396   6.906  1.00  0.00     0.053 C 
BRANCH   3   4
ATOM      4  C   UNL     1      26.012   8.751   8.034  1.00  0.00     0.041 C 
ATOM      5  O   UNL     1      25.545   9.037   9.168  1.00  0.00    -0.550 OA
ATOM      6  O   UNL     1      27.384   8.809   7.823  1.00  0.00    -0.550 OA
ENDBRANCH   3   4
ENDBRANCH   2   3
ENDBRANCH   1   2
BRANCH   1   7
ATOM      7  C   UNL     1      27.098   5.658   6.083  1.00  0.00     0.000 C 
BRANCH   7   8
ATOM      8  C   UNL     1      26.980   4.233   6.642  1.00  0.00    -0.000 C 
BRANCH   8   9
ATOM      9  C   UNL     1      27.773   4.088   7.946  1.00  0.00    -0.003 C 
ATOM     10  C   UNL     1      28.038   2.621   8.272  1.00  0.00     0.004 C 
ENDBRANCH   8   9
ENDBRANCH   7   8
ENDBRANCH   1   7
TORSDOF 6
ENDMDL
MODEL 5
REMARK VINA RESULT:    -3.692     11.896     13.866
REMARK INTER + INTRA:          -5.379
REMARK INTER:                  -5.195
REMARK INTRA:                  -0.184
REMARK UNBOUND:                -0.392
REMARK SMILES CCCCCCCC(=O)[O-]
REMARK SMILES IDX 5 1 6 2 7 3 8 4 9 5 10 6 4 7 3 8 2 9 1 10
REMARK H PARENT
REMARK Flexibility Score: inf
ROOT
ATOM      1  C   UNL     1      15.030   2.882   2.504  1.00  0.00     0.000 C 
ENDROOT
BRANCH   1   2
ATOM      2  C   UNL     1      15.397   2.645   1.025  1.00  0.00     0.006 C 
BRANCH   2   3
ATOM      3  C   UNL     1      15.160   3.865   0.116  1.00  0.00     0.053 C 
BRANCH   3   4
ATOM      4  C   UNL     1      15.245   3.519  -1.340  1.00  0.00     0.041 C 
ATOM      5  O   UNL     1      14.620   4.202  -2.192  1.00  0.00    -0.550 OA
ATOM      6  O   UNL     1      15.981   2.415  -1.753  1.00  0.00    -0.550 OA
ENDBRANCH   3   4
ENDBRANCH   2   3
ENDBRANCH   1   2
BRANCH   1   7
ATOM      7  C   UNL     1      14.465   1.658   3.243  1.00  0.00     0.000 C 
BRANCH   7   8
ATOM      8  C   UNL     1      15.451   1.062   4.258  1.00  0.00    -0.000 C 
BRANCH   8   9
ATOM      9  C   UNL     1      15.488   1.898   5.542  1.00  0.00    -0.003 C 
ATOM     10  C   UNL     1      16.896   2.418   5.822  1.00  0.00     0.004 C 
ENDBRANCH   8   9
ENDBRANCH   7   8
ENDBRANCH   1   7
TORSDOF 6
ENDMDL
MODEL 6
REMARK VINA RESULT:    -3.688     13.231     14.931
REMARK INTER + INTRA:          -5.374
REMARK INTER:                  -4.888
REMARK INTRA:                  -0.486
REMARK UNBOUND:                -0.392
REMARK SMILES CCCCCCCC(=O)[O-]
REMARK SMILES IDX 5 1 6 2 7 3 8 4 9 5 10 6 4 7 3 8 2 9 1 10
REMARK H PARENT
REMARK Flexibility Score: inf
ROOT
ATOM      1  C   UNL     1      14.600   3.718  -1.786  1.00  0.00     0.000 C 
ENDROOT
BRANCH   1   2
ATOM      2  C   UNL     1      15.422   3.992  -0.510  1.00  0.00     0.006 C 
BRANCH   2   3
ATOM      3  C   UNL     1      15.568   2.772   0.417  1.00  0.00     0.053 C 
BRANCH   3   4
ATOM      4  C   UNL     1      14.988   3.014   1.778  1.00  0.00     0.041 C 
ATOM      5  O   UNL     1      14.199   3.977   1.969  1.00  0.00    -0.550 OA
ATOM      6  O   UNL     1      15.351   2.203   2.847  1.00  0.00    -0.550 OA
ENDBRANCH   3   4
ENDBRANCH   2   3
ENDBRANCH   1   2
BRANCH   1   7
ATOM      7  C   UNL     1      13.296   2.935  -1.569  1.00  0.00     0.000 C 
BRANCH   7   8
ATOM      8  C   UNL     1      13.153   1.734  -2.515  1.00  0.00    -0.000 C 
BRANCH   8   9
ATOM      9  C   UNL     1      13.769   0.473  -1.897  1.00  0.00    -0.003 C 
ATOM     10  C   UNL     1      14.991   0.012  -2.685  1.00  0.00     0.004 C 
ENDBRANCH   8   9
ENDBRANCH   7   8
ENDBRANCH   1   7
TORSDOF 6
ENDMDL
MODEL 7
REMARK VINA RESULT:    -3.685     13.822     15.645
REMARK INTER + INTRA:          -5.369
REMARK INTER:                  -4.719
REMARK INTRA:                  -0.651
REMARK UNBOUND:                -0.392
REMARK SMILES CCCCCCCC(=O)[O-]
REMARK SMILES IDX 5 1 6 2 7 3 8 4 9 5 10 6 4 7 3 8 2 9 1 10
REMARK H PARENT
REMARK Flexibility Score: inf
ROOT
ATOM      1  C   UNL     1      13.101   2.869  -1.810  1.00  0.00     0.000 C 
ENDROOT
BRANCH   1   2
ATOM      2  C   UNL     1      14.354   3.722  -2.090  1.00  0.00     0.006 C 
BRANCH   2   3
ATOM      3  C   UNL     1      15.219   3.996  -0.846  1.00  0.00     0.053 C 
BRANCH   3   4
ATOM      4  C   UNL     1      15.819   2.745  -0.279  1.00  0.00     0.041 C 
ATOM      5  O   UNL     1      16.736   2.144  -0.898  1.00  0.00    -0.550 OA
ATOM      6  O   UNL     1      15.337   2.217   0.913  1.00  0.00    -0.550 OA
ENDBRANCH   3   4
ENDBRANCH   2   3
ENDBRANCH   1   2
BRANCH   1   7
ATOM      7  C   UNL     1      13.058   1.511  -2.529  1.00  0.00     0.000 C 
BRANCH   7   8
ATOM      8  C   UNL     1      13.056   0.319  -1.561  1.00  0.00    -0.000 C 
BRANCH   8   9
ATOM      9  C   UNL     1      14.367  -0.470  -1.659  1.00  0.00    -0.003 C 
ATOM     10  C   UNL     1      15.083  -0.189  -2.977  1.00  0.00     0.004 C 
ENDBRANCH   8   9
ENDBRANCH   7   8
ENDBRANCH   1   7
TORSDOF 6
ENDMDL
MODEL 8
REMARK VINA RESULT:    -3.649     14.374     15.442
REMARK INTER + INTRA:          -5.321
REMARK INTER:                  -4.754
REMARK INTRA:                  -0.567
REMARK UNBOUND:                -0.392
REMARK SMILES CCCCCCCC(=O)[O-]
REMARK SMILES IDX 5 1 6 2 7 3 8 4 9 5 10 6 4 7 3 8 2 9 1 10
REMARK H PARENT
REMARK Flexibility Score: inf
ROOT
ATOM      1  C   UNL     1      15.727   3.738  -0.231  1.00  0.00     0.000 C 
ENDROOT
BRANCH   1   2
ATOM      2  C   UNL     1      15.375   3.313  -1.671  1.00  0.00     0.006 C 
BRANCH   2   3
ATOM      3  C   UNL     1      13.965   3.733  -2.123  1.00  0.00     0.053 C 
BRANCH   3   4
ATOM      4  C   UNL     1      12.949   2.652  -1.910  1.00  0.00     0.041 C 
ATOM      5  O   UNL     1      12.133   2.727  -0.954  1.00  0.00    -0.550 OA
ATOM      6  O   UNL     1      12.930   1.538  -2.741  1.00  0.00    -0.550 OA
ENDBRANCH   3   4
ENDBRANCH   2   3
ENDBRANCH   1   2
BRANCH   1   7
ATOM      7  C   UNL     1      15.375   2.714   0.860  1.00  0.00     0.000 C 
BRANCH   7   8
ATOM      8  C   UNL     1      14.517   3.308   1.986  1.00  0.00    -0.000 C 
BRANCH   8   9
ATOM      9  C   UNL     1      13.873   4.628   1.547  1.00  0.00    -0.003 C 
ATOM     10  C   UNL     1      12.418   4.711   2.000  1.00  0.00     0.004 C 
ENDBRANCH   8   9
ENDBRANCH   7   8
ENDBRANCH   1   7
TORSDOF 6
ENDMDL
MODEL 9
REMARK VINA RESULT:    -3.625     13.823     15.467
REMARK INTER + INTRA:          -5.288
REMARK INTER:                  -4.637
REMARK INTRA:                  -0.650
REMARK UNBOUND:                -0.392
REMARK SMILES CCCCCCCC(=O)[O-]
REMARK SMILES IDX 5 1 6 2 7 3 8 4 9 5 10 6 4 7 3 8 2 9 1 10
REMARK H PARENT
REMARK Flexibility Score: inf
ROOT
ATOM      1  C   UNL     1      14.952   0.670  -1.362  1.00  0.00     0.000 C 
ENDROOT
BRANCH   1   2
ATOM      2  C   UNL     1      16.233   1.464  -1.690  1.00  0.00     0.006 C 
BRANCH   2   3
ATOM      3  C   UNL     1      16.512   2.633  -0.727  1.00  0.00     0.053 C 
BRANCH   3   4
ATOM      4  C   UNL     1      15.422   3.661  -0.745  1.00  0.00     0.041 C 
ATOM      5  O   UNL     1      14.950   4.105   0.335  1.00  0.00    -0.550 OA
ATOM      6  O   UNL     1      14.895   4.100  -1.954  1.00  0.00    -0.550 OA
ENDBRANCH   3   4
ENDBRANCH   2   3
ENDBRANCH   1   2
BRANCH   1   7
ATOM      7  C   UNL     1      13.974   0.492  -2.534  1.00  0.00     0.000 C 
BRANCH   7   8
ATOM      8  C   UNL     1      12.656   1.254  -2.336  1.00  0.00    -0.000 C 
BRANCH   8   9
ATOM      9  C   UNL     1      12.421   1.568  -0.854  1.00  0.00    -0.003 C 
ATOM     10  C   UNL     1      11.741   2.922  -0.676  1.00  0.00     0.004 C 
ENDBRANCH   8   9
ENDBRANCH   7   8
ENDBRANCH   1   7
TORSDOF 6
ENDMDL
