MODEL 1
REMARK VINA RESULT:    -5.360      0.000      0.000
REMARK INTER + INTRA:          -6.666
REMARK INTER:                  -6.456
REMARK INTRA:                  -0.209
REMARK UNBOUND:                -0.209
REMARK SMILES Oc1cc(O)c2c(c1)O[C@@H](c1ccc(O)c(O)c1)[C@H](O)C2
REMARK SMILES IDX 21 1 19 2 10 3 9 4 7 5 8 6 2 7 3 8 4 9 6 10 20 11 11 13
REMARK SMILES IDX 18 14 12 15 16 16 13 17 14 18 17 19 15 21 5 23 1 25
REMARK H PARENT 20 12 17 20 15 22 5 24 1 26
REMARK Flexibility Score: inf
ROOT
ATOM      1  C   UNL     1    -118.304  14.474  22.840  1.00  0.00     0.079 C 
ATOM      2  C   UNL     1    -117.129  13.866  23.631  1.00  0.00     0.164 C 
ATOM      3  C   UNL     1    -117.001  12.361  23.325  1.00  0.00     0.232 C 
ATOM      4  O   UNL     1    -116.851  12.168  21.919  1.00  0.00    -0.482 OA
ATOM      5  C   UNL     1    -117.548  12.935  20.980  1.00  0.00     0.131 A 
ATOM      6  C   UNL     1    -117.497  12.565  19.633  1.00  0.00     0.093 A 
ATOM      7  C   UNL     1    -118.194  13.300  18.672  1.00  0.00     0.122 A 
ATOM      8  C   UNL     1    -118.957  14.407  19.062  1.00  0.00     0.092 A 
ATOM      9  C   UNL     1    -119.021  14.791  20.406  1.00  0.00     0.126 A 
ATOM     10  C   UNL     1    -118.280  14.075  21.379  1.00  0.00     0.039 A 
ENDROOT
BRANCH   2  11
ATOM     11  O   UNL     1    -117.288  14.100  25.008  1.00  0.00    -0.389 OA
ATOM     12  H   UNL     1    -116.416  14.413  25.365  1.00  0.00     0.211 HD
ENDBRANCH   2  11
BRANCH   3  13
ATOM     13  C   UNL     1    -115.821  11.756  24.051  1.00  0.00    -0.001 A 
ATOM     14  C   UNL     1    -114.637  12.492  24.229  1.00  0.00     0.057 A 
ATOM     15  C   UNL     1    -115.915  10.467  24.599  1.00  0.00     0.012 A 
ATOM     16  C   UNL     1    -113.554  11.940  24.928  1.00  0.00     0.157 A 
ATOM     17  C   UNL     1    -114.837   9.915  25.294  1.00  0.00     0.050 A 
ATOM     18  C   UNL     1    -113.654  10.643  25.460  1.00  0.00     0.157 A 
BRANCH  16  19
ATOM     19  O   UNL     1    -112.380  12.674  25.094  1.00  0.00    -0.504 OA
ATOM     20  H   UNL     1    -112.057  12.957  26.011  1.00  0.00     0.293 HD
ENDBRANCH  16  19
BRANCH  18  21
ATOM     21  O   UNL     1    -112.595  10.066  26.158  1.00  0.00    -0.504 OA
ATOM     22  H   UNL     1    -112.690   9.751  27.117  1.00  0.00     0.293 HD
ENDBRANCH  18  21
ENDBRANCH   3  13
BRANCH   9  23
ATOM     23  O   UNL     1    -119.834  15.876  20.741  1.00  0.00    -0.507 OA
ATOM     24  H   UNL     1    -120.629  16.167  20.188  1.00  0.00     0.293 HD
ENDBRANCH   9  23
BRANCH   7  25
ATOM     25  O   UNL     1    -118.130  12.917  17.334  1.00  0.00    -0.508 OA
ATOM     26  H   UNL     1    -117.283  13.034  16.791  1.00  0.00     0.293 HD
ENDBRANCH   7  25
TORSDOF 6
ENDMDL
MODEL 2
REMARK VINA RESULT:    -4.938     16.663     18.301
REMARK INTER + INTRA:          -6.157
REMARK INTER:                  -5.822
REMARK INTRA:                  -0.335
REMARK UNBOUND:                -0.209
REMARK SMILES Oc1cc(O)c2c(c1)O[C@@H](c1ccc(O)c(O)c1)[C@H](O)C2
REMARK SMILES IDX 21 1 19 2 10 3 9 4 7 5 8 6 2 7 3 8 4 9 6 10 20 11 11 13
REMARK SMILES IDX 18 14 12 15 16 16 13 17 14 18 17 19 15 21 5 23 1 25
REMARK H PARENT 20 12 17 20 15 22 5 24 1 26
REMARK Flexibility Score: inf
ROOT
ATOM      1  C   UNL     1    -105.952  28.374  21.919  1.00  0.00     0.079 C 
ATOM      2  C   UNL     1    -107.470  28.125  21.827  1.00  0.00     0.164 C 
ATOM      3  C   UNL     1    -107.940  28.229  20.363  1.00  0.00     0.232 C 
ATOM      4  O   UNL     1    -107.202  27.313  19.554  1.00  0.00    -0.482 OA
ATOM      5  C   UNL     1    -105.838  27.072  19.753  1.00  0.00     0.131 A 
ATOM      6  C   UNL     1    -105.141  26.312  18.809  1.00  0.00     0.093 A 
ATOM      7  C   UNL     1    -103.776  26.065  18.969  1.00  0.00     0.122 A 
ATOM      8  C   UNL     1    -103.100  26.592  20.076  1.00  0.00     0.092 A 
ATOM      9  C   UNL     1    -103.781  27.356  21.030  1.00  0.00     0.126 A 
ATOM     10  C   UNL     1    -105.174  27.572  20.896  1.00  0.00     0.039 A 
ENDROOT
BRANCH   2  11
ATOM     11  O   UNL     1    -108.168  29.020  22.656  1.00  0.00    -0.389 OA
ATOM     12  H   UNL     1    -108.575  29.715  22.075  1.00  0.00     0.211 HD
ENDBRANCH   2  11
BRANCH   3  13
ATOM     13  C   UNL     1    -109.418  27.936  20.242  1.00  0.00    -0.001 A 
ATOM     14  C   UNL     1    -109.965  26.775  20.814  1.00  0.00     0.057 A 
ATOM     15  C   UNL     1    -110.268  28.849  19.599  1.00  0.00     0.012 A 
ATOM     16  C   UNL     1    -111.342  26.519  20.727  1.00  0.00     0.157 A 
ATOM     17  C   UNL     1    -111.639  28.596  19.510  1.00  0.00     0.050 A 
ATOM     18  C   UNL     1    -112.181  27.434  20.069  1.00  0.00     0.157 A 
BRANCH  16  19
ATOM     19  O   UNL     1    -111.875  25.362  21.291  1.00  0.00    -0.504 OA
ATOM     20  H   UNL     1    -111.784  24.460  20.839  1.00  0.00     0.293 HD
ENDBRANCH  16  19
BRANCH  18  21
ATOM     21  O   UNL     1    -113.553  27.208  19.964  1.00  0.00    -0.504 OA
ATOM     22  H   UNL     1    -114.235  27.926  20.178  1.00  0.00     0.293 HD
ENDBRANCH  18  21
ENDBRANCH   3  13
BRANCH   9  23
ATOM     23  O   UNL     1    -103.044  27.893  22.089  1.00  0.00    -0.507 OA
ATOM     24  H   UNL     1    -102.141  27.538  22.374  1.00  0.00     0.293 HD
ENDBRANCH   9  23
BRANCH   7  25
ATOM     25  O   UNL     1    -103.099  25.304  18.020  1.00  0.00    -0.508 OA
ATOM     26  H   UNL     1    -103.211  24.298  17.971  1.00  0.00     0.293 HD
ENDBRANCH   7  25
TORSDOF 6
ENDMDL
MODEL 3
REMARK VINA RESULT:    -4.889     15.728     17.374
REMARK INTER + INTRA:          -6.099
REMARK INTER:                  -5.726
REMARK INTRA:                  -0.372
REMARK UNBOUND:                -0.209
REMARK SMILES Oc1cc(O)c2c(c1)O[C@@H](c1ccc(O)c(O)c1)[C@H](O)C2
REMARK SMILES IDX 21 1 19 2 10 3 9 4 7 5 8 6 2 7 3 8 4 9 6 10 20 11 11 13
REMARK SMILES IDX 18 14 12 15 16 16 13 17 14 18 17 19 15 21 5 23 1 25
REMARK H PARENT 20 12 17 20 15 22 5 24 1 26
REMARK Flexibility Score: inf
ROOT
ATOM      1  C   UNL     1    -107.841  28.307  22.240  1.00  0.00     0.079 C 
ATOM      2  C   UNL     1    -109.292  27.822  22.054  1.00  0.00     0.164 C 
ATOM      3  C   UNL     1    -109.729  27.999  20.587  1.00  0.00     0.232 C 
ATOM      4  O   UNL     1    -108.823  27.307  19.728  1.00  0.00    -0.482 OA
ATOM      5  C   UNL     1    -107.444  27.274  19.965  1.00  0.00     0.131 A 
ATOM      6  C   UNL     1    -106.602  26.742  18.986  1.00  0.00     0.093 A 
ATOM      7  C   UNL     1    -105.221  26.708  19.184  1.00  0.00     0.122 A 
ATOM      8  C   UNL     1    -104.676  27.222  20.368  1.00  0.00     0.092 A 
ATOM      9  C   UNL     1    -105.504  27.759  21.359  1.00  0.00     0.126 A 
ATOM     10  C   UNL     1    -106.909  27.755  21.181  1.00  0.00     0.039 A 
ENDROOT
BRANCH   2  11
ATOM     11  O   UNL     1    -110.155  28.499  22.933  1.00  0.00    -0.389 OA
ATOM     12  H   UNL     1    -110.807  27.837  23.285  1.00  0.00     0.211 HD
ENDBRANCH   2  11
BRANCH   3  13
ATOM     13  C   UNL     1    -111.132  27.481  20.370  1.00  0.00    -0.001 A 
ATOM     14  C   UNL     1    -111.425  26.117  20.544  1.00  0.00     0.057 A 
ATOM     15  C   UNL     1    -112.169  28.368  20.039  1.00  0.00     0.012 A 
ATOM     16  C   UNL     1    -112.733  25.642  20.370  1.00  0.00     0.157 A 
ATOM     17  C   UNL     1    -113.472  27.897  19.865  1.00  0.00     0.050 A 
ATOM     18  C   UNL     1    -113.761  26.537  20.027  1.00  0.00     0.157 A 
BRANCH  16  19
ATOM     19  O   UNL     1    -113.014  24.287  20.538  1.00  0.00    -0.504 OA
ATOM     20  H   UNL     1    -113.917  23.970  20.870  1.00  0.00     0.293 HD
ENDBRANCH  16  19
BRANCH  18  21
ATOM     21  O   UNL     1    -115.071  26.096  19.846  1.00  0.00    -0.504 OA
ATOM     22  H   UNL     1    -115.399  25.730  18.960  1.00  0.00     0.293 HD
ENDBRANCH  18  21
ENDBRANCH   3  13
BRANCH   9  23
ATOM     23  O   UNL     1    -104.900  28.297  22.498  1.00  0.00    -0.507 OA
ATOM     24  H   UNL     1    -104.460  27.733  23.213  1.00  0.00     0.293 HD
ENDBRANCH   9  23
BRANCH   7  25
ATOM     25  O   UNL     1    -104.397  26.172  18.197  1.00  0.00    -0.508 OA
ATOM     26  H   UNL     1    -103.477  26.552  18.012  1.00  0.00     0.293 HD
ENDBRANCH   7  25
TORSDOF 6
ENDMDL
MODEL 4
REMARK VINA RESULT:    -4.859      1.014      1.143
REMARK INTER + INTRA:          -6.062
REMARK INTER:                  -5.993
REMARK INTRA:                  -0.068
REMARK UNBOUND:                -0.209
REMARK SMILES Oc1cc(O)c2c(c1)O[C@@H](c1ccc(O)c(O)c1)[C@H](O)C2
REMARK SMILES IDX 21 1 19 2 10 3 9 4 7 5 8 6 2 7 3 8 4 9 6 10 20 11 11 13
REMARK SMILES IDX 18 14 12 15 16 16 13 17 14 18 17 19 15 21 5 23 1 25
REMARK H PARENT 20 12 17 20 15 22 5 24 1 26
REMARK Flexibility Score: inf
ROOT
ATOM      1  C   UNL     1    -118.005  13.572  22.154  1.00  0.00     0.079 C 
ATOM      2  C   UNL     1    -116.950  13.010  23.127  1.00  0.00     0.164 C 
ATOM      3  C   UNL     1    -116.753  11.500  22.888  1.00  0.00     0.232 C 
ATOM      4  O   UNL     1    -116.393  11.273  21.526  1.00  0.00    -0.482 OA
ATOM      5  C   UNL     1    -116.957  12.000  20.471  1.00  0.00     0.131 A 
ATOM      6  C   UNL     1    -116.700  11.596  19.158  1.00  0.00     0.093 A 
ATOM      7  C   UNL     1    -117.260  12.291  18.084  1.00  0.00     0.122 A 
ATOM      8  C   UNL     1    -118.090  13.392  18.325  1.00  0.00     0.092 A 
ATOM      9  C   UNL     1    -118.358  13.810  19.633  1.00  0.00     0.126 A 
ATOM     10  C   UNL     1    -117.758  13.136  20.725  1.00  0.00     0.039 A 
ENDROOT
BRANCH   2  11
ATOM     11  O   UNL     1    -117.316  13.276  24.459  1.00  0.00    -0.389 OA
ATOM     12  H   UNL     1    -116.514  13.628  24.928  1.00  0.00     0.211 HD
ENDBRANCH   2  11
BRANCH   3  13
ATOM     13  C   UNL     1    -115.684  10.939  23.797  1.00  0.00    -0.001 A 
ATOM     14  C   UNL     1    -114.675  11.770  24.312  1.00  0.00     0.057 A 
ATOM     15  C   UNL     1    -115.718   9.587  24.177  1.00  0.00     0.012 A 
ATOM     16  C   UNL     1    -113.700  11.254  25.179  1.00  0.00     0.157 A 
ATOM     17  C   UNL     1    -114.748   9.071  25.039  1.00  0.00     0.050 A 
ATOM     18  C   UNL     1    -113.737   9.897  25.541  1.00  0.00     0.157 A 
BRANCH  16  19
ATOM     19  O   UNL     1    -112.698  12.084  25.679  1.00  0.00    -0.504 OA
ATOM     20  H   UNL     1    -112.899  13.023  26.003  1.00  0.00     0.293 HD
ENDBRANCH  16  19
BRANCH  18  21
ATOM     21  O   UNL     1    -112.782   9.353  26.399  1.00  0.00    -0.504 OA
ATOM     22  H   UNL     1    -112.868   8.417  26.776  1.00  0.00     0.293 HD
ENDBRANCH  18  21
ENDBRANCH   3  13
BRANCH   9  23
ATOM     23  O   UNL     1    -119.230  14.887  19.813  1.00  0.00    -0.507 OA
ATOM     24  H   UNL     1    -119.107  15.588  20.531  1.00  0.00     0.293 HD
ENDBRANCH   9  23
BRANCH   7  25
ATOM     25  O   UNL     1    -116.992  11.875  16.782  1.00  0.00    -0.508 OA
ATOM     26  H   UNL     1    -116.252  11.213  16.580  1.00  0.00     0.293 HD
ENDBRANCH   7  25
TORSDOF 6
ENDMDL
MODEL 5
REMARK VINA RESULT:    -4.822     18.714     20.929
REMARK INTER + INTRA:          -6.017
REMARK INTER:                  -5.650
REMARK INTRA:                  -0.367
REMARK UNBOUND:                -0.209
REMARK SMILES Oc1cc(O)c2c(c1)O[C@@H](c1ccc(O)c(O)c1)[C@H](O)C2
REMARK SMILES IDX 21 1 19 2 10 3 9 4 7 5 8 6 2 7 3 8 4 9 6 10 20 11 11 13
REMARK SMILES IDX 18 14 12 15 16 16 13 17 14 18 17 19 15 21 5 23 1 25
REMARK H PARENT 20 12 17 20 15 22 5 24 1 26
REMARK Flexibility Score: inf
ROOT
ATOM      1  C   UNL     1    -103.491  26.685  34.565  1.00  0.00     0.079 C 
ATOM      2  C   UNL     1    -104.879  26.242  35.067  1.00  0.00     0.164 C 
ATOM      3  C   UNL     1    -105.778  25.854  33.877  1.00  0.00     0.232 C 
ATOM      4  O   UNL     1    -105.142  24.836  33.105  1.00  0.00    -0.482 OA
ATOM      5  C   UNL     1    -103.762  24.827  32.870  1.00  0.00     0.131 A 
ATOM      6  C   UNL     1    -103.238  23.911  31.954  1.00  0.00     0.093 A 
ATOM      7  C   UNL     1    -101.869  23.887  31.684  1.00  0.00     0.122 A 
ATOM      8  C   UNL     1    -101.018  24.793  32.329  1.00  0.00     0.092 A 
ATOM      9  C   UNL     1    -101.525  25.717  33.249  1.00  0.00     0.126 A 
ATOM     10  C   UNL     1    -102.907  25.716  33.558  1.00  0.00     0.039 A 
ENDROOT
BRANCH   2  11
ATOM     11  O   UNL     1    -105.467  27.252  35.848  1.00  0.00    -0.389 OA
ATOM     12  H   UNL     1    -105.672  28.017  35.248  1.00  0.00     0.211 HD
ENDBRANCH   2  11
BRANCH   3  13
ATOM     13  C   UNL     1    -107.128  25.366  34.349  1.00  0.00    -0.001 A 
ATOM     14  C   UNL     1    -108.288  26.116  34.094  1.00  0.00     0.057 A 
ATOM     15  C   UNL     1    -107.241  24.130  35.006  1.00  0.00     0.012 A 
ATOM     16  C   UNL     1    -109.545  25.647  34.507  1.00  0.00     0.157 A 
ATOM     17  C   UNL     1    -108.491  23.662  35.419  1.00  0.00     0.050 A 
ATOM     18  C   UNL     1    -109.644  24.415  35.175  1.00  0.00     0.157 A 
BRANCH  16  19
ATOM     19  O   UNL     1    -110.690  26.401  34.256  1.00  0.00    -0.504 OA
ATOM     20  H   UNL     1    -111.615  26.049  34.475  1.00  0.00     0.293 HD
ENDBRANCH  16  19
BRANCH  18  21
ATOM     21  O   UNL     1    -110.878  23.923  35.600  1.00  0.00    -0.504 OA
ATOM     22  H   UNL     1    -111.676  23.862  34.979  1.00  0.00     0.293 HD
ENDBRANCH  18  21
ENDBRANCH   3  13
BRANCH   9  23
ATOM     23  O   UNL     1    -100.634  26.625  33.826  1.00  0.00    -0.507 OA
ATOM     24  H   UNL     1     -99.983  26.375  34.559  1.00  0.00     0.293 HD
ENDBRANCH   9  23
BRANCH   7  25
ATOM     25  O   UNL     1    -101.365  22.966  30.769  1.00  0.00    -0.508 OA
ATOM     26  H   UNL     1    -100.379  22.736  30.738  1.00  0.00     0.293 HD
ENDBRANCH   7  25
TORSDOF 6
ENDMDL
MODEL 6
REMARK VINA RESULT:    -4.671     19.556     21.083
REMARK INTER + INTRA:          -5.836
REMARK INTER:                  -5.469
REMARK INTRA:                  -0.367
REMARK UNBOUND:                -0.209
REMARK SMILES Oc1cc(O)c2c(c1)O[C@@H](c1ccc(O)c(O)c1)[C@H](O)C2
REMARK SMILES IDX 21 1 19 2 10 3 9 4 7 5 8 6 2 7 3 8 4 9 6 10 20 11 11 13
REMARK SMILES IDX 18 14 12 15 16 16 13 17 14 18 17 19 15 21 5 23 1 25
REMARK H PARENT 20 12 17 20 15 22 5 24 1 26
REMARK Flexibility Score: inf
ROOT
ATOM      1  C   UNL     1    -102.983  26.391  34.973  1.00  0.00     0.079 C 
ATOM      2  C   UNL     1    -102.124  25.303  34.299  1.00  0.00     0.164 C 
ATOM      3  C   UNL     1    -102.863  23.952  34.316  1.00  0.00     0.232 C 
ATOM      4  O   UNL     1    -104.135  24.092  33.683  1.00  0.00    -0.482 OA
ATOM      5  C   UNL     1    -104.927  25.235  33.839  1.00  0.00     0.131 A 
ATOM      6  C   UNL     1    -106.235  25.224  33.347  1.00  0.00     0.093 A 
ATOM      7  C   UNL     1    -107.056  26.342  33.500  1.00  0.00     0.122 A 
ATOM      8  C   UNL     1    -106.569  27.477  34.160  1.00  0.00     0.092 A 
ATOM      9  C   UNL     1    -105.262  27.506  34.659  1.00  0.00     0.126 A 
ATOM     10  C   UNL     1    -104.411  26.390  34.468  1.00  0.00     0.039 A 
ENDROOT
BRANCH   2  11
ATOM     11  O   UNL     1    -100.867  25.210  34.925  1.00  0.00    -0.389 OA
ATOM     12  H   UNL     1    -100.370  24.466  34.494  1.00  0.00     0.211 HD
ENDBRANCH   2  11
BRANCH   3  13
ATOM     13  C   UNL     1    -102.060  22.881  33.613  1.00  0.00    -0.001 A 
ATOM     14  C   UNL     1    -101.697  21.703  34.287  1.00  0.00     0.057 A 
ATOM     15  C   UNL     1    -101.712  23.033  32.262  1.00  0.00     0.012 A 
ATOM     16  C   UNL     1    -100.976  20.698  33.625  1.00  0.00     0.157 A 
ATOM     17  C   UNL     1    -100.994  22.034  31.601  1.00  0.00     0.050 A 
ATOM     18  C   UNL     1    -100.622  20.867  32.276  1.00  0.00     0.157 A 
BRANCH  16  19
ATOM     19  O   UNL     1    -100.613  19.535  34.302  1.00  0.00    -0.504 OA
ATOM     20  H   UNL     1    -100.417  18.672  33.808  1.00  0.00     0.293 HD
ENDBRANCH  16  19
BRANCH  18  21
ATOM     21  O   UNL     1     -99.905  19.887  31.590  1.00  0.00    -0.504 OA
ATOM     22  H   UNL     1    -100.338  19.291  30.894  1.00  0.00     0.293 HD
ENDBRANCH  18  21
ENDBRANCH   3  13
BRANCH   9  23
ATOM     23  O   UNL     1    -104.848  28.648  35.348  1.00  0.00    -0.507 OA
ATOM     24  H   UNL     1    -105.252  29.564  35.200  1.00  0.00     0.293 HD
ENDBRANCH   9  23
BRANCH   7  25
ATOM     25  O   UNL     1    -108.356  26.313  33.001  1.00  0.00    -0.508 OA
ATOM     26  H   UNL     1    -108.823  25.440  32.791  1.00  0.00     0.293 HD
ENDBRANCH   7  25
TORSDOF 6
ENDMDL
MODEL 7
REMARK VINA RESULT:    -4.501     19.875     21.426
REMARK INTER + INTRA:          -5.631
REMARK INTER:                  -5.271
REMARK INTRA:                  -0.361
REMARK UNBOUND:                -0.209
REMARK SMILES Oc1cc(O)c2c(c1)O[C@@H](c1ccc(O)c(O)c1)[C@H](O)C2
REMARK SMILES IDX 21 1 19 2 10 3 9 4 7 5 8 6 2 7 3 8 4 9 6 10 20 11 11 13
REMARK SMILES IDX 18 14 12 15 16 16 13 17 14 18 17 19 15 21 5 23 1 25
REMARK H PARENT 20 12 17 20 15 22 5 24 1 26
REMARK Flexibility Score: inf
ROOT
ATOM      1  C   UNL     1    -101.776  22.679  31.816  1.00  0.00     0.079 C 
ATOM      2  C   UNL     1    -102.486  23.961  32.295  1.00  0.00     0.164 C 
ATOM      3  C   UNL     1    -103.719  23.602  33.146  1.00  0.00     0.232 C 
ATOM      4  O   UNL     1    -103.324  22.773  34.239  1.00  0.00    -0.482 OA
ATOM      5  C   UNL     1    -102.348  21.779  34.109  1.00  0.00     0.131 A 
ATOM      6  C   UNL     1    -102.149  20.885  35.165  1.00  0.00     0.093 A 
ATOM      7  C   UNL     1    -101.194  19.872  35.062  1.00  0.00     0.122 A 
ATOM      8  C   UNL     1    -100.440  19.745  33.889  1.00  0.00     0.092 A 
ATOM      9  C   UNL     1    -100.626  20.630  32.822  1.00  0.00     0.126 A 
ATOM     10  C   UNL     1    -101.562  21.686  32.939  1.00  0.00     0.039 A 
ENDROOT
BRANCH   2  11
ATOM     11  O   UNL     1    -102.835  24.771  31.199  1.00  0.00    -0.389 OA
ATOM     12  H   UNL     1    -101.994  25.065  30.761  1.00  0.00     0.211 HD
ENDBRANCH   2  11
BRANCH   3  13
ATOM     13  C   UNL     1    -104.401  24.845  33.671  1.00  0.00    -0.001 A 
ATOM     14  C   UNL     1    -105.659  25.231  33.178  1.00  0.00     0.057 A 
ATOM     15  C   UNL     1    -103.804  25.599  34.694  1.00  0.00     0.012 A 
ATOM     16  C   UNL     1    -106.303  26.369  33.687  1.00  0.00     0.157 A 
ATOM     17  C   UNL     1    -104.443  26.732  35.200  1.00  0.00     0.050 A 
ATOM     18  C   UNL     1    -105.690  27.124  34.701  1.00  0.00     0.157 A 
BRANCH  16  19
ATOM     19  O   UNL     1    -107.548  26.749  33.188  1.00  0.00    -0.504 OA
ATOM     20  H   UNL     1    -107.905  26.381  32.314  1.00  0.00     0.293 HD
ENDBRANCH  16  19
BRANCH  18  21
ATOM     21  O   UNL     1    -106.305  28.260  35.226  1.00  0.00    -0.504 OA
ATOM     22  H   UNL     1    -106.231  29.167  34.781  1.00  0.00     0.293 HD
ENDBRANCH  18  21
ENDBRANCH   3  13
BRANCH   9  23
ATOM     23  O   UNL     1     -99.876  20.426  31.661  1.00  0.00    -0.507 OA
ATOM     24  H   UNL     1     -99.294  19.613  31.511  1.00  0.00     0.293 HD
ENDBRANCH   9  23
BRANCH   7  25
ATOM     25  O   UNL     1    -101.008  18.991  36.125  1.00  0.00    -0.508 OA
ATOM     26  H   UNL     1    -101.781  18.701  36.712  1.00  0.00     0.293 HD
ENDBRANCH   7  25
TORSDOF 6
ENDMDL
MODEL 8
REMARK VINA RESULT:    -4.480     18.309     20.138
REMARK INTER + INTRA:          -5.606
REMARK INTER:                  -5.374
REMARK INTRA:                  -0.232
REMARK UNBOUND:                -0.209
REMARK SMILES Oc1cc(O)c2c(c1)O[C@@H](c1ccc(O)c(O)c1)[C@H](O)C2
REMARK SMILES IDX 21 1 19 2 10 3 9 4 7 5 8 6 2 7 3 8 4 9 6 10 20 11 11 13
REMARK SMILES IDX 18 14 12 15 16 16 13 17 14 18 17 19 15 21 5 23 1 25
REMARK H PARENT 20 12 17 20 15 22 5 24 1 26
REMARK Flexibility Score: inf
ROOT
ATOM      1  C   UNL     1    -108.175  27.075  34.252  1.00  0.00     0.079 C 
ATOM      2  C   UNL     1    -106.866  26.751  33.506  1.00  0.00     0.164 C 
ATOM      3  C   UNL     1    -106.014  25.764  34.328  1.00  0.00     0.232 C 
ATOM      4  O   UNL     1    -106.773  24.588  34.604  1.00  0.00    -0.482 OA
ATOM      5  C   UNL     1    -108.138  24.632  34.909  1.00  0.00     0.131 A 
ATOM      6  C   UNL     1    -108.770  23.468  35.353  1.00  0.00     0.093 A 
ATOM      7  C   UNL     1    -110.127  23.482  35.681  1.00  0.00     0.122 A 
ATOM      8  C   UNL     1    -110.855  24.673  35.574  1.00  0.00     0.092 A 
ATOM      9  C   UNL     1    -110.239  25.849  35.132  1.00  0.00     0.126 A 
ATOM     10  C   UNL     1    -108.873  25.829  34.757  1.00  0.00     0.039 A 
ENDROOT
BRANCH   2  11
ATOM     11  O   UNL     1    -106.155  27.930  33.220  1.00  0.00    -0.389 OA
ATOM     12  H   UNL     1    -106.744  28.511  32.671  1.00  0.00     0.211 HD
ENDBRANCH   2  11
BRANCH   3  13
ATOM     13  C   UNL     1    -104.748  25.391  33.590  1.00  0.00    -0.001 A 
ATOM     14  C   UNL     1    -103.563  26.118  33.793  1.00  0.00     0.057 A 
ATOM     15  C   UNL     1    -104.733  24.280  32.731  1.00  0.00     0.012 A 
ATOM     16  C   UNL     1    -102.381  25.752  33.130  1.00  0.00     0.157 A 
ATOM     17  C   UNL     1    -103.558  23.916  32.070  1.00  0.00     0.050 A 
ATOM     18  C   UNL     1    -102.382  24.647  32.262  1.00  0.00     0.157 A 
BRANCH  16  19
ATOM     19  O   UNL     1    -101.211  26.483  33.332  1.00  0.00    -0.504 OA
ATOM     20  H   UNL     1    -101.231  27.482  33.497  1.00  0.00     0.293 HD
ENDBRANCH  16  19
BRANCH  18  21
ATOM     21  O   UNL     1    -101.224  24.260  31.588  1.00  0.00    -0.504 OA
ATOM     22  H   UNL     1    -100.416  23.890  32.075  1.00  0.00     0.293 HD
ENDBRANCH  18  21
ENDBRANCH   3  13
BRANCH   9  23
ATOM     23  O   UNL     1    -111.005  27.016  35.089  1.00  0.00    -0.507 OA
ATOM     24  H   UNL     1    -111.002  27.655  34.305  1.00  0.00     0.293 HD
ENDBRANCH   9  23
BRANCH   7  25
ATOM     25  O   UNL     1    -110.741  22.311  36.119  1.00  0.00    -0.508 OA
ATOM     26  H   UNL     1    -110.323  21.403  35.958  1.00  0.00     0.293 HD
ENDBRANCH   7  25
TORSDOF 6
ENDMDL
MODEL 9
REMARK VINA RESULT:    -4.415      2.618      4.189
REMARK INTER + INTRA:          -5.528
REMARK INTER:                  -5.187
REMARK INTRA:                  -0.341
REMARK UNBOUND:                -0.209
REMARK SMILES Oc1cc(O)c2c(c1)O[C@@H](c1ccc(O)c(O)c1)[C@H](O)C2
REMARK SMILES IDX 21 1 19 2 10 3 9 4 7 5 8 6 2 7 3 8 4 9 6 10 20 11 11 13
REMARK SMILES IDX 18 14 12 15 16 16 13 17 14 18 17 19 15 21 5 23 1 25
REMARK H PARENT 20 12 17 20 15 22 5 24 1 26
REMARK Flexibility Score: inf
ROOT
ATOM      1  C   UNL     1    -118.176  14.876  18.940  1.00  0.00     0.079 C 
ATOM      2  C   UNL     1    -118.259  14.541  20.442  1.00  0.00     0.164 C 
ATOM      3  C   UNL     1    -118.824  13.121  20.641  1.00  0.00     0.232 C 
ATOM      4  O   UNL     1    -118.019  12.180  19.931  1.00  0.00    -0.482 OA
ATOM      5  C   UNL     1    -117.475  12.461  18.673  1.00  0.00     0.131 A 
ATOM      6  C   UNL     1    -116.860  11.430  17.956  1.00  0.00     0.093 A 
ATOM      7  C   UNL     1    -116.321  11.673  16.692  1.00  0.00     0.122 A 
ATOM      8  C   UNL     1    -116.405  12.955  16.135  1.00  0.00     0.092 A 
ATOM      9  C   UNL     1    -117.017  13.999  16.837  1.00  0.00     0.126 A 
ATOM     10  C   UNL     1    -117.527  13.768  18.138  1.00  0.00     0.039 A 
ENDROOT
BRANCH   2  11
ATOM     11  O   UNL     1    -119.031  15.501  21.121  1.00  0.00    -0.389 OA
ATOM     12  H   UNL     1    -118.435  16.263  21.345  1.00  0.00     0.211 HD
ENDBRANCH   2  11
BRANCH   3  13
ATOM     13  C   UNL     1    -118.865  12.750  22.106  1.00  0.00    -0.001 A 
ATOM     14  C   UNL     1    -117.680  12.458  22.802  1.00  0.00     0.057 A 
ATOM     15  C   UNL     1    -120.086  12.743  22.798  1.00  0.00     0.012 A 
ATOM     16  C   UNL     1    -117.716  12.143  24.169  1.00  0.00     0.157 A 
ATOM     17  C   UNL     1    -120.125  12.429  24.159  1.00  0.00     0.050 A 
ATOM     18  C   UNL     1    -118.946  12.126  24.848  1.00  0.00     0.157 A 
BRANCH  16  19
ATOM     19  O   UNL     1    -116.537  11.847  24.851  1.00  0.00    -0.504 OA
ATOM     20  H   UNL     1    -116.032  10.984  24.689  1.00  0.00     0.293 HD
ENDBRANCH  16  19
BRANCH  18  21
ATOM     21  O   UNL     1    -119.016  11.815  26.206  1.00  0.00    -0.504 OA
ATOM     22  H   UNL     1    -118.898  10.869  26.549  1.00  0.00     0.293 HD
ENDBRANCH  18  21
ENDBRANCH   3  13
BRANCH   9  23
ATOM     23  O   UNL     1    -117.111  15.244  16.212  1.00  0.00    -0.507 OA
ATOM     24  H   UNL     1    -117.121  15.363  15.208  1.00  0.00     0.293 HD
ENDBRANCH   9  23
BRANCH   7  25
ATOM     25  O   UNL     1    -115.710  10.634  15.993  1.00  0.00    -0.508 OA
ATOM     26  H   UNL     1    -115.947  10.434  15.029  1.00  0.00     0.293 HD
ENDBRANCH   7  25
TORSDOF 6
ENDMDL
