MODEL 1
REMARK VINA RESULT:    -3.821      0.000      0.000
REMARK INTER + INTRA:          -5.745
REMARK INTER:                  -5.161
REMARK INTRA:                  -0.584
REMARK UNBOUND:                -0.584
REMARK SMILES CC(=O)CCC=C(C)CCC=C(C)C
REMARK SMILES IDX 7 1 6 2 8 3 9 4 10 5 11 6 13 7 12 8 14 9 5 10 4 11 2 12 3 13
REMARK SMILES IDX 1 14
REMARK H PARENT
REMARK Flexibility Score: inf
ROOT
ATOM      1  C   UNL     1     134.864  51.778  25.364  1.00  0.00    -0.077 C 
ATOM      2  C   UNL     1     135.098  51.510  26.669  1.00  0.00    -0.028 C 
ATOM      3  C   UNL     1     134.076  52.989  24.925  1.00  0.00     0.039 C 
ENDROOT
BRANCH   1   4
ATOM      4  C   UNL     1     135.342  50.801  24.310  1.00  0.00     0.034 C 
BRANCH   4   5
ATOM      5  C   UNL     1     134.316  50.636  23.180  1.00  0.00     0.032 C 
BRANCH   5   6
ATOM      6  C   UNL     1     134.968  50.641  21.818  1.00  0.00    -0.028 C 
ATOM      7  C   UNL     1     134.162  52.944  21.251  1.00  0.00     0.039 C 
ATOM      8  C   UNL     1     134.934  51.680  20.954  1.00  0.00    -0.080 C 
ATOM      9  C   UNL     1     135.677  51.553  19.650  1.00  0.00     0.039 C 
ENDBRANCH   5   6
ENDBRANCH   4   5
ENDBRANCH   1   4
BRANCH   2  10
ATOM     10  C   UNL     1     134.681  52.403  27.812  1.00  0.00     0.035 C 
BRANCH  10  11
ATOM     11  C   UNL     1     135.777  53.423  28.133  1.00  0.00     0.079 C 
BRANCH  11  12
ATOM     12  C   UNL     1     135.280  54.440  29.127  1.00  0.00     0.130 C 
ATOM     13  O   UNL     1     134.481  55.291  28.768  1.00  0.00    -0.300 OA
ATOM     14  C   UNL     1     135.758  54.441  30.549  1.00  0.00     0.087 C 
ENDBRANCH  11  12
ENDBRANCH  10  11
ENDBRANCH   2  10
TORSDOF 6
ENDMDL
MODEL 2
REMARK VINA RESULT:    -3.567      2.885      7.040
REMARK INTER + INTRA:          -5.402
REMARK INTER:                  -4.909
REMARK INTRA:                  -0.493
REMARK UNBOUND:                -0.584
REMARK SMILES CC(=O)CCC=C(C)CCC=C(C)C
REMARK SMILES IDX 7 1 6 2 8 3 9 4 10 5 11 6 13 7 12 8 14 9 5 10 4 11 2 12 3 13
REMARK SMILES IDX 1 14
REMARK H PARENT
REMARK Flexibility Score: inf
ROOT
ATOM      1  C   UNL     1     134.587  51.271  24.528  1.00  0.00    -0.077 C 
ATOM      2  C   UNL     1     134.580  50.237  23.656  1.00  0.00    -0.028 C 
ATOM      3  C   UNL     1     134.306  52.688  24.091  1.00  0.00     0.039 C 
ENDROOT
BRANCH   1   4
ATOM      4  C   UNL     1     134.960  51.017  25.975  1.00  0.00     0.034 C 
BRANCH   4   5
ATOM      5  C   UNL     1     134.338  52.060  26.913  1.00  0.00     0.032 C 
BRANCH   5   6
ATOM      6  C   UNL     1     135.376  52.993  27.490  1.00  0.00    -0.028 C 
ATOM      7  C   UNL     1     134.263  53.124  29.730  1.00  0.00     0.039 C 
ATOM      8  C   UNL     1     135.372  53.455  28.761  1.00  0.00    -0.080 C 
ATOM      9  C   UNL     1     136.507  54.341  29.204  1.00  0.00     0.039 C 
ENDBRANCH   5   6
ENDBRANCH   4   5
ENDBRANCH   1   4
BRANCH   2  10
ATOM     10  C   UNL     1     134.222  50.356  22.196  1.00  0.00     0.035 C 
BRANCH  10  11
ATOM     11  C   UNL     1     135.448  50.747  21.365  1.00  0.00     0.079 C 
BRANCH  11  12
ATOM     12  C   UNL     1     135.065  51.721  20.281  1.00  0.00     0.130 C 
ATOM     13  O   UNL     1     135.743  51.788  19.267  1.00  0.00    -0.300 OA
ATOM     14  C   UNL     1     133.875  52.623  20.424  1.00  0.00     0.087 C 
ENDBRANCH  11  12
ENDBRANCH  10  11
ENDBRANCH   2  10
TORSDOF 6
ENDMDL
MODEL 3
REMARK VINA RESULT:    -2.456      1.593      3.112
REMARK INTER + INTRA:          -3.901
REMARK INTER:                  -3.486
REMARK INTRA:                  -0.415
REMARK UNBOUND:                -0.584
REMARK SMILES CC(=O)CCC=C(C)CCC=C(C)C
REMARK SMILES IDX 7 1 6 2 8 3 9 4 10 5 11 6 13 7 12 8 14 9 5 10 4 11 2 12 3 13
REMARK SMILES IDX 1 14
REMARK H PARENT
REMARK Flexibility Score: inf
ROOT
ATOM      1  C   UNL     1     134.152  50.906  28.741  1.00  0.00    -0.077 C 
ATOM      2  C   UNL     1     134.127  52.236  28.987  1.00  0.00    -0.028 C 
ATOM      3  C   UNL     1     134.094  49.887  29.853  1.00  0.00     0.039 C 
ENDROOT
BRANCH   1   4
ATOM      4  C   UNL     1     134.314  50.419  27.316  1.00  0.00     0.034 C 
BRANCH   4   5
ATOM      5  C   UNL     1     134.989  51.475  26.429  1.00  0.00     0.032 C 
BRANCH   5   6
ATOM      6  C   UNL     1     135.196  50.979  25.017  1.00  0.00    -0.028 C 
ATOM      7  C   UNL     1     134.685  53.201  23.980  1.00  0.00     0.039 C 
ATOM      8  C   UNL     1     135.093  51.749  23.910  1.00  0.00    -0.080 C 
ATOM      9  C   UNL     1     135.379  51.120  22.571  1.00  0.00     0.039 C 
ENDBRANCH   5   6
ENDBRANCH   4   5
ENDBRANCH   1   4
BRANCH   2  10
ATOM     10  C   UNL     1     133.964  52.848  30.356  1.00  0.00     0.035 C 
BRANCH  10  11
ATOM     11  C   UNL     1     135.051  53.895  30.617  1.00  0.00     0.079 C 
BRANCH  11  12
ATOM     12  C   UNL     1     135.256  54.762  29.403  1.00  0.00     0.130 C 
ATOM     13  O   UNL     1     136.275  54.638  28.741  1.00  0.00    -0.300 OA
ATOM     14  C   UNL     1     134.241  55.788  28.995  1.00  0.00     0.087 C 
ENDBRANCH  11  12
ENDBRANCH  10  11
ENDBRANCH   2  10
TORSDOF 6
ENDMDL
MODEL 4
REMARK VINA RESULT:    -1.504     13.749     16.501
REMARK INTER + INTRA:          -2.616
REMARK INTER:                  -2.407
REMARK INTRA:                  -0.209
REMARK UNBOUND:                -0.584
REMARK SMILES CC(=O)CCC=C(C)CCC=C(C)C
REMARK SMILES IDX 7 1 6 2 8 3 9 4 10 5 11 6 13 7 12 8 14 9 5 10 4 11 2 12 3 13
REMARK SMILES IDX 1 14
REMARK H PARENT
REMARK Flexibility Score: inf
ROOT
ATOM      1  C   UNL     1     134.206  63.508  13.569  1.00  0.00    -0.077 C 
ATOM      2  C   UNL     1     134.834  64.485  12.875  1.00  0.00    -0.028 C 
ATOM      3  C   UNL     1     133.883  63.651  15.037  1.00  0.00     0.039 C 
ENDROOT
BRANCH   1   4
ATOM      4  C   UNL     1     133.879  62.201  12.877  1.00  0.00     0.034 C 
BRANCH   4   5
ATOM      5  C   UNL     1     134.902  61.108  13.213  1.00  0.00     0.032 C 
BRANCH   5   6
ATOM      6  C   UNL     1     134.260  59.746  13.324  1.00  0.00    -0.028 C 
ATOM      7  C   UNL     1     136.447  58.525  13.324  1.00  0.00     0.039 C 
ATOM      8  C   UNL     1     134.940  58.580  13.406  1.00  0.00    -0.080 C 
ATOM      9  C   UNL     1     134.157  57.303  13.564  1.00  0.00     0.039 C 
ENDBRANCH   5   6
ENDBRANCH   4   5
ENDBRANCH   1   4
BRANCH   2  10
ATOM     10  C   UNL     1     135.209  65.831  13.445  1.00  0.00     0.035 C 
BRANCH  10  11
ATOM     11  C   UNL     1     133.964  66.699  13.654  1.00  0.00     0.079 C 
BRANCH  11  12
ATOM     12  C   UNL     1     134.354  68.124  13.943  1.00  0.00     0.130 C 
ATOM     13  O   UNL     1     134.168  68.982  13.094  1.00  0.00    -0.300 OA
ATOM     14  C   UNL     1     134.980  68.514  15.249  1.00  0.00     0.087 C 
ENDBRANCH  11  12
ENDBRANCH  10  11
ENDBRANCH   2  10
TORSDOF 6
ENDMDL
MODEL 5
REMARK VINA RESULT:    -1.499      2.141      3.718
REMARK INTER + INTRA:          -2.609
REMARK INTER:                  -2.638
REMARK INTRA:                   0.029
REMARK UNBOUND:                -0.584
REMARK SMILES CC(=O)CCC=C(C)CCC=C(C)C
REMARK SMILES IDX 7 1 6 2 8 3 9 4 10 5 11 6 13 7 12 8 14 9 5 10 4 11 2 12 3 13
REMARK SMILES IDX 1 14
REMARK H PARENT
REMARK Flexibility Score: inf
ROOT
ATOM      1  C   UNL     1     134.687  52.556  24.994  1.00  0.00    -0.077 C 
ATOM      2  C   UNL     1     133.875  52.828  26.042  1.00  0.00    -0.028 C 
ATOM      3  C   UNL     1     136.009  53.259  24.804  1.00  0.00     0.039 C 
ENDROOT
BRANCH   1   4
ATOM      4  C   UNL     1     134.228  51.572  23.938  1.00  0.00     0.034 C 
BRANCH   4   5
ATOM      5  C   UNL     1     133.963  50.182  24.533  1.00  0.00     0.032 C 
BRANCH   5   6
ATOM      6  C   UNL     1     134.300  50.123  26.004  1.00  0.00    -0.028 C 
ATOM      7  C   UNL     1     136.441  48.875  25.639  1.00  0.00     0.039 C 
ATOM      8  C   UNL     1     135.423  49.567  26.512  1.00  0.00    -0.080 C 
ATOM      9  C   UNL     1     135.642  49.631  28.002  1.00  0.00     0.039 C 
ENDBRANCH   5   6
ENDBRANCH   4   5
ENDBRANCH   1   4
BRANCH   2  10
ATOM     10  C   UNL     1     134.215  53.780  27.161  1.00  0.00     0.035 C 
BRANCH  10  11
ATOM     11  C   UNL     1     135.354  53.224  28.022  1.00  0.00     0.079 C 
BRANCH  11  12
ATOM     12  C   UNL     1     135.009  53.323  29.485  1.00  0.00     0.130 C 
ATOM     13  O   UNL     1     134.112  52.630  29.939  1.00  0.00    -0.300 OA
ATOM     14  C   UNL     1     135.737  54.265  30.397  1.00  0.00     0.087 C 
ENDBRANCH  11  12
ENDBRANCH  10  11
ENDBRANCH   2  10
TORSDOF 6
ENDMDL
MODEL 6
REMARK VINA RESULT:    -1.298      2.509      7.129
REMARK INTER + INTRA:          -2.337
REMARK INTER:                  -2.499
REMARK INTRA:                   0.161
REMARK UNBOUND:                -0.584
REMARK SMILES CC(=O)CCC=C(C)CCC=C(C)C
REMARK SMILES IDX 7 1 6 2 8 3 9 4 10 5 11 6 13 7 12 8 14 9 5 10 4 11 2 12 3 13
REMARK SMILES IDX 1 14
REMARK H PARENT
REMARK Flexibility Score: inf
ROOT
ATOM      1  C   UNL     1     135.180  52.992  27.675  1.00  0.00    -0.077 C 
ATOM      2  C   UNL     1     134.375  52.391  26.769  1.00  0.00    -0.028 C 
ATOM      3  C   UNL     1     136.282  53.938  27.261  1.00  0.00     0.039 C 
ENDROOT
BRANCH   1   4
ATOM      4  C   UNL     1     135.025  52.654  29.143  1.00  0.00     0.034 C 
BRANCH   4   5
ATOM      5  C   UNL     1     135.012  53.916  30.018  1.00  0.00     0.032 C 
BRANCH   5   6
ATOM      6  C   UNL     1     134.623  55.145  29.232  1.00  0.00    -0.028 C 
ATOM      7  C   UNL     1     133.954  56.444  31.267  1.00  0.00     0.039 C 
ATOM      8  C   UNL     1     134.176  56.297  29.780  1.00  0.00    -0.080 C 
ATOM      9  C   UNL     1     133.875  57.457  28.866  1.00  0.00     0.039 C 
ENDBRANCH   5   6
ENDBRANCH   4   5
ENDBRANCH   1   4
BRANCH   2  10
ATOM     10  C   UNL     1     134.424  52.644  25.283  1.00  0.00     0.035 C 
BRANCH  10  11
ATOM     11  C   UNL     1     134.647  51.337  24.515  1.00  0.00     0.079 C 
BRANCH  11  12
ATOM     12  C   UNL     1     135.468  51.583  23.276  1.00  0.00     0.130 C 
ATOM     13  O   UNL     1     136.609  51.152  23.216  1.00  0.00    -0.300 OA
ATOM     14  C   UNL     1     134.919  52.360  22.116  1.00  0.00     0.087 C 
ENDBRANCH  11  12
ENDBRANCH  10  11
ENDBRANCH   2  10
TORSDOF 6
ENDMDL
