MODEL 1
REMARK VINA RESULT:    -3.213      0.000      0.000
REMARK INTER + INTRA:          -3.614
REMARK INTER:                  -3.589
REMARK INTRA:                  -0.025
REMARK UNBOUND:                -0.025
REMARK SMILES CC(C)CC=O
REMARK SMILES IDX 4 1 2 2 1 3 3 4 5 5 6 6
REMARK H PARENT
REMARK Flexibility Score: inf
ROOT
ATOM      1  C   UNL     1      24.223  57.224  -8.912  1.00  0.00     0.075 C 
ENDROOT
BRANCH   1   2
ATOM      2  C   UNL     1      24.253  55.697  -8.687  1.00  0.00    -0.010 C 
ATOM      3  C   UNL     1      25.630  55.229  -8.193  1.00  0.00     0.008 C 
ATOM      4  C   UNL     1      23.170  55.290  -7.679  1.00  0.00     0.008 C 
ENDBRANCH   1   2
BRANCH   1   5
ATOM      5  C   UNL     1      25.574  57.777  -9.267  1.00  0.00     0.224 C 
ATOM      6  O   UNL     1      25.712  58.976  -9.444  1.00  0.00    -0.303 OA
ENDBRANCH   1   5
TORSDOF 2
ENDMDL
MODEL 2
REMARK VINA RESULT:    -3.115      2.440      3.300
REMARK INTER + INTRA:          -3.505
REMARK INTER:                  -3.468
REMARK INTRA:                  -0.036
REMARK UNBOUND:                -0.025
REMARK SMILES CC(C)CC=O
REMARK SMILES IDX 4 1 2 2 1 3 3 4 5 5 6 6
REMARK H PARENT
REMARK Flexibility Score: inf
ROOT
ATOM      1  C   UNL     1      23.596  56.363  -8.682  1.00  0.00     0.075 C 
ENDROOT
BRANCH   1   2
ATOM      2  C   UNL     1      25.063  56.404  -9.159  1.00  0.00    -0.010 C 
ATOM      3  C   UNL     1      25.576  57.847  -9.277  1.00  0.00     0.008 C 
ATOM      4  C   UNL     1      25.955  55.609  -8.196  1.00  0.00     0.008 C 
ENDBRANCH   1   2
BRANCH   1   5
ATOM      5  C   UNL     1      23.381  55.372  -7.573  1.00  0.00     0.224 C 
ATOM      6  O   UNL     1      22.396  54.654  -7.582  1.00  0.00    -0.303 OA
ENDBRANCH   1   5
TORSDOF 2
ENDMDL
MODEL 3
REMARK VINA RESULT:    -3.096     15.244     16.202
REMARK INTER + INTRA:          -3.484
REMARK INTER:                  -3.448
REMARK INTRA:                  -0.035
REMARK UNBOUND:                -0.025
REMARK SMILES CC(C)CC=O
REMARK SMILES IDX 4 1 2 2 1 3 3 4 5 5 6 6
REMARK H PARENT
REMARK Flexibility Score: inf
ROOT
ATOM      1  C   UNL     1      19.770  45.220  -0.056  1.00  0.00     0.075 C 
ENDROOT
BRANCH   1   2
ATOM      2  C   UNL     1      20.087  44.427   1.229  1.00  0.00    -0.010 C 
ATOM      3  C   UNL     1      18.804  43.984   1.949  1.00  0.00     0.008 C 
ATOM      4  C   UNL     1      20.949  43.201   0.896  1.00  0.00     0.008 C 
ENDBRANCH   1   2
BRANCH   1   5
ATOM      5  C   UNL     1      18.310  45.182  -0.406  1.00  0.00     0.224 C 
ATOM      6  O   UNL     1      17.793  46.138  -0.961  1.00  0.00    -0.303 OA
ENDBRANCH   1   5
TORSDOF 2
ENDMDL
MODEL 4
REMARK VINA RESULT:    -3.059     15.463     16.771
REMARK INTER + INTRA:          -3.441
REMARK INTER:                  -3.388
REMARK INTRA:                  -0.054
REMARK UNBOUND:                -0.025
REMARK SMILES CC(C)CC=O
REMARK SMILES IDX 4 1 2 2 1 3 3 4 5 5 6 6
REMARK H PARENT
REMARK Flexibility Score: inf
ROOT
ATOM      1  C   UNL     1      20.228  44.167   1.365  1.00  0.00     0.075 C 
ENDROOT
BRANCH   1   2
ATOM      2  C   UNL     1      19.076  44.245   0.340  1.00  0.00    -0.010 C 
ATOM      3  C   UNL     1      17.706  44.101   1.021  1.00  0.00     0.008 C 
ATOM      4  C   UNL     1      19.140  45.571  -0.429  1.00  0.00     0.008 C 
ENDBRANCH   1   2
BRANCH   1   5
ATOM      5  C   UNL     1      21.159  43.021   1.093  1.00  0.00     0.224 C 
ATOM      6  O   UNL     1      21.274  42.587  -0.041  1.00  0.00    -0.303 OA
ENDBRANCH   1   5
TORSDOF 2
ENDMDL
MODEL 5
REMARK VINA RESULT:    -3.042     15.863     17.095
REMARK INTER + INTRA:          -3.422
REMARK INTER:                  -3.384
REMARK INTRA:                  -0.038
REMARK UNBOUND:                -0.025
REMARK SMILES CC(C)CC=O
REMARK SMILES IDX 4 1 2 2 1 3 3 4 5 5 6 6
REMARK H PARENT
REMARK Flexibility Score: inf
ROOT
ATOM      1  C   UNL     1      18.818  43.906   1.856  1.00  0.00     0.075 C 
ENDROOT
BRANCH   1   2
ATOM      2  C   UNL     1      20.069  44.369   1.079  1.00  0.00    -0.010 C 
ATOM      3  C   UNL     1      20.925  43.176   0.627  1.00  0.00     0.008 C 
ATOM      4  C   UNL     1      19.656  45.207  -0.138  1.00  0.00     0.008 C 
ENDBRANCH   1   2
BRANCH   1   5
ATOM      5  C   UNL     1      17.555  44.080   1.063  1.00  0.00     0.224 C 
ATOM      6  O   UNL     1      16.552  44.515   1.604  1.00  0.00    -0.303 OA
ENDBRANCH   1   5
TORSDOF 2
ENDMDL
MODEL 6
REMARK VINA RESULT:    -2.902     15.732     16.941
REMARK INTER + INTRA:          -3.267
REMARK INTER:                  -3.197
REMARK INTRA:                  -0.070
REMARK UNBOUND:                -0.025
REMARK SMILES CC(C)CC=O
REMARK SMILES IDX 4 1 2 2 1 3 3 4 5 5 6 6
REMARK H PARENT
REMARK Flexibility Score: inf
ROOT
ATOM      1  C   UNL     1      19.149  43.881   1.725  1.00  0.00     0.075 C 
ENDROOT
BRANCH   1   2
ATOM      2  C   UNL     1      18.313  44.288   0.492  1.00  0.00    -0.010 C 
ATOM      3  C   UNL     1      19.048  45.328  -0.367  1.00  0.00     0.008 C 
ATOM      4  C   UNL     1      17.982  43.052  -0.354  1.00  0.00     0.008 C 
ENDBRANCH   1   2
BRANCH   1   5
ATOM      5  C   UNL     1      20.625  43.915   1.452  1.00  0.00     0.224 C 
ATOM      6  O   UNL     1      21.208  42.892   1.131  1.00  0.00    -0.303 OA
ENDBRANCH   1   5
TORSDOF 2
ENDMDL
MODEL 7
REMARK VINA RESULT:    -2.811     15.967     17.317
REMARK INTER + INTRA:          -3.165
REMARK INTER:                  -3.127
REMARK INTRA:                  -0.038
REMARK UNBOUND:                -0.025
REMARK SMILES CC(C)CC=O
REMARK SMILES IDX 4 1 2 2 1 3 3 4 5 5 6 6
REMARK H PARENT
REMARK Flexibility Score: inf
ROOT
ATOM      1  C   UNL     1      18.493  43.444   1.512  1.00  0.00     0.075 C 
ENDROOT
BRANCH   1   2
ATOM      2  C   UNL     1      19.566  43.673   0.426  1.00  0.00    -0.010 C 
ATOM      3  C   UNL     1      19.624  45.146  -0.006  1.00  0.00     0.008 C 
ATOM      4  C   UNL     1      20.941  43.224   0.938  1.00  0.00     0.008 C 
ENDBRANCH   1   2
BRANCH   1   5
ATOM      5  C   UNL     1      17.112  43.795   1.035  1.00  0.00     0.224 C 
ATOM      6  O   UNL     1      16.445  44.608   1.652  1.00  0.00    -0.303 OA
ENDBRANCH   1   5
TORSDOF 2
ENDMDL
MODEL 8
REMARK VINA RESULT:    -2.772      7.546      8.726
REMARK INTER + INTRA:          -3.121
REMARK INTER:                  -3.052
REMARK INTRA:                  -0.069
REMARK UNBOUND:                -0.025
REMARK SMILES CC(C)CC=O
REMARK SMILES IDX 4 1 2 2 1 3 3 4 5 5 6 6
REMARK H PARENT
REMARK Flexibility Score: inf
ROOT
ATOM      1  C   UNL     1      31.046  56.870 -13.520  1.00  0.00     0.075 C 
ENDROOT
BRANCH   1   2
ATOM      2  C   UNL     1      32.574  57.013 -13.682  1.00  0.00    -0.010 C 
ATOM      3  C   UNL     1      32.951  58.379 -14.275  1.00  0.00     0.008 C 
ATOM      4  C   UNL     1      33.271  56.821 -12.329  1.00  0.00     0.008 C 
ENDBRANCH   1   2
BRANCH   1   5
ATOM      5  C   UNL     1      30.357  58.199 -13.389  1.00  0.00     0.224 C 
ATOM      6  O   UNL     1      29.982  58.585 -12.294  1.00  0.00    -0.303 OA
ENDBRANCH   1   5
TORSDOF 2
ENDMDL
MODEL 9
REMARK VINA RESULT:    -2.686      7.405      8.593
REMARK INTER + INTRA:          -3.026
REMARK INTER:                  -2.995
REMARK INTRA:                  -0.030
REMARK UNBOUND:                -0.025
REMARK SMILES CC(C)CC=O
REMARK SMILES IDX 4 1 2 2 1 3 3 4 5 5 6 6
REMARK H PARENT
REMARK Flexibility Score: inf
ROOT
ATOM      1  C   UNL     1      31.915  58.799 -13.109  1.00  0.00     0.075 C 
ENDROOT
BRANCH   1   2
ATOM      2  C   UNL     1      32.364  57.611 -13.985  1.00  0.00    -0.010 C 
ATOM      3  C   UNL     1      33.728  57.065 -13.537  1.00  0.00     0.008 C 
ATOM      4  C   UNL     1      31.313  56.493 -13.940  1.00  0.00     0.008 C 
ENDBRANCH   1   2
BRANCH   1   5
ATOM      5  C   UNL     1      30.456  58.731 -12.755  1.00  0.00     0.224 C 
ATOM      6  O   UNL     1      29.985  59.531 -11.965  1.00  0.00    -0.303 OA
ENDBRANCH   1   5
TORSDOF 2
ENDMDL
