MODEL 1
REMARK VINA RESULT:    -3.738      0.000      0.000
REMARK INTER + INTRA:          -5.215
REMARK INTER:                  -5.268
REMARK INTRA:                   0.054
REMARK UNBOUND:                 0.054
REMARK SMILES CC1=CCC(=C(C)C)C(=O)CC(C)=CCC1
REMARK SMILES IDX 12 1 14 2 13 3 15 4 16 5 2 6 1 7 3 8 11 10 9 11 10 12 5 13
REMARK SMILES IDX 6 14 7 15 8 16 4 17
REMARK H PARENT
REMARK Flexibility Score: 60.00
ROOT
ATOM      1  C   UNL     1      -3.452   4.266  10.267  1.00  0.00    -0.070 C 
ATOM      2  C   UNL     1      -3.443   4.833  11.496  1.00  0.00    -0.027 C 
ATOM      3  C   UNL     1      -2.978   5.096   9.101  1.00  0.00     0.039 C 
ENDROOT
BRANCH   2   4
ATOM      4  C   UNL     1      -3.941   4.201  12.774  1.00  0.00     0.032 C 
BRANCH   4   5
ATOM      5  C   UNL     1      -2.866   3.363  13.488  1.00  0.00     0.034 C 
BRANCH   5   6
ATOM      6  C   UNL     1      -3.382   2.010  13.938  1.00  0.00    -0.077 C 
ATOM      7  C   UNL     1      -4.376   1.964  15.070  1.00  0.00     0.039 C 
ATOM      8  C   UNL     1      -3.018   0.837  13.369  1.00  0.00    -0.023 CG0
ATOM      9  G   UNL     1      -2.084   0.676  12.192  1.00  0.00     0.000 G0
ENDBRANCH   5   6
ENDBRANCH   4   5
ENDBRANCH   2   4
BRANCH   1  10
ATOM     10  C   UNL     1      -3.928   2.850   9.995  1.00  0.00     0.111 C 
BRANCH  10  11
ATOM     11  C   UNL     1      -2.797   1.852  10.001  1.00  0.00     0.163 C 
ATOM     12  O   UNL     1      -1.834   2.037   9.209  1.00  0.00    -0.294 OA
BRANCH  11  13
ATOM     13  C   UNL     1      -2.820   0.620  10.849  1.00  0.00    -0.002 C 
ATOM     14  C   UNL     1      -3.373  -0.535  10.375  1.00  0.00    -0.069 C 
ATOM     15  C   UNL     1      -3.314  -1.819  11.170  1.00  0.00     0.039 C 
ATOM     16  C   UNL     1      -4.027  -0.592   9.012  1.00  0.00     0.039 C 
BRANCH  13  17
ATOM     17  C   UNL     1      -2.081   0.644  12.181  1.00  0.00     0.066 CG0
ATOM     18  G   UNL     1      -3.027   0.854  13.341  1.00  0.00     0.000 G0
ENDBRANCH  13  17
ENDBRANCH  11  13
ENDBRANCH  10  11
ENDBRANCH   1  10
TORSDOF 0
ENDMDL
MODEL 2
REMARK VINA RESULT:    -3.561      3.460      5.900
REMARK INTER + INTRA:          -4.965
REMARK INTER:                  -5.079
REMARK INTRA:                   0.115
REMARK UNBOUND:                 0.054
REMARK SMILES CC1=CCC(=C(C)C)C(=O)CC(C)=CCC1
REMARK SMILES IDX 12 1 14 2 13 3 15 4 16 5 2 6 1 7 3 8 11 10 9 11 10 12 5 13
REMARK SMILES IDX 6 14 7 15 8 16 4 17
REMARK H PARENT
REMARK Flexibility Score: 60.00
ROOT
ATOM      1  C   UNL     1      -6.382   5.646  16.338  1.00  0.00    -0.070 C 
ATOM      2  C   UNL     1      -6.703   4.342  16.504  1.00  0.00    -0.027 C 
ATOM      3  C   UNL     1      -6.550   6.571  17.517  1.00  0.00     0.039 C 
ENDROOT
BRANCH   2   4
ATOM      4  C   UNL     1      -6.674   3.274  15.436  1.00  0.00     0.032 C 
BRANCH   4   5
ATOM      5  C   UNL     1      -5.330   2.528  15.369  1.00  0.00     0.034 C 
BRANCH   5   6
ATOM      6  C   UNL     1      -4.830   2.350  13.949  1.00  0.00    -0.077 C 
ATOM      7  C   UNL     1      -5.501   1.319  13.078  1.00  0.00     0.039 C 
ATOM      8  C   UNL     1      -3.826   3.079  13.406  1.00  0.00    -0.023 CG0
ATOM      9  G   UNL     1      -3.070   4.193  14.091  1.00  0.00     0.000 G0
ENDBRANCH   5   6
ENDBRANCH   4   5
ENDBRANCH   2   4
BRANCH   1  10
ATOM     10  C   UNL     1      -5.881   6.233  15.031  1.00  0.00     0.111 C 
BRANCH  10  11
ATOM     11  C   UNL     1      -4.374   6.242  14.945  1.00  0.00     0.163 C 
ATOM     12  O   UNL     1      -3.733   6.902  15.806  1.00  0.00    -0.294 OA
BRANCH  11  13
ATOM     13  C   UNL     1      -3.631   5.568  13.836  1.00  0.00    -0.002 C 
ATOM     14  C   UNL     1      -3.374   6.234  12.672  1.00  0.00    -0.069 C 
ATOM     15  C   UNL     1      -2.534   5.613  11.579  1.00  0.00     0.039 C 
ATOM     16  C   UNL     1      -3.877   7.643  12.444  1.00  0.00     0.039 C 
BRANCH  13  17
ATOM     17  C   UNL     1      -3.041   4.188  14.094  1.00  0.00     0.066 CG0
ATOM     18  G   UNL     1      -3.831   3.103  13.401  1.00  0.00     0.000 G0
ENDBRANCH  13  17
ENDBRANCH  11  13
ENDBRANCH  10  11
ENDBRANCH   1  10
TORSDOF 0
ENDMDL
MODEL 3
REMARK VINA RESULT:    -3.561      4.477      6.277
REMARK INTER + INTRA:          -4.964
REMARK INTER:                  -5.566
REMARK INTRA:                   0.602
REMARK UNBOUND:                 0.054
REMARK SMILES CC1=CCC(=C(C)C)C(=O)CC(C)=CCC1
REMARK SMILES IDX 12 1 14 2 13 3 15 4 16 5 2 6 1 7 3 8 11 10 9 11 10 12 5 13
REMARK SMILES IDX 6 14 7 15 8 16 4 17
REMARK H PARENT
REMARK Flexibility Score: 60.00
ROOT
ATOM      1  C   UNL     1      -7.427   4.260  16.070  1.00  0.00    -0.070 C 
ATOM      2  C   UNL     1      -7.367   5.497  16.615  1.00  0.00    -0.027 C 
ATOM      3  C   UNL     1      -8.656   3.896  15.275  1.00  0.00     0.039 C 
ENDROOT
BRANCH   2   4
ATOM      4  C   UNL     1      -6.264   6.028  17.500  1.00  0.00     0.032 C 
BRANCH   4   5
ATOM      5  C   UNL     1      -5.567   7.267  16.911  1.00  0.00     0.034 C 
BRANCH   5   6
ATOM      6  C   UNL     1      -5.159   7.075  15.462  1.00  0.00    -0.077 C 
ATOM      7  C   UNL     1      -5.746   7.998  14.425  1.00  0.00     0.039 C 
ATOM      8  C   UNL     1      -4.281   6.133  15.045  1.00  0.00    -0.023 CG0
ATOM      9  G   UNL     1      -3.544   5.155  15.930  1.00  0.00     0.000 G0
ENDBRANCH   5   6
ENDBRANCH   4   5
ENDBRANCH   2   4
BRANCH   1  10
ATOM     10  C   UNL     1      -6.338   3.214  16.226  1.00  0.00     0.111 C 
BRANCH  10  11
ATOM     11  C   UNL     1      -5.258   3.347  15.181  1.00  0.00     0.163 C 
ATOM     12  O   UNL     1      -5.552   3.080  13.985  1.00  0.00    -0.294 OA
BRANCH  11  13
ATOM     13  C   UNL     1      -3.848   3.702  15.527  1.00  0.00    -0.002 C 
ATOM     14  C   UNL     1      -2.844   2.791  15.359  1.00  0.00    -0.069 C 
ATOM     15  C   UNL     1      -1.399   3.159  15.600  1.00  0.00     0.039 C 
ATOM     16  C   UNL     1      -3.131   1.386  14.878  1.00  0.00     0.039 C 
BRANCH  13  17
ATOM     17  C   UNL     1      -3.539   5.141  15.921  1.00  0.00     0.066 CG0
ATOM     18  G   UNL     1      -4.265   6.130  15.038  1.00  0.00     0.000 G0
ENDBRANCH  13  17
ENDBRANCH  11  13
ENDBRANCH  10  11
ENDBRANCH   1  10
TORSDOF 0
ENDMDL
MODEL 4
REMARK VINA RESULT:    -3.522      3.669      6.107
REMARK INTER + INTRA:          -4.909
REMARK INTER:                  -5.426
REMARK INTRA:                   0.517
REMARK UNBOUND:                 0.054
REMARK SMILES CC1=CCC(=C(C)C)C(=O)CC(C)=CCC1
REMARK SMILES IDX 12 1 14 2 13 3 15 4 16 5 2 6 1 7 3 8 11 10 9 11 10 12 5 13
REMARK SMILES IDX 6 14 7 15 8 16 4 17
REMARK H PARENT
REMARK Flexibility Score: 60.00
ROOT
ATOM      1  C   UNL     1      -3.640  -3.642   9.774  1.00  0.00    -0.070 C 
ATOM      2  C   UNL     1      -4.299  -2.460   9.793  1.00  0.00    -0.027 C 
ATOM      3  C   UNL     1      -3.863  -4.596  10.920  1.00  0.00     0.039 C 
ENDROOT
BRANCH   2   4
ATOM      4  C   UNL     1      -4.159  -1.345   8.784  1.00  0.00     0.032 C 
BRANCH   4   5
ATOM      5  C   UNL     1      -3.657  -0.031   9.408  1.00  0.00     0.034 C 
BRANCH   5   6
ATOM      6  C   UNL     1      -2.328  -0.193  10.121  1.00  0.00    -0.077 C 
ATOM      7  C   UNL     1      -2.265   0.115  11.596  1.00  0.00     0.039 C 
ATOM      8  C   UNL     1      -1.195  -0.619   9.516  1.00  0.00    -0.023 CG0
ATOM      9  G   UNL     1      -1.064  -1.031   8.069  1.00  0.00     0.000 G0
ENDBRANCH   5   6
ENDBRANCH   4   5
ENDBRANCH   2   4
BRANCH   1  10
ATOM     10  C   UNL     1      -2.677  -4.054   8.675  1.00  0.00     0.111 C 
BRANCH  10  11
ATOM     11  C   UNL     1      -1.291  -3.498   8.886  1.00  0.00     0.163 C 
ATOM     12  O   UNL     1      -0.668  -3.831   9.929  1.00  0.00    -0.294 OA
BRANCH  11  13
ATOM     13  C   UNL     1      -0.672  -2.511   7.948  1.00  0.00    -0.002 C 
ATOM     14  C   UNL     1       0.118  -2.936   6.918  1.00  0.00    -0.069 C 
ATOM     15  C   UNL     1       0.667  -1.968   5.897  1.00  0.00     0.039 C 
ATOM     16  C   UNL     1       0.437  -4.402   6.727  1.00  0.00     0.039 C 
BRANCH  13  17
ATOM     17  C   UNL     1      -1.066  -1.044   8.078  1.00  0.00     0.066 CG0
ATOM     18  G   UNL     1      -1.182  -0.622   9.524  1.00  0.00     0.000 G0
ENDBRANCH  13  17
ENDBRANCH  11  13
ENDBRANCH  10  11
ENDBRANCH   1  10
TORSDOF 0
ENDMDL
MODEL 5
REMARK VINA RESULT:    -3.441      2.801      5.307
REMARK INTER + INTRA:          -4.796
REMARK INTER:                  -5.340
REMARK INTRA:                   0.544
REMARK UNBOUND:                 0.054
REMARK SMILES CC1=CCC(=C(C)C)C(=O)CC(C)=CCC1
REMARK SMILES IDX 12 1 14 2 13 3 15 4 16 5 2 6 1 7 3 8 11 10 9 11 10 12 5 13
REMARK SMILES IDX 6 14 7 15 8 16 4 17
REMARK H PARENT
REMARK Flexibility Score: 60.00
ROOT
ATOM      1  C   UNL     1      -0.618  -0.950  11.271  1.00  0.00    -0.070 C 
ATOM      2  C   UNL     1      -1.255  -1.895  12.002  1.00  0.00    -0.027 C 
ATOM      3  C   UNL     1      -0.131   0.286  11.984  1.00  0.00     0.039 C 
ENDROOT
BRANCH   2   4
ATOM      4  C   UNL     1      -1.878  -3.164  11.469  1.00  0.00     0.032 C 
BRANCH   4   5
ATOM      5  C   UNL     1      -3.414  -3.093  11.395  1.00  0.00     0.034 C 
BRANCH   5   6
ATOM      6  C   UNL     1      -3.926  -2.988   9.971  1.00  0.00    -0.077 C 
ATOM      7  C   UNL     1      -4.216  -4.262   9.220  1.00  0.00     0.039 C 
ATOM      8  C   UNL     1      -4.159  -1.814   9.339  1.00  0.00    -0.023 CG0
ATOM      9  G   UNL     1      -3.988  -0.437   9.935  1.00  0.00     0.000 G0
ENDBRANCH   5   6
ENDBRANCH   4   5
ENDBRANCH   2   4
BRANCH   1  10
ATOM     10  C   UNL     1      -0.382  -1.057   9.776  1.00  0.00     0.111 C 
BRANCH  10  11
ATOM     11  C   UNL     1      -1.592  -0.650   8.972  1.00  0.00     0.163 C 
ATOM     12  O   UNL     1      -1.653  -1.007   7.765  1.00  0.00    -0.294 OA
BRANCH  11  13
ATOM     13  C   UNL     1      -2.670   0.222   9.532  1.00  0.00    -0.002 C 
ATOM     14  C   UNL     1      -2.525   1.580   9.543  1.00  0.00    -0.069 C 
ATOM     15  C   UNL     1      -3.642   2.487  10.005  1.00  0.00     0.039 C 
ATOM     16  C   UNL     1      -1.256   2.239   9.047  1.00  0.00     0.039 C 
BRANCH  13  17
ATOM     17  C   UNL     1      -3.985  -0.427   9.944  1.00  0.00     0.066 CG0
ATOM     18  G   UNL     1      -4.148  -1.798   9.331  1.00  0.00     0.000 G0
ENDBRANCH  13  17
ENDBRANCH  11  13
ENDBRANCH  10  11
ENDBRANCH   1  10
TORSDOF 0
ENDMDL
MODEL 6
REMARK VINA RESULT:    -3.416      3.736      6.365
REMARK INTER + INTRA:          -4.760
REMARK INTER:                  -4.854
REMARK INTRA:                   0.094
REMARK UNBOUND:                 0.054
REMARK SMILES CC1=CCC(=C(C)C)C(=O)CC(C)=CCC1
REMARK SMILES IDX 12 1 14 2 13 3 15 4 16 5 2 6 1 7 3 8 11 10 9 11 10 12 5 13
REMARK SMILES IDX 6 14 7 15 8 16 4 17
REMARK H PARENT
REMARK Flexibility Score: 60.00
ROOT
ATOM      1  C   UNL     1      -4.925   2.078  13.227  1.00  0.00    -0.070 C 
ATOM      2  C   UNL     1      -3.944   2.587  12.445  1.00  0.00    -0.027 C 
ATOM      3  C   UNL     1      -5.009   0.579  13.369  1.00  0.00     0.039 C 
ENDROOT
BRANCH   2   4
ATOM      4  C   UNL     1      -3.733   4.047  12.118  1.00  0.00     0.032 C 
BRANCH   4   5
ATOM      5  C   UNL     1      -2.918   4.791  13.190  1.00  0.00     0.034 C 
BRANCH   5   6
ATOM      6  C   UNL     1      -3.528   6.128  13.566  1.00  0.00    -0.077 C 
ATOM      7  C   UNL     1      -3.540   7.224  12.532  1.00  0.00     0.039 C 
ATOM      8  C   UNL     1      -4.083   6.390  14.772  1.00  0.00    -0.023 CG0
ATOM      9  G   UNL     1      -4.220   5.413  15.915  1.00  0.00     0.000 G0
ENDBRANCH   5   6
ENDBRANCH   4   5
ENDBRANCH   2   4
BRANCH   1  10
ATOM     10  C   UNL     1      -5.953   2.927  13.952  1.00  0.00     0.111 C 
BRANCH  10  11
ATOM     11  C   UNL     1      -5.534   3.258  15.363  1.00  0.00     0.163 C 
ATOM     12  O   UNL     1      -5.239   2.307  16.135  1.00  0.00    -0.294 OA
BRANCH  11  13
ATOM     13  C   UNL     1      -5.536   4.656  15.893  1.00  0.00    -0.002 C 
ATOM     14  C   UNL     1      -6.666   5.182  16.452  1.00  0.00    -0.069 C 
ATOM     15  C   UNL     1      -6.663   6.553  17.089  1.00  0.00     0.039 C 
ATOM     16  C   UNL     1      -7.957   4.396  16.502  1.00  0.00     0.039 C 
BRANCH  13  17
ATOM     17  C   UNL     1      -4.217   5.418  15.932  1.00  0.00     0.066 CG0
ATOM     18  G   UNL     1      -4.094   6.383  14.776  1.00  0.00     0.000 G0
ENDBRANCH  13  17
ENDBRANCH  11  13
ENDBRANCH  10  11
ENDBRANCH   1  10
TORSDOF 0
ENDMDL
MODEL 7
REMARK VINA RESULT:    -3.379      4.291      5.776
REMARK INTER + INTRA:          -4.708
REMARK INTER:                  -5.250
REMARK INTRA:                   0.542
REMARK UNBOUND:                 0.054
REMARK SMILES CC1=CCC(=C(C)C)C(=O)CC(C)=CCC1
REMARK SMILES IDX 12 1 14 2 13 3 15 4 16 5 2 6 1 7 3 8 11 10 9 11 10 12 5 13
REMARK SMILES IDX 6 14 7 15 8 16 4 17
REMARK H PARENT
REMARK Flexibility Score: 60.00
ROOT
ATOM      1  C   UNL     1      -5.747   7.165  15.526  1.00  0.00    -0.070 C 
ATOM      2  C   UNL     1      -6.718   6.655  16.319  1.00  0.00    -0.027 C 
ATOM      3  C   UNL     1      -6.050   8.431  14.764  1.00  0.00     0.039 C 
ENDROOT
BRANCH   2   4
ATOM      4  C   UNL     1      -6.641   5.366  17.104  1.00  0.00     0.032 C 
BRANCH   4   5
ATOM      5  C   UNL     1      -7.757   4.372  16.735  1.00  0.00     0.034 C 
BRANCH   5   6
ATOM      6  C   UNL     1      -7.682   3.919  15.290  1.00  0.00    -0.077 C 
ATOM      7  C   UNL     1      -8.902   4.094  14.422  1.00  0.00     0.039 C 
ATOM      8  C   UNL     1      -6.576   3.383  14.724  1.00  0.00    -0.023 CG0
ATOM      9  G   UNL     1      -5.243   3.179  15.405  1.00  0.00     0.000 G0
ENDBRANCH   5   6
ENDBRANCH   4   5
ENDBRANCH   2   4
BRANCH   1  10
ATOM     10  C   UNL     1      -4.381   6.528  15.346  1.00  0.00     0.111 C 
BRANCH  10  11
ATOM     11  C   UNL     1      -4.401   5.396  14.349  1.00  0.00     0.163 C 
ATOM     12  O   UNL     1      -4.734   5.654  13.161  1.00  0.00    -0.294 OA
BRANCH  11  13
ATOM     13  C   UNL     1      -4.122   3.980  14.739  1.00  0.00    -0.002 C 
ATOM     14  C   UNL     1      -2.861   3.467  14.624  1.00  0.00    -0.069 C 
ATOM     15  C   UNL     1      -2.532   2.074  15.110  1.00  0.00     0.039 C 
ATOM     16  C   UNL     1      -1.728   4.288  14.050  1.00  0.00     0.039 C 
BRANCH  13  17
ATOM     17  C   UNL     1      -5.235   3.179  15.404  1.00  0.00     0.066 CG0
ATOM     18  G   UNL     1      -6.566   3.403  14.727  1.00  0.00     0.000 G0
ENDBRANCH  13  17
ENDBRANCH  11  13
ENDBRANCH  10  11
ENDBRANCH   1  10
TORSDOF 0
ENDMDL
MODEL 8
REMARK VINA RESULT:    -3.366      3.932      6.736
REMARK INTER + INTRA:          -4.690
REMARK INTER:                  -4.866
REMARK INTRA:                   0.176
REMARK UNBOUND:                 0.054
REMARK SMILES CC1=CCC(=C(C)C)C(=O)CC(C)=CCC1
REMARK SMILES IDX 12 1 14 2 13 3 15 4 16 5 2 6 1 7 3 8 11 10 9 11 10 12 5 13
REMARK SMILES IDX 6 14 7 15 8 16 4 17
REMARK H PARENT
REMARK Flexibility Score: 60.00
ROOT
ATOM      1  C   UNL     1      -6.824   4.258  15.446  1.00  0.00    -0.070 C 
ATOM      2  C   UNL     1      -6.157   3.085  15.348  1.00  0.00    -0.027 C 
ATOM      3  C   UNL     1      -7.698   4.475  16.656  1.00  0.00     0.039 C 
ENDROOT
BRANCH   2   4
ATOM      4  C   UNL     1      -5.292   2.647  14.189  1.00  0.00     0.032 C 
BRANCH   4   5
ATOM      5  C   UNL     1      -3.912   3.328  14.179  1.00  0.00     0.034 C 
BRANCH   5   6
ATOM      6  C   UNL     1      -3.576   3.947  12.835  1.00  0.00    -0.077 C 
ATOM      7  C   UNL     1      -3.531   3.049  11.625  1.00  0.00     0.039 C 
ATOM      8  C   UNL     1      -3.332   5.265  12.653  1.00  0.00    -0.023 CG0
ATOM      9  G   UNL     1      -3.384   6.332  13.721  1.00  0.00     0.000 G0
ENDBRANCH   5   6
ENDBRANCH   4   5
ENDBRANCH   2   4
BRANCH   1  10
ATOM     10  C   UNL     1      -6.757   5.359  14.403  1.00  0.00     0.111 C 
BRANCH  10  11
ATOM     11  C   UNL     1      -5.771   6.440  14.770  1.00  0.00     0.163 C 
ATOM     12  O   UNL     1      -5.842   6.944  15.923  1.00  0.00    -0.294 OA
BRANCH  11  13
ATOM     13  C   UNL     1      -4.778   6.984  13.794  1.00  0.00    -0.002 C 
ATOM     14  C   UNL     1      -5.058   8.113  13.079  1.00  0.00    -0.069 C 
ATOM     15  C   UNL     1      -4.030   8.741  12.166  1.00  0.00     0.039 C 
ATOM     16  C   UNL     1      -6.393   8.813  13.207  1.00  0.00     0.039 C 
BRANCH  13  17
ATOM     17  C   UNL     1      -3.398   6.340  13.730  1.00  0.00     0.066 CG0
ATOM     18  G   UNL     1      -3.333   5.262  12.674  1.00  0.00     0.000 G0
ENDBRANCH  13  17
ENDBRANCH  11  13
ENDBRANCH  10  11
ENDBRANCH   1  10
TORSDOF 0
ENDMDL
MODEL 9
REMARK VINA RESULT:    -3.322      3.591      5.779
REMARK INTER + INTRA:          -4.628
REMARK INTER:                  -5.147
REMARK INTRA:                   0.519
REMARK UNBOUND:                 0.054
REMARK SMILES CC1=CCC(=C(C)C)C(=O)CC(C)=CCC1
REMARK SMILES IDX 12 1 14 2 13 3 15 4 16 5 2 6 1 7 3 8 11 10 9 11 10 12 5 13
REMARK SMILES IDX 6 14 7 15 8 16 4 17
REMARK H PARENT
REMARK Flexibility Score: 60.00
ROOT
ATOM      1  C   UNL     1      -4.823   2.547  15.164  1.00  0.00    -0.070 C 
ATOM      2  C   UNL     1      -6.125   2.845  15.381  1.00  0.00    -0.027 C 
ATOM      3  C   UNL     1      -4.505   1.424  14.208  1.00  0.00     0.039 C 
ENDROOT
BRANCH   2   4
ATOM      4  C   UNL     1      -6.653   3.879  16.347  1.00  0.00     0.032 C 
BRANCH   4   5
ATOM      5  C   UNL     1      -7.229   5.120  15.643  1.00  0.00     0.034 C 
BRANCH   5   6
ATOM      6  C   UNL     1      -6.252   6.279  15.609  1.00  0.00    -0.077 C 
ATOM      7  C   UNL     1      -6.324   7.309  16.707  1.00  0.00     0.039 C 
ATOM      8  C   UNL     1      -5.301   6.435  14.658  1.00  0.00    -0.023 CG0
ATOM      9  G   UNL     1      -5.030   5.489  13.513  1.00  0.00     0.000 G0
ENDBRANCH   5   6
ENDBRANCH   4   5
ENDBRANCH   2   4
BRANCH   1  10
ATOM     10  C   UNL     1      -3.668   3.263  15.839  1.00  0.00     0.111 C 
BRANCH  10  11
ATOM     11  C   UNL     1      -3.207   4.471  15.061  1.00  0.00     0.163 C 
ATOM     12  O   UNL     1      -2.435   5.288  15.631  1.00  0.00    -0.294 OA
BRANCH  11  13
ATOM     13  C   UNL     1      -3.695   4.768  13.679  1.00  0.00    -0.002 C 
ATOM     14  C   UNL     1      -3.023   4.292  12.590  1.00  0.00    -0.069 C 
ATOM     15  C   UNL     1      -3.554   4.489  11.189  1.00  0.00     0.039 C 
ATOM     16  C   UNL     1      -1.740   3.503  12.742  1.00  0.00     0.039 C 
BRANCH  13  17
ATOM     17  C   UNL     1      -5.034   5.479  13.522  1.00  0.00     0.066 CG0
ATOM     18  G   UNL     1      -5.301   6.428  14.667  1.00  0.00     0.000 G0
ENDBRANCH  13  17
ENDBRANCH  11  13
ENDBRANCH  10  11
ENDBRANCH   1  10
TORSDOF 0
ENDMDL
