MODEL 1
REMARK VINA RESULT:    -4.367      0.000      0.000
REMARK INTER + INTRA:          -6.641
REMARK INTER:                  -6.154
REMARK INTRA:                  -0.487
REMARK UNBOUND:                -0.487
REMARK SMILES C=CCCCCCCC(=O)[O-]
REMARK SMILES IDX 6 1 7 2 8 3 9 4 10 5 11 6 5 7 4 8 3 9 2 10 1 11
REMARK H PARENT
REMARK Flexibility Score: inf
ROOT
ATOM      1  C   UNL     1      23.789  39.155   0.878  1.00  0.00     0.000 C 
ENDROOT
BRANCH   1   2
ATOM      2  C   UNL     1      22.274  39.172   0.641  1.00  0.00     0.006 C 
BRANCH   2   3
ATOM      3  C   UNL     1      21.711  40.590   0.785  1.00  0.00     0.053 C 
BRANCH   3   4
ATOM      4  C   UNL     1      20.657  40.630   1.844  1.00  0.00     0.041 C 
ATOM      5  O   UNL     1      20.806  39.979   2.912  1.00  0.00    -0.550 OA
ATOM      6  O   UNL     1      19.530  41.425   1.676  1.00  0.00    -0.550 OA
ENDBRANCH   3   4
ENDBRANCH   2   3
ENDBRANCH   1   2
BRANCH   1   7
ATOM      7  C   UNL     1      24.170  38.110   1.934  1.00  0.00     0.000 C 
BRANCH   7   8
ATOM      8  C   UNL     1      23.580  36.737   1.589  1.00  0.00     0.004 C 
BRANCH   8   9
ATOM      9  C   UNL     1      24.657  35.801   1.028  1.00  0.00     0.027 C 
BRANCH   9  10
ATOM     10  C   UNL     1      24.264  35.261  -0.319  1.00  0.00    -0.035 C 
ATOM     11  C   UNL     1      22.982  35.152  -0.685  1.00  0.00     0.004 C 
ENDBRANCH   9  10
ENDBRANCH   8   9
ENDBRANCH   7   8
ENDBRANCH   1   7
TORSDOF 7
ENDMDL
MODEL 2
REMARK VINA RESULT:    -4.365      0.889      1.217
REMARK INTER + INTRA:          -6.638
REMARK INTER:                  -6.246
REMARK INTRA:                  -0.392
REMARK UNBOUND:                -0.487
REMARK SMILES C=CCCCCCCC(=O)[O-]
REMARK SMILES IDX 6 1 7 2 8 3 9 4 10 5 11 6 5 7 4 8 3 9 2 10 1 11
REMARK H PARENT
REMARK Flexibility Score: inf
ROOT
ATOM      1  C   UNL     1      24.260  38.855   0.667  1.00  0.00     0.000 C 
ENDROOT
BRANCH   1   2
ATOM      2  C   UNL     1      23.421  40.097   0.987  1.00  0.00     0.006 C 
BRANCH   2   3
ATOM      3  C   UNL     1      21.926  39.763   1.001  1.00  0.00     0.053 C 
BRANCH   3   4
ATOM      4  C   UNL     1      21.113  41.007   1.163  1.00  0.00     0.041 C 
ATOM      5  O   UNL     1      21.129  41.896   0.270  1.00  0.00    -0.550 OA
ATOM      6  O   UNL     1      20.298  41.167   2.276  1.00  0.00    -0.550 OA
ENDBRANCH   3   4
ENDBRANCH   2   3
ENDBRANCH   1   2
BRANCH   1   7
ATOM      7  C   UNL     1      24.378  37.939   1.892  1.00  0.00     0.000 C 
BRANCH   7   8
ATOM      8  C   UNL     1      23.797  36.551   1.600  1.00  0.00     0.004 C 
BRANCH   8   9
ATOM      9  C   UNL     1      24.833  35.653   0.914  1.00  0.00     0.027 C 
BRANCH   9  10
ATOM     10  C   UNL     1      24.288  35.065  -0.358  1.00  0.00    -0.035 C 
ATOM     11  C   UNL     1      22.985  35.116  -0.654  1.00  0.00     0.004 C 
ENDBRANCH   9  10
ENDBRANCH   8   9
ENDBRANCH   7   8
ENDBRANCH   1   7
TORSDOF 7
ENDMDL
MODEL 3
REMARK VINA RESULT:    -4.344      1.169      1.423
REMARK INTER + INTRA:          -6.608
REMARK INTER:                  -6.017
REMARK INTRA:                  -0.591
REMARK UNBOUND:                -0.487
REMARK SMILES C=CCCCCCCC(=O)[O-]
REMARK SMILES IDX 6 1 7 2 8 3 9 4 10 5 11 6 5 7 4 8 3 9 2 10 1 11
REMARK H PARENT
REMARK Flexibility Score: inf
ROOT
ATOM      1  C   UNL     1      24.131  38.693   0.902  1.00  0.00     0.000 C 
ENDROOT
BRANCH   1   2
ATOM      2  C   UNL     1      22.613  38.857   0.759  1.00  0.00     0.006 C 
BRANCH   2   3
ATOM      3  C   UNL     1      22.220  40.338   0.754  1.00  0.00     0.053 C 
BRANCH   3   4
ATOM      4  C   UNL     1      22.411  40.935   2.111  1.00  0.00     0.041 C 
ATOM      5  O   UNL     1      23.266  41.843   2.290  1.00  0.00    -0.550 OA
ATOM      6  O   UNL     1      21.612  40.525   3.171  1.00  0.00    -0.550 OA
ENDBRANCH   3   4
ENDBRANCH   2   3
ENDBRANCH   1   2
BRANCH   1   7
ATOM      7  C   UNL     1      24.475  37.710   2.028  1.00  0.00     0.000 C 
BRANCH   7   8
ATOM      8  C   UNL     1      23.960  36.302   1.708  1.00  0.00     0.004 C 
BRANCH   8   9
ATOM      9  C   UNL     1      24.946  35.547   0.809  1.00  0.00     0.027 C 
BRANCH   9  10
ATOM     10  C   UNL     1      24.308  35.158  -0.496  1.00  0.00    -0.035 C 
ATOM     11  C   UNL     1      22.980  35.099  -0.638  1.00  0.00     0.004 C 
ENDBRANCH   9  10
ENDBRANCH   8   9
ENDBRANCH   7   8
ENDBRANCH   1   7
TORSDOF 7
ENDMDL
MODEL 4
REMARK VINA RESULT:    -4.274      1.077      1.441
REMARK INTER + INTRA:          -6.510
REMARK INTER:                  -6.031
REMARK INTRA:                  -0.479
REMARK UNBOUND:                -0.487
REMARK SMILES C=CCCCCCCC(=O)[O-]
REMARK SMILES IDX 6 1 7 2 8 3 9 4 10 5 11 6 5 7 4 8 3 9 2 10 1 11
REMARK H PARENT
REMARK Flexibility Score: inf
ROOT
ATOM      1  C   UNL     1      24.228  38.858   0.782  1.00  0.00     0.000 C 
ENDROOT
BRANCH   1   2
ATOM      2  C   UNL     1      23.414  40.136   1.016  1.00  0.00     0.006 C 
BRANCH   2   3
ATOM      3  C   UNL     1      21.934  39.810   1.246  1.00  0.00     0.053 C 
BRANCH   3   4
ATOM      4  C   UNL     1      21.093  41.031   1.049  1.00  0.00     0.041 C 
ATOM      5  O   UNL     1      19.944  41.097   1.559  1.00  0.00    -0.550 OA
ATOM      6  O   UNL     1      21.596  42.116   0.343  1.00  0.00    -0.550 OA
ENDBRANCH   3   4
ENDBRANCH   2   3
ENDBRANCH   1   2
BRANCH   1   7
ATOM      7  C   UNL     1      24.361  38.045   2.077  1.00  0.00     0.000 C 
BRANCH   7   8
ATOM      8  C   UNL     1      24.307  36.541   1.790  1.00  0.00     0.004 C 
BRANCH   8   9
ATOM      9  C   UNL     1      23.325  36.231   0.654  1.00  0.00     0.027 C 
BRANCH   9  10
ATOM     10  C   UNL     1      23.883  35.195  -0.282  1.00  0.00    -0.035 C 
ATOM     11  C   UNL     1      25.167  34.828  -0.240  1.00  0.00     0.004 C 
ENDBRANCH   9  10
ENDBRANCH   8   9
ENDBRANCH   7   8
ENDBRANCH   1   7
TORSDOF 7
ENDMDL
MODEL 5
REMARK VINA RESULT:    -4.245      2.867      3.482
REMARK INTER + INTRA:          -6.470
REMARK INTER:                  -6.008
REMARK INTRA:                  -0.461
REMARK UNBOUND:                -0.487
REMARK SMILES C=CCCCCCCC(=O)[O-]
REMARK SMILES IDX 6 1 7 2 8 3 9 4 10 5 11 6 5 7 4 8 3 9 2 10 1 11
REMARK H PARENT
REMARK Flexibility Score: inf
ROOT
ATOM      1  C   UNL     1      23.349  39.496   1.756  1.00  0.00     0.000 C 
ENDROOT
BRANCH   1   2
ATOM      2  C   UNL     1      22.860  38.904   3.083  1.00  0.00     0.006 C 
BRANCH   2   3
ATOM      3  C   UNL     1      23.592  39.539   4.270  1.00  0.00     0.053 C 
BRANCH   3   4
ATOM      4  C   UNL     1      24.407  38.513   4.991  1.00  0.00     0.041 C 
ATOM      5  O   UNL     1      25.224  38.864   5.882  1.00  0.00    -0.550 OA
ATOM      6  O   UNL     1      24.230  37.163   4.714  1.00  0.00    -0.550 OA
ENDBRANCH   3   4
ENDBRANCH   2   3
ENDBRANCH   1   2
BRANCH   1   7
ATOM      7  C   UNL     1      24.033  38.428   0.894  1.00  0.00     0.000 C 
BRANCH   7   8
ATOM      8  C   UNL     1      23.462  37.036   1.186  1.00  0.00     0.004 C 
BRANCH   8   9
ATOM      9  C   UNL     1      24.539  35.955   1.030  1.00  0.00     0.027 C 
BRANCH   9  10
ATOM     10  C   UNL     1      24.231  35.041  -0.123  1.00  0.00    -0.035 C 
ATOM     11  C   UNL     1      23.050  35.072  -0.750  1.00  0.00     0.004 C 
ENDBRANCH   9  10
ENDBRANCH   8   9
ENDBRANCH   7   8
ENDBRANCH   1   7
TORSDOF 7
ENDMDL
MODEL 6
REMARK VINA RESULT:    -4.081      3.639      5.516
REMARK INTER + INTRA:          -6.238
REMARK INTER:                  -5.695
REMARK INTRA:                  -0.543
REMARK UNBOUND:                -0.487
REMARK SMILES C=CCCCCCCC(=O)[O-]
REMARK SMILES IDX 6 1 7 2 8 3 9 4 10 5 11 6 5 7 4 8 3 9 2 10 1 11
REMARK H PARENT
REMARK Flexibility Score: inf
ROOT
ATOM      1  C   UNL     1      23.387  36.634   1.870  1.00  0.00     0.000 C 
ENDROOT
BRANCH   1   2
ATOM      2  C   UNL     1      23.061  36.528   0.375  1.00  0.00     0.006 C 
BRANCH   2   3
ATOM      3  C   UNL     1      23.432  35.145  -0.171  1.00  0.00     0.053 C 
BRANCH   3   4
ATOM      4  C   UNL     1      24.881  35.098  -0.535  1.00  0.00     0.041 C 
ATOM      5  O   UNL     1      25.720  34.598   0.261  1.00  0.00    -0.550 OA
ATOM      6  O   UNL     1      25.303  35.563  -1.775  1.00  0.00    -0.550 OA
ENDBRANCH   3   4
ENDBRANCH   2   3
ENDBRANCH   1   2
BRANCH   1   7
ATOM      7  C   UNL     1      23.920  38.029   2.219  1.00  0.00     0.000 C 
BRANCH   7   8
ATOM      8  C   UNL     1      24.165  38.858   0.954  1.00  0.00     0.004 C 
BRANCH   8   9
ATOM      9  C   UNL     1      23.396  40.183   1.006  1.00  0.00     0.027 C 
BRANCH   9  10
ATOM     10  C   UNL     1      21.914  39.959   0.877  1.00  0.00    -0.035 C 
ATOM     11  C   UNL     1      21.060  40.342   1.832  1.00  0.00     0.004 C 
ENDBRANCH   9  10
ENDBRANCH   8   9
ENDBRANCH   7   8
ENDBRANCH   1   7
TORSDOF 7
ENDMDL
MODEL 7
REMARK VINA RESULT:    -3.979      1.617      2.073
REMARK INTER + INTRA:          -6.094
REMARK INTER:                  -5.689
REMARK INTRA:                  -0.405
REMARK UNBOUND:                -0.487
REMARK SMILES C=CCCCCCCC(=O)[O-]
REMARK SMILES IDX 6 1 7 2 8 3 9 4 10 5 11 6 5 7 4 8 3 9 2 10 1 11
REMARK H PARENT
REMARK Flexibility Score: inf
ROOT
ATOM      1  C   UNL     1      22.232  39.330   0.683  1.00  0.00     0.000 C 
ENDROOT
BRANCH   1   2
ATOM      2  C   UNL     1      21.996  40.358   1.796  1.00  0.00     0.006 C 
BRANCH   2   3
ATOM      3  C   UNL     1      22.827  40.022   3.038  1.00  0.00     0.053 C 
BRANCH   3   4
ATOM      4  C   UNL     1      21.944  39.532   4.141  1.00  0.00     0.041 C 
ATOM      5  O   UNL     1      21.711  40.264   5.139  1.00  0.00    -0.550 OA
ATOM      6  O   UNL     1      21.338  38.286   4.047  1.00  0.00    -0.550 OA
ENDBRANCH   3   4
ENDBRANCH   2   3
ENDBRANCH   1   2
BRANCH   1   7
ATOM      7  C   UNL     1      23.466  38.469   0.980  1.00  0.00     0.000 C 
BRANCH   7   8
ATOM      8  C   UNL     1      23.110  36.978   0.982  1.00  0.00     0.004 C 
BRANCH   8   9
ATOM      9  C   UNL     1      24.373  36.111   0.915  1.00  0.00     0.027 C 
BRANCH   9  10
ATOM     10  C   UNL     1      24.245  35.042  -0.135  1.00  0.00    -0.035 C 
ATOM     11  C   UNL     1      23.167  34.953  -0.920  1.00  0.00     0.004 C 
ENDBRANCH   9  10
ENDBRANCH   8   9
ENDBRANCH   7   8
ENDBRANCH   1   7
TORSDOF 7
ENDMDL
MODEL 8
REMARK VINA RESULT:    -3.894      7.875      9.324
REMARK INTER + INTRA:          -5.974
REMARK INTER:                  -5.398
REMARK INTRA:                  -0.576
REMARK UNBOUND:                -0.487
REMARK SMILES C=CCCCCCCC(=O)[O-]
REMARK SMILES IDX 6 1 7 2 8 3 9 4 10 5 11 6 5 7 4 8 3 9 2 10 1 11
REMARK H PARENT
REMARK Flexibility Score: inf
ROOT
ATOM      1  C   UNL     1      25.542  38.008   9.642  1.00  0.00     0.000 C 
ENDROOT
BRANCH   1   2
ATOM      2  C   UNL     1      26.177  38.545  10.930  1.00  0.00     0.006 C 
BRANCH   2   3
ATOM      3  C   UNL     1      27.693  38.697  10.774  1.00  0.00     0.053 C 
BRANCH   3   4
ATOM      4  C   UNL     1      28.023  40.004  10.126  1.00  0.00     0.041 C 
ATOM      5  O   UNL     1      28.505  40.032   8.963  1.00  0.00    -0.550 OA
ATOM      6  O   UNL     1      27.755  41.196  10.788  1.00  0.00    -0.550 OA
ENDBRANCH   3   4
ENDBRANCH   2   3
ENDBRANCH   1   2
BRANCH   1   7
ATOM      7  C   UNL     1      26.392  36.883   9.037  1.00  0.00     0.000 C 
BRANCH   7   8
ATOM      8  C   UNL     1      26.514  37.041   7.517  1.00  0.00     0.004 C 
BRANCH   8   9
ATOM      9  C   UNL     1      25.896  38.364   7.050  1.00  0.00     0.027 C 
BRANCH   9  10
ATOM     10  C   UNL     1      24.974  38.153   5.882  1.00  0.00    -0.035 C 
ATOM     11  C   UNL     1      24.577  39.168   5.108  1.00  0.00     0.004 C 
ENDBRANCH   9  10
ENDBRANCH   8   9
ENDBRANCH   7   8
ENDBRANCH   1   7
TORSDOF 7
ENDMDL
