MODEL 1
REMARK VINA RESULT:    -3.680      0.000      0.000
REMARK INTER + INTRA:          -5.366
REMARK INTER:                  -4.971
REMARK INTRA:                  -0.395
REMARK UNBOUND:                -0.395
REMARK SMILES CCCCCCCC(=O)[O-]
REMARK SMILES IDX 5 1 6 2 7 3 8 4 9 5 10 6 4 7 3 8 2 9 1 10
REMARK H PARENT
REMARK Flexibility Score: inf
ROOT
ATOM      1  C   UNL     1      -3.065  -2.405   8.592  1.00  0.00     0.000 C 
ENDROOT
BRANCH   1   2
ATOM      2  C   UNL     1      -4.181  -1.494   9.115  1.00  0.00     0.006 C 
BRANCH   2   3
ATOM      3  C   UNL     1      -3.654  -0.082   9.391  1.00  0.00     0.053 C 
BRANCH   3   4
ATOM      4  C   UNL     1      -4.051   0.366  10.762  1.00  0.00     0.041 C 
ATOM      5  O   UNL     1      -4.417   1.555  10.959  1.00  0.00    -0.550 OA
ATOM      6  O   UNL     1      -4.063  -0.541  11.814  1.00  0.00    -0.550 OA
ENDBRANCH   3   4
ENDBRANCH   2   3
ENDBRANCH   1   2
BRANCH   1   7
ATOM      7  C   UNL     1      -3.218  -3.831   9.135  1.00  0.00     0.000 C 
BRANCH   7   8
ATOM      8  C   UNL     1      -3.780  -3.818  10.564  1.00  0.00    -0.000 C 
BRANCH   8   9
ATOM      9  C   UNL     1      -4.723  -5.000  10.838  1.00  0.00    -0.003 C 
ATOM     10  C   UNL     1      -5.772  -5.186   9.743  1.00  0.00     0.004 C 
ENDBRANCH   8   9
ENDBRANCH   7   8
ENDBRANCH   1   7
TORSDOF 6
ENDMDL
MODEL 2
REMARK VINA RESULT:    -3.619      5.382      7.433
REMARK INTER + INTRA:          -5.283
REMARK INTER:                  -5.031
REMARK INTRA:                  -0.252
REMARK UNBOUND:                -0.395
REMARK SMILES CCCCCCCC(=O)[O-]
REMARK SMILES IDX 5 1 6 2 7 3 8 4 9 5 10 6 4 7 3 8 2 9 1 10
REMARK H PARENT
REMARK Flexibility Score: inf
ROOT
ATOM      1  C   UNL     1      -5.410   2.958  14.476  1.00  0.00     0.000 C 
ENDROOT
BRANCH   1   2
ATOM      2  C   UNL     1      -5.590   3.174  15.983  1.00  0.00     0.006 C 
BRANCH   2   3
ATOM      3  C   UNL     1      -7.025   2.857  16.416  1.00  0.00     0.053 C 
BRANCH   3   4
ATOM      4  C   UNL     1      -7.922   4.024  16.150  1.00  0.00     0.041 C 
ATOM      5  O   UNL     1      -7.807   5.081  16.826  1.00  0.00    -0.550 OA
ATOM      6  O   UNL     1      -8.854   3.964  15.121  1.00  0.00    -0.550 OA
ENDBRANCH   3   4
ENDBRANCH   2   3
ENDBRANCH   1   2
BRANCH   1   7
ATOM      7  C   UNL     1      -4.655   1.654  14.193  1.00  0.00     0.000 C 
BRANCH   7   8
ATOM      8  C   UNL     1      -5.299   0.888  13.028  1.00  0.00    -0.000 C 
BRANCH   8   9
ATOM      9  C   UNL     1      -4.317   0.631  11.875  1.00  0.00    -0.003 C 
ATOM     10  C   UNL     1      -4.260   1.787  10.878  1.00  0.00     0.004 C 
ENDBRANCH   8   9
ENDBRANCH   7   8
ENDBRANCH   1   7
TORSDOF 6
ENDMDL
MODEL 3
REMARK VINA RESULT:    -3.581      2.271      4.335
REMARK INTER + INTRA:          -5.232
REMARK INTER:                  -4.800
REMARK INTRA:                  -0.432
REMARK UNBOUND:                -0.395
REMARK SMILES CCCCCCCC(=O)[O-]
REMARK SMILES IDX 5 1 6 2 7 3 8 4 9 5 10 6 4 7 3 8 2 9 1 10
REMARK H PARENT
REMARK Flexibility Score: inf
ROOT
ATOM      1  C   UNL     1      -2.695  -1.975   8.556  1.00  0.00     0.000 C 
ENDROOT
BRANCH   1   2
ATOM      2  C   UNL     1      -2.791  -3.490   8.769  1.00  0.00     0.006 C 
BRANCH   2   3
ATOM      3  C   UNL     1      -4.169  -3.882   9.311  1.00  0.00     0.053 C 
BRANCH   3   4
ATOM      4  C   UNL     1      -4.050  -4.429  10.699  1.00  0.00     0.041 C 
ATOM      5  O   UNL     1      -4.754  -5.410  11.056  1.00  0.00    -0.550 OA
ATOM      6  O   UNL     1      -3.125  -3.887  11.583  1.00  0.00    -0.550 OA
ENDBRANCH   3   4
ENDBRANCH   2   3
ENDBRANCH   1   2
BRANCH   1   7
ATOM      7  C   UNL     1      -4.070  -1.311   8.688  1.00  0.00     0.000 C 
BRANCH   7   8
ATOM      8  C   UNL     1      -4.000  -0.077   9.599  1.00  0.00    -0.000 C 
BRANCH   8   9
ATOM      9  C   UNL     1      -3.638  -0.433  11.049  1.00  0.00    -0.003 C 
ATOM     10  C   UNL     1      -4.390   0.417  12.073  1.00  0.00     0.004 C 
ENDBRANCH   8   9
ENDBRANCH   7   8
ENDBRANCH   1   7
TORSDOF 6
ENDMDL
MODEL 4
REMARK VINA RESULT:    -3.578      4.917      7.527
REMARK INTER + INTRA:          -5.228
REMARK INTER:                  -4.871
REMARK INTRA:                  -0.358
REMARK UNBOUND:                -0.395
REMARK SMILES CCCCCCCC(=O)[O-]
REMARK SMILES IDX 5 1 6 2 7 3 8 4 9 5 10 6 4 7 3 8 2 9 1 10
REMARK H PARENT
REMARK Flexibility Score: inf
ROOT
ATOM      1  C   UNL     1      -4.935   2.119  15.189  1.00  0.00     0.000 C 
ENDROOT
BRANCH   1   2
ATOM      2  C   UNL     1      -5.256   2.299  13.701  1.00  0.00     0.006 C 
BRANCH   2   3
ATOM      3  C   UNL     1      -5.303   0.948  12.982  1.00  0.00     0.053 C 
BRANCH   3   4
ATOM      4  C   UNL     1      -4.173   0.832  12.009  1.00  0.00     0.041 C 
ATOM      5  O   UNL     1      -4.103  -0.156  11.231  1.00  0.00    -0.550 OA
ATOM      6  O   UNL     1      -3.222   1.841  11.926  1.00  0.00    -0.550 OA
ENDBRANCH   3   4
ENDBRANCH   2   3
ENDBRANCH   1   2
BRANCH   1   7
ATOM      7  C   UNL     1      -5.517   3.268  16.022  1.00  0.00     0.000 C 
BRANCH   7   8
ATOM      8  C   UNL     1      -6.974   2.980  16.414  1.00  0.00    -0.000 C 
BRANCH   8   9
ATOM      9  C   UNL     1      -7.909   4.164  16.122  1.00  0.00    -0.003 C 
ATOM     10  C   UNL     1      -8.475   4.135  14.703  1.00  0.00     0.004 C 
ENDBRANCH   8   9
ENDBRANCH   7   8
ENDBRANCH   1   7
TORSDOF 6
ENDMDL
MODEL 5
REMARK VINA RESULT:    -3.562      1.893      2.216
REMARK INTER + INTRA:          -5.207
REMARK INTER:                  -4.863
REMARK INTRA:                  -0.343
REMARK UNBOUND:                -0.395
REMARK SMILES CCCCCCCC(=O)[O-]
REMARK SMILES IDX 5 1 6 2 7 3 8 4 9 5 10 6 4 7 3 8 2 9 1 10
REMARK H PARENT
REMARK Flexibility Score: inf
ROOT
ATOM      1  C   UNL     1      -2.385  -2.065  11.255  1.00  0.00     0.000 C 
ENDROOT
BRANCH   1   2
ATOM      2  C   UNL     1      -3.628  -1.193  11.467  1.00  0.00     0.006 C 
BRANCH   2   3
ATOM      3  C   UNL     1      -3.608   0.025  10.540  1.00  0.00     0.053 C 
BRANCH   3   4
ATOM      4  C   UNL     1      -3.472  -0.404   9.113  1.00  0.00     0.041 C 
ATOM      5  O   UNL     1      -2.447  -0.090   8.452  1.00  0.00    -0.550 OA
ATOM      6  O   UNL     1      -4.455  -1.192   8.528  1.00  0.00    -0.550 OA
ENDBRANCH   3   4
ENDBRANCH   2   3
ENDBRANCH   1   2
BRANCH   1   7
ATOM      7  C   UNL     1      -2.695  -3.542  11.527  1.00  0.00     0.000 C 
BRANCH   7   8
ATOM      8  C   UNL     1      -3.571  -4.135  10.413  1.00  0.00    -0.000 C 
BRANCH   8   9
ATOM      9  C   UNL     1      -4.731  -4.980  10.961  1.00  0.00    -0.003 C 
ATOM     10  C   UNL     1      -5.772  -5.318   9.895  1.00  0.00     0.004 C 
ENDBRANCH   8   9
ENDBRANCH   7   8
ENDBRANCH   1   7
TORSDOF 6
ENDMDL
MODEL 6
REMARK VINA RESULT:    -3.505      6.790      8.987
REMARK INTER + INTRA:          -5.129
REMARK INTER:                  -4.639
REMARK INTRA:                  -0.491
REMARK UNBOUND:                -0.395
REMARK SMILES CCCCCCCC(=O)[O-]
REMARK SMILES IDX 5 1 6 2 7 3 8 4 9 5 10 6 4 7 3 8 2 9 1 10
REMARK H PARENT
REMARK Flexibility Score: inf
ROOT
ATOM      1  C   UNL     1      -7.475   3.938  15.788  1.00  0.00     0.000 C 
ENDROOT
BRANCH   1   2
ATOM      2  C   UNL     1      -7.722   5.122  16.731  1.00  0.00     0.006 C 
BRANCH   2   3
ATOM      3  C   UNL     1      -6.404   5.790  17.132  1.00  0.00     0.053 C 
BRANCH   3   4
ATOM      4  C   UNL     1      -5.725   6.372  15.932  1.00  0.00     0.041 C 
ATOM      5  O   UNL     1      -6.261   7.319  15.298  1.00  0.00    -0.550 OA
ATOM      6  O   UNL     1      -4.478   5.901  15.543  1.00  0.00    -0.550 OA
ENDBRANCH   3   4
ENDBRANCH   2   3
ENDBRANCH   1   2
BRANCH   1   7
ATOM      7  C   UNL     1      -6.641   2.850  16.476  1.00  0.00     0.000 C 
BRANCH   7   8
ATOM      8  C   UNL     1      -5.441   2.445  15.608  1.00  0.00    -0.000 C 
BRANCH   8   9
ATOM      9  C   UNL     1      -5.719   2.603  14.105  1.00  0.00    -0.003 C 
ATOM     10  C   UNL     1      -5.248   1.401  13.287  1.00  0.00     0.004 C 
ENDBRANCH   8   9
ENDBRANCH   7   8
ENDBRANCH   1   7
TORSDOF 6
ENDMDL
MODEL 7
REMARK VINA RESULT:    -3.495      6.626      8.211
REMARK INTER + INTRA:          -5.116
REMARK INTER:                  -4.887
REMARK INTRA:                  -0.230
REMARK UNBOUND:                -0.395
REMARK SMILES CCCCCCCC(=O)[O-]
REMARK SMILES IDX 5 1 6 2 7 3 8 4 9 5 10 6 4 7 3 8 2 9 1 10
REMARK H PARENT
REMARK Flexibility Score: inf
ROOT
ATOM      1  C   UNL     1      -0.961   1.084  15.477  1.00  0.00     0.000 C 
ENDROOT
BRANCH   1   2
ATOM      2  C   UNL     1      -2.331   1.385  14.858  1.00  0.00     0.006 C 
BRANCH   2   3
ATOM      3  C   UNL     1      -3.022   2.539  15.590  1.00  0.00     0.053 C 
BRANCH   3   4
ATOM      4  C   UNL     1      -4.494   2.524  15.322  1.00  0.00     0.041 C 
ATOM      5  O   UNL     1      -5.275   3.215  16.028  1.00  0.00    -0.550 OA
ATOM      6  O   UNL     1      -4.999   1.784  14.260  1.00  0.00    -0.550 OA
ENDBRANCH   3   4
ENDBRANCH   2   3
ENDBRANCH   1   2
BRANCH   1   7
ATOM      7  C   UNL     1      -0.841   1.697  16.877  1.00  0.00     0.000 C 
BRANCH   7   8
ATOM      8  C   UNL     1       0.179   0.927  17.729  1.00  0.00    -0.000 C 
BRANCH   8   9
ATOM      9  C   UNL     1      -0.480  -0.133  18.625  1.00  0.00    -0.003 C 
ATOM     10  C   UNL     1      -0.508   0.273  20.098  1.00  0.00     0.004 C 
ENDBRANCH   8   9
ENDBRANCH   7   8
ENDBRANCH   1   7
TORSDOF 6
ENDMDL
MODEL 8
REMARK VINA RESULT:    -3.486      8.060      9.436
REMARK INTER + INTRA:          -5.103
REMARK INTER:                  -4.488
REMARK INTRA:                  -0.615
REMARK UNBOUND:                -0.395
REMARK SMILES CCCCCCCC(=O)[O-]
REMARK SMILES IDX 5 1 6 2 7 3 8 4 9 5 10 6 4 7 3 8 2 9 1 10
REMARK H PARENT
REMARK Flexibility Score: inf
ROOT
ATOM      1  C   UNL     1      -4.594   3.362  15.806  1.00  0.00     0.000 C 
ENDROOT
BRANCH   1   2
ATOM      2  C   UNL     1      -5.932   2.764  15.358  1.00  0.00     0.006 C 
BRANCH   2   3
ATOM      3  C   UNL     1      -6.985   2.884  16.463  1.00  0.00     0.053 C 
BRANCH   3   4
ATOM      4  C   UNL     1      -7.909   4.027  16.185  1.00  0.00     0.041 C 
ATOM      5  O   UNL     1      -7.835   5.083  16.867  1.00  0.00    -0.550 OA
ATOM      6  O   UNL     1      -8.820   3.946  15.139  1.00  0.00    -0.550 OA
ENDBRANCH   3   4
ENDBRANCH   2   3
ENDBRANCH   1   2
BRANCH   1   7
ATOM      7  C   UNL     1      -4.312   4.685  15.084  1.00  0.00     0.000 C 
BRANCH   7   8
ATOM      8  C   UNL     1      -5.123   4.786  13.784  1.00  0.00    -0.000 C 
BRANCH   8   9
ATOM      9  C   UNL     1      -6.053   6.008  13.761  1.00  0.00    -0.003 C 
ATOM     10  C   UNL     1      -5.708   7.034  14.839  1.00  0.00     0.004 C 
ENDBRANCH   8   9
ENDBRANCH   7   8
ENDBRANCH   1   7
TORSDOF 6
ENDMDL
MODEL 9
REMARK VINA RESULT:    -3.436      6.117      8.973
REMARK INTER + INTRA:          -5.036
REMARK INTER:                  -4.571
REMARK INTRA:                  -0.465
REMARK UNBOUND:                -0.395
REMARK SMILES CCCCCCCC(=O)[O-]
REMARK SMILES IDX 5 1 6 2 7 3 8 4 9 5 10 6 4 7 3 8 2 9 1 10
REMARK H PARENT
REMARK Flexibility Score: inf
ROOT
ATOM      1  C   UNL     1      -6.630   2.849  16.533  1.00  0.00     0.000 C 
ENDROOT
BRANCH   1   2
ATOM      2  C   UNL     1      -5.409   2.598  15.640  1.00  0.00     0.006 C 
BRANCH   2   3
ATOM      3  C   UNL     1      -5.783   2.694  14.158  1.00  0.00     0.053 C 
BRANCH   3   4
ATOM      4  C   UNL     1      -4.939   1.766  13.343  1.00  0.00     0.041 C 
ATOM      5  O   UNL     1      -5.408   0.668  12.943  1.00  0.00    -0.550 OA
ATOM      6  O   UNL     1      -3.649   2.135  12.984  1.00  0.00    -0.550 OA
ENDBRANCH   3   4
ENDBRANCH   2   3
ENDBRANCH   1   2
BRANCH   1   7
ATOM      7  C   UNL     1      -7.595   3.845  15.879  1.00  0.00     0.000 C 
BRANCH   7   8
ATOM      8  C   UNL     1      -7.796   5.081  16.768  1.00  0.00    -0.000 C 
BRANCH   8   9
ATOM      9  C   UNL     1      -6.614   6.061  16.693  1.00  0.00    -0.003 C 
ATOM     10  C   UNL     1      -6.206   6.386  15.257  1.00  0.00     0.004 C 
ENDBRANCH   8   9
ENDBRANCH   7   8
ENDBRANCH   1   7
TORSDOF 6
ENDMDL
