MODEL 1
REMARK VINA RESULT:    -3.128      0.000      0.000
REMARK INTER + INTRA:          -4.850
REMARK INTER:                  -4.408
REMARK INTRA:                  -0.442
REMARK UNBOUND:                -0.442
REMARK SMILES CCCCCCCCC(=O)[O-]
REMARK SMILES IDX 6 1 7 2 8 3 9 4 10 5 11 6 5 7 4 8 3 9 2 10 1 11
REMARK H PARENT
REMARK Flexibility Score: inf
ROOT
ATOM      1  C   UNL     1    -111.657  44.670  -0.889  1.00  0.00     0.000 C 
ENDROOT
BRANCH   1   2
ATOM      2  C   UNL     1    -110.129  44.487  -0.908  1.00  0.00     0.006 C 
BRANCH   2   3
ATOM      3  C   UNL     1    -109.667  43.037  -0.689  1.00  0.00     0.053 C 
BRANCH   3   4
ATOM      4  C   UNL     1    -108.258  42.965  -0.186  1.00  0.00     0.041 C 
ATOM      5  O   UNL     1    -107.838  43.813   0.645  1.00  0.00    -0.550 OA
ATOM      6  O   UNL     1    -107.398  41.984  -0.661  1.00  0.00    -0.550 OA
ENDBRANCH   3   4
ENDBRANCH   2   3
ENDBRANCH   1   2
BRANCH   1   7
ATOM      7  C   UNL     1    -112.304  44.405  -2.260  1.00  0.00     0.000 C 
BRANCH   7   8
ATOM      8  C   UNL     1    -113.640  43.645  -2.153  1.00  0.00    -0.000 C 
BRANCH   8   9
ATOM      9  C   UNL     1    -113.894  42.973  -0.791  1.00  0.00    -0.000 C 
BRANCH   9  10
ATOM     10  C   UNL     1    -113.938  41.441  -0.879  1.00  0.00    -0.003 C 
ATOM     11  C   UNL     1    -114.657  40.983  -2.145  1.00  0.00     0.004 C 
ENDBRANCH   9  10
ENDBRANCH   8   9
ENDBRANCH   7   8
ENDBRANCH   1   7
TORSDOF 7
ENDMDL
MODEL 2
REMARK VINA RESULT:    -2.945     12.268     14.137
REMARK INTER + INTRA:          -4.592
REMARK INTER:                  -3.874
REMARK INTRA:                  -0.718
REMARK UNBOUND:                -0.442
REMARK SMILES CCCCCCCCC(=O)[O-]
REMARK SMILES IDX 6 1 7 2 8 3 9 4 10 5 11 6 5 7 4 8 3 9 2 10 1 11
REMARK H PARENT
REMARK Flexibility Score: inf
ROOT
ATOM      1  C   UNL     1    -116.549  33.583  -9.197  1.00  0.00     0.000 C 
ENDROOT
BRANCH   1   2
ATOM      2  C   UNL     1    -116.645  33.681 -10.730  1.00  0.00     0.006 C 
BRANCH   2   3
ATOM      3  C   UNL     1    -115.300  33.932 -11.429  1.00  0.00     0.053 C 
BRANCH   3   4
ATOM      4  C   UNL     1    -115.330  33.523 -12.870  1.00  0.00     0.041 C 
ATOM      5  O   UNL     1    -115.986  34.198 -13.707  1.00  0.00    -0.550 OA
ATOM      6  O   UNL     1    -114.661  32.377 -13.283  1.00  0.00    -0.550 OA
ENDBRANCH   3   4
ENDBRANCH   2   3
ENDBRANCH   1   2
BRANCH   1   7
ATOM      7  C   UNL     1    -115.127  33.848  -8.672  1.00  0.00     0.000 C 
BRANCH   7   8
ATOM      8  C   UNL     1    -115.090  34.912  -7.560  1.00  0.00    -0.000 C 
BRANCH   8   9
ATOM      9  C   UNL     1    -116.004  36.129  -7.797  1.00  0.00    -0.000 C 
BRANCH   9  10
ATOM     10  C   UNL     1    -115.365  37.189  -8.706  1.00  0.00    -0.003 C 
ATOM     11  C   UNL     1    -116.122  37.311 -10.026  1.00  0.00     0.004 C 
ENDBRANCH   9  10
ENDBRANCH   8   9
ENDBRANCH   7   8
ENDBRANCH   1   7
TORSDOF 7
ENDMDL
MODEL 3
REMARK VINA RESULT:    -2.921     12.520     14.067
REMARK INTER + INTRA:          -4.558
REMARK INTER:                  -4.128
REMARK INTRA:                  -0.430
REMARK UNBOUND:                -0.442
REMARK SMILES CCCCCCCCC(=O)[O-]
REMARK SMILES IDX 6 1 7 2 8 3 9 4 10 5 11 6 5 7 4 8 3 9 2 10 1 11
REMARK H PARENT
REMARK Flexibility Score: inf
ROOT
ATOM      1  C   UNL     1    -107.981  30.902   2.108  1.00  0.00     0.000 C 
ENDROOT
BRANCH   1   2
ATOM      2  C   UNL     1    -107.181  29.586   2.117  1.00  0.00     0.006 C 
BRANCH   2   3
ATOM      3  C   UNL     1    -106.795  29.095   3.522  1.00  0.00     0.053 C 
BRANCH   3   4
ATOM      4  C   UNL     1    -105.317  28.895   3.662  1.00  0.00     0.041 C 
ATOM      5  O   UNL     1    -104.866  27.814   4.124  1.00  0.00    -0.550 OA
ATOM      6  O   UNL     1    -104.441  29.915   3.315  1.00  0.00    -0.550 OA
ENDBRANCH   3   4
ENDBRANCH   2   3
ENDBRANCH   1   2
BRANCH   1   7
ATOM      7  C   UNL     1    -108.389  31.359   3.519  1.00  0.00     0.000 C 
BRANCH   7   8
ATOM      8  C   UNL     1    -107.414  32.389   4.119  1.00  0.00    -0.000 C 
BRANCH   8   9
ATOM      9  C   UNL     1    -106.358  32.929   3.137  1.00  0.00    -0.000 C 
BRANCH   9  10
ATOM     10  C   UNL     1    -106.604  34.391   2.738  1.00  0.00    -0.003 C 
ATOM     11  C   UNL     1    -107.396  35.129   3.814  1.00  0.00     0.004 C 
ENDBRANCH   9  10
ENDBRANCH   8   9
ENDBRANCH   7   8
ENDBRANCH   1   7
TORSDOF 7
ENDMDL
MODEL 4
REMARK VINA RESULT:    -2.918     12.595     14.545
REMARK INTER + INTRA:          -4.553
REMARK INTER:                  -4.149
REMARK INTRA:                  -0.404
REMARK UNBOUND:                -0.442
REMARK SMILES CCCCCCCCC(=O)[O-]
REMARK SMILES IDX 6 1 7 2 8 3 9 4 10 5 11 6 5 7 4 8 3 9 2 10 1 11
REMARK H PARENT
REMARK Flexibility Score: inf
ROOT
ATOM      1  C   UNL     1    -105.350  29.742   2.984  1.00  0.00     0.000 C 
ENDROOT
BRANCH   1   2
ATOM      2  C   UNL     1    -106.221  28.656   3.641  1.00  0.00     0.006 C 
BRANCH   2   3
ATOM      3  C   UNL     1    -107.619  29.138   4.059  1.00  0.00     0.053 C 
BRANCH   3   4
ATOM      4  C   UNL     1    -108.227  30.053   3.041  1.00  0.00     0.041 C 
ATOM      5  O   UNL     1    -108.566  31.222   3.363  1.00  0.00    -0.550 OA
ATOM      6  O   UNL     1    -108.450  29.603   1.747  1.00  0.00    -0.550 OA
ENDBRANCH   3   4
ENDBRANCH   2   3
ENDBRANCH   1   2
BRANCH   1   7
ATOM      7  C   UNL     1    -104.640  30.638   4.014  1.00  0.00     0.000 C 
BRANCH   7   8
ATOM      8  C   UNL     1    -105.251  32.049   4.100  1.00  0.00    -0.000 C 
BRANCH   8   9
ATOM      9  C   UNL     1    -104.243  33.202   3.935  1.00  0.00    -0.000 C 
BRANCH   9  10
ATOM     10  C   UNL     1    -104.549  34.098   2.727  1.00  0.00    -0.003 C 
ATOM     11  C   UNL     1    -106.050  34.164   2.458  1.00  0.00     0.004 C 
ENDBRANCH   9  10
ENDBRANCH   8   9
ENDBRANCH   7   8
ENDBRANCH   1   7
TORSDOF 7
ENDMDL
MODEL 5
REMARK VINA RESULT:    -2.887     10.576     12.776
REMARK INTER + INTRA:          -4.510
REMARK INTER:                  -3.849
REMARK INTRA:                  -0.660
REMARK UNBOUND:                -0.442
REMARK SMILES CCCCCCCCC(=O)[O-]
REMARK SMILES IDX 6 1 7 2 8 3 9 4 10 5 11 6 5 7 4 8 3 9 2 10 1 11
REMARK H PARENT
REMARK Flexibility Score: inf
ROOT
ATOM      1  C   UNL     1    -115.063  34.917  -7.561  1.00  0.00     0.000 C 
ENDROOT
BRANCH   1   2
ATOM      2  C   UNL     1    -116.415  35.631  -7.382  1.00  0.00     0.006 C 
BRANCH   2   3
ATOM      3  C   UNL     1    -116.365  37.145  -7.640  1.00  0.00     0.053 C 
BRANCH   3   4
ATOM      4  C   UNL     1    -115.644  37.476  -8.911  1.00  0.00     0.041 C 
ATOM      5  O   UNL     1    -114.586  38.158  -8.880  1.00  0.00    -0.550 OA
ATOM      6  O   UNL     1    -116.160  37.062 -10.132  1.00  0.00    -0.550 OA
ENDBRANCH   3   4
ENDBRANCH   2   3
ENDBRANCH   1   2
BRANCH   1   7
ATOM      7  C   UNL     1    -115.094  33.859  -8.679  1.00  0.00     0.000 C 
BRANCH   7   8
ATOM      8  C   UNL     1    -116.516  33.583  -9.201  1.00  0.00    -0.000 C 
BRANCH   8   9
ATOM      9  C   UNL     1    -116.653  33.588 -10.735  1.00  0.00    -0.000 C 
BRANCH   9  10
ATOM     10  C   UNL     1    -115.329  33.882 -11.454  1.00  0.00    -0.003 C 
ATOM     11  C   UNL     1    -115.558  34.714 -12.713  1.00  0.00     0.004 C 
ENDBRANCH   9  10
ENDBRANCH   8   9
ENDBRANCH   7   8
ENDBRANCH   1   7
TORSDOF 7
ENDMDL
MODEL 6
REMARK VINA RESULT:    -2.882     11.277     13.260
REMARK INTER + INTRA:          -4.503
REMARK INTER:                  -3.935
REMARK INTRA:                  -0.568
REMARK UNBOUND:                -0.442
REMARK SMILES CCCCCCCCC(=O)[O-]
REMARK SMILES IDX 6 1 7 2 8 3 9 4 10 5 11 6 5 7 4 8 3 9 2 10 1 11
REMARK H PARENT
REMARK Flexibility Score: inf
ROOT
ATOM      1  C   UNL     1    -115.097  33.804  -8.682  1.00  0.00     0.000 C 
ENDROOT
BRANCH   1   2
ATOM      2  C   UNL     1    -116.524  33.678  -9.247  1.00  0.00     0.006 C 
BRANCH   2   3
ATOM      3  C   UNL     1    -116.582  33.198 -10.706  1.00  0.00     0.053 C 
BRANCH   3   4
ATOM      4  C   UNL     1    -115.587  33.908 -11.572  1.00  0.00     0.041 C 
ATOM      5  O   UNL     1    -115.683  35.149 -11.761  1.00  0.00    -0.550 OA
ATOM      6  O   UNL     1    -114.574  33.193 -12.198  1.00  0.00    -0.550 OA
ENDBRANCH   3   4
ENDBRANCH   2   3
ENDBRANCH   1   2
BRANCH   1   7
ATOM      7  C   UNL     1    -114.982  34.884  -7.592  1.00  0.00     0.000 C 
BRANCH   7   8
ATOM      8  C   UNL     1    -116.335  35.536  -7.253  1.00  0.00    -0.000 C 
BRANCH   8   9
ATOM      9  C   UNL     1    -116.426  37.040  -7.572  1.00  0.00    -0.000 C 
BRANCH   9  10
ATOM     10  C   UNL     1    -115.970  37.378  -8.998  1.00  0.00    -0.003 C 
ATOM     11  C   UNL     1    -114.760  38.308  -8.983  1.00  0.00     0.004 C 
ENDBRANCH   9  10
ENDBRANCH   8   9
ENDBRANCH   7   8
ENDBRANCH   1   7
TORSDOF 7
ENDMDL
MODEL 7
REMARK VINA RESULT:    -2.828      3.117      5.270
REMARK INTER + INTRA:          -4.427
REMARK INTER:                  -4.124
REMARK INTRA:                  -0.303
REMARK UNBOUND:                -0.442
REMARK SMILES CCCCCCCCC(=O)[O-]
REMARK SMILES IDX 6 1 7 2 8 3 9 4 10 5 11 6 5 7 4 8 3 9 2 10 1 11
REMARK H PARENT
REMARK Flexibility Score: inf
ROOT
ATOM      1  C   UNL     1    -112.806  45.016  -1.202  1.00  0.00     0.000 C 
ENDROOT
BRANCH   1   2
ATOM      2  C   UNL     1    -113.853  43.939  -0.860  1.00  0.00     0.006 C 
BRANCH   2   3
ATOM      3  C   UNL     1    -114.086  42.912  -1.980  1.00  0.00     0.053 C 
BRANCH   3   4
ATOM      4  C   UNL     1    -114.240  41.521  -1.444  1.00  0.00     0.041 C 
ATOM      5  O   UNL     1    -114.837  40.644  -2.123  1.00  0.00    -0.550 OA
ATOM      6  O   UNL     1    -113.756  41.203  -0.183  1.00  0.00    -0.550 OA
ENDBRANCH   3   4
ENDBRANCH   2   3
ENDBRANCH   1   2
BRANCH   1   7
ATOM      7  C   UNL     1    -111.540  44.429  -1.851  1.00  0.00     0.000 C 
BRANCH   7   8
ATOM      8  C   UNL     1    -110.351  44.350  -0.876  1.00  0.00    -0.000 C 
BRANCH   8   9
ATOM      9  C   UNL     1    -109.741  42.945  -0.714  1.00  0.00    -0.000 C 
BRANCH   9  10
ATOM     10  C   UNL     1    -108.402  42.957   0.037  1.00  0.00    -0.003 C 
ATOM     11  C   UNL     1    -107.372  42.073  -0.659  1.00  0.00     0.004 C 
ENDBRANCH   9  10
ENDBRANCH   8   9
ENDBRANCH   7   8
ENDBRANCH   1   7
TORSDOF 7
ENDMDL
MODEL 8
REMARK VINA RESULT:    -2.819     10.686     12.363
REMARK INTER + INTRA:          -4.414
REMARK INTER:                  -3.755
REMARK INTRA:                  -0.659
REMARK UNBOUND:                -0.442
REMARK SMILES CCCCCCCCC(=O)[O-]
REMARK SMILES IDX 6 1 7 2 8 3 9 4 10 5 11 6 5 7 4 8 3 9 2 10 1 11
REMARK H PARENT
REMARK Flexibility Score: inf
ROOT
ATOM      1  C   UNL     1    -116.440  35.539 -11.573  1.00  0.00     0.000 C 
ENDROOT
BRANCH   1   2
ATOM      2  C   UNL     1    -115.645  36.850 -11.439  1.00  0.00     0.006 C 
BRANCH   2   3
ATOM      3  C   UNL     1    -115.973  37.658 -10.173  1.00  0.00     0.053 C 
BRANCH   3   4
ATOM      4  C   UNL     1    -114.858  38.581  -9.789  1.00  0.00     0.041 C 
ATOM      5  O   UNL     1    -114.697  38.913  -8.585  1.00  0.00    -0.550 OA
ATOM      6  O   UNL     1    -114.018  39.102 -10.764  1.00  0.00    -0.550 OA
ENDBRANCH   3   4
ENDBRANCH   2   3
ENDBRANCH   1   2
BRANCH   1   7
ATOM      7  C   UNL     1    -115.680  34.322 -11.018  1.00  0.00     0.000 C 
BRANCH   7   8
ATOM      8  C   UNL     1    -116.129  33.935  -9.597  1.00  0.00    -0.000 C 
BRANCH   8   9
ATOM      9  C   UNL     1    -114.995  33.864  -8.557  1.00  0.00    -0.000 C 
BRANCH   9  10
ATOM     10  C   UNL     1    -115.042  35.012  -7.540  1.00  0.00    -0.003 C 
ATOM     11  C   UNL     1    -116.479  35.450  -7.271  1.00  0.00     0.004 C 
ENDBRANCH   9  10
ENDBRANCH   8   9
ENDBRANCH   7   8
ENDBRANCH   1   7
TORSDOF 7
ENDMDL
