MODEL 1
REMARK VINA RESULT:    41.325      0.000      0.000
REMARK INTER + INTRA:          46.891
REMARK INTER:                  46.157
REMARK INTRA:                   0.734
REMARK UNBOUND:                 0.734
REMARK SMILES CC1(C)CC[C@]2(C(=O)[O-])[C@H](C1)C1=CC[C@H]3[C@@]4(C)CC[C@@H](O)C(C)(C)[C@@H]4CC[C@]3(C)[C@]1(C)C[C@@H]2O
REMARK SMILES IDX 6 1 5 2 10 3 33 4 4 5 11 6 12 7 32 8 2 9 13 10 30 11 1 12
REMARK SMILES IDX 3 13 14 14 28 15 31 16 15 17 27 18 29 19 16 20 26 21 18 22
REMARK SMILES IDX 17 23 25 24 19 25 22 26 20 27 23 28 24 29 7 30 8 31 9 32
REMARK SMILES IDX 34 33 21 35
REMARK H PARENT 34 34 21 36
REMARK Flexibility Score: inf
ROOT
ATOM      1  C   UNL     1      51.978 -59.723 318.527  1.00  0.00     0.042 C 
ATOM      2  C   UNL     1      50.833 -60.755 318.367  1.00  0.00     0.017 C 
ATOM      3  C   UNL     1      51.627 -58.864 319.782  1.00  0.00     0.030 C 
ATOM      4  C   UNL     1      52.166 -58.848 317.220  1.00  0.00     0.127 C 
ATOM      5  C   UNL     1      50.808 -61.779 319.518  1.00  0.00     0.007 C 
ATOM      6  C   UNL     1      51.428 -59.730 321.072  1.00  0.00     0.015 C 
ATOM      7  C   UNL     1      50.529 -57.830 319.448  1.00  0.00    -0.063 C 
ATOM      8  C   UNL     1      51.111 -57.727 317.031  1.00  0.00     0.044 C 
ATOM      9  C   UNL     1      50.775 -61.169 320.956  1.00  0.00    -0.035 C 
ATOM     10  C   UNL     1      49.246 -57.968 319.954  1.00  0.00    -0.027 C 
ATOM     11  C   UNL     1      50.898 -56.833 318.295  1.00  0.00    -0.003 C 
ATOM     12  C   UNL     1      51.564 -62.125 321.896  1.00  0.00     0.011 C 
ATOM     13  C   UNL     1      49.312 -61.193 321.471  1.00  0.00     0.011 C 
ATOM     14  C   UNL     1      47.960 -57.271 319.495  1.00  0.00     0.032 C 
ATOM     15  C   UNL     1      49.742 -55.762 318.133  1.00  0.00    -0.020 C 
ATOM     16  C   UNL     1      52.236 -56.047 318.550  1.00  0.00     0.017 C 
ATOM     17  C   UNL     1      48.153 -56.712 318.094  1.00  0.00     0.006 C 
ATOM     18  C   UNL     1      49.921 -54.534 316.819  1.00  0.00     0.008 C 
ATOM     19  C   UNL     1      49.735 -54.885 319.459  1.00  0.00     0.012 C 
ATOM     20  C   UNL     1      46.698 -55.925 317.174  1.00  0.00    -0.025 C 
ATOM     21  C   UNL     1      48.589 -53.662 315.955  1.00  0.00     0.005 C 
ATOM     22  C   UNL     1      47.653 -55.536 317.027  1.00  0.00     0.010 C 
ATOM     23  C   UNL     1      45.616 -55.535 318.238  1.00  0.00     0.012 C 
ATOM     24  C   UNL     1      46.870 -54.462 315.952  1.00  0.00     0.003 C 
ATOM     25  C   UNL     1      48.256 -56.447 315.570  1.00  0.00     0.033 C 
ATOM     26  C   UNL     1      46.551 -54.970 314.522  1.00  0.00    -0.006 C 
ATOM     27  C   UNL     1      47.738 -55.897 314.215  1.00  0.00     0.120 C 
ATOM     28  C   UNL     1      45.200 -55.718 314.525  1.00  0.00     0.014 C 
ATOM     29  C   UNL     1      46.467 -53.817 313.488  1.00  0.00     0.014 C 
ENDROOT
BRANCH   1  30
ATOM     30  C   UNL     1      53.320 -60.429 318.736  1.00  0.00     0.051 C 
ATOM     31  O   UNL     1      54.396 -59.870 318.393  1.00  0.00    -0.549 OA
ATOM     32  O   UNL     1      53.370 -61.754 319.161  1.00  0.00    -0.549 OA
ENDBRANCH   1  30
BRANCH   4  33
ATOM     33  O   UNL     1      52.152 -59.653 316.064  1.00  0.00    -0.392 OA
ATOM     34  H   UNL     1      51.671 -60.489 316.278  1.00  0.00     0.210 HD
ENDBRANCH   4  33
BRANCH  27  35
ATOM     35  O   UNL     1      47.370 -56.940 313.348  1.00  0.00    -0.393 OA
ATOM     36  H   UNL     1      47.609 -57.796 313.796  1.00  0.00     0.210 HD
ENDBRANCH  27  35
TORSDOF 3
ENDMDL
