MODEL 1
REMARK VINA RESULT:    -3.177      0.000      0.000
REMARK INTER + INTRA:          -3.854
REMARK INTER:                  -4.477
REMARK INTRA:                   0.623
REMARK UNBOUND:                 0.623
REMARK SMILES CC1=CCC(=C(C)C)C(=O)CC(C)=CCC1
REMARK SMILES IDX 12 1 14 2 13 3 15 4 16 5 2 6 1 7 3 8 11 10 9 11 10 12 5 13
REMARK SMILES IDX 6 14 7 15 8 16 4 17
REMARK H PARENT
REMARK Flexibility Score: 60.00
ROOT
ATOM      1  C   UNL     1       6.218  -0.730  -6.307  1.00  0.00    -0.070 C 
ATOM      2  C   UNL     1       5.877  -1.727  -7.157  1.00  0.00    -0.027 C 
ATOM      3  C   UNL     1       7.171  -1.066  -5.186  1.00  0.00     0.039 C 
ENDROOT
BRANCH   2   4
ATOM      4  C   UNL     1       4.867  -1.643  -8.275  1.00  0.00     0.032 C 
BRANCH   4   5
ATOM      5  C   UNL     1       5.499  -1.856  -9.663  1.00  0.00     0.034 C 
BRANCH   5   6
ATOM      6  C   UNL     1       6.788  -1.074  -9.831  1.00  0.00    -0.077 C 
ATOM      7  C   UNL     1       8.072  -1.842 -10.019  1.00  0.00     0.039 C 
ATOM      8  C   UNL     1       6.849   0.276  -9.847  1.00  0.00    -0.023 CG0
ATOM      9  G   UNL     1       5.674   1.215  -9.711  1.00  0.00     0.000 G0
ENDBRANCH   5   6
ENDBRANCH   4   5
ENDBRANCH   2   4
BRANCH   1  10
ATOM     10  C   UNL     1       5.646   0.676  -6.382  1.00  0.00     0.111 C 
BRANCH  10  11
ATOM     11  C   UNL     1       6.459   1.558  -7.296  1.00  0.00     0.163 C 
ATOM     12  O   UNL     1       7.673   1.749  -7.011  1.00  0.00    -0.294 OA
BRANCH  11  13
ATOM     13  C   UNL     1       5.880   2.159  -8.539  1.00  0.00    -0.002 C 
ATOM     14  C   UNL     1       5.495   3.470  -8.592  1.00  0.00    -0.069 C 
ATOM     15  C   UNL     1       5.563   4.365  -7.376  1.00  0.00     0.039 C 
ATOM     16  C   UNL     1       4.947   4.079  -9.864  1.00  0.00     0.039 C 
BRANCH  13  17
ATOM     17  C   UNL     1       5.670   1.229  -9.720  1.00  0.00     0.066 CG0
ATOM     18  G   UNL     1       6.843   0.287  -9.845  1.00  0.00     0.000 G0
ENDBRANCH  13  17
ENDBRANCH  11  13
ENDBRANCH  10  11
ENDBRANCH   1  10
TORSDOF 0
ENDMDL
MODEL 2
REMARK VINA RESULT:    -3.010      2.466      4.934
REMARK INTER + INTRA:          -3.619
REMARK INTER:                  -3.989
REMARK INTRA:                   0.370
REMARK UNBOUND:                 0.623
REMARK SMILES CC1=CCC(=C(C)C)C(=O)CC(C)=CCC1
REMARK SMILES IDX 12 1 14 2 13 3 15 4 16 5 2 6 1 7 3 8 11 10 9 11 10 12 5 13
REMARK SMILES IDX 6 14 7 15 8 16 4 17
REMARK H PARENT
REMARK Flexibility Score: 60.00
ROOT
ATOM      1  C   UNL     1       5.134   3.348  -6.632  1.00  0.00    -0.070 C 
ATOM      2  C   UNL     1       5.760   4.547  -6.573  1.00  0.00    -0.027 C 
ATOM      3  C   UNL     1       4.052   3.076  -5.616  1.00  0.00     0.039 C 
ENDROOT
BRANCH   2   4
ATOM      4  C   UNL     1       6.933   4.986  -7.415  1.00  0.00     0.032 C 
BRANCH   4   5
ATOM      5  C   UNL     1       8.272   4.420  -6.908  1.00  0.00     0.034 C 
BRANCH   5   6
ATOM      6  C   UNL     1       9.067   3.753  -8.014  1.00  0.00    -0.077 C 
ATOM      7  C   UNL     1       9.633   4.620  -9.111  1.00  0.00     0.039 C 
ATOM      8  C   UNL     1       9.320   2.426  -8.061  1.00  0.00    -0.023 CG0
ATOM      9  G   UNL     1       8.872   1.405  -7.044  1.00  0.00     0.000 G0
ENDBRANCH   5   6
ENDBRANCH   4   5
ENDBRANCH   2   4
BRANCH   1  10
ATOM     10  C   UNL     1       5.507   2.248  -7.613  1.00  0.00     0.111 C 
BRANCH  10  11
ATOM     11  C   UNL     1       6.320   1.165  -6.949  1.00  0.00     0.163 C 
ATOM     12  O   UNL     1       5.855   0.629  -5.906  1.00  0.00    -0.294 OA
BRANCH  11  13
ATOM     13  C   UNL     1       7.620   0.687  -7.519  1.00  0.00    -0.002 C 
ATOM     14  C   UNL     1       7.681  -0.379  -8.372  1.00  0.00    -0.069 C 
ATOM     15  C   UNL     1       6.450  -1.180  -8.730  1.00  0.00     0.039 C 
ATOM     16  C   UNL     1       8.994  -0.831  -8.974  1.00  0.00     0.039 C 
BRANCH  13  17
ATOM     17  C   UNL     1       8.879   1.392  -7.048  1.00  0.00     0.066 CG0
ATOM     18  G   UNL     1       9.306   2.415  -8.074  1.00  0.00     0.000 G0
ENDBRANCH  13  17
ENDBRANCH  11  13
ENDBRANCH  10  11
ENDBRANCH   1  10
TORSDOF 0
ENDMDL
MODEL 3
REMARK VINA RESULT:    -2.953      2.457      3.626
REMARK INTER + INTRA:          -3.538
REMARK INTER:                  -4.195
REMARK INTRA:                   0.657
REMARK UNBOUND:                 0.623
REMARK SMILES CC1=CCC(=C(C)C)C(=O)CC(C)=CCC1
REMARK SMILES IDX 12 1 14 2 13 3 15 4 16 5 2 6 1 7 3 8 11 10 9 11 10 12 5 13
REMARK SMILES IDX 6 14 7 15 8 16 4 17
REMARK H PARENT
REMARK Flexibility Score: 60.00
ROOT
ATOM      1  C   UNL     1       5.084   2.282  -6.538  1.00  0.00    -0.070 C 
ATOM      2  C   UNL     1       5.604   1.131  -6.048  1.00  0.00    -0.027 C 
ATOM      3  C   UNL     1       4.464   3.241  -5.551  1.00  0.00     0.039 C 
ENDROOT
BRANCH   2   4
ATOM      4  C   UNL     1       6.173  -0.009  -6.858  1.00  0.00     0.032 C 
BRANCH   4   5
ATOM      5  C   UNL     1       7.269   0.450  -7.838  1.00  0.00     0.034 C 
BRANCH   5   6
ATOM      6  C   UNL     1       8.434   1.110  -7.126  1.00  0.00    -0.077 C 
ATOM      7  C   UNL     1       9.173   0.319  -6.077  1.00  0.00     0.039 C 
ATOM      8  C   UNL     1       8.865   2.363  -7.396  1.00  0.00    -0.023 CG0
ATOM      9  G   UNL     1       8.280   3.295  -8.430  1.00  0.00     0.000 G0
ENDBRANCH   5   6
ENDBRANCH   4   5
ENDBRANCH   2   4
BRANCH   1  10
ATOM     10  C   UNL     1       5.033   2.623  -8.018  1.00  0.00     0.111 C 
BRANCH  10  11
ATOM     11  C   UNL     1       5.786   3.895  -8.320  1.00  0.00     0.163 C 
ATOM     12  O   UNL     1       5.197   4.790  -8.985  1.00  0.00    -0.294 OA
BRANCH  11  13
ATOM     13  C   UNL     1       7.174   4.134  -7.812  1.00  0.00    -0.002 C 
ATOM     14  C   UNL     1       7.445   5.105  -6.889  1.00  0.00    -0.069 C 
ATOM     15  C   UNL     1       6.369   6.041  -6.386  1.00  0.00     0.039 C 
ATOM     16  C   UNL     1       8.844   5.314  -6.351  1.00  0.00     0.039 C 
BRANCH  13  17
ATOM     17  C   UNL     1       8.285   3.297  -8.421  1.00  0.00     0.066 CG0
ATOM     18  G   UNL     1       8.848   2.359  -7.382  1.00  0.00     0.000 G0
ENDBRANCH  13  17
ENDBRANCH  11  13
ENDBRANCH  10  11
ENDBRANCH   1  10
TORSDOF 0
ENDMDL
MODEL 4
REMARK VINA RESULT:    -2.943      2.486      5.210
REMARK INTER + INTRA:          -3.524
REMARK INTER:                  -4.328
REMARK INTRA:                   0.803
REMARK UNBOUND:                 0.623
REMARK SMILES CC1=CCC(=C(C)C)C(=O)CC(C)=CCC1
REMARK SMILES IDX 12 1 14 2 13 3 15 4 16 5 2 6 1 7 3 8 11 10 9 11 10 12 5 13
REMARK SMILES IDX 6 14 7 15 8 16 4 17
REMARK H PARENT
REMARK Flexibility Score: 60.00
ROOT
ATOM      1  C   UNL     1       5.158   3.647  -6.611  1.00  0.00    -0.070 C 
ATOM      2  C   UNL     1       5.617   4.852  -6.198  1.00  0.00    -0.027 C 
ATOM      3  C   UNL     1       4.552   2.738  -5.569  1.00  0.00     0.039 C 
ENDROOT
BRANCH   2   4
ATOM      4  C   UNL     1       6.350   5.867  -7.041  1.00  0.00     0.032 C 
BRANCH   4   5
ATOM      5  C   UNL     1       7.488   5.240  -7.868  1.00  0.00     0.034 C 
BRANCH   5   6
ATOM      6  C   UNL     1       8.544   4.595  -6.992  1.00  0.00    -0.077 C 
ATOM      7  C   UNL     1       9.167   5.422  -5.896  1.00  0.00     0.039 C 
ATOM      8  C   UNL     1       8.943   3.310  -7.121  1.00  0.00    -0.023 CG0
ATOM      9  G   UNL     1       8.415   2.318  -8.129  1.00  0.00     0.000 G0
ENDBRANCH   5   6
ENDBRANCH   4   5
ENDBRANCH   2   4
BRANCH   1  10
ATOM     10  C   UNL     1       5.282   3.140  -8.039  1.00  0.00     0.111 C 
BRANCH  10  11
ATOM     11  C   UNL     1       5.901   1.765  -8.087  1.00  0.00     0.163 C 
ATOM     12  O   UNL     1       5.247   0.839  -8.641  1.00  0.00    -0.294 OA
BRANCH  11  13
ATOM     13  C   UNL     1       7.270   1.492  -7.546  1.00  0.00    -0.002 C 
ATOM     14  C   UNL     1       7.476   0.609  -6.523  1.00  0.00    -0.069 C 
ATOM     15  C   UNL     1       6.325  -0.086  -5.832  1.00  0.00     0.039 C 
ATOM     16  C   UNL     1       8.867   0.310  -6.008  1.00  0.00     0.039 C 
BRANCH  13  17
ATOM     17  C   UNL     1       8.416   2.296  -8.134  1.00  0.00     0.066 CG0
ATOM     18  G   UNL     1       8.912   3.297  -7.118  1.00  0.00     0.000 G0
ENDBRANCH  13  17
ENDBRANCH  11  13
ENDBRANCH  10  11
ENDBRANCH   1  10
TORSDOF 0
ENDMDL
MODEL 5
REMARK VINA RESULT:    -2.916      2.190      3.098
REMARK INTER + INTRA:          -3.486
REMARK INTER:                  -3.837
REMARK INTRA:                   0.351
REMARK UNBOUND:                 0.623
REMARK SMILES CC1=CCC(=C(C)C)C(=O)CC(C)=CCC1
REMARK SMILES IDX 12 1 14 2 13 3 15 4 16 5 2 6 1 7 3 8 11 10 9 11 10 12 5 13
REMARK SMILES IDX 6 14 7 15 8 16 4 17
REMARK H PARENT
REMARK Flexibility Score: 60.00
ROOT
ATOM      1  C   UNL     1       5.866  -1.053  -7.190  1.00  0.00    -0.070 C 
ATOM      2  C   UNL     1       7.070  -1.535  -6.801  1.00  0.00    -0.027 C 
ATOM      3  C   UNL     1       4.891  -2.028  -7.803  1.00  0.00     0.039 C 
ENDROOT
BRANCH   2   4
ATOM      4  C   UNL     1       8.227  -0.725  -6.266  1.00  0.00     0.032 C 
BRANCH   4   5
ATOM      5  C   UNL     1       8.977   0.040  -7.372  1.00  0.00     0.034 C 
BRANCH   5   6
ATOM      6  C   UNL     1       9.229   1.487  -6.997  1.00  0.00    -0.077 C 
ATOM      7  C   UNL     1      10.125   1.775  -5.819  1.00  0.00     0.039 C 
ATOM      8  C   UNL     1       8.715   2.538  -7.674  1.00  0.00    -0.023 CG0
ATOM      9  G   UNL     1       7.829   2.455  -8.894  1.00  0.00     0.000 G0
ENDBRANCH   5   6
ENDBRANCH   4   5
ENDBRANCH   2   4
BRANCH   1  10
ATOM     10  C   UNL     1       5.476   0.414  -7.107  1.00  0.00     0.111 C 
BRANCH  10  11
ATOM     11  C   UNL     1       5.693   1.121  -8.421  1.00  0.00     0.163 C 
ATOM     12  O   UNL     1       5.251   0.575  -9.469  1.00  0.00    -0.294 OA
BRANCH  11  13
ATOM     13  C   UNL     1       6.365   2.457  -8.502  1.00  0.00    -0.002 C 
ATOM     14  C   UNL     1       5.682   3.619  -8.277  1.00  0.00    -0.069 C 
ATOM     15  C   UNL     1       4.194   3.625  -8.008  1.00  0.00     0.039 C 
ATOM     16  C   UNL     1       6.377   4.963  -8.322  1.00  0.00     0.039 C 
BRANCH  13  17
ATOM     17  C   UNL     1       7.825   2.470  -8.917  1.00  0.00     0.066 CG0
ATOM     18  G   UNL     1       8.704   2.530  -7.691  1.00  0.00     0.000 G0
ENDBRANCH  13  17
ENDBRANCH  11  13
ENDBRANCH  10  11
ENDBRANCH   1  10
TORSDOF 0
ENDMDL
MODEL 6
REMARK VINA RESULT:    -2.734      1.321      4.035
REMARK INTER + INTRA:          -3.230
REMARK INTER:                  -4.071
REMARK INTRA:                   0.840
REMARK UNBOUND:                 0.623
REMARK SMILES CC1=CCC(=C(C)C)C(=O)CC(C)=CCC1
REMARK SMILES IDX 12 1 14 2 13 3 15 4 16 5 2 6 1 7 3 8 11 10 9 11 10 12 5 13
REMARK SMILES IDX 6 14 7 15 8 16 4 17
REMARK H PARENT
REMARK Flexibility Score: 60.00
ROOT
ATOM      1  C   UNL     1       6.336   0.794  -6.274  1.00  0.00    -0.070 C 
ATOM      2  C   UNL     1       5.285   1.517  -5.819  1.00  0.00    -0.027 C 
ATOM      3  C   UNL     1       6.405  -0.660  -5.876  1.00  0.00     0.039 C 
ENDROOT
BRANCH   2   4
ATOM      4  C   UNL     1       5.073   3.000  -6.004  1.00  0.00     0.032 C 
BRANCH   4   5
ATOM      5  C   UNL     1       4.153   3.323  -7.196  1.00  0.00     0.034 C 
BRANCH   5   6
ATOM      6  C   UNL     1       4.937   3.690  -8.441  1.00  0.00    -0.077 C 
ATOM      7  C   UNL     1       5.443   5.105  -8.577  1.00  0.00     0.039 C 
ATOM      8  C   UNL     1       5.231   2.815  -9.428  1.00  0.00    -0.023 CG0
ATOM      9  G   UNL     1       4.845   1.356  -9.458  1.00  0.00     0.000 G0
ENDBRANCH   5   6
ENDBRANCH   4   5
ENDBRANCH   2   4
BRANCH   1  10
ATOM     10  C   UNL     1       7.472   1.380  -7.097  1.00  0.00     0.111 C 
BRANCH  10  11
ATOM     11  C   UNL     1       7.251   1.170  -8.574  1.00  0.00     0.163 C 
ATOM     12  O   UNL     1       8.150   1.557  -9.369  1.00  0.00    -0.294 OA
BRANCH  11  13
ATOM     13  C   UNL     1       6.033   0.479  -9.103  1.00  0.00    -0.002 C 
ATOM     14  C   UNL     1       6.007  -0.872  -9.311  1.00  0.00    -0.069 C 
ATOM     15  C   UNL     1       7.230  -1.732  -9.089  1.00  0.00     0.039 C 
ATOM     16  C   UNL     1       4.759  -1.568  -9.810  1.00  0.00     0.039 C 
BRANCH  13  17
ATOM     17  C   UNL     1       4.848   1.355  -9.470  1.00  0.00     0.066 CG0
ATOM     18  G   UNL     1       5.250   2.809  -9.414  1.00  0.00     0.000 G0
ENDBRANCH  13  17
ENDBRANCH  11  13
ENDBRANCH  10  11
ENDBRANCH   1  10
TORSDOF 0
ENDMDL
MODEL 7
REMARK VINA RESULT:    -2.644      1.888      3.885
REMARK INTER + INTRA:          -3.104
REMARK INTER:                  -3.885
REMARK INTRA:                   0.782
REMARK UNBOUND:                 0.623
REMARK SMILES CC1=CCC(=C(C)C)C(=O)CC(C)=CCC1
REMARK SMILES IDX 12 1 14 2 13 3 15 4 16 5 2 6 1 7 3 8 11 10 9 11 10 12 5 13
REMARK SMILES IDX 6 14 7 15 8 16 4 17
REMARK H PARENT
REMARK Flexibility Score: 60.00
ROOT
ATOM      1  C   UNL     1       5.308  -1.296  -8.769  1.00  0.00    -0.070 C 
ATOM      2  C   UNL     1       4.731  -0.427  -9.633  1.00  0.00    -0.027 C 
ATOM      3  C   UNL     1       4.502  -2.500  -8.349  1.00  0.00     0.039 C 
ENDROOT
BRANCH   2   4
ATOM      4  C   UNL     1       5.309   0.886 -10.101  1.00  0.00     0.032 C 
BRANCH   4   5
ATOM      5  C   UNL     1       4.638   2.101  -9.432  1.00  0.00     0.034 C 
BRANCH   5   6
ATOM      6  C   UNL     1       5.636   3.192  -9.094  1.00  0.00    -0.077 C 
ATOM      7  C   UNL     1       5.882   4.277 -10.112  1.00  0.00     0.039 C 
ATOM      8  C   UNL     1       6.302   3.262  -7.920  1.00  0.00    -0.023 CG0
ATOM      9  G   UNL     1       6.167   2.294  -6.769  1.00  0.00     0.000 G0
ENDBRANCH   5   6
ENDBRANCH   4   5
ENDBRANCH   2   4
BRANCH   1  10
ATOM     10  C   UNL     1       6.683  -1.088  -8.154  1.00  0.00     0.111 C 
BRANCH  10  11
ATOM     11  C   UNL     1       6.612  -0.231  -6.915  1.00  0.00     0.163 C 
ATOM     12  O   UNL     1       6.117  -0.736  -5.871  1.00  0.00    -0.294 OA
BRANCH  11  13
ATOM     13  C   UNL     1       7.155   1.164  -6.884  1.00  0.00    -0.002 C 
ATOM     14  C   UNL     1       8.498   1.414  -6.910  1.00  0.00    -0.069 C 
ATOM     15  C   UNL     1       9.513   0.294  -6.896  1.00  0.00     0.039 C 
ATOM     16  C   UNL     1       9.037   2.828  -6.917  1.00  0.00     0.039 C 
BRANCH  13  17
ATOM     17  C   UNL     1       6.148   2.292  -6.748  1.00  0.00     0.066 CG0
ATOM     18  G   UNL     1       6.301   3.257  -7.899  1.00  0.00     0.000 G0
ENDBRANCH  13  17
ENDBRANCH  11  13
ENDBRANCH  10  11
ENDBRANCH   1  10
TORSDOF 0
ENDMDL
MODEL 8
REMARK VINA RESULT:    -2.577      2.327      5.035
REMARK INTER + INTRA:          -3.009
REMARK INTER:                  -3.929
REMARK INTRA:                   0.921
REMARK UNBOUND:                 0.623
REMARK SMILES CC1=CCC(=C(C)C)C(=O)CC(C)=CCC1
REMARK SMILES IDX 12 1 14 2 13 3 15 4 16 5 2 6 1 7 3 8 11 10 9 11 10 12 5 13
REMARK SMILES IDX 6 14 7 15 8 16 4 17
REMARK H PARENT
REMARK Flexibility Score: 60.00
ROOT
ATOM      1  C   UNL     1       8.922   3.189  -7.244  1.00  0.00    -0.070 C 
ATOM      2  C   UNL     1       8.322   4.320  -6.803  1.00  0.00    -0.027 C 
ATOM      3  C   UNL     1       9.974   2.568  -6.358  1.00  0.00     0.039 C 
ENDROOT
BRANCH   2   4
ATOM      4  C   UNL     1       7.328   5.161  -7.566  1.00  0.00     0.032 C 
BRANCH   4   5
ATOM      5  C   UNL     1       5.880   4.950  -7.085  1.00  0.00     0.034 C 
BRANCH   5   6
ATOM      6  C   UNL     1       5.081   4.081  -8.038  1.00  0.00    -0.077 C 
ATOM      7  C   UNL     1       4.428   4.738  -9.228  1.00  0.00     0.039 C 
ATOM      8  C   UNL     1       4.942   2.744  -7.896  1.00  0.00    -0.023 CG0
ATOM      9  G   UNL     1       5.546   1.905  -6.796  1.00  0.00     0.000 G0
ENDBRANCH   5   6
ENDBRANCH   4   5
ENDBRANCH   2   4
BRANCH   1  10
ATOM     10  C   UNL     1       8.644   2.560  -8.600  1.00  0.00     0.111 C 
BRANCH  10  11
ATOM     11  C   UNL     1       7.391   1.721  -8.575  1.00  0.00     0.163 C 
ATOM     12  O   UNL     1       6.858   1.417  -9.677  1.00  0.00    -0.294 OA
BRANCH  11  13
ATOM     13  C   UNL     1       6.806   1.208  -7.296  1.00  0.00    -0.002 C 
ATOM     14  C   UNL     1       7.338   0.132  -6.642  1.00  0.00    -0.069 C 
ATOM     15  C   UNL     1       8.502  -0.645  -7.213  1.00  0.00     0.039 C 
ATOM     16  C   UNL     1       6.764  -0.356  -5.329  1.00  0.00     0.039 C 
BRANCH  13  17
ATOM     17  C   UNL     1       5.547   1.891  -6.791  1.00  0.00     0.066 CG0
ATOM     18  G   UNL     1       4.939   2.723  -7.895  1.00  0.00     0.000 G0
ENDBRANCH  13  17
ENDBRANCH  11  13
ENDBRANCH  10  11
ENDBRANCH   1  10
TORSDOF 0
ENDMDL
MODEL 9
REMARK VINA RESULT:    -2.537      2.354      4.025
REMARK INTER + INTRA:          -2.952
REMARK INTER:                  -3.588
REMARK INTRA:                   0.636
REMARK UNBOUND:                 0.623
REMARK SMILES CC1=CCC(=C(C)C)C(=O)CC(C)=CCC1
REMARK SMILES IDX 12 1 14 2 13 3 15 4 16 5 2 6 1 7 3 8 11 10 9 11 10 12 5 13
REMARK SMILES IDX 6 14 7 15 8 16 4 17
REMARK H PARENT
REMARK Flexibility Score: 60.00
ROOT
ATOM      1  C   UNL     1       8.297  -0.621  -6.712  1.00  0.00    -0.070 C 
ATOM      2  C   UNL     1       8.848   0.402  -6.016  1.00  0.00    -0.027 C 
ATOM      3  C   UNL     1       7.103  -1.314  -6.102  1.00  0.00     0.039 C 
ENDROOT
BRANCH   2   4
ATOM      4  C   UNL     1      10.099   1.162  -6.384  1.00  0.00     0.032 C 
BRANCH   4   5
ATOM      5  C   UNL     1       9.980   1.880  -7.741  1.00  0.00     0.034 C 
BRANCH   5   6
ATOM      6  C   UNL     1       8.697   2.681  -7.853  1.00  0.00    -0.077 C 
ATOM      7  C   UNL     1       8.475   3.816  -6.886  1.00  0.00     0.039 C 
ATOM      8  C   UNL     1       7.749   2.451  -8.789  1.00  0.00    -0.023 CG0
ATOM      9  G   UNL     1       7.805   1.389  -9.860  1.00  0.00     0.000 G0
ENDBRANCH   5   6
ENDBRANCH   4   5
ENDBRANCH   2   4
BRANCH   1  10
ATOM     10  C   UNL     1       8.852  -1.145  -8.026  1.00  0.00     0.111 C 
BRANCH  10  11
ATOM     11  C   UNL     1       7.821  -1.089  -9.125  1.00  0.00     0.163 C 
ATOM     12  O   UNL     1       7.604  -2.139  -9.790  1.00  0.00    -0.294 OA
BRANCH  11  13
ATOM     13  C   UNL     1       7.028   0.150  -9.406  1.00  0.00    -0.002 C 
ATOM     14  C   UNL     1       5.664   0.165  -9.319  1.00  0.00    -0.069 C 
ATOM     15  C   UNL     1       4.876  -1.087  -9.008  1.00  0.00     0.039 C 
ATOM     16  C   UNL     1       4.872   1.431  -9.566  1.00  0.00     0.039 C 
BRANCH  13  17
ATOM     17  C   UNL     1       7.801   1.374  -9.864  1.00  0.00     0.066 CG0
ATOM     18  G   UNL     1       7.759   2.435  -8.791  1.00  0.00     0.000 G0
ENDBRANCH  13  17
ENDBRANCH  11  13
ENDBRANCH  10  11
ENDBRANCH   1  10
TORSDOF 0
ENDMDL
