MODEL 1
REMARK VINA RESULT:    -3.774      0.000      0.000
REMARK INTER + INTRA:          -5.586
REMARK INTER:                  -5.098
REMARK INTRA:                  -0.488
REMARK UNBOUND:                -0.488
REMARK SMILES [NH3+]CCCC[C@H]([NH3+])C(=O)[O-]
REMARK SMILES IDX 4 1 3 2 2 3 1 4 5 8 6 9 7 10 8 14 9 15 10 16
REMARK H PARENT 1 5 1 6 1 7 7 11 7 12 7 13
REMARK Flexibility Score: inf
ROOT
ATOM      1  C   UNL     1      17.589  44.708  25.082  1.00  0.00     0.012 C 
ENDROOT
BRANCH   1   2
ATOM      2  C   UNL     1      16.137  45.169  24.876  1.00  0.00     0.061 C 
BRANCH   2   3
ATOM      3  C   UNL     1      15.277  45.015  26.141  1.00  0.00     0.258 C 
BRANCH   3   4
ATOM      4  N   UNL     1      15.007  46.316  26.750  1.00  0.00    -0.358 N 
ATOM      5  H   UNL     1      14.313  46.213  27.526  1.00  0.00     0.344 HD
ATOM      6  H   UNL     1      14.638  46.980  26.031  1.00  0.00     0.344 HD
ATOM      7  H   UNL     1      15.896  46.702  27.143  1.00  0.00     0.344 HD
ENDBRANCH   3   4
ENDBRANCH   2   3
ENDBRANCH   1   2
BRANCH   1   8
ATOM      8  C   UNL     1      18.603  45.855  24.920  1.00  0.00     0.072 C 
BRANCH   8   9
ATOM      9  C   UNL     1      18.449  46.927  26.021  1.00  0.00     0.227 C 
BRANCH   9  10
ATOM     10  N   UNL     1      19.436  47.998  25.838  1.00  0.00    -0.350 N 
ATOM     11  H   UNL     1      19.120  48.646  25.081  1.00  0.00     0.345 HD
ATOM     12  H   UNL     1      19.531  48.551  26.721  1.00  0.00     0.345 HD
ATOM     13  H   UNL     1      20.370  47.600  25.579  1.00  0.00     0.345 HD
ENDBRANCH   9  10
BRANCH   9  14
ATOM     14  C   UNL     1      18.589  46.325  27.396  1.00  0.00     0.099 C 
ATOM     15  O   UNL     1      19.585  45.607  27.681  1.00  0.00    -0.544 OA
ATOM     16  O   UNL     1      17.611  46.553  28.356  1.00  0.00    -0.544 OA
ENDBRANCH   9  14
ENDBRANCH   8   9
ENDBRANCH   1   8
TORSDOF 7
ENDMDL
MODEL 2
REMARK VINA RESULT:    -3.773      0.213      1.042
REMARK INTER + INTRA:          -5.584
REMARK INTER:                  -5.101
REMARK INTRA:                  -0.483
REMARK UNBOUND:                -0.488
REMARK SMILES [NH3+]CCCC[C@H]([NH3+])C(=O)[O-]
REMARK SMILES IDX 4 1 3 2 2 3 1 4 5 8 6 9 7 10 8 14 9 15 10 16
REMARK H PARENT 1 5 1 6 1 7 7 11 7 12 7 13
REMARK Flexibility Score: inf
ROOT
ATOM      1  C   UNL     1      17.673  44.641  25.149  1.00  0.00     0.012 C 
ENDROOT
BRANCH   1   2
ATOM      2  C   UNL     1      16.176  44.954  24.993  1.00  0.00     0.061 C 
BRANCH   2   3
ATOM      3  C   UNL     1      15.405  44.855  26.319  1.00  0.00     0.258 C 
BRANCH   3   4
ATOM      4  N   UNL     1      14.971  46.176  26.769  1.00  0.00    -0.358 N 
ATOM      5  H   UNL     1      14.098  46.093  27.339  1.00  0.00     0.344 HD
ATOM      6  H   UNL     1      14.799  46.798  25.946  1.00  0.00     0.344 HD
ATOM      7  H   UNL     1      15.721  46.599  27.362  1.00  0.00     0.344 HD
ENDBRANCH   3   4
ENDBRANCH   2   3
ENDBRANCH   1   2
BRANCH   1   8
ATOM      8  C   UNL     1      18.563  45.874  24.903  1.00  0.00     0.072 C 
BRANCH   8   9
ATOM      9  C   UNL     1      18.358  46.963  25.979  1.00  0.00     0.227 C 
BRANCH   9  10
ATOM     10  N   UNL     1      19.213  48.124  25.705  1.00  0.00    -0.350 N 
ATOM     11  H   UNL     1      20.161  47.972  26.120  1.00  0.00     0.345 HD
ATOM     12  H   UNL     1      19.326  48.248  24.672  1.00  0.00     0.345 HD
ATOM     13  H   UNL     1      18.797  48.994  26.113  1.00  0.00     0.345 HD
ENDBRANCH   9  10
BRANCH   9  14
ATOM     14  C   UNL     1      18.639  46.428  27.360  1.00  0.00     0.099 C 
ATOM     15  O   UNL     1      17.770  46.515  28.269  1.00  0.00    -0.544 OA
ATOM     16  O   UNL     1      19.867  45.841  27.641  1.00  0.00    -0.544 OA
ENDBRANCH   9  14
ENDBRANCH   8   9
ENDBRANCH   1   8
TORSDOF 7
ENDMDL
MODEL 3
REMARK VINA RESULT:    -3.688      1.498      3.131
REMARK INTER + INTRA:          -5.470
REMARK INTER:                  -4.928
REMARK INTRA:                  -0.542
REMARK UNBOUND:                -0.488
REMARK SMILES [NH3+]CCCC[C@H]([NH3+])C(=O)[O-]
REMARK SMILES IDX 4 1 3 2 2 3 1 4 5 8 6 9 7 10 8 14 9 15 10 16
REMARK H PARENT 1 5 1 6 1 7 7 11 7 12 7 13
REMARK Flexibility Score: inf
ROOT
ATOM      1  C   UNL     1      17.030  44.828  24.913  1.00  0.00     0.012 C 
ENDROOT
BRANCH   1   2
ATOM      2  C   UNL     1      18.375  45.552  25.083  1.00  0.00     0.061 C 
BRANCH   2   3
ATOM      3  C   UNL     1      18.255  47.076  24.927  1.00  0.00     0.258 C 
BRANCH   3   4
ATOM      4  N   UNL     1      18.223  47.733  26.232  1.00  0.00    -0.358 N 
ATOM      5  H   UNL     1      17.972  47.042  26.976  1.00  0.00     0.344 HD
ATOM      6  H   UNL     1      17.528  48.514  26.225  1.00  0.00     0.344 HD
ATOM      7  H   UNL     1      19.170  48.124  26.442  1.00  0.00     0.344 HD
ENDBRANCH   3   4
ENDBRANCH   2   3
ENDBRANCH   1   2
BRANCH   1   8
ATOM      8  C   UNL     1      16.722  43.871  26.080  1.00  0.00     0.072 C 
BRANCH   8   9
ATOM      9  C   UNL     1      15.866  44.546  27.174  1.00  0.00     0.227 C 
BRANCH   9  10
ATOM     10  N   UNL     1      15.209  45.748  26.645  1.00  0.00    -0.350 N 
ATOM     11  H   UNL     1      14.171  45.631  26.685  1.00  0.00     0.345 HD
ATOM     12  H   UNL     1      15.466  46.579  27.226  1.00  0.00     0.345 HD
ATOM     13  H   UNL     1      15.496  45.919  25.653  1.00  0.00     0.345 HD
ENDBRANCH   9  10
BRANCH   9  14
ATOM     14  C   UNL     1      16.698  44.900  28.380  1.00  0.00     0.099 C 
ATOM     15  O   UNL     1      16.878  44.060  29.302  1.00  0.00    -0.544 OA
ATOM     16  O   UNL     1      17.266  46.163  28.485  1.00  0.00    -0.544 OA
ENDBRANCH   9  14
ENDBRANCH   8   9
ENDBRANCH   1   8
TORSDOF 7
ENDMDL
MODEL 4
REMARK VINA RESULT:    -3.543      2.288      3.250
REMARK INTER + INTRA:          -5.274
REMARK INTER:                  -4.759
REMARK INTRA:                  -0.515
REMARK UNBOUND:                -0.488
REMARK SMILES [NH3+]CCCC[C@H]([NH3+])C(=O)[O-]
REMARK SMILES IDX 4 1 3 2 2 3 1 4 5 8 6 9 7 10 8 14 9 15 10 16
REMARK H PARENT 1 5 1 6 1 7 7 11 7 12 7 13
REMARK Flexibility Score: inf
ROOT
ATOM      1  C   UNL     1      17.309  44.753  24.875  1.00  0.00     0.012 C 
ENDROOT
BRANCH   1   2
ATOM      2  C   UNL     1      18.543  45.660  25.000  1.00  0.00     0.061 C 
BRANCH   2   3
ATOM      3  C   UNL     1      18.189  47.156  24.972  1.00  0.00     0.258 C 
BRANCH   3   4
ATOM      4  N   UNL     1      18.186  47.715  26.323  1.00  0.00    -0.358 N 
ATOM      5  H   UNL     1      18.035  46.956  27.027  1.00  0.00     0.344 HD
ATOM      6  H   UNL     1      17.432  48.435  26.412  1.00  0.00     0.344 HD
ATOM      7  H   UNL     1      19.110  48.167  26.508  1.00  0.00     0.344 HD
ENDBRANCH   3   4
ENDBRANCH   2   3
ENDBRANCH   1   2
BRANCH   1   8
ATOM      8  C   UNL     1      17.309  43.609  25.907  1.00  0.00     0.072 C 
BRANCH   8   9
ATOM      9  C   UNL     1      17.930  44.042  27.254  1.00  0.00     0.227 C 
BRANCH   9  10
ATOM     10  N   UNL     1      18.548  42.893  27.927  1.00  0.00    -0.350 N 
ATOM     11  H   UNL     1      18.629  42.092  27.260  1.00  0.00     0.345 HD
ATOM     12  H   UNL     1      19.510  43.145  28.251  1.00  0.00     0.345 HD
ATOM     13  H   UNL     1      17.973  42.595  28.751  1.00  0.00     0.345 HD
ENDBRANCH   9  10
BRANCH   9  14
ATOM     14  C   UNL     1      16.900  44.676  28.153  1.00  0.00     0.099 C 
ATOM     15  O   UNL     1      15.872  44.034  28.501  1.00  0.00    -0.544 OA
ATOM     16  O   UNL     1      17.076  45.981  28.598  1.00  0.00    -0.544 OA
ENDBRANCH   9  14
ENDBRANCH   8   9
ENDBRANCH   1   8
TORSDOF 7
ENDMDL
MODEL 5
REMARK VINA RESULT:    -3.392      1.941      2.088
REMARK INTER + INTRA:          -5.069
REMARK INTER:                  -4.555
REMARK INTRA:                  -0.515
REMARK UNBOUND:                -0.488
REMARK SMILES [NH3+]CCCC[C@H]([NH3+])C(=O)[O-]
REMARK SMILES IDX 4 1 3 2 2 3 1 4 5 8 6 9 7 10 8 14 9 15 10 16
REMARK H PARENT 1 5 1 6 1 7 7 11 7 12 7 13
REMARK Flexibility Score: inf
ROOT
ATOM      1  C   UNL     1      16.647  44.665  25.337  1.00  0.00     0.012 C 
ENDROOT
BRANCH   1   2
ATOM      2  C   UNL     1      17.355  43.317  25.551  1.00  0.00     0.061 C 
BRANCH   2   3
ATOM      3  C   UNL     1      17.360  42.873  27.022  1.00  0.00     0.258 C 
BRANCH   3   4
ATOM      4  N   UNL     1      18.643  43.176  27.654  1.00  0.00    -0.358 N 
ATOM      5  H   UNL     1      19.377  42.514  27.312  1.00  0.00     0.344 HD
ATOM      6  H   UNL     1      18.558  43.104  28.694  1.00  0.00     0.344 HD
ATOM      7  H   UNL     1      18.926  44.151  27.404  1.00  0.00     0.344 HD
ENDBRANCH   3   4
ENDBRANCH   2   3
ENDBRANCH   1   2
BRANCH   1   8
ATOM      8  C   UNL     1      17.628  45.800  24.988  1.00  0.00     0.072 C 
BRANCH   8   9
ATOM      9  C   UNL     1      17.649  46.903  26.069  1.00  0.00     0.227 C 
BRANCH   9  10
ATOM     10  N   UNL     1      18.326  48.104  25.565  1.00  0.00    -0.350 N 
ATOM     11  H   UNL     1      19.236  47.838  25.123  1.00  0.00     0.345 HD
ATOM     12  H   UNL     1      17.735  48.568  24.838  1.00  0.00     0.345 HD
ATOM     13  H   UNL     1      18.509  48.779  26.344  1.00  0.00     0.345 HD
ENDBRANCH   9  10
BRANCH   9  14
ATOM     14  C   UNL     1      18.319  46.422  27.330  1.00  0.00     0.099 C 
ATOM     15  O   UNL     1      19.565  46.236  27.361  1.00  0.00    -0.544 OA
ATOM     16  O   UNL     1      17.561  46.172  28.468  1.00  0.00    -0.544 OA
ENDBRANCH   9  14
ENDBRANCH   8   9
ENDBRANCH   1   8
TORSDOF 7
ENDMDL
MODEL 6
REMARK VINA RESULT:    -3.336      1.979      2.385
REMARK INTER + INTRA:          -4.994
REMARK INTER:                  -4.453
REMARK INTRA:                  -0.542
REMARK UNBOUND:                -0.488
REMARK SMILES [NH3+]CCCC[C@H]([NH3+])C(=O)[O-]
REMARK SMILES IDX 4 1 3 2 2 3 1 4 5 8 6 9 7 10 8 14 9 15 10 16
REMARK H PARENT 1 5 1 6 1 7 7 11 7 12 7 13
REMARK Flexibility Score: inf
ROOT
ATOM      1  C   UNL     1      17.187  43.702  25.677  1.00  0.00     0.012 C 
ENDROOT
BRANCH   1   2
ATOM      2  C   UNL     1      15.690  44.023  25.814  1.00  0.00     0.061 C 
BRANCH   2   3
ATOM      3  C   UNL     1      15.368  45.498  25.528  1.00  0.00     0.258 C 
BRANCH   3   4
ATOM      4  N   UNL     1      15.049  46.211  26.763  1.00  0.00    -0.358 N 
ATOM      5  H   UNL     1      15.828  46.103  27.453  1.00  0.00     0.344 HD
ATOM      6  H   UNL     1      14.160  45.841  27.173  1.00  0.00     0.344 HD
ATOM      7  H   UNL     1      14.926  47.227  26.551  1.00  0.00     0.344 HD
ENDBRANCH   3   4
ENDBRANCH   2   3
ENDBRANCH   1   2
BRANCH   1   8
ATOM      8  C   UNL     1      17.868  43.464  27.039  1.00  0.00     0.072 C 
BRANCH   8   9
ATOM      9  C   UNL     1      19.085  44.391  27.250  1.00  0.00     0.227 C 
BRANCH   9  10
ATOM     10  N   UNL     1      19.814  44.013  28.467  1.00  0.00    -0.350 N 
ATOM     11  H   UNL     1      19.137  43.722  29.209  1.00  0.00     0.345 HD
ATOM     12  H   UNL     1      20.446  43.204  28.267  1.00  0.00     0.345 HD
ATOM     13  H   UNL     1      20.384  44.817  28.820  1.00  0.00     0.345 HD
ENDBRANCH   9  10
BRANCH   9  14
ATOM     14  C   UNL     1      18.666  45.837  27.326  1.00  0.00     0.099 C 
ATOM     15  O   UNL     1      17.786  46.205  28.150  1.00  0.00    -0.544 OA
ATOM     16  O   UNL     1      19.245  46.773  26.479  1.00  0.00    -0.544 OA
ENDBRANCH   9  14
ENDBRANCH   8   9
ENDBRANCH   1   8
TORSDOF 7
ENDMDL
MODEL 7
REMARK VINA RESULT:    -3.264      2.472      3.829
REMARK INTER + INTRA:          -4.897
REMARK INTER:                  -4.394
REMARK INTRA:                  -0.503
REMARK UNBOUND:                -0.488
REMARK SMILES [NH3+]CCCC[C@H]([NH3+])C(=O)[O-]
REMARK SMILES IDX 4 1 3 2 2 3 1 4 5 8 6 9 7 10 8 14 9 15 10 16
REMARK H PARENT 1 5 1 6 1 7 7 11 7 12 7 13
REMARK Flexibility Score: inf
ROOT
ATOM      1  C   UNL     1      18.438  44.752  27.796  1.00  0.00     0.012 C 
ENDROOT
BRANCH   1   2
ATOM      2  C   UNL     1      19.628  45.492  27.164  1.00  0.00     0.061 C 
BRANCH   2   3
ATOM      3  C   UNL     1      19.219  46.811  26.489  1.00  0.00     0.258 C 
BRANCH   3   4
ATOM      4  N   UNL     1      17.825  47.137  26.785  1.00  0.00    -0.358 N 
ATOM      5  H   UNL     1      17.743  47.517  27.756  1.00  0.00     0.344 HD
ATOM      6  H   UNL     1      17.228  46.284  26.686  1.00  0.00     0.344 HD
ATOM      7  H   UNL     1      17.493  47.863  26.110  1.00  0.00     0.344 HD
ENDBRANCH   3   4
ENDBRANCH   2   3
ENDBRANCH   1   2
BRANCH   1   8
ATOM      8  C   UNL     1      18.194  43.372  27.157  1.00  0.00     0.072 C 
BRANCH   8   9
ATOM      9  C   UNL     1      17.032  43.399  26.140  1.00  0.00     0.227 C 
BRANCH   9  10
ATOM     10  N   UNL     1      17.470  44.001  24.875  1.00  0.00    -0.350 N 
ATOM     11  H   UNL     1      18.487  43.808  24.724  1.00  0.00     0.345 HD
ATOM     12  H   UNL     1      16.938  43.582  24.078  1.00  0.00     0.345 HD
ATOM     13  H   UNL     1      17.316  45.037  24.886  1.00  0.00     0.345 HD
ENDBRANCH   9  10
BRANCH   9  14
ATOM     14  C   UNL     1      15.844  44.150  26.686  1.00  0.00     0.099 C 
ATOM     15  O   UNL     1      15.183  43.685  27.653  1.00  0.00    -0.544 OA
ATOM     16  O   UNL     1      15.466  45.360  26.116  1.00  0.00    -0.544 OA
ENDBRANCH   9  14
ENDBRANCH   8   9
ENDBRANCH   1   8
TORSDOF 7
ENDMDL
MODEL 8
REMARK VINA RESULT:    -3.255     17.278     17.857
REMARK INTER + INTRA:          -4.885
REMARK INTER:                  -4.300
REMARK INTRA:                  -0.585
REMARK UNBOUND:                -0.488
REMARK SMILES [NH3+]CCCC[C@H]([NH3+])C(=O)[O-]
REMARK SMILES IDX 4 1 3 2 2 3 1 4 5 8 6 9 7 10 8 14 9 15 10 16
REMARK H PARENT 1 5 1 6 1 7 7 11 7 12 7 13
REMARK Flexibility Score: inf
ROOT
ATOM      1  C   UNL     1      23.323  31.642  31.655  1.00  0.00     0.012 C 
ENDROOT
BRANCH   1   2
ATOM      2  C   UNL     1      24.340  30.490  31.607  1.00  0.00     0.061 C 
BRANCH   2   3
ATOM      3  C   UNL     1      25.066  30.281  32.945  1.00  0.00     0.258 C 
BRANCH   3   4
ATOM      4  N   UNL     1      24.326  29.355  33.801  1.00  0.00    -0.358 N 
ATOM      5  H   UNL     1      24.353  28.391  33.396  1.00  0.00     0.344 HD
ATOM      6  H   UNL     1      23.333  29.671  33.897  1.00  0.00     0.344 HD
ATOM      7  H   UNL     1      24.768  29.335  34.748  1.00  0.00     0.344 HD
ENDBRANCH   3   4
ENDBRANCH   2   3
ENDBRANCH   1   2
BRANCH   1   8
ATOM      8  C   UNL     1      21.866  31.149  31.570  1.00  0.00     0.072 C 
BRANCH   8   9
ATOM      9  C   UNL     1      21.116  31.319  32.909  1.00  0.00     0.227 C 
BRANCH   9  10
ATOM     10  N   UNL     1      21.961  32.016  33.887  1.00  0.00    -0.350 N 
ATOM     11  H   UNL     1      22.220  32.961  33.522  1.00  0.00     0.345 HD
ATOM     12  H   UNL     1      21.436  32.145  34.783  1.00  0.00     0.345 HD
ATOM     13  H   UNL     1      22.835  31.470  34.075  1.00  0.00     0.345 HD
ENDBRANCH   9  10
BRANCH   9  14
ATOM     14  C   UNL     1      20.674  29.989  33.463  1.00  0.00     0.099 C 
ATOM     15  O   UNL     1      21.458  29.002  33.459  1.00  0.00    -0.544 OA
ATOM     16  O   UNL     1      19.390  29.842  33.975  1.00  0.00    -0.544 OA
ENDBRANCH   9  14
ENDBRANCH   8   9
ENDBRANCH   1   8
TORSDOF 7
ENDMDL
