MODEL 1
REMARK VINA RESULT:    -4.222      0.000      0.000
REMARK INTER + INTRA:         -13.340
REMARK INTER:                  -9.652
REMARK INTRA:                  -3.688
REMARK UNBOUND:                -3.688
REMARK SMILES CCCCCCCCCCCCCCCCCCCCCCCC(=O)[O-]
REMARK SMILES IDX 13 1 14 2 15 3 16 4 17 5 18 6 19 7 20 8 21 9 22 10 23 11
REMARK SMILES IDX 24 12 25 13 26 14 12 15 11 16 10 17 9 18 8 19 7 20 6 21 5 22
REMARK SMILES IDX 4 23 3 24 2 25 1 26
REMARK H PARENT
REMARK Flexibility Score: inf
ROOT
ATOM      1  C   UNL     1      19.148  24.095  20.830  1.00  0.00     0.000 C 
ENDROOT
BRANCH   1   2
ATOM      2  C   UNL     1      18.388  22.764  20.932  1.00  0.00     0.000 C 
BRANCH   2   3
ATOM      3  C   UNL     1      18.261  22.051  19.577  1.00  0.00     0.000 C 
BRANCH   3   4
ATOM      4  C   UNL     1      18.743  20.590  19.630  1.00  0.00     0.000 C 
BRANCH   4   5
ATOM      5  C   UNL     1      18.395  19.910  20.971  1.00  0.00     0.000 C 
BRANCH   5   6
ATOM      6  C   UNL     1      18.271  18.380  20.872  1.00  0.00     0.000 C 
BRANCH   6   7
ATOM      7  C   UNL     1      19.329  17.753  19.952  1.00  0.00     0.000 C 
BRANCH   7   8
ATOM      8  C   UNL     1      20.236  16.748  20.682  1.00  0.00     0.000 C 
BRANCH   8   9
ATOM      9  C   UNL     1      20.409  17.050  22.186  1.00  0.00     0.000 C 
BRANCH   9  10
ATOM     10  C   UNL     1      20.746  15.788  22.997  1.00  0.00     0.006 C 
BRANCH  10  11
ATOM     11  C   UNL     1      19.609  15.386  23.947  1.00  0.00     0.053 C 
BRANCH  11  12
ATOM     12  C   UNL     1      19.075  16.562  24.705  1.00  0.00     0.041 C 
ATOM     13  O   UNL     1      19.789  17.139  25.568  1.00  0.00    -0.550 OA
ATOM     14  O   UNL     1      17.798  17.041  24.438  1.00  0.00    -0.550 OA
ENDBRANCH  11  12
ENDBRANCH  10  11
ENDBRANCH   9  10
ENDBRANCH   8   9
ENDBRANCH   7   8
ENDBRANCH   6   7
ENDBRANCH   5   6
ENDBRANCH   4   5
ENDBRANCH   3   4
ENDBRANCH   2   3
ENDBRANCH   1   2
BRANCH   1  15
ATOM     15  C   UNL     1      19.296  24.532  19.367  1.00  0.00     0.000 C 
BRANCH  15  16
ATOM     16  C   UNL     1      20.772  24.754  19.005  1.00  0.00     0.000 C 
BRANCH  16  17
ATOM     17  C   UNL     1      21.310  23.694  18.032  1.00  0.00     0.000 C 
BRANCH  17  18
ATOM     18  C   UNL     1      21.853  22.448  18.755  1.00  0.00    -0.000 C 
BRANCH  18  19
ATOM     19  C   UNL     1      22.527  22.782  20.095  1.00  0.00    -0.000 C 
BRANCH  19  20
ATOM     20  C   UNL     1      21.952  21.969  21.267  1.00  0.00    -0.000 C 
BRANCH  20  21
ATOM     21  C   UNL     1      22.078  20.448  21.060  1.00  0.00    -0.000 C 
BRANCH  21  22
ATOM     22  C   UNL     1      23.242  19.781  21.816  1.00  0.00    -0.000 C 
BRANCH  22  23
ATOM     23  C   UNL     1      23.631  18.413  21.226  1.00  0.00    -0.000 C 
BRANCH  23  24
ATOM     24  C   UNL     1      24.744  18.522  20.172  1.00  0.00    -0.000 C 
BRANCH  24  25
ATOM     25  C   UNL     1      24.954  17.211  19.401  1.00  0.00    -0.003 C 
ATOM     26  C   UNL     1      23.745  16.291  19.542  1.00  0.00     0.004 C 
ENDBRANCH  24  25
ENDBRANCH  23  24
ENDBRANCH  22  23
ENDBRANCH  21  22
ENDBRANCH  20  21
ENDBRANCH  19  20
ENDBRANCH  18  19
ENDBRANCH  17  18
ENDBRANCH  16  17
ENDBRANCH  15  16
ENDBRANCH   1  15
TORSDOF 22
ENDMDL
MODEL 2
REMARK VINA RESULT:    -4.220      0.945      4.434
REMARK INTER + INTRA:         -13.335
REMARK INTER:                  -9.344
REMARK INTRA:                  -3.991
REMARK UNBOUND:                -3.688
REMARK SMILES CCCCCCCCCCCCCCCCCCCCCCCC(=O)[O-]
REMARK SMILES IDX 13 1 14 2 15 3 16 4 17 5 18 6 19 7 20 8 21 9 22 10 23 11
REMARK SMILES IDX 24 12 25 13 26 14 12 15 11 16 10 17 9 18 8 19 7 20 6 21 5 22
REMARK SMILES IDX 4 23 3 24 2 25 1 26
REMARK H PARENT
REMARK Flexibility Score: inf
ROOT
ATOM      1  C   UNL     1      22.188  22.002  21.236  1.00  0.00     0.000 C 
ENDROOT
BRANCH   1   2
ATOM      2  C   UNL     1      21.905  20.509  21.010  1.00  0.00     0.000 C 
BRANCH   2   3
ATOM      3  C   UNL     1      22.896  19.602  21.756  1.00  0.00     0.000 C 
BRANCH   3   4
ATOM      4  C   UNL     1      24.004  19.057  20.837  1.00  0.00     0.000 C 
BRANCH   4   5
ATOM      5  C   UNL     1      24.139  17.522  20.933  1.00  0.00     0.000 C 
BRANCH   5   6
ATOM      6  C   UNL     1      24.007  16.806  19.578  1.00  0.00     0.000 C 
BRANCH   6   7
ATOM      7  C   UNL     1      22.834  15.816  19.537  1.00  0.00     0.000 C 
BRANCH   7   8
ATOM      8  C   UNL     1      21.837  16.022  20.690  1.00  0.00     0.000 C 
BRANCH   8   9
ATOM      9  C   UNL     1      20.648  16.934  20.324  1.00  0.00     0.000 C 
BRANCH   9  10
ATOM     10  C   UNL     1      19.622  17.039  21.465  1.00  0.00     0.006 C 
BRANCH  10  11
ATOM     11  C   UNL     1      20.211  16.612  22.817  1.00  0.00     0.053 C 
BRANCH  11  12
ATOM     12  C   UNL     1      19.315  16.985  23.957  1.00  0.00     0.041 C 
ATOM     13  O   UNL     1      18.174  17.471  23.736  1.00  0.00    -0.550 OA
ATOM     14  O   UNL     1      19.728  16.770  25.267  1.00  0.00    -0.550 OA
ENDBRANCH  11  12
ENDBRANCH  10  11
ENDBRANCH   9  10
ENDBRANCH   8   9
ENDBRANCH   7   8
ENDBRANCH   6   7
ENDBRANCH   5   6
ENDBRANCH   4   5
ENDBRANCH   3   4
ENDBRANCH   2   3
ENDBRANCH   1   2
BRANCH   1  15
ATOM     15  C   UNL     1      22.558  22.696  19.919  1.00  0.00     0.000 C 
BRANCH  15  16
ATOM     16  C   UNL     1      21.544  22.362  18.815  1.00  0.00     0.000 C 
BRANCH  16  17
ATOM     17  C   UNL     1      21.109  23.600  18.014  1.00  0.00     0.000 C 
BRANCH  17  18
ATOM     18  C   UNL     1      20.412  24.656  18.889  1.00  0.00    -0.000 C 
BRANCH  18  19
ATOM     19  C   UNL     1      19.221  24.087  19.677  1.00  0.00    -0.000 C 
BRANCH  19  20
ATOM     20  C   UNL     1      19.390  24.237  21.198  1.00  0.00    -0.000 C 
BRANCH  20  21
ATOM     21  C   UNL     1      18.853  23.025  21.983  1.00  0.00    -0.000 C 
BRANCH  21  22
ATOM     22  C   UNL     1      17.843  22.149  21.220  1.00  0.00    -0.000 C 
BRANCH  22  23
ATOM     23  C   UNL     1      18.333  20.703  21.024  1.00  0.00    -0.000 C 
BRANCH  23  24
ATOM     24  C   UNL     1      17.680  20.018  19.815  1.00  0.00    -0.000 C 
BRANCH  24  25
ATOM     25  C   UNL     1      18.586  20.025  18.575  1.00  0.00    -0.003 C 
ATOM     26  C   UNL     1      18.197  21.146  17.615  1.00  0.00     0.004 C 
ENDBRANCH  24  25
ENDBRANCH  23  24
ENDBRANCH  22  23
ENDBRANCH  21  22
ENDBRANCH  20  21
ENDBRANCH  19  20
ENDBRANCH  18  19
ENDBRANCH  17  18
ENDBRANCH  16  17
ENDBRANCH  15  16
ENDBRANCH   1  15
TORSDOF 22
ENDMDL
MODEL 3
REMARK VINA RESULT:    -4.165      2.744      5.273
REMARK INTER + INTRA:         -13.209
REMARK INTER:                  -9.702
REMARK INTRA:                  -3.507
REMARK UNBOUND:                -3.688
REMARK SMILES CCCCCCCCCCCCCCCCCCCCCCCC(=O)[O-]
REMARK SMILES IDX 13 1 14 2 15 3 16 4 17 5 18 6 19 7 20 8 21 9 22 10 23 11
REMARK SMILES IDX 24 12 25 13 26 14 12 15 11 16 10 17 9 18 8 19 7 20 6 21 5 22
REMARK SMILES IDX 4 23 3 24 2 25 1 26
REMARK H PARENT
REMARK Flexibility Score: inf
ROOT
ATOM      1  C   UNL     1      20.530  24.873  17.980  1.00  0.00     0.000 C 
ENDROOT
BRANCH   1   2
ATOM      2  C   UNL     1      20.621  25.108  19.495  1.00  0.00     0.000 C 
BRANCH   2   3
ATOM      3  C   UNL     1      19.416  24.532  20.255  1.00  0.00     0.000 C 
BRANCH   3   4
ATOM      4  C   UNL     1      19.830  23.762  21.522  1.00  0.00     0.000 C 
BRANCH   4   5
ATOM      5  C   UNL     1      21.225  23.115  21.381  1.00  0.00     0.000 C 
BRANCH   5   6
ATOM      6  C   UNL     1      21.179  21.638  20.953  1.00  0.00     0.000 C 
BRANCH   6   7
ATOM      7  C   UNL     1      22.569  21.060  20.653  1.00  0.00     0.000 C 
BRANCH   7   8
ATOM      8  C   UNL     1      23.064  20.097  21.746  1.00  0.00     0.000 C 
BRANCH   8   9
ATOM      9  C   UNL     1      22.443  18.688  21.656  1.00  0.00     0.000 C 
BRANCH   9  10
ATOM     10  C   UNL     1      23.397  17.672  21.006  1.00  0.00     0.006 C 
BRANCH  10  11
ATOM     11  C   UNL     1      24.856  17.890  21.431  1.00  0.00     0.053 C 
BRANCH  11  12
ATOM     12  C   UNL     1      25.763  18.039  20.249  1.00  0.00     0.041 C 
ATOM     13  O   UNL     1      25.287  18.292  19.110  1.00  0.00    -0.550 OA
ATOM     14  O   UNL     1      27.139  17.927  20.409  1.00  0.00    -0.550 OA
ENDBRANCH  11  12
ENDBRANCH  10  11
ENDBRANCH   9  10
ENDBRANCH   8   9
ENDBRANCH   7   8
ENDBRANCH   6   7
ENDBRANCH   5   6
ENDBRANCH   4   5
ENDBRANCH   3   4
ENDBRANCH   2   3
ENDBRANCH   1   2
BRANCH   1  15
ATOM     15  C   UNL     1      21.355  23.649  17.564  1.00  0.00     0.000 C 
BRANCH  15  16
ATOM     16  C   UNL     1      20.479  22.388  17.505  1.00  0.00     0.000 C 
BRANCH  16  17
ATOM     17  C   UNL     1      19.030  22.691  17.093  1.00  0.00     0.000 C 
BRANCH  17  18
ATOM     18  C   UNL     1      18.052  21.576  17.506  1.00  0.00    -0.000 C 
BRANCH  18  19
ATOM     19  C   UNL     1      18.546  20.766  18.715  1.00  0.00    -0.000 C 
BRANCH  19  20
ATOM     20  C   UNL     1      17.658  20.954  19.957  1.00  0.00    -0.000 C 
BRANCH  20  21
ATOM     21  C   UNL     1      17.947  19.921  21.062  1.00  0.00    -0.000 C 
BRANCH  21  22
ATOM     22  C   UNL     1      18.975  18.837  20.688  1.00  0.00    -0.000 C 
BRANCH  22  23
ATOM     23  C   UNL     1      18.900  17.601  21.604  1.00  0.00    -0.000 C 
BRANCH  23  24
ATOM     24  C   UNL     1      18.087  17.864  22.880  1.00  0.00    -0.000 C 
BRANCH  24  25
ATOM     25  C   UNL     1      18.656  17.127  24.102  1.00  0.00    -0.003 C 
ATOM     26  C   UNL     1      19.763  16.158  23.694  1.00  0.00     0.004 C 
ENDBRANCH  24  25
ENDBRANCH  23  24
ENDBRANCH  22  23
ENDBRANCH  21  22
ENDBRANCH  20  21
ENDBRANCH  19  20
ENDBRANCH  18  19
ENDBRANCH  17  18
ENDBRANCH  16  17
ENDBRANCH  15  16
ENDBRANCH   1  15
TORSDOF 22
ENDMDL
MODEL 4
REMARK VINA RESULT:    -4.149      2.065      5.897
REMARK INTER + INTRA:         -13.173
REMARK INTER:                  -9.728
REMARK INTRA:                  -3.445
REMARK UNBOUND:                -3.688
REMARK SMILES CCCCCCCCCCCCCCCCCCCCCCCC(=O)[O-]
REMARK SMILES IDX 13 1 14 2 15 3 16 4 17 5 18 6 19 7 20 8 21 9 22 10 23 11
REMARK SMILES IDX 24 12 25 13 26 14 12 15 11 16 10 17 9 18 8 19 7 20 6 21 5 22
REMARK SMILES IDX 4 23 3 24 2 25 1 26
REMARK H PARENT
REMARK Flexibility Score: inf
ROOT
ATOM      1  C   UNL     1      21.698  20.741  21.011  1.00  0.00     0.000 C 
ENDROOT
BRANCH   1   2
ATOM      2  C   UNL     1      22.083  22.227  20.967  1.00  0.00     0.000 C 
BRANCH   2   3
ATOM      3  C   UNL     1      22.319  22.734  19.536  1.00  0.00     0.000 C 
BRANCH   3   4
ATOM      4  C   UNL     1      21.366  23.879  19.150  1.00  0.00     0.000 C 
BRANCH   4   5
ATOM      5  C   UNL     1      21.113  23.939  17.628  1.00  0.00     0.000 C 
BRANCH   5   6
ATOM      6  C   UNL     1      19.626  24.066  17.255  1.00  0.00     0.000 C 
BRANCH   6   7
ATOM      7  C   UNL     1      18.722  23.139  18.080  1.00  0.00     0.000 C 
BRANCH   7   8
ATOM      8  C   UNL     1      18.946  21.650  17.764  1.00  0.00     0.000 C 
BRANCH   8   9
ATOM      9  C   UNL     1      18.646  20.714  18.954  1.00  0.00     0.000 C 
BRANCH   9  10
ATOM     10  C   UNL     1      17.618  21.320  19.926  1.00  0.00     0.006 C 
BRANCH  10  11
ATOM     11  C   UNL     1      17.998  21.085  21.395  1.00  0.00     0.053 C 
BRANCH  11  12
ATOM     12  C   UNL     1      18.201  22.373  22.130  1.00  0.00     0.041 C 
ATOM     13  O   UNL     1      18.834  23.319  21.591  1.00  0.00    -0.550 OA
ATOM     14  O   UNL     1      17.666  22.540  23.402  1.00  0.00    -0.550 OA
ENDBRANCH  11  12
ENDBRANCH  10  11
ENDBRANCH   9  10
ENDBRANCH   8   9
ENDBRANCH   7   8
ENDBRANCH   6   7
ENDBRANCH   5   6
ENDBRANCH   4   5
ENDBRANCH   3   4
ENDBRANCH   2   3
ENDBRANCH   1   2
BRANCH   1  15
ATOM     15  C   UNL     1      22.751  19.922  21.766  1.00  0.00     0.000 C 
BRANCH  15  16
ATOM     16  C   UNL     1      23.824  19.384  20.807  1.00  0.00     0.000 C 
BRANCH  16  17
ATOM     17  C   UNL     1      24.218  17.930  21.112  1.00  0.00     0.000 C 
BRANCH  17  18
ATOM     18  C   UNL     1      24.390  17.084  19.839  1.00  0.00    -0.000 C 
BRANCH  18  19
ATOM     19  C   UNL     1      23.143  16.250  19.503  1.00  0.00    -0.000 C 
BRANCH  19  20
ATOM     20  C   UNL     1      22.166  16.142  20.686  1.00  0.00    -0.000 C 
BRANCH  20  21
ATOM     21  C   UNL     1      20.690  16.136  20.245  1.00  0.00    -0.000 C 
BRANCH  21  22
ATOM     22  C   UNL     1      19.935  17.459  20.475  1.00  0.00    -0.000 C 
BRANCH  22  23
ATOM     23  C   UNL     1      19.699  17.761  21.966  1.00  0.00    -0.000 C 
BRANCH  23  24
ATOM     24  C   UNL     1      19.101  16.564  22.721  1.00  0.00    -0.000 C 
BRANCH  24  25
ATOM     25  C   UNL     1      19.886  16.221  23.996  1.00  0.00    -0.003 C 
ATOM     26  C   UNL     1      19.398  17.049  25.182  1.00  0.00     0.004 C 
ENDBRANCH  24  25
ENDBRANCH  23  24
ENDBRANCH  22  23
ENDBRANCH  21  22
ENDBRANCH  20  21
ENDBRANCH  19  20
ENDBRANCH  18  19
ENDBRANCH  17  18
ENDBRANCH  16  17
ENDBRANCH  15  16
ENDBRANCH   1  15
TORSDOF 22
ENDMDL
MODEL 5
REMARK VINA RESULT:    -4.058      1.161      4.296
REMARK INTER + INTRA:         -12.964
REMARK INTER:                  -9.195
REMARK INTRA:                  -3.770
REMARK UNBOUND:                -3.688
REMARK SMILES CCCCCCCCCCCCCCCCCCCCCCCC(=O)[O-]
REMARK SMILES IDX 13 1 14 2 15 3 16 4 17 5 18 6 19 7 20 8 21 9 22 10 23 11
REMARK SMILES IDX 24 12 25 13 26 14 12 15 11 16 10 17 9 18 8 19 7 20 6 21 5 22
REMARK SMILES IDX 4 23 3 24 2 25 1 26
REMARK H PARENT
REMARK Flexibility Score: inf
ROOT
ATOM      1  C   UNL     1      21.368  22.350  18.976  1.00  0.00     0.000 C 
ENDROOT
BRANCH   1   2
ATOM      2  C   UNL     1      22.617  22.206  19.858  1.00  0.00     0.000 C 
BRANCH   2   3
ATOM      3  C   UNL     1      22.288  21.680  21.264  1.00  0.00     0.000 C 
BRANCH   3   4
ATOM      4  C   UNL     1      22.357  20.145  21.352  1.00  0.00     0.000 C 
BRANCH   4   5
ATOM      5  C   UNL     1      23.714  19.593  20.865  1.00  0.00     0.000 C 
BRANCH   5   6
ATOM      6  C   UNL     1      24.006  18.163  21.348  1.00  0.00     0.000 C 
BRANCH   6   7
ATOM      7  C   UNL     1      23.745  17.102  20.269  1.00  0.00     0.000 C 
BRANCH   7   8
ATOM      8  C   UNL     1      22.263  16.697  20.176  1.00  0.00     0.000 C 
BRANCH   8   9
ATOM      9  C   UNL     1      21.690  16.143  21.498  1.00  0.00     0.000 C 
BRANCH   9  10
ATOM     10  C   UNL     1      20.561  17.026  22.057  1.00  0.00     0.006 C 
BRANCH  10  11
ATOM     11  C   UNL     1      19.262  16.237  22.276  1.00  0.00     0.053 C 
BRANCH  11  12
ATOM     12  C   UNL     1      18.715  16.439  23.656  1.00  0.00     0.041 C 
ATOM     13  O   UNL     1      18.162  17.527  23.968  1.00  0.00    -0.550 OA
ATOM     14  O   UNL     1      18.790  15.413  24.591  1.00  0.00    -0.550 OA
ENDBRANCH  11  12
ENDBRANCH  10  11
ENDBRANCH   9  10
ENDBRANCH   8   9
ENDBRANCH   7   8
ENDBRANCH   6   7
ENDBRANCH   5   6
ENDBRANCH   4   5
ENDBRANCH   3   4
ENDBRANCH   2   3
ENDBRANCH   1   2
BRANCH   1  15
ATOM     15  C   UNL     1      21.374  23.690  18.230  1.00  0.00     0.000 C 
BRANCH  15  16
ATOM     16  C   UNL     1      20.652  24.777  19.041  1.00  0.00     0.000 C 
BRANCH  16  17
ATOM     17  C   UNL     1      19.454  24.229  19.833  1.00  0.00     0.000 C 
BRANCH  17  18
ATOM     18  C   UNL     1      19.672  24.291  21.355  1.00  0.00    -0.000 C 
BRANCH  18  19
ATOM     19  C   UNL     1      18.978  23.142  22.104  1.00  0.00    -0.000 C 
BRANCH  19  20
ATOM     20  C   UNL     1      18.018  22.343  21.207  1.00  0.00    -0.000 C 
BRANCH  20  21
ATOM     21  C   UNL     1      17.446  21.094  21.904  1.00  0.00    -0.000 C 
BRANCH  21  22
ATOM     22  C   UNL     1      17.848  19.750  21.268  1.00  0.00    -0.000 C 
BRANCH  22  23
ATOM     23  C   UNL     1      18.963  19.896  20.217  1.00  0.00    -0.000 C 
BRANCH  23  24
ATOM     24  C   UNL     1      18.537  19.384  18.832  1.00  0.00    -0.000 C 
BRANCH  24  25
ATOM     25  C   UNL     1      17.474  20.278  18.177  1.00  0.00    -0.003 C 
ATOM     26  C   UNL     1      18.109  21.509  17.537  1.00  0.00     0.004 C 
ENDBRANCH  24  25
ENDBRANCH  23  24
ENDBRANCH  22  23
ENDBRANCH  21  22
ENDBRANCH  20  21
ENDBRANCH  19  20
ENDBRANCH  18  19
ENDBRANCH  17  18
ENDBRANCH  16  17
ENDBRANCH  15  16
ENDBRANCH   1  15
TORSDOF 22
ENDMDL
MODEL 6
REMARK VINA RESULT:    -3.993      1.170      5.153
REMARK INTER + INTRA:         -12.816
REMARK INTER:                  -9.259
REMARK INTRA:                  -3.558
REMARK UNBOUND:                -3.688
REMARK SMILES CCCCCCCCCCCCCCCCCCCCCCCC(=O)[O-]
REMARK SMILES IDX 13 1 14 2 15 3 16 4 17 5 18 6 19 7 20 8 21 9 22 10 23 11
REMARK SMILES IDX 24 12 25 13 26 14 12 15 11 16 10 17 9 18 8 19 7 20 6 21 5 22
REMARK SMILES IDX 4 23 3 24 2 25 1 26
REMARK H PARENT
REMARK Flexibility Score: inf
ROOT
ATOM      1  C   UNL     1      22.684  18.957  21.386  1.00  0.00     0.000 C 
ENDROOT
BRANCH   1   2
ATOM      2  C   UNL     1      24.034  18.226  21.328  1.00  0.00     0.000 C 
BRANCH   2   3
ATOM      3  C   UNL     1      24.810  18.519  20.035  1.00  0.00     0.000 C 
BRANCH   3   4
ATOM      4  C   UNL     1      25.014  17.263  19.171  1.00  0.00     0.000 C 
BRANCH   4   5
ATOM      5  C   UNL     1      23.986  16.158  19.495  1.00  0.00     0.000 C 
BRANCH   5   6
ATOM      6  C   UNL     1      23.218  15.649  18.264  1.00  0.00     0.000 C 
BRANCH   6   7
ATOM      7  C   UNL     1      21.714  15.486  18.523  1.00  0.00     0.000 C 
BRANCH   7   8
ATOM      8  C   UNL     1      21.290  15.982  19.917  1.00  0.00     0.000 C 
BRANCH   8   9
ATOM      9  C   UNL     1      20.085  16.946  19.890  1.00  0.00     0.000 C 
BRANCH   9  10
ATOM     10  C   UNL     1      19.231  16.844  21.164  1.00  0.00     0.006 C 
BRANCH  10  11
ATOM     11  C   UNL     1      20.065  16.462  22.395  1.00  0.00     0.053 C 
BRANCH  11  12
ATOM     12  C   UNL     1      19.360  16.798  23.672  1.00  0.00     0.041 C 
ATOM     13  O   UNL     1      19.825  16.409  24.777  1.00  0.00    -0.550 OA
ATOM     14  O   UNL     1      18.202  17.566  23.647  1.00  0.00    -0.550 OA
ENDBRANCH  11  12
ENDBRANCH  10  11
ENDBRANCH   9  10
ENDBRANCH   8   9
ENDBRANCH   7   8
ENDBRANCH   6   7
ENDBRANCH   5   6
ENDBRANCH   4   5
ENDBRANCH   3   4
ENDBRANCH   2   3
ENDBRANCH   1   2
BRANCH   1  15
ATOM     15  C   UNL     1      22.874  20.433  21.756  1.00  0.00     0.000 C 
BRANCH  15  16
ATOM     16  C   UNL     1      22.479  21.350  20.588  1.00  0.00     0.000 C 
BRANCH  16  17
ATOM     17  C   UNL     1      21.676  22.578  21.044  1.00  0.00     0.000 C 
BRANCH  17  18
ATOM     18  C   UNL     1      21.321  23.519  19.879  1.00  0.00    -0.000 C 
BRANCH  18  19
ATOM     19  C   UNL     1      21.582  22.888  18.501  1.00  0.00    -0.000 C 
BRANCH  19  20
ATOM     20  C   UNL     1      20.810  23.591  17.372  1.00  0.00    -0.000 C 
BRANCH  20  21
ATOM     21  C   UNL     1      19.282  23.478  17.530  1.00  0.00    -0.000 C 
BRANCH  21  22
ATOM     22  C   UNL     1      18.709  22.063  17.330  1.00  0.00    -0.000 C 
BRANCH  22  23
ATOM     23  C   UNL     1      18.000  21.522  18.585  1.00  0.00    -0.000 C 
BRANCH  23  24
ATOM     24  C   UNL     1      18.864  20.518  19.362  1.00  0.00    -0.000 C 
BRANCH  24  25
ATOM     25  C   UNL     1      18.603  20.566  20.875  1.00  0.00    -0.003 C 
ATOM     26  C   UNL     1      18.082  21.936  21.300  1.00  0.00     0.004 C 
ENDBRANCH  24  25
ENDBRANCH  23  24
ENDBRANCH  22  23
ENDBRANCH  21  22
ENDBRANCH  20  21
ENDBRANCH  19  20
ENDBRANCH  18  19
ENDBRANCH  17  18
ENDBRANCH  16  17
ENDBRANCH  15  16
ENDBRANCH   1  15
TORSDOF 22
ENDMDL
MODEL 7
REMARK VINA RESULT:    -3.990      1.401      4.803
REMARK INTER + INTRA:         -12.808
REMARK INTER:                  -9.442
REMARK INTRA:                  -3.367
REMARK UNBOUND:                -3.688
REMARK SMILES CCCCCCCCCCCCCCCCCCCCCCCC(=O)[O-]
REMARK SMILES IDX 13 1 14 2 15 3 16 4 17 5 18 6 19 7 20 8 21 9 22 10 23 11
REMARK SMILES IDX 24 12 25 13 26 14 12 15 11 16 10 17 9 18 8 19 7 20 6 21 5 22
REMARK SMILES IDX 4 23 3 24 2 25 1 26
REMARK H PARENT
REMARK Flexibility Score: inf
ROOT
ATOM      1  C   UNL     1      20.316  23.993  21.559  1.00  0.00     0.000 C 
ENDROOT
BRANCH   1   2
ATOM      2  C   UNL     1      21.581  23.127  21.469  1.00  0.00     0.000 C 
BRANCH   2   3
ATOM      3  C   UNL     1      21.286  21.700  20.982  1.00  0.00     0.000 C 
BRANCH   3   4
ATOM      4  C   UNL     1      22.566  20.879  20.748  1.00  0.00     0.000 C 
BRANCH   4   5
ATOM      5  C   UNL     1      22.607  19.602  21.616  1.00  0.00     0.000 C 
BRANCH   5   6
ATOM      6  C   UNL     1      23.780  18.666  21.280  1.00  0.00     0.000 C 
BRANCH   6   7
ATOM      7  C   UNL     1      23.320  17.276  20.816  1.00  0.00     0.000 C 
BRANCH   7   8
ATOM      8  C   UNL     1      21.791  17.106  20.863  1.00  0.00     0.000 C 
BRANCH   8   9
ATOM      9  C   UNL     1      21.316  16.085  21.917  1.00  0.00     0.000 C 
BRANCH   9  10
ATOM     10  C   UNL     1      19.793  16.135  22.130  1.00  0.00     0.006 C 
BRANCH  10  11
ATOM     11  C   UNL     1      19.393  17.120  23.237  1.00  0.00     0.053 C 
BRANCH  11  12
ATOM     12  C   UNL     1      19.360  16.463  24.582  1.00  0.00     0.041 C 
ATOM     13  O   UNL     1      19.854  17.043  25.585  1.00  0.00    -0.550 OA
ATOM     14  O   UNL     1      18.756  15.221  24.735  1.00  0.00    -0.550 OA
ENDBRANCH  11  12
ENDBRANCH  10  11
ENDBRANCH   9  10
ENDBRANCH   8   9
ENDBRANCH   7   8
ENDBRANCH   6   7
ENDBRANCH   5   6
ENDBRANCH   4   5
ENDBRANCH   3   4
ENDBRANCH   2   3
ENDBRANCH   1   2
BRANCH   1  15
ATOM     15  C   UNL     1      19.052  23.125  21.525  1.00  0.00     0.000 C 
BRANCH  15  16
ATOM     16  C   UNL     1      18.358  23.108  22.896  1.00  0.00     0.000 C 
BRANCH  16  17
ATOM     17  C   UNL     1      17.249  22.048  22.985  1.00  0.00     0.000 C 
BRANCH  17  18
ATOM     18  C   UNL     1      17.032  21.304  21.656  1.00  0.00    -0.000 C 
BRANCH  18  19
ATOM     19  C   UNL     1      17.564  19.862  21.686  1.00  0.00    -0.000 C 
BRANCH  19  20
ATOM     20  C   UNL     1      18.471  19.539  20.486  1.00  0.00    -0.000 C 
BRANCH  20  21
ATOM     21  C   UNL     1      17.717  19.564  19.143  1.00  0.00    -0.000 C 
BRANCH  21  22
ATOM     22  C   UNL     1      18.411  20.358  18.020  1.00  0.00    -0.000 C 
BRANCH  22  23
ATOM     23  C   UNL     1      18.513  21.863  18.328  1.00  0.00    -0.000 C 
BRANCH  23  24
ATOM     24  C   UNL     1      19.546  22.576  17.442  1.00  0.00    -0.000 C 
BRANCH  24  25
ATOM     25  C   UNL     1      19.524  24.100  17.624  1.00  0.00    -0.003 C 
ATOM     26  C   UNL     1      20.886  24.620  18.075  1.00  0.00     0.004 C 
ENDBRANCH  24  25
ENDBRANCH  23  24
ENDBRANCH  22  23
ENDBRANCH  21  22
ENDBRANCH  20  21
ENDBRANCH  19  20
ENDBRANCH  18  19
ENDBRANCH  17  18
ENDBRANCH  16  17
ENDBRANCH  15  16
ENDBRANCH   1  15
TORSDOF 22
ENDMDL
MODEL 8
REMARK VINA RESULT:    -3.959      1.358      2.572
REMARK INTER + INTRA:         -12.739
REMARK INTER:                  -9.181
REMARK INTRA:                  -3.558
REMARK UNBOUND:                -3.688
REMARK SMILES CCCCCCCCCCCCCCCCCCCCCCCC(=O)[O-]
REMARK SMILES IDX 13 1 14 2 15 3 16 4 17 5 18 6 19 7 20 8 21 9 22 10 23 11
REMARK SMILES IDX 24 12 25 13 26 14 12 15 11 16 10 17 9 18 8 19 7 20 6 21 5 22
REMARK SMILES IDX 4 23 3 24 2 25 1 26
REMARK H PARENT
REMARK Flexibility Score: inf
ROOT
ATOM      1  C   UNL     1      21.011  24.862  18.745  1.00  0.00     0.000 C 
ENDROOT
BRANCH   1   2
ATOM      2  C   UNL     1      20.786  24.193  17.381  1.00  0.00     0.000 C 
BRANCH   2   3
ATOM      3  C   UNL     1      20.522  22.684  17.500  1.00  0.00     0.000 C 
BRANCH   3   4
ATOM      4  C   UNL     1      19.141  22.281  16.954  1.00  0.00     0.000 C 
BRANCH   4   5
ATOM      5  C   UNL     1      18.188  21.804  18.072  1.00  0.00     0.000 C 
BRANCH   5   6
ATOM      6  C   UNL     1      17.869  20.301  18.010  1.00  0.00     0.000 C 
BRANCH   6   7
ATOM      7  C   UNL     1      17.703  19.669  19.399  1.00  0.00     0.000 C 
BRANCH   7   8
ATOM      8  C   UNL     1      18.912  18.813  19.815  1.00  0.00     0.000 C 
BRANCH   8   9
ATOM      9  C   UNL     1      18.996  18.559  21.335  1.00  0.00     0.000 C 
BRANCH   9  10
ATOM     10  C   UNL     1      18.441  17.178  21.725  1.00  0.00     0.006 C 
BRANCH  10  11
ATOM     11  C   UNL     1      18.086  17.094  23.216  1.00  0.00     0.053 C 
BRANCH  11  12
ATOM     12  C   UNL     1      19.274  16.732  24.052  1.00  0.00     0.041 C 
ATOM     13  O   UNL     1      20.133  15.919  23.617  1.00  0.00    -0.550 OA
ATOM     14  O   UNL     1      19.450  17.314  25.302  1.00  0.00    -0.550 OA
ENDBRANCH  11  12
ENDBRANCH  10  11
ENDBRANCH   9  10
ENDBRANCH   8   9
ENDBRANCH   7   8
ENDBRANCH   6   7
ENDBRANCH   5   6
ENDBRANCH   4   5
ENDBRANCH   3   4
ENDBRANCH   2   3
ENDBRANCH   1   2
BRANCH   1  15
ATOM     15  C   UNL     1      19.698  24.966  19.531  1.00  0.00     0.000 C 
BRANCH  15  16
ATOM     16  C   UNL     1      19.900  24.564  21.000  1.00  0.00     0.000 C 
BRANCH  16  17
ATOM     17  C   UNL     1      19.190  23.249  21.357  1.00  0.00     0.000 C 
BRANCH  17  18
ATOM     18  C   UNL     1      20.092  22.017  21.163  1.00  0.00    -0.000 C 
BRANCH  18  19
ATOM     19  C   UNL     1      21.580  22.324  21.398  1.00  0.00    -0.000 C 
BRANCH  19  20
ATOM     20  C   UNL     1      22.510  21.365  20.635  1.00  0.00    -0.000 C 
BRANCH  20  21
ATOM     21  C   UNL     1      22.707  20.020  21.359  1.00  0.00    -0.000 C 
BRANCH  21  22
ATOM     22  C   UNL     1      24.005  19.272  21.003  1.00  0.00    -0.000 C 
BRANCH  22  23
ATOM     23  C   UNL     1      23.862  17.743  21.107  1.00  0.00    -0.000 C 
BRANCH  23  24
ATOM     24  C   UNL     1      22.413  17.305  21.372  1.00  0.00    -0.000 C 
BRANCH  24  25
ATOM     25  C   UNL     1      21.883  16.345  20.297  1.00  0.00    -0.003 C 
ATOM     26  C   UNL     1      23.021  15.798  19.439  1.00  0.00     0.004 C 
ENDBRANCH  24  25
ENDBRANCH  23  24
ENDBRANCH  22  23
ENDBRANCH  21  22
ENDBRANCH  20  21
ENDBRANCH  19  20
ENDBRANCH  18  19
ENDBRANCH  17  18
ENDBRANCH  16  17
ENDBRANCH  15  16
ENDBRANCH   1  15
TORSDOF 22
ENDMDL
MODEL 9
REMARK VINA RESULT:    -3.937      1.064      4.846
REMARK INTER + INTRA:         -12.688
REMARK INTER:                  -9.305
REMARK INTRA:                  -3.383
REMARK UNBOUND:                -3.688
REMARK SMILES CCCCCCCCCCCCCCCCCCCCCCCC(=O)[O-]
REMARK SMILES IDX 13 1 14 2 15 3 16 4 17 5 18 6 19 7 20 8 21 9 22 10 23 11
REMARK SMILES IDX 24 12 25 13 26 14 12 15 11 16 10 17 9 18 8 19 7 20 6 21 5 22
REMARK SMILES IDX 4 23 3 24 2 25 1 26
REMARK H PARENT
REMARK Flexibility Score: inf
ROOT
ATOM      1  C   UNL     1      23.245  19.041  21.372  1.00  0.00     0.000 C 
ENDROOT
BRANCH   1   2
ATOM      2  C   UNL     1      24.501  18.987  20.490  1.00  0.00     0.000 C 
BRANCH   2   3
ATOM      3  C   UNL     1      24.659  17.639  19.769  1.00  0.00     0.000 C 
BRANCH   3   4
ATOM      4  C   UNL     1      23.638  16.591  20.246  1.00  0.00     0.000 C 
BRANCH   4   5
ATOM      5  C   UNL     1      22.800  16.022  19.081  1.00  0.00     0.000 C 
BRANCH   5   6
ATOM      6  C   UNL     1      21.297  15.922  19.395  1.00  0.00     0.000 C 
BRANCH   6   7
ATOM      7  C   UNL     1      20.982  16.145  20.881  1.00  0.00     0.000 C 
BRANCH   7   8
ATOM      8  C   UNL     1      19.964  17.275  21.113  1.00  0.00     0.000 C 
BRANCH   8   9
ATOM      9  C   UNL     1      18.495  16.809  21.034  1.00  0.00     0.000 C 
BRANCH   9  10
ATOM     10  C   UNL     1      17.891  16.550  22.424  1.00  0.00     0.006 C 
BRANCH  10  11
ATOM     11  C   UNL     1      18.455  17.501  23.490  1.00  0.00     0.053 C 
BRANCH  11  12
ATOM     12  C   UNL     1      18.794  16.780  24.757  1.00  0.00     0.041 C 
ATOM     13  O   UNL     1      19.697  17.219  25.517  1.00  0.00    -0.550 OA
ATOM     14  O   UNL     1      18.091  15.635  25.115  1.00  0.00    -0.550 OA
ENDBRANCH  11  12
ENDBRANCH  10  11
ENDBRANCH   9  10
ENDBRANCH   8   9
ENDBRANCH   7   8
ENDBRANCH   6   7
ENDBRANCH   5   6
ENDBRANCH   4   5
ENDBRANCH   3   4
ENDBRANCH   2   3
ENDBRANCH   1   2
BRANCH   1  15
ATOM     15  C   UNL     1      22.862  20.490  21.696  1.00  0.00     0.000 C 
BRANCH  15  16
ATOM     16  C   UNL     1      21.914  21.061  20.630  1.00  0.00     0.000 C 
BRANCH  16  17
ATOM     17  C   UNL     1      22.441  22.361  20.002  1.00  0.00     0.000 C 
BRANCH  17  18
ATOM     18  C   UNL     1      21.661  22.768  18.740  1.00  0.00    -0.000 C 
BRANCH  18  19
ATOM     19  C   UNL     1      21.242  24.247  18.749  1.00  0.00    -0.000 C 
BRANCH  19  20
ATOM     20  C   UNL     1      19.828  24.459  19.316  1.00  0.00    -0.000 C 
BRANCH  20  21
ATOM     21  C   UNL     1      19.816  24.644  20.845  1.00  0.00    -0.000 C 
BRANCH  21  22
ATOM     22  C   UNL     1      19.296  23.435  21.644  1.00  0.00    -0.000 C 
BRANCH  22  23
ATOM     23  C   UNL     1      18.274  22.594  20.858  1.00  0.00    -0.000 C 
BRANCH  23  24
ATOM     24  C   UNL     1      18.419  21.089  21.128  1.00  0.00    -0.000 C 
BRANCH  24  25
ATOM     25  C   UNL     1      18.193  20.241  19.867  1.00  0.00    -0.003 C 
ATOM     26  C   UNL     1      18.526  21.033  18.605  1.00  0.00     0.004 C 
ENDBRANCH  24  25
ENDBRANCH  23  24
ENDBRANCH  22  23
ENDBRANCH  21  22
ENDBRANCH  20  21
ENDBRANCH  19  20
ENDBRANCH  18  19
ENDBRANCH  17  18
ENDBRANCH  16  17
ENDBRANCH  15  16
ENDBRANCH   1  15
TORSDOF 22
ENDMDL
