MODEL 1
REMARK VINA RESULT:    -5.567      0.000      0.000
REMARK INTER + INTRA:          -6.395
REMARK INTER:                  -5.892
REMARK INTRA:                  -0.503
REMARK UNBOUND:                -0.503
REMARK SMILES CC1=CC[C@@]23[C@H]([C@H](C(C)C)CC[C@H]2C)[C@H]13
REMARK SMILES IDX 14 1 13 2 12 3 11 4 7 5 6 6 5 7 15 8 2 9 3 10 4 11 1 12 8 13
REMARK SMILES IDX 9 14 10 15
REMARK H PARENT
REMARK Flexibility Score: inf
ROOT
ATOM      1  C   UNL     1     168.254 169.576 198.543  1.00  0.00     0.008 C 
ATOM      2  C   UNL     1     167.417 169.724 199.817  1.00  0.00    -0.007 C 
ATOM      3  C   UNL     1     168.049 168.923 200.998  1.00  0.00     0.004 C 
ATOM      4  C   UNL     1     167.171 168.899 202.286  1.00  0.00     0.004 C 
ATOM      5  C   UNL     1     165.650 168.690 202.008  1.00  0.00    -0.004 C 
ATOM      6  C   UNL     1     165.275 169.720 200.932  1.00  0.00     0.007 C 
ATOM      7  C   UNL     1     165.973 169.211 199.613  1.00  0.00    -0.013 C 
ATOM      8  C   UNL     1     164.557 169.776 199.619  1.00  0.00     0.025 C 
ATOM      9  C   UNL     1     163.664 168.623 199.323  1.00  0.00    -0.073 C 
ATOM     10  C   UNL     1     164.337 167.517 199.053  1.00  0.00    -0.027 C 
ATOM     11  C   UNL     1     165.805 167.743 199.118  1.00  0.00     0.035 C 
ATOM     12  C   UNL     1     162.170 168.706 199.314  1.00  0.00     0.039 C 
ENDROOT
BRANCH   5  13
ATOM     13  C   UNL     1     164.776 168.820 203.291  1.00  0.00    -0.014 C 
ATOM     14  C   UNL     1     163.424 168.118 203.097  1.00  0.00     0.007 C 
ATOM     15  C   UNL     1     164.542 170.267 203.765  1.00  0.00     0.007 C 
ENDBRANCH   5  13
TORSDOF 1
ENDMDL
MODEL 2
REMARK VINA RESULT:    -5.561      5.361      7.085
REMARK INTER + INTRA:          -6.388
REMARK INTER:                  -5.886
REMARK INTRA:                  -0.503
REMARK UNBOUND:                -0.503
REMARK SMILES CC1=CC[C@@]23[C@H]([C@H](C(C)C)CC[C@H]2C)[C@H]13
REMARK SMILES IDX 14 1 13 2 12 3 11 4 7 5 6 6 5 7 15 8 2 9 3 10 4 11 1 12 8 13
REMARK SMILES IDX 9 14 10 15
REMARK H PARENT
REMARK Flexibility Score: inf
ROOT
ATOM      1  C   UNL     1     163.746 162.422 198.507  1.00  0.00     0.008 C 
ATOM      2  C   UNL     1     164.583 162.273 199.781  1.00  0.00    -0.007 C 
ATOM      3  C   UNL     1     163.953 163.078 200.960  1.00  0.00     0.004 C 
ATOM      4  C   UNL     1     164.831 163.102 202.249  1.00  0.00     0.004 C 
ATOM      5  C   UNL     1     166.352 163.307 201.970  1.00  0.00    -0.004 C 
ATOM      6  C   UNL     1     166.725 162.274 200.896  1.00  0.00     0.007 C 
ATOM      7  C   UNL     1     166.029 162.783 199.577  1.00  0.00    -0.013 C 
ATOM      8  C   UNL     1     167.442 162.215 199.584  1.00  0.00     0.025 C 
ATOM      9  C   UNL     1     168.339 163.364 199.286  1.00  0.00    -0.073 C 
ATOM     10  C   UNL     1     167.669 164.471 199.014  1.00  0.00    -0.027 C 
ATOM     11  C   UNL     1     166.200 164.249 199.079  1.00  0.00     0.035 C 
ATOM     12  C   UNL     1     169.833 163.277 199.278  1.00  0.00     0.039 C 
ENDROOT
BRANCH   5  13
ATOM     13  C   UNL     1     167.225 163.177 203.254  1.00  0.00    -0.014 C 
ATOM     14  C   UNL     1     168.560 163.915 203.076  1.00  0.00     0.007 C 
ATOM     15  C   UNL     1     167.494 161.728 203.705  1.00  0.00     0.007 C 
ENDBRANCH   5  13
TORSDOF 1
ENDMDL
MODEL 3
REMARK VINA RESULT:    -5.424      5.522      7.101
REMARK INTER + INTRA:          -6.244
REMARK INTER:                  -5.885
REMARK INTRA:                  -0.358
REMARK UNBOUND:                -0.503
REMARK SMILES CC1=CC[C@@]23[C@H]([C@H](C(C)C)CC[C@H]2C)[C@H]13
REMARK SMILES IDX 14 1 13 2 12 3 11 4 7 5 6 6 5 7 15 8 2 9 3 10 4 11 1 12 8 13
REMARK SMILES IDX 9 14 10 15
REMARK H PARENT
REMARK Flexibility Score: inf
ROOT
ATOM      1  C   UNL     1     164.810 161.787 196.857  1.00  0.00     0.008 C 
ATOM      2  C   UNL     1     165.071 161.819 198.366  1.00  0.00    -0.007 C 
ATOM      3  C   UNL     1     163.890 162.502 199.124  1.00  0.00     0.004 C 
ATOM      4  C   UNL     1     164.153 162.711 200.647  1.00  0.00     0.004 C 
ATOM      5  C   UNL     1     165.597 163.202 200.974  1.00  0.00    -0.004 C 
ATOM      6  C   UNL     1     166.544 162.247 200.231  1.00  0.00     0.007 C 
ATOM      7  C   UNL     1     166.365 162.595 198.705  1.00  0.00    -0.013 C 
ATOM      8  C   UNL     1     167.730 162.311 199.320  1.00  0.00     0.025 C 
ATOM      9  C   UNL     1     168.458 163.608 199.298  1.00  0.00    -0.073 C 
ATOM     10  C   UNL     1     167.776 164.561 198.686  1.00  0.00    -0.027 C 
ATOM     11  C   UNL     1     166.469 164.061 198.186  1.00  0.00     0.035 C 
ATOM     12  C   UNL     1     169.819 163.811 199.888  1.00  0.00     0.039 C 
ENDROOT
BRANCH   5  13
ATOM     13  C   UNL     1     165.885 163.259 202.504  1.00  0.00    -0.014 C 
ATOM     14  C   UNL     1     166.992 162.263 202.883  1.00  0.00     0.007 C 
ATOM     15  C   UNL     1     164.653 163.024 203.399  1.00  0.00     0.007 C 
ENDBRANCH   5  13
TORSDOF 1
ENDMDL
MODEL 4
REMARK VINA RESULT:    -5.370      3.047      4.721
REMARK INTER + INTRA:          -6.186
REMARK INTER:                  -5.683
REMARK INTRA:                  -0.503
REMARK UNBOUND:                -0.503
REMARK SMILES CC1=CC[C@@]23[C@H]([C@H](C(C)C)CC[C@H]2C)[C@H]13
REMARK SMILES IDX 14 1 13 2 12 3 11 4 7 5 6 6 5 7 15 8 2 9 3 10 4 11 1 12 8 13
REMARK SMILES IDX 9 14 10 15
REMARK H PARENT
REMARK Flexibility Score: inf
ROOT
ATOM      1  C   UNL     1     162.559 168.648 198.798  1.00  0.00     0.008 C 
ATOM      2  C   UNL     1     162.502 167.703 200.003  1.00  0.00    -0.007 C 
ATOM      3  C   UNL     1     163.367 168.249 201.182  1.00  0.00     0.004 C 
ATOM      4  C   UNL     1     163.484 167.265 202.387  1.00  0.00     0.004 C 
ATOM      5  C   UNL     1     163.697 165.778 201.967  1.00  0.00    -0.004 C 
ATOM      6  C   UNL     1     162.607 165.475 200.928  1.00  0.00     0.007 C 
ATOM      7  C   UNL     1     163.023 166.291 199.646  1.00  0.00    -0.013 C 
ATOM      8  C   UNL     1     162.479 164.870 199.565  1.00  0.00     0.025 C 
ATOM      9  C   UNL     1     163.624 164.027 199.124  1.00  0.00    -0.073 C 
ATOM     10  C   UNL     1     164.701 164.742 198.845  1.00  0.00    -0.027 C 
ATOM     11  C   UNL     1     164.459 166.194 199.050  1.00  0.00     0.035 C 
ATOM     12  C   UNL     1     163.561 162.538 198.993  1.00  0.00     0.039 C 
ENDROOT
BRANCH   5  13
ATOM     13  C   UNL     1     163.659 164.797 203.177  1.00  0.00    -0.014 C 
ATOM     14  C   UNL     1     164.252 163.435 202.785  1.00  0.00     0.007 C 
ATOM     15  C   UNL     1     162.264 164.592 203.797  1.00  0.00     0.007 C 
ENDBRANCH   5  13
TORSDOF 1
ENDMDL
MODEL 5
REMARK VINA RESULT:    -5.353      1.532      3.267
REMARK INTER + INTRA:          -6.169
REMARK INTER:                  -5.760
REMARK INTRA:                  -0.409
REMARK UNBOUND:                -0.503
REMARK SMILES CC1=CC[C@@]23[C@H]([C@H](C(C)C)CC[C@H]2C)[C@H]13
REMARK SMILES IDX 14 1 13 2 12 3 11 4 7 5 6 6 5 7 15 8 2 9 3 10 4 11 1 12 8 13
REMARK SMILES IDX 9 14 10 15
REMARK H PARENT
REMARK Flexibility Score: inf
ROOT
ATOM      1  C   UNL     1     166.677 170.000 195.880  1.00  0.00     0.008 C 
ATOM      2  C   UNL     1     167.372 169.807 197.232  1.00  0.00    -0.007 C 
ATOM      3  C   UNL     1     168.401 168.636 197.170  1.00  0.00     0.004 C 
ATOM      4  C   UNL     1     169.035 168.279 198.549  1.00  0.00     0.004 C 
ATOM      5  C   UNL     1     168.016 168.279 199.730  1.00  0.00    -0.004 C 
ATOM      6  C   UNL     1     167.265 169.616 199.637  1.00  0.00     0.007 C 
ATOM      7  C   UNL     1     166.357 169.490 198.355  1.00  0.00    -0.013 C 
ATOM      8  C   UNL     1     165.859 170.128 199.646  1.00  0.00     0.025 C 
ATOM      9  C   UNL     1     164.835 169.193 200.186  1.00  0.00    -0.073 C 
ATOM     10  C   UNL     1     164.596 168.178 199.373  1.00  0.00    -0.027 C 
ATOM     11  C   UNL     1     165.420 168.264 198.138  1.00  0.00     0.035 C 
ATOM     12  C   UNL     1     164.140 169.384 201.498  1.00  0.00     0.039 C 
ENDROOT
BRANCH   5  13
ATOM     13  C   UNL     1     168.695 168.069 201.116  1.00  0.00    -0.014 C 
ATOM     14  C   UNL     1     169.302 166.662 201.213  1.00  0.00     0.007 C 
ATOM     15  C   UNL     1     167.775 168.318 202.327  1.00  0.00     0.007 C 
ENDBRANCH   5  13
TORSDOF 1
ENDMDL
MODEL 6
REMARK VINA RESULT:    -5.336      3.314      4.873
REMARK INTER + INTRA:          -6.150
REMARK INTER:                  -5.646
REMARK INTRA:                  -0.504
REMARK UNBOUND:                -0.503
REMARK SMILES CC1=CC[C@@]23[C@H]([C@H](C(C)C)CC[C@H]2C)[C@H]13
REMARK SMILES IDX 14 1 13 2 12 3 11 4 7 5 6 6 5 7 15 8 2 9 3 10 4 11 1 12 8 13
REMARK SMILES IDX 9 14 10 15
REMARK H PARENT
REMARK Flexibility Score: inf
ROOT
ATOM      1  C   UNL     1     169.406 163.368 198.790  1.00  0.00     0.008 C 
ATOM      2  C   UNL     1     169.456 164.323 199.988  1.00  0.00    -0.007 C 
ATOM      3  C   UNL     1     168.573 163.795 201.161  1.00  0.00     0.004 C 
ATOM      4  C   UNL     1     168.451 164.790 202.355  1.00  0.00     0.004 C 
ATOM      5  C   UNL     1     168.256 166.275 201.920  1.00  0.00    -0.004 C 
ATOM      6  C   UNL     1     169.361 166.560 200.892  1.00  0.00     0.007 C 
ATOM      7  C   UNL     1     168.953 165.736 199.612  1.00  0.00    -0.013 C 
ATOM      8  C   UNL     1     169.510 167.151 199.525  1.00  0.00     0.025 C 
ATOM      9  C   UNL     1     168.379 168.000 199.063  1.00  0.00    -0.073 C 
ATOM     10  C   UNL     1     167.299 167.293 198.778  1.00  0.00    -0.027 C 
ATOM     11  C   UNL     1     167.526 165.840 198.997  1.00  0.00     0.035 C 
ATOM     12  C   UNL     1     168.457 169.488 198.919  1.00  0.00     0.039 C 
ENDROOT
BRANCH   5  13
ATOM     13  C   UNL     1     168.288 167.267 203.122  1.00  0.00    -0.014 C 
ATOM     14  C   UNL     1     167.688 168.622 202.719  1.00  0.00     0.007 C 
ATOM     15  C   UNL     1     169.682 167.484 203.740  1.00  0.00     0.007 C 
ENDBRANCH   5  13
TORSDOF 1
ENDMDL
MODEL 7
REMARK VINA RESULT:    -5.335      4.663      6.420
REMARK INTER + INTRA:          -6.150
REMARK INTER:                  -5.741
REMARK INTRA:                  -0.409
REMARK UNBOUND:                -0.503
REMARK SMILES CC1=CC[C@@]23[C@H]([C@H](C(C)C)CC[C@H]2C)[C@H]13
REMARK SMILES IDX 14 1 13 2 12 3 11 4 7 5 6 6 5 7 15 8 2 9 3 10 4 11 1 12 8 13
REMARK SMILES IDX 9 14 10 15
REMARK H PARENT
REMARK Flexibility Score: inf
ROOT
ATOM      1  C   UNL     1     162.574 164.124 197.193  1.00  0.00     0.008 C 
ATOM      2  C   UNL     1     162.706 163.798 198.684  1.00  0.00    -0.007 C 
ATOM      3  C   UNL     1     162.270 165.012 199.562  1.00  0.00     0.004 C 
ATOM      4  C   UNL     1     162.523 164.812 201.087  1.00  0.00     0.004 C 
ATOM      5  C   UNL     1     163.893 164.143 201.416  1.00  0.00    -0.004 C 
ATOM      6  C   UNL     1     163.972 162.890 200.529  1.00  0.00     0.007 C 
ATOM      7  C   UNL     1     164.161 163.436 199.063  1.00  0.00    -0.013 C 
ATOM      8  C   UNL     1     164.928 162.229 199.587  1.00  0.00     0.025 C 
ATOM      9  C   UNL     1     166.346 162.670 199.692  1.00  0.00    -0.073 C 
ATOM     10  C   UNL     1     166.532 163.892 199.224  1.00  0.00    -0.027 C 
ATOM     11  C   UNL     1     165.264 164.480 198.718  1.00  0.00     0.035 C 
ATOM     12  C   UNL     1     167.445 161.820 200.249  1.00  0.00     0.039 C 
ENDROOT
BRANCH   5  13
ATOM     13  C   UNL     1     164.060 163.815 202.930  1.00  0.00    -0.014 C 
ATOM     14  C   UNL     1     164.153 165.108 203.754  1.00  0.00     0.007 C 
ATOM     15  C   UNL     1     165.257 162.904 203.263  1.00  0.00     0.007 C 
ENDBRANCH   5  13
TORSDOF 1
ENDMDL
MODEL 8
REMARK VINA RESULT:    -5.327      5.122      6.900
REMARK INTER + INTRA:          -6.141
REMARK INTER:                  -5.648
REMARK INTRA:                  -0.493
REMARK UNBOUND:                -0.503
REMARK SMILES CC1=CC[C@@]23[C@H]([C@H](C(C)C)CC[C@H]2C)[C@H]13
REMARK SMILES IDX 14 1 13 2 12 3 11 4 7 5 6 6 5 7 15 8 2 9 3 10 4 11 1 12 8 13
REMARK SMILES IDX 9 14 10 15
REMARK H PARENT
REMARK Flexibility Score: inf
ROOT
ATOM      1  C   UNL     1     167.507 161.968 203.344  1.00  0.00     0.008 C 
ATOM      2  C   UNL     1     167.880 162.600 201.999  1.00  0.00    -0.007 C 
ATOM      3  C   UNL     1     168.212 164.116 202.168  1.00  0.00     0.004 C 
ATOM      4  C   UNL     1     168.449 164.863 200.820  1.00  0.00     0.004 C 
ATOM      5  C   UNL     1     167.444 164.468 199.695  1.00  0.00    -0.004 C 
ATOM      6  C   UNL     1     167.450 162.932 199.647  1.00  0.00     0.007 C 
ATOM      7  C   UNL     1     166.730 162.476 200.973  1.00  0.00    -0.013 C 
ATOM      8  C   UNL     1     166.476 161.796 199.633  1.00  0.00     0.025 C 
ATOM      9  C   UNL     1     165.079 162.149 199.263  1.00  0.00    -0.073 C 
ATOM     10  C   UNL     1     164.461 162.834 200.211  1.00  0.00    -0.027 C 
ATOM     11  C   UNL     1     165.344 163.054 201.386  1.00  0.00     0.035 C 
ATOM     12  C   UNL     1     164.434 161.760 197.969  1.00  0.00     0.039 C 
ENDROOT
BRANCH   5  13
ATOM     13  C   UNL     1     167.792 165.111 198.319  1.00  0.00    -0.014 C 
ATOM     14  C   UNL     1     166.510 165.463 197.549  1.00  0.00     0.007 C 
ATOM     15  C   UNL     1     168.712 164.258 197.425  1.00  0.00     0.007 C 
ENDBRANCH   5  13
TORSDOF 1
ENDMDL
MODEL 9
REMARK VINA RESULT:    -5.298      1.203      4.309
REMARK INTER + INTRA:          -6.111
REMARK INTER:                  -5.648
REMARK INTRA:                  -0.463
REMARK UNBOUND:                -0.503
REMARK SMILES CC1=CC[C@@]23[C@H]([C@H](C(C)C)CC[C@H]2C)[C@H]13
REMARK SMILES IDX 14 1 13 2 12 3 11 4 7 5 6 6 5 7 15 8 2 9 3 10 4 11 1 12 8 13
REMARK SMILES IDX 9 14 10 15
REMARK H PARENT
REMARK Flexibility Score: inf
ROOT
ATOM      1  C   UNL     1     164.609 170.082 203.477  1.00  0.00     0.008 C 
ATOM      2  C   UNL     1     164.170 169.434 202.159  1.00  0.00    -0.007 C 
ATOM      3  C   UNL     1     163.854 167.919 202.360  1.00  0.00     0.004 C 
ATOM      4  C   UNL     1     163.551 167.157 201.033  1.00  0.00     0.004 C 
ATOM      5  C   UNL     1     164.496 167.545 199.854  1.00  0.00    -0.004 C 
ATOM      6  C   UNL     1     164.480 169.080 199.791  1.00  0.00     0.007 C 
ATOM      7  C   UNL     1     165.265 169.552 201.074  1.00  0.00    -0.013 C 
ATOM      8  C   UNL     1     165.448 170.219 199.716  1.00  0.00     0.025 C 
ATOM      9  C   UNL     1     166.826 169.868 199.279  1.00  0.00    -0.073 C 
ATOM     10  C   UNL     1     167.494 169.195 200.200  1.00  0.00    -0.027 C 
ATOM     11  C   UNL     1     166.673 168.984 201.422  1.00  0.00     0.035 C 
ATOM     12  C   UNL     1     167.401 170.246 197.950  1.00  0.00     0.039 C 
ENDROOT
BRANCH   5  13
ATOM     13  C   UNL     1     164.081 166.886 198.504  1.00  0.00    -0.014 C 
ATOM     14  C   UNL     1     165.254 166.095 197.907  1.00  0.00     0.007 C 
ATOM     15  C   UNL     1     163.533 167.868 197.452  1.00  0.00     0.007 C 
ENDBRANCH   5  13
TORSDOF 1
ENDMDL
