MODEL 1
REMARK VINA RESULT:    -4.968      0.000      0.000
REMARK INTER + INTRA:          -5.770
REMARK INTER:                  -5.694
REMARK INTRA:                  -0.076
REMARK UNBOUND:                -0.076
REMARK SMILES COc1cc(C(=O)[O-])ccc1O
REMARK SMILES IDX 5 1 9 2 4 3 10 4 3 5 11 6 6 7 7 8 8 9 2 10 1 11 12 12
REMARK H PARENT 12 13
REMARK Flexibility Score: inf
ROOT
ATOM      1  C   UNL     1     -15.959  44.464  32.090  1.00  0.00     0.001 A 
ATOM      2  C   UNL     1     -16.191  44.432  33.474  1.00  0.00     0.014 A 
ATOM      3  C   UNL     1     -14.634  44.522  31.620  1.00  0.00     0.060 A 
ATOM      4  C   UNL     1     -15.122  44.456  34.371  1.00  0.00     0.051 A 
ATOM      5  C   UNL     1     -13.550  44.547  32.521  1.00  0.00     0.161 A 
ATOM      6  C   UNL     1     -13.806  44.513  33.903  1.00  0.00     0.157 A 
ENDROOT
BRANCH   1   7
ATOM      7  C   UNL     1     -17.096  44.439  31.143  1.00  0.00     0.072 C 
ATOM      8  O   UNL     1     -17.123  45.215  30.151  1.00  0.00    -0.545 OA
ATOM      9  O   UNL     1     -18.153  43.556  31.335  1.00  0.00    -0.545 OA
ENDBRANCH   1   7
BRANCH   5  10
ATOM     10  O   UNL     1     -12.218  44.604  32.081  1.00  0.00    -0.493 OA
ATOM     11  C   UNL     1     -11.817  44.608  30.715  1.00  0.00     0.278 C 
ENDBRANCH   5  10
BRANCH   6  12
ATOM     12  O   UNL     1     -12.764  44.536  34.831  1.00  0.00    -0.504 OA
ATOM     13  H   UNL     1     -12.834  45.034  35.710  1.00  0.00     0.293 HD
ENDBRANCH   6  12
TORSDOF 3
ENDMDL
MODEL 2
REMARK VINA RESULT:    -4.913      2.792      4.230
REMARK INTER + INTRA:          -5.707
REMARK INTER:                  -5.611
REMARK INTRA:                  -0.096
REMARK UNBOUND:                -0.076
REMARK SMILES COc1cc(C(=O)[O-])ccc1O
REMARK SMILES IDX 5 1 9 2 4 3 10 4 3 5 11 6 6 7 7 8 8 9 2 10 1 11 12 12
REMARK H PARENT 12 13
REMARK Flexibility Score: inf
ROOT
ATOM      1  C   UNL     1     -17.383  41.812  32.226  1.00  0.00     0.001 A 
ATOM      2  C   UNL     1     -18.491  42.663  32.360  1.00  0.00     0.014 A 
ATOM      3  C   UNL     1     -16.279  42.241  31.467  1.00  0.00     0.060 A 
ATOM      4  C   UNL     1     -18.496  43.918  31.749  1.00  0.00     0.051 A 
ATOM      5  C   UNL     1     -16.279  43.506  30.846  1.00  0.00     0.161 A 
ATOM      6  C   UNL     1     -17.399  44.344  30.995  1.00  0.00     0.157 A 
ENDROOT
BRANCH   1   7
ATOM      7  C   UNL     1     -17.382  40.482  32.876  1.00  0.00     0.072 C 
ATOM      8  O   UNL     1     -17.566  39.436  32.198  1.00  0.00    -0.545 OA
ATOM      9  O   UNL     1     -17.178  40.368  34.246  1.00  0.00    -0.545 OA
ENDBRANCH   1   7
BRANCH   5  10
ATOM     10  O   UNL     1     -15.192  43.961  30.082  1.00  0.00    -0.493 OA
ATOM     11  C   UNL     1     -13.983  44.483  30.626  1.00  0.00     0.278 C 
ENDBRANCH   5  10
BRANCH   6  12
ATOM     12  O   UNL     1     -17.442  45.604  30.398  1.00  0.00    -0.504 OA
ATOM     13  H   UNL     1     -17.643  46.445  30.927  1.00  0.00     0.293 HD
ENDBRANCH   6  12
TORSDOF 3
ENDMDL
MODEL 3
REMARK VINA RESULT:    -4.864      3.057      4.425
REMARK INTER + INTRA:          -5.652
REMARK INTER:                  -5.557
REMARK INTRA:                  -0.094
REMARK UNBOUND:                -0.076
REMARK SMILES COc1cc(C(=O)[O-])ccc1O
REMARK SMILES IDX 5 1 9 2 4 3 10 4 3 5 11 6 6 7 7 8 8 9 2 10 1 11 12 12
REMARK H PARENT 12 13
REMARK Flexibility Score: inf
ROOT
ATOM      1  C   UNL     1     -16.530  43.314  31.829  1.00  0.00     0.001 A 
ATOM      2  C   UNL     1     -16.459  43.431  33.225  1.00  0.00     0.014 A 
ATOM      3  C   UNL     1     -16.924  42.087  31.265  1.00  0.00     0.060 A 
ATOM      4  C   UNL     1     -16.776  42.345  34.043  1.00  0.00     0.051 A 
ATOM      5  C   UNL     1     -17.244  40.987  32.085  1.00  0.00     0.161 A 
ATOM      6  C   UNL     1     -17.167  41.126  33.482  1.00  0.00     0.157 A 
ENDROOT
BRANCH   1   7
ATOM      7  C   UNL     1     -16.192  44.469  30.966  1.00  0.00     0.072 C 
ATOM      8  O   UNL     1     -14.990  44.779  30.751  1.00  0.00    -0.545 OA
ATOM      9  O   UNL     1     -17.199  45.227  30.379  1.00  0.00    -0.545 OA
ENDBRANCH   1   7
BRANCH   5  10
ATOM     10  O   UNL     1     -17.641  39.750  31.550  1.00  0.00    -0.493 OA
ATOM     11  C   UNL     1     -16.770  38.839  30.887  1.00  0.00     0.278 C 
ENDBRANCH   5  10
BRANCH   6  12
ATOM     12  O   UNL     1     -17.475  40.064  34.332  1.00  0.00    -0.504 OA
ATOM     13  H   UNL     1     -16.759  39.495  34.767  1.00  0.00     0.293 HD
ENDBRANCH   6  12
TORSDOF 3
ENDMDL
MODEL 4
REMARK VINA RESULT:    -4.825      1.815      1.993
REMARK INTER + INTRA:          -5.606
REMARK INTER:                  -5.527
REMARK INTRA:                  -0.080
REMARK UNBOUND:                -0.076
REMARK SMILES COc1cc(C(=O)[O-])ccc1O
REMARK SMILES IDX 5 1 9 2 4 3 10 4 3 5 11 6 6 7 7 8 8 9 2 10 1 11 12 12
REMARK H PARENT 12 13
REMARK Flexibility Score: inf
ROOT
ATOM      1  C   UNL     1     -16.282  43.216  32.607  1.00  0.00     0.001 A 
ATOM      2  C   UNL     1     -16.367  44.297  33.498  1.00  0.00     0.014 A 
ATOM      3  C   UNL     1     -15.056  42.540  32.466  1.00  0.00     0.060 A 
ATOM      4  C   UNL     1     -15.250  44.695  34.235  1.00  0.00     0.051 A 
ATOM      5  C   UNL     1     -13.925  42.938  33.207  1.00  0.00     0.161 A 
ATOM      6  C   UNL     1     -14.032  44.024  34.094  1.00  0.00     0.157 A 
ENDROOT
BRANCH   1   7
ATOM      7  C   UNL     1     -17.469  42.798  31.828  1.00  0.00     0.072 C 
ATOM      8  O   UNL     1     -17.543  41.637  31.344  1.00  0.00    -0.545 OA
ATOM      9  O   UNL     1     -18.523  43.681  31.622  1.00  0.00    -0.545 OA
ENDBRANCH   1   7
BRANCH   5  10
ATOM     10  O   UNL     1     -12.688  42.283  33.087  1.00  0.00    -0.493 OA
ATOM     11  C   UNL     1     -12.359  41.360  32.054  1.00  0.00     0.278 C 
ENDBRANCH   5  10
BRANCH   6  12
ATOM     12  O   UNL     1     -12.938  44.452  34.847  1.00  0.00    -0.504 OA
ATOM     13  H   UNL     1     -13.040  44.825  35.783  1.00  0.00     0.293 HD
ENDBRANCH   6  12
TORSDOF 3
ENDMDL
MODEL 5
REMARK VINA RESULT:    -4.796      1.591      4.398
REMARK INTER + INTRA:          -5.573
REMARK INTER:                  -5.481
REMARK INTRA:                  -0.091
REMARK UNBOUND:                -0.076
REMARK SMILES COc1cc(C(=O)[O-])ccc1O
REMARK SMILES IDX 5 1 9 2 4 3 10 4 3 5 11 6 6 7 7 8 8 9 2 10 1 11 12 12
REMARK H PARENT 12 13
REMARK Flexibility Score: inf
ROOT
ATOM      1  C   UNL     1     -15.283  43.754  33.073  1.00  0.00     0.001 A 
ATOM      2  C   UNL     1     -16.365  43.243  33.806  1.00  0.00     0.014 A 
ATOM      3  C   UNL     1     -15.534  44.422  31.860  1.00  0.00     0.060 A 
ATOM      4  C   UNL     1     -17.671  43.395  33.338  1.00  0.00     0.051 A 
ATOM      5  C   UNL     1     -16.850  44.577  31.382  1.00  0.00     0.161 A 
ATOM      6  C   UNL     1     -17.920  44.057  32.133  1.00  0.00     0.157 A 
ENDROOT
BRANCH   1   7
ATOM      7  C   UNL     1     -13.900  43.590  33.573  1.00  0.00     0.072 C 
ATOM      8  O   UNL     1     -13.399  44.433  34.365  1.00  0.00    -0.545 OA
ATOM      9  O   UNL     1     -13.133  42.500  33.177  1.00  0.00    -0.545 OA
ENDBRANCH   1   7
BRANCH   5  10
ATOM     10  O   UNL     1     -17.131  45.239  30.175  1.00  0.00    -0.493 OA
ATOM     11  C   UNL     1     -16.754  44.764  28.886  1.00  0.00     0.278 C 
ENDBRANCH   5  10
BRANCH   6  12
ATOM     12  O   UNL     1     -19.239  44.189  31.698  1.00  0.00    -0.504 OA
ATOM     13  H   UNL     1     -20.023  44.162  32.338  1.00  0.00     0.293 HD
ENDBRANCH   6  12
TORSDOF 3
ENDMDL
MODEL 6
REMARK VINA RESULT:    -4.754      1.607      4.785
REMARK INTER + INTRA:          -5.525
REMARK INTER:                  -5.430
REMARK INTRA:                  -0.096
REMARK UNBOUND:                -0.076
REMARK SMILES COc1cc(C(=O)[O-])ccc1O
REMARK SMILES IDX 5 1 9 2 4 3 10 4 3 5 11 6 6 7 7 8 8 9 2 10 1 11 12 12
REMARK H PARENT 12 13
REMARK Flexibility Score: inf
ROOT
ATOM      1  C   UNL     1     -14.768  44.385  31.272  1.00  0.00     0.001 A 
ATOM      2  C   UNL     1     -15.525  44.822  30.174  1.00  0.00     0.014 A 
ATOM      3  C   UNL     1     -15.430  43.813  32.374  1.00  0.00     0.060 A 
ATOM      4  C   UNL     1     -16.915  44.691  30.176  1.00  0.00     0.051 A 
ATOM      5  C   UNL     1     -16.833  43.678  32.382  1.00  0.00     0.161 A 
ATOM      6  C   UNL     1     -17.571  44.123  31.271  1.00  0.00     0.157 A 
ENDROOT
BRANCH   1   7
ATOM      7  C   UNL     1     -13.295  44.527  31.266  1.00  0.00     0.072 C 
ATOM      8  O   UNL     1     -12.666  44.745  32.335  1.00  0.00    -0.545 OA
ATOM      9  O   UNL     1     -12.583  44.420  30.076  1.00  0.00    -0.545 OA
ENDBRANCH   1   7
BRANCH   5  10
ATOM     10  O   UNL     1     -17.520  43.111  33.468  1.00  0.00    -0.493 OA
ATOM     11  C   UNL     1     -17.391  41.758  33.889  1.00  0.00     0.278 C 
ENDBRANCH   5  10
BRANCH   6  12
ATOM     12  O   UNL     1     -18.962  44.009  31.236  1.00  0.00    -0.504 OA
ATOM     13  H   UNL     1     -19.434  43.353  30.625  1.00  0.00     0.293 HD
ENDBRANCH   6  12
TORSDOF 3
ENDMDL
MODEL 7
REMARK VINA RESULT:    -4.663      2.048      3.412
REMARK INTER + INTRA:          -5.421
REMARK INTER:                  -5.347
REMARK INTRA:                  -0.073
REMARK UNBOUND:                -0.076
REMARK SMILES COc1cc(C(=O)[O-])ccc1O
REMARK SMILES IDX 5 1 9 2 4 3 10 4 3 5 11 6 6 7 7 8 8 9 2 10 1 11 12 12
REMARK H PARENT 12 13
REMARK Flexibility Score: inf
ROOT
ATOM      1  C   UNL     1     -17.829  43.980  32.672  1.00  0.00     0.001 A 
ATOM      2  C   UNL     1     -17.901  43.882  31.274  1.00  0.00     0.014 A 
ATOM      3  C   UNL     1     -16.606  44.336  33.271  1.00  0.00     0.060 A 
ATOM      4  C   UNL     1     -16.775  44.136  30.489  1.00  0.00     0.051 A 
ATOM      5  C   UNL     1     -15.466  44.592  32.483  1.00  0.00     0.161 A 
ATOM      6  C   UNL     1     -15.561  44.489  31.084  1.00  0.00     0.157 A 
ENDROOT
BRANCH   1   7
ATOM      7  C   UNL     1     -19.025  43.709  33.501  1.00  0.00     0.072 C 
ATOM      8  O   UNL     1     -19.742  44.656  33.922  1.00  0.00    -0.545 OA
ATOM      9  O   UNL     1     -19.376  42.404  33.825  1.00  0.00    -0.545 OA
ENDBRANCH   1   7
BRANCH   5  10
ATOM     10  O   UNL     1     -14.233  44.950  33.052  1.00  0.00    -0.493 OA
ATOM     11  C   UNL     1     -14.060  45.397  34.393  1.00  0.00     0.278 C 
ENDBRANCH   5  10
BRANCH   6  12
ATOM     12  O   UNL     1     -14.458  44.734  30.265  1.00  0.00    -0.504 OA
ATOM     13  H   UNL     1     -14.108  45.670  30.098  1.00  0.00     0.293 HD
ENDBRANCH   6  12
TORSDOF 3
ENDMDL
MODEL 8
REMARK VINA RESULT:    -4.651      1.444      4.948
REMARK INTER + INTRA:          -5.407
REMARK INTER:                  -5.334
REMARK INTRA:                  -0.073
REMARK UNBOUND:                -0.076
REMARK SMILES COc1cc(C(=O)[O-])ccc1O
REMARK SMILES IDX 5 1 9 2 4 3 10 4 3 5 11 6 6 7 7 8 8 9 2 10 1 11 12 12
REMARK H PARENT 12 13
REMARK Flexibility Score: inf
ROOT
ATOM      1  C   UNL     1     -14.640  43.885  32.299  1.00  0.00     0.001 A 
ATOM      2  C   UNL     1     -14.156  44.417  31.093  1.00  0.00     0.014 A 
ATOM      3  C   UNL     1     -16.029  43.833  32.515  1.00  0.00     0.060 A 
ATOM      4  C   UNL     1     -15.042  44.886  30.122  1.00  0.00     0.051 A 
ATOM      5  C   UNL     1     -16.928  44.306  31.539  1.00  0.00     0.161 A 
ATOM      6  C   UNL     1     -16.422  44.834  30.337  1.00  0.00     0.157 A 
ENDROOT
BRANCH   1   7
ATOM      7  C   UNL     1     -13.695  43.389  33.326  1.00  0.00     0.072 C 
ATOM      8  O   UNL     1     -13.046  42.326  33.140  1.00  0.00    -0.545 OA
ATOM      9  O   UNL     1     -13.511  44.093  34.510  1.00  0.00    -0.545 OA
ENDBRANCH   1   7
BRANCH   5  10
ATOM     10  O   UNL     1     -18.320  44.266  31.727  1.00  0.00    -0.493 OA
ATOM     11  C   UNL     1     -18.964  43.763  32.892  1.00  0.00     0.278 C 
ENDBRANCH   5  10
BRANCH   6  12
ATOM     12  O   UNL     1     -17.276  45.313  29.343  1.00  0.00    -0.504 OA
ATOM     13  H   UNL     1     -17.337  46.298  29.113  1.00  0.00     0.293 HD
ENDBRANCH   6  12
TORSDOF 3
ENDMDL
MODEL 9
REMARK VINA RESULT:    -4.480      1.928      2.787
REMARK INTER + INTRA:          -5.211
REMARK INTER:                  -5.135
REMARK INTRA:                  -0.076
REMARK UNBOUND:                -0.076
REMARK SMILES COc1cc(C(=O)[O-])ccc1O
REMARK SMILES IDX 5 1 9 2 4 3 10 4 3 5 11 6 6 7 7 8 8 9 2 10 1 11 12 12
REMARK H PARENT 12 13
REMARK Flexibility Score: inf
ROOT
ATOM      1  C   UNL     1     -16.850  43.394  33.071  1.00  0.00     0.001 A 
ATOM      2  C   UNL     1     -16.129  42.268  32.646  1.00  0.00     0.014 A 
ATOM      3  C   UNL     1     -16.153  44.485  33.622  1.00  0.00     0.060 A 
ATOM      4  C   UNL     1     -14.738  42.232  32.767  1.00  0.00     0.051 A 
ATOM      5  C   UNL     1     -14.750  44.454  33.747  1.00  0.00     0.161 A 
ATOM      6  C   UNL     1     -14.047  43.316  33.314  1.00  0.00     0.157 A 
ENDROOT
BRANCH   1   7
ATOM      7  C   UNL     1     -18.325  43.426  32.941  1.00  0.00     0.072 C 
ATOM      8  O   UNL     1     -18.867  43.915  31.915  1.00  0.00    -0.545 OA
ATOM      9  O   UNL     1     -19.132  42.915  33.951  1.00  0.00    -0.545 OA
ENDBRANCH   1   7
BRANCH   5  10
ATOM     10  O   UNL     1     -14.028  45.529  34.292  1.00  0.00    -0.493 OA
ATOM     11  C   UNL     1     -14.504  46.380  35.330  1.00  0.00     0.278 C 
ENDBRANCH   5  10
BRANCH   6  12
ATOM     12  O   UNL     1     -12.657  43.243  33.419  1.00  0.00    -0.504 OA
ATOM     13  H   UNL     1     -12.110  43.973  33.860  1.00  0.00     0.293 HD
ENDBRANCH   6  12
TORSDOF 3
ENDMDL
