MODEL 1
REMARK VINA RESULT:    -4.198      0.000      0.000
REMARK INTER + INTRA:          -4.320
REMARK INTER:                  -4.320
REMARK INTRA:                   0.000
REMARK UNBOUND:                 0.000
REMARK SMILES Nc1ncnc2nc[nH]c12
REMARK SMILES IDX 8 1 7 2 6 3 5 4 4 5 3 6 2 7 10 8 9 9 1 11
REMARK H PARENT 9 10 1 12 1 13
REMARK Flexibility Score: inf
ROOT
ATOM      1  C   UNL     1       2.546 -27.026  -4.275  1.00  0.00     0.199 A 
ATOM      2  N   UNL     1       3.300 -27.419  -5.337  1.00  0.00    -0.217 NA
ATOM      3  C   UNL     1       4.107 -28.342  -4.788  1.00  0.00     0.182 A 
ATOM      4  N   UNL     1       5.067 -29.056  -5.423  1.00  0.00    -0.215 NA
ATOM      5  C   UNL     1       5.792 -29.955  -4.691  1.00  0.00     0.226 A 
ATOM      6  N   UNL     1       5.547 -30.123  -3.352  1.00  0.00    -0.217 NA
ATOM      7  C   UNL     1       4.578 -29.403  -2.710  1.00  0.00     0.152 A 
ATOM      8  C   UNL     1       3.849 -28.492  -3.469  1.00  0.00     0.127 A 
ATOM      9  N   UNL     1       2.858 -27.663  -3.118  1.00  0.00    -0.340 N 
ATOM     10  H   UNL     1       2.418 -27.530  -2.180  1.00  0.00     0.168 HD
ENDROOT
BRANCH   7  11
ATOM     11  N   UNL     1       4.340 -29.595  -1.315  1.00  0.00    -0.382 N 
ATOM     12  H   UNL     1       3.967 -30.506  -0.969  1.00  0.00     0.158 HD
ATOM     13  H   UNL     1       4.531 -28.838  -0.622  1.00  0.00     0.158 HD
ENDBRANCH   7  11
TORSDOF 1
ENDMDL
MODEL 2
REMARK VINA RESULT:    -4.084      1.224      3.060
REMARK INTER + INTRA:          -4.204
REMARK INTER:                  -4.204
REMARK INTRA:                   0.000
REMARK UNBOUND:                 0.000
REMARK SMILES Nc1ncnc2nc[nH]c12
REMARK SMILES IDX 8 1 7 2 6 3 5 4 4 5 3 6 2 7 10 8 9 9 1 11
REMARK H PARENT 9 10 1 12 1 13
REMARK Flexibility Score: inf
ROOT
ATOM      1  C   UNL     1       6.205 -31.053  -3.948  1.00  0.00     0.199 A 
ATOM      2  N   UNL     1       5.674 -30.788  -5.173  1.00  0.00    -0.217 NA
ATOM      3  C   UNL     1       4.686 -29.927  -4.876  1.00  0.00     0.182 A 
ATOM      4  N   UNL     1       3.833 -29.344  -5.751  1.00  0.00    -0.215 NA
ATOM      5  C   UNL     1       2.886 -28.490  -5.257  1.00  0.00     0.226 A 
ATOM      6  N   UNL     1       2.811 -28.237  -3.911  1.00  0.00    -0.217 NA
ATOM      7  C   UNL     1       3.672 -28.824  -3.026  1.00  0.00     0.152 A 
ATOM      8  C   UNL     1       4.630 -29.691  -3.545  1.00  0.00     0.127 A 
ATOM      9  N   UNL     1       5.587 -30.398  -2.932  1.00  0.00    -0.340 N 
ATOM     10  H   UNL     1       5.816 -30.443  -1.914  1.00  0.00     0.168 HD
ENDROOT
BRANCH   7  11
ATOM     11  N   UNL     1       3.575 -28.546  -1.629  1.00  0.00    -0.382 N 
ATOM     12  H   UNL     1       3.760 -29.300  -0.932  1.00  0.00     0.158 HD
ATOM     13  H   UNL     1       3.321 -27.595  -1.280  1.00  0.00     0.158 HD
ENDBRANCH   7  11
TORSDOF 1
ENDMDL
MODEL 3
REMARK VINA RESULT:    -4.066      8.573      9.942
REMARK INTER + INTRA:          -4.185
REMARK INTER:                  -4.185
REMARK INTRA:                   0.000
REMARK UNBOUND:                 0.000
REMARK SMILES Nc1ncnc2nc[nH]c12
REMARK SMILES IDX 8 1 7 2 6 3 5 4 4 5 3 6 2 7 10 8 9 9 1 11
REMARK H PARENT 9 10 1 12 1 13
REMARK Flexibility Score: inf
ROOT
ATOM      1  C   UNL     1       4.998 -20.662   1.315  1.00  0.00     0.199 A 
ATOM      2  N   UNL     1       4.543 -19.428   0.966  1.00  0.00    -0.217 NA
ATOM      3  C   UNL     1       3.266 -19.678   0.632  1.00  0.00     0.182 A 
ATOM      4  N   UNL     1       2.351 -18.775   0.205  1.00  0.00    -0.215 NA
ATOM      5  C   UNL     1       1.093 -19.223  -0.090  1.00  0.00     0.226 A 
ATOM      6  N   UNL     1       0.776 -20.550   0.045  1.00  0.00    -0.217 NA
ATOM      7  C   UNL     1       1.698 -21.463   0.476  1.00  0.00     0.152 A 
ATOM      8  C   UNL     1       2.974 -20.991   0.773  1.00  0.00     0.127 A 
ATOM      9  N   UNL     1       4.062 -21.640   1.207  1.00  0.00    -0.340 N 
ATOM     10  H   UNL     1       4.177 -22.656   1.417  1.00  0.00     0.168 HD
ENDROOT
BRANCH   7  11
ATOM     11  N   UNL     1       1.346 -22.840   0.610  1.00  0.00    -0.382 N 
ATOM     12  H   UNL     1       1.856 -23.565   0.060  1.00  0.00     0.158 HD
ATOM     13  H   UNL     1       0.581 -23.146   1.252  1.00  0.00     0.158 HD
ENDBRANCH   7  11
TORSDOF 1
ENDMDL
MODEL 4
REMARK VINA RESULT:    -4.018     21.916     23.317
REMARK INTER + INTRA:          -4.135
REMARK INTER:                  -4.135
REMARK INTRA:                   0.000
REMARK UNBOUND:                 0.000
REMARK SMILES Nc1ncnc2nc[nH]c12
REMARK SMILES IDX 8 1 7 2 6 3 5 4 4 5 3 6 2 7 10 8 9 9 1 11
REMARK H PARENT 9 10 1 12 1 13
REMARK Flexibility Score: inf
ROOT
ATOM      1  C   UNL     1      -6.100 -11.661  11.086  1.00  0.00     0.199 A 
ATOM      2  N   UNL     1      -5.349 -11.249  10.028  1.00  0.00    -0.217 NA
ATOM      3  C   UNL     1      -5.854 -11.977   9.019  1.00  0.00     0.182 A 
ATOM      4  N   UNL     1      -5.455 -11.950   7.724  1.00  0.00    -0.215 NA
ATOM      5  C   UNL     1      -6.094 -12.770   6.836  1.00  0.00     0.226 A 
ATOM      6  N   UNL     1      -7.108 -13.594   7.252  1.00  0.00    -0.217 NA
ATOM      7  C   UNL     1      -7.512 -13.623   8.558  1.00  0.00     0.152 A 
ATOM      8  C   UNL     1      -6.853 -12.782   9.450  1.00  0.00     0.127 A 
ATOM      9  N   UNL     1      -7.028 -12.599  10.765  1.00  0.00    -0.340 N 
ATOM     10  H   UNL     1      -7.712 -13.061  11.403  1.00  0.00     0.168 HD
ENDROOT
BRANCH   7  11
ATOM     11  N   UNL     1      -8.570 -14.488   8.968  1.00  0.00    -0.382 N 
ATOM     12  H   UNL     1      -8.694 -14.719   9.979  1.00  0.00     0.158 HD
ATOM     13  H   UNL     1      -9.235 -14.901   8.277  1.00  0.00     0.158 HD
ENDBRANCH   7  11
TORSDOF 1
ENDMDL
MODEL 5
REMARK VINA RESULT:    -3.986     22.426     23.239
REMARK INTER + INTRA:          -4.103
REMARK INTER:                  -4.103
REMARK INTRA:                   0.000
REMARK UNBOUND:                 0.000
REMARK SMILES Nc1ncnc2nc[nH]c12
REMARK SMILES IDX 8 1 7 2 6 3 5 4 4 5 3 6 2 7 10 8 9 9 1 11
REMARK H PARENT 9 10 1 12 1 13
REMARK Flexibility Score: inf
ROOT
ATOM      1  C   UNL     1      -8.237 -14.301   9.185  1.00  0.00     0.199 A 
ATOM      2  N   UNL     1      -7.857 -14.069   7.899  1.00  0.00    -0.217 NA
ATOM      3  C   UNL     1      -6.928 -13.110   8.043  1.00  0.00     0.182 A 
ATOM      4  N   UNL     1      -6.222 -12.512   7.054  1.00  0.00    -0.215 NA
ATOM      5  C   UNL     1      -5.315 -11.550   7.400  1.00  0.00     0.226 A 
ATOM      6  N   UNL     1      -5.131 -11.206   8.715  1.00  0.00    -0.217 NA
ATOM      7  C   UNL     1      -5.842 -11.808   9.715  1.00  0.00     0.152 A 
ATOM      8  C   UNL     1      -6.762 -12.786   9.346  1.00  0.00     0.127 A 
ATOM      9  N   UNL     1      -7.585 -13.532  10.094  1.00  0.00    -0.340 N 
ATOM     10  H   UNL     1      -7.707 -13.532  11.130  1.00  0.00     0.168 HD
ENDROOT
BRANCH   7  11
ATOM     11  N   UNL     1      -5.633 -11.434  11.077  1.00  0.00    -0.382 N 
ATOM     12  H   UNL     1      -5.125 -10.552  11.304  1.00  0.00     0.158 HD
ATOM     13  H   UNL     1      -5.981 -12.026  11.863  1.00  0.00     0.158 HD
ENDBRANCH   7  11
TORSDOF 1
ENDMDL
MODEL 6
REMARK VINA RESULT:    -3.975     20.642     22.319
REMARK INTER + INTRA:          -4.092
REMARK INTER:                  -4.092
REMARK INTRA:                   0.000
REMARK UNBOUND:                 0.000
REMARK SMILES Nc1ncnc2nc[nH]c12
REMARK SMILES IDX 8 1 7 2 6 3 5 4 4 5 3 6 2 7 10 8 9 9 1 11
REMARK H PARENT 9 10 1 12 1 13
REMARK Flexibility Score: inf
ROOT
ATOM      1  C   UNL     1      -5.377 -11.627   7.698  1.00  0.00     0.199 A 
ATOM      2  N   UNL     1      -6.110 -11.787   8.834  1.00  0.00    -0.217 NA
ATOM      3  C   UNL     1      -6.831 -12.886   8.556  1.00  0.00     0.182 A 
ATOM      4  N   UNL     1      -7.736 -13.485   9.367  1.00  0.00    -0.215 NA
ATOM      5  C   UNL     1      -8.374 -14.602   8.906  1.00  0.00     0.226 A 
ATOM      6  N   UNL     1      -8.099 -15.096   7.656  1.00  0.00    -0.217 NA
ATOM      7  C   UNL     1      -7.185 -14.494   6.837  1.00  0.00     0.152 A 
ATOM      8  C   UNL     1      -6.544 -13.357   7.321  1.00  0.00     0.127 A 
ATOM      9  N   UNL     1      -5.621 -12.571   6.754  1.00  0.00    -0.340 N 
ATOM     10  H   UNL     1      -5.182 -12.653   5.810  1.00  0.00     0.168 HD
ENDROOT
BRANCH   7  11
ATOM     11  N   UNL     1      -6.915 -15.026   5.540  1.00  0.00    -0.382 N 
ATOM     12  H   UNL     1      -5.994 -15.477   5.342  1.00  0.00     0.158 HD
ATOM     13  H   UNL     1      -7.621 -14.977   4.773  1.00  0.00     0.158 HD
ENDBRANCH   7  11
TORSDOF 1
ENDMDL
MODEL 7
REMARK VINA RESULT:    -3.945      1.243      1.326
REMARK INTER + INTRA:          -4.060
REMARK INTER:                  -4.060
REMARK INTRA:                   0.000
REMARK UNBOUND:                 0.000
REMARK SMILES Nc1ncnc2nc[nH]c12
REMARK SMILES IDX 8 1 7 2 6 3 5 4 4 5 3 6 2 7 10 8 9 9 1 11
REMARK H PARENT 9 10 1 12 1 13
REMARK Flexibility Score: inf
ROOT
ATOM      1  C   UNL     1       1.851 -26.150  -4.811  1.00  0.00     0.199 A 
ATOM      2  N   UNL     1       2.336 -26.843  -5.878  1.00  0.00    -0.217 NA
ATOM      3  C   UNL     1       3.034 -27.826  -5.286  1.00  0.00     0.182 A 
ATOM      4  N   UNL     1       3.727 -28.811  -5.906  1.00  0.00    -0.215 NA
ATOM      5  C   UNL     1       4.378 -29.729  -5.130  1.00  0.00     0.226 A 
ATOM      6  N   UNL     1       4.326 -29.646  -3.761  1.00  0.00    -0.217 NA
ATOM      7  C   UNL     1       3.627 -28.653  -3.134  1.00  0.00     0.152 A 
ATOM      8  C   UNL     1       2.968 -27.727  -3.939  1.00  0.00     0.127 A 
ATOM      9  N   UNL     1       2.221 -26.666  -3.611  1.00  0.00    -0.340 N 
ATOM     10  H   UNL     1       1.972 -26.309  -2.662  1.00  0.00     0.168 HD
ENDROOT
BRANCH   7  11
ATOM     11  N   UNL     1       3.586 -28.587  -1.708  1.00  0.00    -0.382 N 
ATOM     12  H   UNL     1       4.059 -29.322  -1.138  1.00  0.00     0.158 HD
ATOM     13  H   UNL     1       3.091 -27.812  -1.213  1.00  0.00     0.158 HD
ENDBRANCH   7  11
TORSDOF 1
ENDMDL
MODEL 8
REMARK VINA RESULT:    -3.899      8.799      9.591
REMARK INTER + INTRA:          -4.013
REMARK INTER:                  -4.013
REMARK INTRA:                   0.000
REMARK UNBOUND:                 0.000
REMARK SMILES Nc1ncnc2nc[nH]c12
REMARK SMILES IDX 8 1 7 2 6 3 5 4 4 5 3 6 2 7 10 8 9 9 1 11
REMARK H PARENT 9 10 1 12 1 13
REMARK Flexibility Score: inf
ROOT
ATOM      1  C   UNL     1       1.094 -21.403   0.261  1.00  0.00     0.199 A 
ATOM      2  N   UNL     1       1.285 -20.118  -0.144  1.00  0.00    -0.217 NA
ATOM      3  C   UNL     1       2.580 -19.915   0.151  1.00  0.00     0.182 A 
ATOM      4  N   UNL     1       3.288 -18.778  -0.055  1.00  0.00    -0.215 NA
ATOM      5  C   UNL     1       4.604 -18.763   0.314  1.00  0.00     0.226 A 
ATOM      6  N   UNL     1       5.184 -19.872   0.876  1.00  0.00    -0.217 NA
ATOM      7  C   UNL     1       4.471 -21.020   1.084  1.00  0.00     0.152 A 
ATOM      8  C   UNL     1       3.132 -21.020   0.703  1.00  0.00     0.127 A 
ATOM      9  N   UNL     1       2.204 -21.982   0.784  1.00  0.00    -0.340 N 
ATOM     10  H   UNL     1       2.300 -22.952   1.158  1.00  0.00     0.168 HD
ENDROOT
BRANCH   7  11
ATOM     11  N   UNL     1       5.095 -22.162   1.671  1.00  0.00    -0.382 N 
ATOM     12  H   UNL     1       4.531 -23.014   1.883  1.00  0.00     0.158 HD
ATOM     13  H   UNL     1       6.115 -22.170   1.895  1.00  0.00     0.158 HD
ENDBRANCH   7  11
TORSDOF 1
ENDMDL
MODEL 9
REMARK VINA RESULT:    -3.872     22.434     22.584
REMARK INTER + INTRA:          -3.985
REMARK INTER:                  -3.985
REMARK INTRA:                   0.000
REMARK UNBOUND:                 0.000
REMARK SMILES Nc1ncnc2nc[nH]c12
REMARK SMILES IDX 8 1 7 2 6 3 5 4 4 5 3 6 2 7 10 8 9 9 1 11
REMARK H PARENT 9 10 1 12 1 13
REMARK Flexibility Score: inf
ROOT
ATOM      1  C   UNL     1      -5.157 -11.919   8.125  1.00  0.00     0.199 A 
ATOM      2  N   UNL     1      -5.774 -11.694   6.933  1.00  0.00    -0.217 NA
ATOM      3  C   UNL     1      -6.836 -12.514   7.001  1.00  0.00     0.182 A 
ATOM      4  N   UNL     1      -7.792 -12.679   6.056  1.00  0.00    -0.215 NA
ATOM      5  C   UNL     1      -8.801 -13.565   6.308  1.00  0.00     0.226 A 
ATOM      6  N   UNL     1      -8.837 -14.265   7.487  1.00  0.00    -0.217 NA
ATOM      7  C   UNL     1      -7.873 -14.099   8.443  1.00  0.00     0.152 A 
ATOM      8  C   UNL     1      -6.852 -13.192   8.171  1.00  0.00     0.127 A 
ATOM      9  N   UNL     1      -5.792 -12.831   8.904  1.00  0.00    -0.340 N 
ATOM     10  H   UNL     1      -5.509 -13.163   9.853  1.00  0.00     0.168 HD
ENDROOT
BRANCH   7  11
ATOM     11  N   UNL     1      -7.931 -14.837   9.663  1.00  0.00    -0.382 N 
ATOM     12  H   UNL     1      -8.736 -15.474   9.851  1.00  0.00     0.158 HD
ATOM     13  H   UNL     1      -7.179 -14.757  10.383  1.00  0.00     0.158 HD
ENDBRANCH   7  11
TORSDOF 1
ENDMDL
