MODEL 1
REMARK VINA RESULT:    -6.266      0.000      0.000
REMARK INTER + INTRA:          -6.838
REMARK INTER:                  -6.632
REMARK INTRA:                  -0.206
REMARK UNBOUND:                -0.206
REMARK SMILES CC1=CC[C@@]23[C@@H]([C@@H]12)[C@H](C(C)C)CC[C@H]3C
REMARK SMILES IDX 15 1 14 2 13 3 12 4 8 5 6 6 5 7 7 8 2 9 3 10 4 11 1 12 9 13
REMARK SMILES IDX 10 14 11 15
REMARK H PARENT
REMARK Flexibility Score: inf
ROOT
ATOM      1  C   UNL     1     104.913 104.894 128.933  1.00  0.00     0.008 C 
ATOM      2  C   UNL     1     105.135 106.220 128.190  1.00  0.00    -0.007 C 
ATOM      3  C   UNL     1     106.128 107.098 128.970  1.00  0.00     0.004 C 
ATOM      4  C   UNL     1     106.177 108.520 128.414  1.00  0.00     0.004 C 
ATOM      5  C   UNL     1     104.842 109.247 128.674  1.00  0.00    -0.004 C 
ATOM      6  C   UNL     1     103.666 108.451 128.044  1.00  0.00     0.007 C 
ATOM      7  C   UNL     1     103.793 106.931 127.869  1.00  0.00    -0.013 C 
ATOM      8  C   UNL     1     102.976 107.496 129.027  1.00  0.00     0.025 C 
ATOM      9  C   UNL     1     101.575 107.111 128.692  1.00  0.00    -0.073 C 
ATOM     10  C   UNL     1     101.480 106.442 127.548  1.00  0.00    -0.027 C 
ATOM     11  C   UNL     1     102.804 106.282 126.886  1.00  0.00     0.035 C 
ATOM     12  C   UNL     1     100.396 107.451 129.549  1.00  0.00     0.039 C 
ENDROOT
BRANCH   5  13
ATOM     13  C   UNL     1     104.841 110.714 128.137  1.00  0.00    -0.014 C 
ATOM     14  C   UNL     1     106.055 111.029 127.245  1.00  0.00     0.007 C 
ATOM     15  C   UNL     1     104.814 111.725 129.301  1.00  0.00     0.007 C 
ENDBRANCH   5  13
TORSDOF 1
ENDMDL
MODEL 2
REMARK VINA RESULT:    -6.223      3.024      5.421
REMARK INTER + INTRA:          -6.793
REMARK INTER:                  -6.579
REMARK INTRA:                  -0.214
REMARK UNBOUND:                -0.206
REMARK SMILES CC1=CC[C@@]23[C@@H]([C@@H]12)[C@H](C(C)C)CC[C@H]3C
REMARK SMILES IDX 15 1 14 2 13 3 12 4 8 5 6 6 5 7 7 8 2 9 3 10 4 11 1 12 9 13
REMARK SMILES IDX 10 14 11 15
REMARK H PARENT
REMARK Flexibility Score: inf
ROOT
ATOM      1  C   UNL     1     105.218 107.051 128.966  1.00  0.00     0.008 C 
ATOM      2  C   UNL     1     106.566 106.950 128.237  1.00  0.00    -0.007 C 
ATOM      3  C   UNL     1     107.552 106.115 129.070  1.00  0.00     0.004 C 
ATOM      4  C   UNL     1     108.973 106.208 128.518  1.00  0.00     0.004 C 
ATOM      5  C   UNL     1     109.533 107.633 128.704  1.00  0.00    -0.004 C 
ATOM      6  C   UNL     1     108.605 108.668 128.010  1.00  0.00     0.007 C 
ATOM      7  C   UNL     1     107.112 108.349 127.843  1.00  0.00    -0.013 C 
ATOM      8  C   UNL     1     107.567 109.290 128.954  1.00  0.00     0.025 C 
ATOM      9  C   UNL     1     107.018 110.615 128.542  1.00  0.00    -0.073 C 
ATOM     10  C   UNL     1     106.350 110.565 127.394  1.00  0.00    -0.027 C 
ATOM     11  C   UNL     1     106.355 109.197 126.806  1.00  0.00     0.035 C 
ATOM     12  C   UNL     1     107.208 111.871 129.332  1.00  0.00     0.039 C 
ENDROOT
BRANCH   5  13
ATOM     13  C   UNL     1     110.993 107.782 128.168  1.00  0.00    -0.014 C 
ATOM     14  C   UNL     1     111.294 106.854 126.976  1.00  0.00     0.007 C 
ATOM     15  C   UNL     1     112.018 107.495 129.282  1.00  0.00     0.007 C 
ENDBRANCH   5  13
TORSDOF 1
ENDMDL
MODEL 3
REMARK VINA RESULT:    -6.201      3.920      7.668
REMARK INTER + INTRA:          -6.769
REMARK INTER:                  -6.555
REMARK INTRA:                  -0.214
REMARK UNBOUND:                -0.206
REMARK SMILES CC1=CC[C@@]23[C@@H]([C@@H]12)[C@H](C(C)C)CC[C@H]3C
REMARK SMILES IDX 15 1 14 2 13 3 12 4 8 5 6 6 5 7 7 8 2 9 3 10 4 11 1 12 9 13
REMARK SMILES IDX 10 14 11 15
REMARK H PARENT
REMARK Flexibility Score: inf
ROOT
ATOM      1  C   UNL     1     107.021 107.208 128.787  1.00  0.00     0.008 C 
ATOM      2  C   UNL     1     106.940 105.853 128.069  1.00  0.00    -0.007 C 
ATOM      3  C   UNL     1     106.088 104.873 128.894  1.00  0.00     0.004 C 
ATOM      4  C   UNL     1     106.197 103.447 128.359  1.00  0.00     0.004 C 
ATOM      5  C   UNL     1     107.619 102.893 128.582  1.00  0.00    -0.004 C 
ATOM      6  C   UNL     1     108.667 103.816 127.902  1.00  0.00     0.007 C 
ATOM      7  C   UNL     1     108.348 105.307 127.712  1.00  0.00    -0.013 C 
ATOM      8  C   UNL     1     109.266 104.866 128.849  1.00  0.00     0.025 C 
ATOM      9  C   UNL     1     110.597 105.414 128.460  1.00  0.00    -0.073 C 
ATOM     10  C   UNL     1     110.572 106.070 127.305  1.00  0.00    -0.027 C 
ATOM     11  C   UNL     1     109.217 106.055 126.687  1.00  0.00     0.035 C 
ATOM     12  C   UNL     1     111.836 105.236 129.280  1.00  0.00     0.039 C 
ENDROOT
BRANCH   5  13
ATOM     13  C   UNL     1     107.784 101.428 128.065  1.00  0.00    -0.014 C 
ATOM     14  C   UNL     1     106.883 101.112 126.856  1.00  0.00     0.007 C 
ATOM     15  C   UNL     1     107.476 100.413 129.183  1.00  0.00     0.007 C 
ENDBRANCH   5  13
TORSDOF 1
ENDMDL
MODEL 4
REMARK VINA RESULT:    -6.196      2.907      5.470
REMARK INTER + INTRA:          -6.764
REMARK INTER:                  -6.559
REMARK INTRA:                  -0.205
REMARK UNBOUND:                -0.206
REMARK SMILES CC1=CC[C@@]23[C@@H]([C@@H]12)[C@H](C(C)C)CC[C@H]3C
REMARK SMILES IDX 15 1 14 2 13 3 12 4 8 5 6 6 5 7 7 8 2 9 3 10 4 11 1 12 9 13
REMARK SMILES IDX 10 14 11 15
REMARK H PARENT
REMARK Flexibility Score: inf
ROOT
ATOM      1  C   UNL     1     107.574 104.798 128.865  1.00  0.00     0.008 C 
ATOM      2  C   UNL     1     106.245 105.024 128.128  1.00  0.00    -0.007 C 
ATOM      3  C   UNL     1     105.392 106.052 128.888  1.00  0.00     0.004 C 
ATOM      4  C   UNL     1     103.966 106.110 128.344  1.00  0.00     0.004 C 
ATOM      5  C   UNL     1     103.218 104.796 128.646  1.00  0.00    -0.004 C 
ATOM      6  C   UNL     1     103.987 103.590 128.040  1.00  0.00     0.007 C 
ATOM      7  C   UNL     1     105.508 103.686 127.849  1.00  0.00    -0.013 C 
ATOM      8  C   UNL     1     104.940 102.910 129.034  1.00  0.00     0.025 C 
ATOM      9  C   UNL     1     105.298 101.494 128.733  1.00  0.00    -0.073 C 
ATOM     10  C   UNL     1     105.954 101.357 127.586  1.00  0.00    -0.027 C 
ATOM     11  C   UNL     1     106.131 102.660 126.887  1.00  0.00     0.035 C 
ATOM     12  C   UNL     1     104.945 100.344 129.623  1.00  0.00     0.039 C 
ENDROOT
BRANCH   5  13
ATOM     13  C   UNL     1     101.746 104.806 128.122  1.00  0.00    -0.014 C 
ATOM     14  C   UNL     1     101.434 106.021 127.229  1.00  0.00     0.007 C 
ATOM     15  C   UNL     1     100.746 104.792 129.294  1.00  0.00     0.007 C 
ENDBRANCH   5  13
TORSDOF 1
ENDMDL
MODEL 5
REMARK VINA RESULT:    -6.191      2.006      5.375
REMARK INTER + INTRA:          -6.758
REMARK INTER:                  -6.425
REMARK INTRA:                  -0.333
REMARK UNBOUND:                -0.206
REMARK SMILES CC1=CC[C@@]23[C@@H]([C@@H]12)[C@H](C(C)C)CC[C@H]3C
REMARK SMILES IDX 15 1 14 2 13 3 12 4 8 5 6 6 5 7 7 8 2 9 3 10 4 11 1 12 9 13
REMARK SMILES IDX 10 14 11 15
REMARK H PARENT
REMARK Flexibility Score: inf
ROOT
ATOM      1  C   UNL     1     106.092 110.548 129.180  1.00  0.00     0.008 C 
ATOM      2  C   UNL     1     104.865 110.097 128.374  1.00  0.00    -0.007 C 
ATOM      3  C   UNL     1     104.442 108.684 128.809  1.00  0.00     0.004 C 
ATOM      4  C   UNL     1     103.401 108.093 127.861  1.00  0.00     0.004 C 
ATOM      5  C   UNL     1     104.023 107.822 126.476  1.00  0.00    -0.004 C 
ATOM      6  C   UNL     1     104.618 109.132 125.890  1.00  0.00     0.007 C 
ATOM      7  C   UNL     1     105.099 110.234 126.845  1.00  0.00    -0.013 C 
ATOM      8  C   UNL     1     106.115 109.310 126.180  1.00  0.00     0.025 C 
ATOM      9  C   UNL     1     106.859 110.210 125.253  1.00  0.00    -0.073 C 
ATOM     10  C   UNL     1     106.423 111.464 125.287  1.00  0.00    -0.027 C 
ATOM     11  C   UNL     1     105.278 111.631 126.225  1.00  0.00     0.035 C 
ATOM     12  C   UNL     1     107.974 109.748 124.369  1.00  0.00     0.039 C 
ENDROOT
BRANCH   5  13
ATOM     13  C   UNL     1     103.003 107.202 125.468  1.00  0.00    -0.014 C 
ATOM     14  C   UNL     1     102.823 108.051 124.195  1.00  0.00     0.007 C 
ATOM     15  C   UNL     1     101.624 107.013 126.128  1.00  0.00     0.007 C 
ENDBRANCH   5  13
TORSDOF 1
ENDMDL
MODEL 6
REMARK VINA RESULT:    -6.177      3.448      5.457
REMARK INTER + INTRA:          -6.744
REMARK INTER:                  -6.411
REMARK INTRA:                  -0.333
REMARK UNBOUND:                -0.206
REMARK SMILES CC1=CC[C@@]23[C@@H]([C@@H]12)[C@H](C(C)C)CC[C@H]3C
REMARK SMILES IDX 15 1 14 2 13 3 12 4 8 5 6 6 5 7 7 8 2 9 3 10 4 11 1 12 9 13
REMARK SMILES IDX 10 14 11 15
REMARK H PARENT
REMARK Flexibility Score: inf
ROOT
ATOM      1  C   UNL     1     101.999 106.076 129.182  1.00  0.00     0.008 C 
ATOM      2  C   UNL     1     102.428 104.851 128.360  1.00  0.00    -0.007 C 
ATOM      3  C   UNL     1     103.848 104.420 128.763  1.00  0.00     0.004 C 
ATOM      4  C   UNL     1     104.415 103.381 127.797  1.00  0.00     0.004 C 
ATOM      5  C   UNL     1     104.658 104.009 126.410  1.00  0.00    -0.004 C 
ATOM      6  C   UNL     1     103.338 104.611 125.855  1.00  0.00     0.007 C 
ATOM      7  C   UNL     1     102.258 105.093 126.836  1.00  0.00    -0.013 C 
ATOM      8  C   UNL     1     103.173 106.108 126.157  1.00  0.00     0.025 C 
ATOM      9  C   UNL     1     102.255 106.860 125.253  1.00  0.00    -0.073 C 
ATOM     10  C   UNL     1     101.000 106.429 125.312  1.00  0.00    -0.027 C 
ATOM     11  C   UNL     1     100.850 105.280 126.248  1.00  0.00     0.035 C 
ATOM     12  C   UNL     1     102.703 107.978 124.364  1.00  0.00     0.039 C 
ENDROOT
BRANCH   5  13
ATOM     13  C   UNL     1     105.252 102.992 125.384  1.00  0.00    -0.014 C 
ATOM     14  C   UNL     1     104.376 102.822 124.129  1.00  0.00     0.007 C 
ATOM     15  C   UNL     1     105.449 101.608 126.033  1.00  0.00     0.007 C 
ENDBRANCH   5  13
TORSDOF 1
ENDMDL
MODEL 7
REMARK VINA RESULT:    -6.158      1.706      5.023
REMARK INTER + INTRA:          -6.723
REMARK INTER:                  -6.435
REMARK INTRA:                  -0.288
REMARK UNBOUND:                -0.206
REMARK SMILES CC1=CC[C@@]23[C@@H]([C@@H]12)[C@H](C(C)C)CC[C@H]3C
REMARK SMILES IDX 15 1 14 2 13 3 12 4 8 5 6 6 5 7 7 8 2 9 3 10 4 11 1 12 9 13
REMARK SMILES IDX 10 14 11 15
REMARK H PARENT
REMARK Flexibility Score: inf
ROOT
ATOM      1  C   UNL     1     106.749 110.857 124.896  1.00  0.00     0.008 C 
ATOM      2  C   UNL     1     106.271 109.531 125.505  1.00  0.00    -0.007 C 
ATOM      3  C   UNL     1     105.032 109.024 124.750  1.00  0.00     0.004 C 
ATOM      4  C   UNL     1     104.368 107.857 125.480  1.00  0.00     0.004 C 
ATOM      5  C   UNL     1     103.752 108.333 126.811  1.00  0.00    -0.004 C 
ATOM      6  C   UNL     1     104.843 108.989 127.702  1.00  0.00     0.007 C 
ATOM      7  C   UNL     1     106.063 109.646 127.039  1.00  0.00    -0.013 C 
ATOM      8  C   UNL     1     104.919 110.515 127.553  1.00  0.00     0.025 C 
ATOM      9  C   UNL     1     105.525 111.255 128.698  1.00  0.00    -0.073 C 
ATOM     10  C   UNL     1     106.797 110.936 128.907  1.00  0.00    -0.027 C 
ATOM     11  C   UNL     1     107.273 109.894 127.955  1.00  0.00     0.035 C 
ATOM     12  C   UNL     1     104.776 112.246 129.533  1.00  0.00     0.039 C 
ENDROOT
BRANCH   5  13
ATOM     13  C   UNL     1     103.046 107.181 127.594  1.00  0.00    -0.014 C 
ATOM     14  C   UNL     1     101.555 107.034 127.235  1.00  0.00     0.007 C 
ATOM     15  C   UNL     1     103.163 107.399 129.115  1.00  0.00     0.007 C 
ENDBRANCH   5  13
TORSDOF 1
ENDMDL
MODEL 8
REMARK VINA RESULT:    -6.137      4.381      6.701
REMARK INTER + INTRA:          -6.702
REMARK INTER:                  -6.413
REMARK INTRA:                  -0.289
REMARK UNBOUND:                -0.206
REMARK SMILES CC1=CC[C@@]23[C@@H]([C@@H]12)[C@H](C(C)C)CC[C@H]3C
REMARK SMILES IDX 15 1 14 2 13 3 12 4 8 5 6 6 5 7 7 8 2 9 3 10 4 11 1 12 9 13
REMARK SMILES IDX 10 14 11 15
REMARK H PARENT
REMARK Flexibility Score: inf
ROOT
ATOM      1  C   UNL     1     111.027 105.631 125.033  1.00  0.00     0.008 C 
ATOM      2  C   UNL     1     109.685 106.089 125.623  1.00  0.00    -0.007 C 
ATOM      3  C   UNL     1     109.150 107.297 124.835  1.00  0.00     0.004 C 
ATOM      4  C   UNL     1     107.963 107.947 125.541  1.00  0.00     0.004 C 
ATOM      5  C   UNL     1     108.414 108.608 126.860  1.00  0.00    -0.004 C 
ATOM      6  C   UNL     1     109.092 107.557 127.781  1.00  0.00     0.007 C 
ATOM      7  C   UNL     1     109.784 106.338 127.152  1.00  0.00    -0.013 C 
ATOM      8  C   UNL     1     110.621 107.516 127.643  1.00  0.00     0.025 C 
ATOM      9  C   UNL     1     111.369 106.958 128.807  1.00  0.00    -0.073 C 
ATOM     10  C   UNL     1     111.081 105.683 129.045  1.00  0.00    -0.027 C 
ATOM     11  C   UNL     1     110.058 105.157 128.099  1.00  0.00     0.035 C 
ATOM     12  C   UNL     1     112.334 107.753 129.628  1.00  0.00     0.039 C 
ENDROOT
BRANCH   5  13
ATOM     13  C   UNL     1     107.239 109.303 127.619  1.00  0.00    -0.014 C 
ATOM     14  C   UNL     1     107.061 110.782 127.229  1.00  0.00     0.007 C 
ATOM     15  C   UNL     1     107.446 109.221 129.144  1.00  0.00     0.007 C 
ENDBRANCH   5  13
TORSDOF 1
ENDMDL
MODEL 9
REMARK VINA RESULT:    -6.070      2.859      5.161
REMARK INTER + INTRA:          -6.631
REMARK INTER:                  -6.345
REMARK INTRA:                  -0.286
REMARK UNBOUND:                -0.206
REMARK SMILES CC1=CC[C@@]23[C@@H]([C@@H]12)[C@H](C(C)C)CC[C@H]3C
REMARK SMILES IDX 15 1 14 2 13 3 12 4 8 5 6 6 5 7 7 8 2 9 3 10 4 11 1 12 9 13
REMARK SMILES IDX 10 14 11 15
REMARK H PARENT
REMARK Flexibility Score: inf
ROOT
ATOM      1  C   UNL     1     101.846 106.753 124.705  1.00  0.00     0.008 C 
ATOM      2  C   UNL     1     103.131 106.248 125.377  1.00  0.00    -0.007 C 
ATOM      3  C   UNL     1     103.637 104.985 124.659  1.00  0.00     0.004 C 
ATOM      4  C   UNL     1     104.752 104.300 125.446  1.00  0.00     0.004 C 
ATOM      5  C   UNL     1     104.202 103.714 126.762  1.00  0.00    -0.004 C 
ATOM      6  C   UNL     1     103.539 104.833 127.612  1.00  0.00     0.007 C 
ATOM      7  C   UNL     1     102.945 106.062 126.907  1.00  0.00    -0.013 C 
ATOM      8  C   UNL     1     102.023 104.949 127.396  1.00  0.00     0.025 C 
ATOM      9  C   UNL     1     101.252 105.589 128.501  1.00  0.00    -0.073 C 
ATOM     10  C   UNL     1     101.597 106.855 128.709  1.00  0.00    -0.027 C 
ATOM     11  C   UNL     1     102.691 107.290 127.797  1.00  0.00     0.035 C 
ATOM     12  C   UNL     1     100.206 104.877 129.300  1.00  0.00     0.039 C 
ENDROOT
BRANCH   5  13
ATOM     13  C   UNL     1     105.300 102.987 127.603  1.00  0.00    -0.014 C 
ATOM     14  C   UNL     1     105.449 101.498 127.239  1.00  0.00     0.007 C 
ATOM     15  C   UNL     1     104.998 103.093 129.110  1.00  0.00     0.007 C 
ENDBRANCH   5  13
TORSDOF 1
ENDMDL
