MODEL 1
REMARK VINA RESULT:    -5.131      0.000      0.000
REMARK INTER + INTRA:         -14.195
REMARK INTER:                 -11.129
REMARK INTRA:                  -3.065
REMARK UNBOUND:                -3.065
REMARK SMILES CCCCCCCCCCCCCCCCCCCCCC(=O)[O-]
REMARK SMILES IDX 12 1 11 2 10 3 9 4 8 5 7 6 6 7 5 8 4 9 3 10 2 11 1 12 13 13
REMARK SMILES IDX 14 14 15 15 16 16 17 17 18 18 19 19 20 20 21 21 22 22 23 23
REMARK SMILES IDX 24 24
REMARK H PARENT
REMARK Flexibility Score: inf
ROOT
ATOM      1  C   UNL     1      36.122  43.492  46.623  1.00  0.00     0.000 C 
ENDROOT
BRANCH   1   2
ATOM      2  C   UNL     1      34.934  43.936  47.493  1.00  0.00     0.000 C 
BRANCH   2   3
ATOM      3  C   UNL     1      34.264  42.763  48.232  1.00  0.00     0.000 C 
BRANCH   3   4
ATOM      4  C   UNL     1      32.853  43.131  48.742  1.00  0.00    -0.000 C 
BRANCH   4   5
ATOM      5  C   UNL     1      32.379  44.525  48.298  1.00  0.00    -0.000 C 
BRANCH   5   6
ATOM      6  C   UNL     1      31.094  44.479  47.458  1.00  0.00    -0.000 C 
BRANCH   6   7
ATOM      7  C   UNL     1      30.853  43.098  46.825  1.00  0.00    -0.000 C 
BRANCH   7   8
ATOM      8  C   UNL     1      31.422  42.994  45.399  1.00  0.00    -0.000 C 
BRANCH   8   9
ATOM      9  C   UNL     1      31.741  44.370  44.792  1.00  0.00    -0.000 C 
BRANCH   9  10
ATOM     10  C   UNL     1      33.166  44.444  44.215  1.00  0.00    -0.000 C 
BRANCH  10  11
ATOM     11  C   UNL     1      33.300  45.504  43.112  1.00  0.00    -0.003 C 
ATOM     12  C   UNL     1      32.089  45.540  42.179  1.00  0.00     0.004 C 
ENDBRANCH  10  11
ENDBRANCH   9  10
ENDBRANCH   8   9
ENDBRANCH   7   8
ENDBRANCH   6   7
ENDBRANCH   5   6
ENDBRANCH   4   5
ENDBRANCH   3   4
ENDBRANCH   2   3
ENDBRANCH   1   2
BRANCH   1  13
ATOM     13  C   UNL     1      36.816  42.233  47.169  1.00  0.00     0.000 C 
BRANCH  13  14
ATOM     14  C   UNL     1      37.978  42.560  48.125  1.00  0.00     0.000 C 
BRANCH  14  15
ATOM     15  C   UNL     1      38.377  41.421  49.085  1.00  0.00     0.000 C 
BRANCH  15  16
ATOM     16  C   UNL     1      38.317  41.774  50.584  1.00  0.00     0.000 C 
BRANCH  16  17
ATOM     17  C   UNL     1      37.920  43.228  50.901  1.00  0.00     0.000 C 
BRANCH  17  18
ATOM     18  C   UNL     1      36.415  43.389  51.176  1.00  0.00     0.000 C 
BRANCH  18  19
ATOM     19  C   UNL     1      35.882  44.784  50.801  1.00  0.00     0.000 C 
BRANCH  19  20
ATOM     20  C   UNL     1      34.614  45.230  51.556  1.00  0.00     0.006 C 
BRANCH  20  21
ATOM     21  C   UNL     1      34.122  44.239  52.622  1.00  0.00     0.053 C 
BRANCH  21  22
ATOM     22  C   UNL     1      32.715  43.795  52.366  1.00  0.00     0.041 C 
ATOM     23  O   UNL     1      31.788  44.643  52.269  1.00  0.00    -0.550 OA
ATOM     24  O   UNL     1      32.431  42.446  52.202  1.00  0.00    -0.550 OA
ENDBRANCH  21  22
ENDBRANCH  20  21
ENDBRANCH  19  20
ENDBRANCH  18  19
ENDBRANCH  17  18
ENDBRANCH  16  17
ENDBRANCH  15  16
ENDBRANCH  14  15
ENDBRANCH  13  14
ENDBRANCH   1  13
TORSDOF 20
ENDMDL
MODEL 2
REMARK VINA RESULT:    -5.097      2.458      4.854
REMARK INTER + INTRA:         -14.122
REMARK INTER:                 -11.384
REMARK INTRA:                  -2.738
REMARK UNBOUND:                -3.065
REMARK SMILES CCCCCCCCCCCCCCCCCCCCCC(=O)[O-]
REMARK SMILES IDX 12 1 11 2 10 3 9 4 8 5 7 6 6 7 5 8 4 9 3 10 2 11 1 12 13 13
REMARK SMILES IDX 14 14 15 15 16 16 17 17 18 18 19 19 20 20 21 21 22 22 23 23
REMARK SMILES IDX 24 24
REMARK H PARENT
REMARK Flexibility Score: inf
ROOT
ATOM      1  C   UNL     1      30.442  44.293  47.961  1.00  0.00     0.000 C 
ENDROOT
BRANCH   1   2
ATOM      2  C   UNL     1      30.745  43.513  46.671  1.00  0.00     0.000 C 
BRANCH   2   3
ATOM      3  C   UNL     1      30.955  42.008  46.918  1.00  0.00     0.000 C 
BRANCH   3   4
ATOM      4  C   UNL     1      32.440  41.603  46.790  1.00  0.00    -0.000 C 
BRANCH   4   5
ATOM      5  C   UNL     1      33.351  42.250  47.846  1.00  0.00    -0.000 C 
BRANCH   5   6
ATOM      6  C   UNL     1      34.685  42.741  47.262  1.00  0.00    -0.000 C 
BRANCH   6   7
ATOM      7  C   UNL     1      34.587  44.162  46.682  1.00  0.00    -0.000 C 
BRANCH   7   8
ATOM      8  C   UNL     1      35.371  44.320  45.368  1.00  0.00    -0.000 C 
BRANCH   8   9
ATOM      9  C   UNL     1      34.519  44.933  44.245  1.00  0.00    -0.000 C 
BRANCH   9  10
ATOM     10  C   UNL     1      33.023  44.603  44.393  1.00  0.00    -0.000 C 
BRANCH  10  11
ATOM     11  C   UNL     1      32.369  44.225  43.056  1.00  0.00    -0.003 C 
ATOM     12  C   UNL     1      31.875  45.444  42.276  1.00  0.00     0.004 C 
ENDBRANCH  10  11
ENDBRANCH   9  10
ENDBRANCH   8   9
ENDBRANCH   7   8
ENDBRANCH   6   7
ENDBRANCH   5   6
ENDBRANCH   4   5
ENDBRANCH   3   4
ENDBRANCH   2   3
ENDBRANCH   1   2
BRANCH   1  13
ATOM     13  C   UNL     1      30.122  43.370  49.148  1.00  0.00     0.000 C 
BRANCH  13  14
ATOM     14  C   UNL     1      30.633  43.924  50.491  1.00  0.00     0.000 C 
BRANCH  14  15
ATOM     15  C   UNL     1      31.836  43.172  51.095  1.00  0.00     0.000 C 
BRANCH  15  16
ATOM     16  C   UNL     1      32.573  43.913  52.228  1.00  0.00     0.000 C 
BRANCH  16  17
ATOM     17  C   UNL     1      33.575  44.986  51.765  1.00  0.00     0.000 C 
BRANCH  17  18
ATOM     18  C   UNL     1      34.427  44.531  50.568  1.00  0.00     0.000 C 
BRANCH  18  19
ATOM     19  C   UNL     1      35.922  44.394  50.912  1.00  0.00     0.000 C 
BRANCH  19  20
ATOM     20  C   UNL     1      36.467  42.952  50.923  1.00  0.00     0.006 C 
BRANCH  20  21
ATOM     21  C   UNL     1      37.248  42.553  49.662  1.00  0.00     0.053 C 
BRANCH  21  22
ATOM     22  C   UNL     1      38.572  41.937  49.995  1.00  0.00     0.041 C 
ATOM     23  O   UNL     1      39.020  40.983  49.306  1.00  0.00    -0.550 OA
ATOM     24  O   UNL     1      39.325  42.439  51.048  1.00  0.00    -0.550 OA
ENDBRANCH  21  22
ENDBRANCH  20  21
ENDBRANCH  19  20
ENDBRANCH  18  19
ENDBRANCH  17  18
ENDBRANCH  16  17
ENDBRANCH  15  16
ENDBRANCH  14  15
ENDBRANCH  13  14
ENDBRANCH   1  13
TORSDOF 20
ENDMDL
MODEL 3
REMARK VINA RESULT:    -5.058      2.290      4.468
REMARK INTER + INTRA:         -14.038
REMARK INTER:                 -11.527
REMARK INTRA:                  -2.511
REMARK UNBOUND:                -3.065
REMARK SMILES CCCCCCCCCCCCCCCCCCCCCC(=O)[O-]
REMARK SMILES IDX 12 1 11 2 10 3 9 4 8 5 7 6 6 7 5 8 4 9 3 10 2 11 1 12 13 13
REMARK SMILES IDX 14 14 15 15 16 16 17 17 18 18 19 19 20 20 21 21 22 22 23 23
REMARK SMILES IDX 24 24
REMARK H PARENT
REMARK Flexibility Score: inf
ROOT
ATOM      1  C   UNL     1      34.473  43.297  51.999  1.00  0.00     0.000 C 
ENDROOT
BRANCH   1   2
ATOM      2  C   UNL     1      33.041  42.740  51.958  1.00  0.00     0.000 C 
BRANCH   2   3
ATOM      3  C   UNL     1      32.012  43.770  51.458  1.00  0.00     0.000 C 
BRANCH   3   4
ATOM      4  C   UNL     1      30.597  43.164  51.337  1.00  0.00    -0.000 C 
BRANCH   4   5
ATOM      5  C   UNL     1      29.949  43.377  49.958  1.00  0.00    -0.000 C 
BRANCH   5   6
ATOM      6  C   UNL     1      30.961  43.292  48.804  1.00  0.00    -0.000 C 
BRANCH   6   7
ATOM      7  C   UNL     1      30.659  44.298  47.681  1.00  0.00    -0.000 C 
BRANCH   7   8
ATOM      8  C   UNL     1      30.222  43.612  46.375  1.00  0.00    -0.000 C 
BRANCH   8   9
ATOM      9  C   UNL     1      31.416  43.194  45.502  1.00  0.00    -0.000 C 
BRANCH   9  10
ATOM     10  C   UNL     1      32.111  44.397  44.838  1.00  0.00    -0.000 C 
BRANCH  10  11
ATOM     11  C   UNL     1      32.417  44.154  43.353  1.00  0.00    -0.003 C 
ATOM     12  C   UNL     1      32.080  45.361  42.477  1.00  0.00     0.004 C 
ENDBRANCH  10  11
ENDBRANCH   9  10
ENDBRANCH   8   9
ENDBRANCH   7   8
ENDBRANCH   6   7
ENDBRANCH   5   6
ENDBRANCH   4   5
ENDBRANCH   3   4
ENDBRANCH   2   3
ENDBRANCH   1   2
BRANCH   1  13
ATOM     13  C   UNL     1      34.520  44.820  51.793  1.00  0.00     0.000 C 
BRANCH  13  14
ATOM     14  C   UNL     1      35.469  45.239  50.654  1.00  0.00     0.000 C 
BRANCH  14  15
ATOM     15  C   UNL     1      34.780  45.568  49.315  1.00  0.00     0.000 C 
BRANCH  15  16
ATOM     16  C   UNL     1      34.374  44.347  48.466  1.00  0.00     0.000 C 
BRANCH  16  17
ATOM     17  C   UNL     1      34.656  44.474  46.958  1.00  0.00     0.000 C 
BRANCH  17  18
ATOM     18  C   UNL     1      36.049  43.953  46.565  1.00  0.00     0.000 C 
BRANCH  18  19
ATOM     19  C   UNL     1      36.299  42.504  47.025  1.00  0.00     0.000 C 
BRANCH  19  20
ATOM     20  C   UNL     1      37.501  42.311  47.971  1.00  0.00     0.006 C 
BRANCH  20  21
ATOM     21  C   UNL     1      37.139  42.259  49.463  1.00  0.00     0.053 C 
BRANCH  21  22
ATOM     22  C   UNL     1      38.353  42.332  50.336  1.00  0.00     0.041 C 
ATOM     23  O   UNL     1      38.671  43.416  50.894  1.00  0.00    -0.550 OA
ATOM     24  O   UNL     1      39.117  41.194  50.560  1.00  0.00    -0.550 OA
ENDBRANCH  21  22
ENDBRANCH  20  21
ENDBRANCH  19  20
ENDBRANCH  18  19
ENDBRANCH  17  18
ENDBRANCH  16  17
ENDBRANCH  15  16
ENDBRANCH  14  15
ENDBRANCH  13  14
ENDBRANCH   1  13
TORSDOF 20
ENDMDL
MODEL 4
REMARK VINA RESULT:    -5.014      3.127      6.876
REMARK INTER + INTRA:         -13.942
REMARK INTER:                 -10.910
REMARK INTRA:                  -3.032
REMARK UNBOUND:                -3.065
REMARK SMILES CCCCCCCCCCCCCCCCCCCCCC(=O)[O-]
REMARK SMILES IDX 12 1 11 2 10 3 9 4 8 5 7 6 6 7 5 8 4 9 3 10 2 11 1 12 13 13
REMARK SMILES IDX 14 14 15 15 16 16 17 17 18 18 19 19 20 20 21 21 22 22 23 23
REMARK SMILES IDX 24 24
REMARK H PARENT
REMARK Flexibility Score: inf
ROOT
ATOM      1  C   UNL     1      30.771  44.065  47.494  1.00  0.00     0.000 C 
ENDROOT
BRANCH   1   2
ATOM      2  C   UNL     1      29.879  44.400  48.700  1.00  0.00     0.000 C 
BRANCH   2   3
ATOM      3  C   UNL     1      30.360  43.736  50.004  1.00  0.00     0.000 C 
BRANCH   3   4
ATOM      4  C   UNL     1      31.880  43.907  50.213  1.00  0.00    -0.000 C 
BRANCH   4   5
ATOM      5  C   UNL     1      32.537  42.734  50.961  1.00  0.00    -0.000 C 
BRANCH   5   6
ATOM      6  C   UNL     1      33.854  43.128  51.649  1.00  0.00    -0.000 C 
BRANCH   6   7
ATOM      7  C   UNL     1      34.395  44.480  51.153  1.00  0.00    -0.000 C 
BRANCH   7   8
ATOM      8  C   UNL     1      35.903  44.437  50.848  1.00  0.00    -0.000 C 
BRANCH   8   9
ATOM      9  C   UNL     1      36.432  43.001  50.700  1.00  0.00    -0.000 C 
BRANCH   9  10
ATOM     10  C   UNL     1      37.956  42.952  50.494  1.00  0.00    -0.000 C 
BRANCH  10  11
ATOM     11  C   UNL     1      38.353  42.205  49.212  1.00  0.00    -0.003 C 
ATOM     12  C   UNL     1      39.056  40.877  49.497  1.00  0.00     0.004 C 
ENDBRANCH  10  11
ENDBRANCH   9  10
ENDBRANCH   8   9
ENDBRANCH   7   8
ENDBRANCH   6   7
ENDBRANCH   5   6
ENDBRANCH   4   5
ENDBRANCH   3   4
ENDBRANCH   2   3
ENDBRANCH   1   2
BRANCH   1  13
ATOM     13  C   UNL     1      30.711  42.576  47.112  1.00  0.00     0.000 C 
BRANCH  13  14
ATOM     14  C   UNL     1      31.985  42.092  46.395  1.00  0.00     0.000 C 
BRANCH  14  15
ATOM     15  C   UNL     1      33.078  41.517  47.319  1.00  0.00     0.000 C 
BRANCH  15  16
ATOM     16  C   UNL     1      34.176  42.514  47.738  1.00  0.00     0.000 C 
BRANCH  16  17
ATOM     17  C   UNL     1      35.559  42.271  47.105  1.00  0.00     0.000 C 
BRANCH  17  18
ATOM     18  C   UNL     1      36.159  43.540  46.477  1.00  0.00     0.000 C 
BRANCH  18  19
ATOM     19  C   UNL     1      35.096  44.601  46.135  1.00  0.00     0.000 C 
BRANCH  19  20
ATOM     20  C   UNL     1      34.811  44.789  44.632  1.00  0.00     0.006 C 
BRANCH  20  21
ATOM     21  C   UNL     1      33.363  44.492  44.213  1.00  0.00     0.053 C 
BRANCH  21  22
ATOM     22  C   UNL     1      32.948  45.302  43.023  1.00  0.00     0.041 C 
ATOM     23  O   UNL     1      33.665  46.257  42.624  1.00  0.00    -0.550 OA
ATOM     24  O   UNL     1      31.784  44.981  42.337  1.00  0.00    -0.550 OA
ENDBRANCH  21  22
ENDBRANCH  20  21
ENDBRANCH  19  20
ENDBRANCH  18  19
ENDBRANCH  17  18
ENDBRANCH  16  17
ENDBRANCH  15  16
ENDBRANCH  14  15
ENDBRANCH  13  14
ENDBRANCH   1  13
TORSDOF 20
ENDMDL
MODEL 5
REMARK VINA RESULT:    -4.900      2.399      6.233
REMARK INTER + INTRA:         -13.695
REMARK INTER:                 -11.160
REMARK INTRA:                  -2.535
REMARK UNBOUND:                -3.065
REMARK SMILES CCCCCCCCCCCCCCCCCCCCCC(=O)[O-]
REMARK SMILES IDX 12 1 11 2 10 3 9 4 8 5 7 6 6 7 5 8 4 9 3 10 2 11 1 12 13 13
REMARK SMILES IDX 14 14 15 15 16 16 17 17 18 18 19 19 20 20 21 21 22 22 23 23
REMARK SMILES IDX 24 24
REMARK H PARENT
REMARK Flexibility Score: inf
ROOT
ATOM      1  C   UNL     1      31.954  43.024  46.997  1.00  0.00     0.000 C 
ENDROOT
BRANCH   1   2
ATOM      2  C   UNL     1      31.225  43.917  48.014  1.00  0.00     0.000 C 
BRANCH   2   3
ATOM      3  C   UNL     1      30.161  43.155  48.826  1.00  0.00     0.000 C 
BRANCH   3   4
ATOM      4  C   UNL     1      30.506  43.108  50.331  1.00  0.00    -0.000 C 
BRANCH   4   5
ATOM      5  C   UNL     1      31.872  43.726  50.672  1.00  0.00    -0.000 C 
BRANCH   5   6
ATOM      6  C   UNL     1      32.999  42.682  50.736  1.00  0.00    -0.000 C 
BRANCH   6   7
ATOM      7  C   UNL     1      33.869  42.831  51.995  1.00  0.00    -0.000 C 
BRANCH   7   8
ATOM      8  C   UNL     1      33.515  44.085  52.814  1.00  0.00    -0.000 C 
BRANCH   8   9
ATOM      9  C   UNL     1      34.539  45.216  52.628  1.00  0.00    -0.000 C 
BRANCH   9  10
ATOM     10  C   UNL     1      35.478  44.971  51.434  1.00  0.00    -0.000 C 
BRANCH  10  11
ATOM     11  C   UNL     1      35.270  45.989  50.303  1.00  0.00    -0.003 C 
ATOM     12  C   UNL     1      34.683  45.355  49.041  1.00  0.00     0.004 C 
ENDBRANCH  10  11
ENDBRANCH   9  10
ENDBRANCH   8   9
ENDBRANCH   7   8
ENDBRANCH   6   7
ENDBRANCH   5   6
ENDBRANCH   4   5
ENDBRANCH   3   4
ENDBRANCH   2   3
ENDBRANCH   1   2
BRANCH   1  13
ATOM     13  C   UNL     1      31.417  43.198  45.567  1.00  0.00     0.000 C 
BRANCH  13  14
ATOM     14  C   UNL     1      31.878  44.513  44.912  1.00  0.00     0.000 C 
BRANCH  14  15
ATOM     15  C   UNL     1      32.894  44.352  43.763  1.00  0.00     0.000 C 
BRANCH  15  16
ATOM     16  C   UNL     1      34.340  44.767  44.100  1.00  0.00     0.000 C 
BRANCH  16  17
ATOM     17  C   UNL     1      34.704  44.716  45.595  1.00  0.00     0.000 C 
BRANCH  17  18
ATOM     18  C   UNL     1      36.020  43.966  45.863  1.00  0.00     0.000 C 
BRANCH  18  19
ATOM     19  C   UNL     1      35.834  42.730  46.764  1.00  0.00     0.000 C 
BRANCH  19  20
ATOM     20  C   UNL     1      37.086  42.293  47.550  1.00  0.00     0.006 C 
BRANCH  20  21
ATOM     21  C   UNL     1      37.022  42.568  49.060  1.00  0.00     0.053 C 
BRANCH  21  22
ATOM     22  C   UNL     1      38.292  42.180  49.753  1.00  0.00     0.041 C 
ATOM     23  O   UNL     1      38.890  41.118  49.436  1.00  0.00    -0.550 OA
ATOM     24  O   UNL     1      38.832  43.008  50.728  1.00  0.00    -0.550 OA
ENDBRANCH  21  22
ENDBRANCH  20  21
ENDBRANCH  19  20
ENDBRANCH  18  19
ENDBRANCH  17  18
ENDBRANCH  16  17
ENDBRANCH  15  16
ENDBRANCH  14  15
ENDBRANCH  13  14
ENDBRANCH   1  13
TORSDOF 20
ENDMDL
MODEL 6
REMARK VINA RESULT:    -4.886      1.078      1.865
REMARK INTER + INTRA:         -13.663
REMARK INTER:                 -10.485
REMARK INTRA:                  -3.179
REMARK UNBOUND:                -3.065
REMARK SMILES CCCCCCCCCCCCCCCCCCCCCC(=O)[O-]
REMARK SMILES IDX 12 1 11 2 10 3 9 4 8 5 7 6 6 7 5 8 4 9 3 10 2 11 1 12 13 13
REMARK SMILES IDX 14 14 15 15 16 16 17 17 18 18 19 19 20 20 21 21 22 22 23 23
REMARK SMILES IDX 24 24
REMARK H PARENT
REMARK Flexibility Score: inf
ROOT
ATOM      1  C   UNL     1      34.717  44.189  47.781  1.00  0.00     0.000 C 
ENDROOT
BRANCH   1   2
ATOM      2  C   UNL     1      33.648  44.485  48.846  1.00  0.00     0.000 C 
BRANCH   2   3
ATOM      3  C   UNL     1      32.687  43.304  49.074  1.00  0.00     0.000 C 
BRANCH   3   4
ATOM      4  C   UNL     1      31.299  43.772  49.563  1.00  0.00    -0.000 C 
BRANCH   4   5
ATOM      5  C   UNL     1      30.126  43.081  48.847  1.00  0.00    -0.000 C 
BRANCH   5   6
ATOM      6  C   UNL     1      29.974  43.528  47.384  1.00  0.00    -0.000 C 
BRANCH   6   7
ATOM      7  C   UNL     1      30.244  42.388  46.389  1.00  0.00    -0.000 C 
BRANCH   7   8
ATOM      8  C   UNL     1      31.335  42.743  45.364  1.00  0.00    -0.000 C 
BRANCH   8   9
ATOM      9  C   UNL     1      31.880  44.168  45.556  1.00  0.00    -0.000 C 
BRANCH   9  10
ATOM     10  C   UNL     1      31.926  44.965  44.240  1.00  0.00    -0.000 C 
BRANCH  10  11
ATOM     11  C   UNL     1      33.225  44.729  43.454  1.00  0.00    -0.003 C 
ATOM     12  C   UNL     1      34.473  44.847  44.329  1.00  0.00     0.004 C 
ENDBRANCH  10  11
ENDBRANCH   9  10
ENDBRANCH   8   9
ENDBRANCH   7   8
ENDBRANCH   6   7
ENDBRANCH   5   6
ENDBRANCH   4   5
ENDBRANCH   3   4
ENDBRANCH   2   3
ENDBRANCH   1   2
BRANCH   1  13
ATOM     13  C   UNL     1      34.864  42.685  47.495  1.00  0.00     0.000 C 
BRANCH  13  14
ATOM     14  C   UNL     1      36.232  42.324  46.887  1.00  0.00     0.000 C 
BRANCH  14  15
ATOM     15  C   UNL     1      37.453  42.715  47.744  1.00  0.00     0.000 C 
BRANCH  15  16
ATOM     16  C   UNL     1      38.120  41.553  48.506  1.00  0.00     0.000 C 
BRANCH  16  17
ATOM     17  C   UNL     1      38.469  41.849  49.977  1.00  0.00     0.000 C 
BRANCH  17  18
ATOM     18  C   UNL     1      37.656  43.018  50.559  1.00  0.00     0.000 C 
BRANCH  18  19
ATOM     19  C   UNL     1      36.248  42.598  51.023  1.00  0.00     0.000 C 
BRANCH  19  20
ATOM     20  C   UNL     1      35.405  43.716  51.667  1.00  0.00     0.006 C 
BRANCH  20  21
ATOM     21  C   UNL     1      34.316  43.223  52.631  1.00  0.00     0.053 C 
BRANCH  21  22
ATOM     22  C   UNL     1      33.184  44.198  52.743  1.00  0.00     0.041 C 
ATOM     23  O   UNL     1      32.024  43.796  53.022  1.00  0.00    -0.550 OA
ATOM     24  O   UNL     1      33.418  45.556  52.570  1.00  0.00    -0.550 OA
ENDBRANCH  21  22
ENDBRANCH  20  21
ENDBRANCH  19  20
ENDBRANCH  18  19
ENDBRANCH  17  18
ENDBRANCH  16  17
ENDBRANCH  15  16
ENDBRANCH  14  15
ENDBRANCH  13  14
ENDBRANCH   1  13
TORSDOF 20
ENDMDL
MODEL 7
REMARK VINA RESULT:    -4.827     14.567     16.706
REMARK INTER + INTRA:         -13.537
REMARK INTER:                 -10.099
REMARK INTRA:                  -3.438
REMARK UNBOUND:                -3.065
REMARK SMILES CCCCCCCCCCCCCCCCCCCCCC(=O)[O-]
REMARK SMILES IDX 12 1 11 2 10 3 9 4 8 5 7 6 6 7 5 8 4 9 3 10 2 11 1 12 13 13
REMARK SMILES IDX 14 14 15 15 16 16 17 17 18 18 19 19 20 20 21 21 22 22 23 23
REMARK SMILES IDX 24 24
REMARK H PARENT
REMARK Flexibility Score: inf
ROOT
ATOM      1  C   UNL     1      47.446  45.613  39.250  1.00  0.00     0.000 C 
ENDROOT
BRANCH   1   2
ATOM      2  C   UNL     1      46.158  44.863  38.869  1.00  0.00     0.000 C 
BRANCH   2   3
ATOM      3  C   UNL     1      44.885  45.571  39.367  1.00  0.00     0.000 C 
BRANCH   3   4
ATOM      4  C   UNL     1      45.110  47.083  39.584  1.00  0.00    -0.000 C 
BRANCH   4   5
ATOM      5  C   UNL     1      44.101  47.972  38.837  1.00  0.00    -0.000 C 
BRANCH   5   6
ATOM      6  C   UNL     1      44.779  48.990  37.906  1.00  0.00    -0.000 C 
BRANCH   6   7
ATOM      7  C   UNL     1      46.314  48.919  37.974  1.00  0.00    -0.000 C 
BRANCH   7   8
ATOM      8  C   UNL     1      46.944  48.464  36.647  1.00  0.00    -0.000 C 
BRANCH   8   9
ATOM      9  C   UNL     1      46.042  47.491  35.871  1.00  0.00    -0.000 C 
BRANCH   9  10
ATOM     10  C   UNL     1      46.785  46.215  35.438  1.00  0.00    -0.000 C 
BRANCH  10  11
ATOM     11  C   UNL     1      45.877  45.232  34.683  1.00  0.00    -0.003 C 
ATOM     12  C   UNL     1      46.386  43.792  34.746  1.00  0.00     0.004 C 
ENDBRANCH  10  11
ENDBRANCH   9  10
ENDBRANCH   8   9
ENDBRANCH   7   8
ENDBRANCH   6   7
ENDBRANCH   5   6
ENDBRANCH   4   5
ENDBRANCH   3   4
ENDBRANCH   2   3
ENDBRANCH   1   2
BRANCH   1  13
ATOM     13  C   UNL     1      48.649  45.193  38.390  1.00  0.00     0.000 C 
BRANCH  13  14
ATOM     14  C   UNL     1      48.492  43.784  37.789  1.00  0.00     0.000 C 
BRANCH  14  15
ATOM     15  C   UNL     1      49.795  42.966  37.688  1.00  0.00     0.000 C 
BRANCH  15  16
ATOM     16  C   UNL     1      50.082  42.036  38.883  1.00  0.00     0.000 C 
BRANCH  16  17
ATOM     17  C   UNL     1      48.995  40.984  39.171  1.00  0.00     0.000 C 
BRANCH  17  18
ATOM     18  C   UNL     1      48.569  40.207  37.914  1.00  0.00     0.000 C 
BRANCH  18  19
ATOM     19  C   UNL     1      47.040  40.116  37.755  1.00  0.00     0.000 C 
BRANCH  19  20
ATOM     20  C   UNL     1      46.228  41.118  38.600  1.00  0.00     0.006 C 
BRANCH  20  21
ATOM     21  C   UNL     1      44.856  41.486  38.013  1.00  0.00     0.053 C 
BRANCH  21  22
ATOM     22  C   UNL     1      43.864  40.376  38.172  1.00  0.00     0.041 C 
ATOM     23  O   UNL     1      43.849  39.683  39.224  1.00  0.00    -0.550 OA
ATOM     24  O   UNL     1      42.934  40.127  37.172  1.00  0.00    -0.550 OA
ENDBRANCH  21  22
ENDBRANCH  20  21
ENDBRANCH  19  20
ENDBRANCH  18  19
ENDBRANCH  17  18
ENDBRANCH  16  17
ENDBRANCH  15  16
ENDBRANCH  14  15
ENDBRANCH  13  14
ENDBRANCH   1  13
TORSDOF 20
ENDMDL
MODEL 8
REMARK VINA RESULT:    -4.777     14.811     17.104
REMARK INTER + INTRA:         -13.426
REMARK INTER:                  -9.963
REMARK INTRA:                  -3.464
REMARK UNBOUND:                -3.065
REMARK SMILES CCCCCCCCCCCCCCCCCCCCCC(=O)[O-]
REMARK SMILES IDX 12 1 11 2 10 3 9 4 8 5 7 6 6 7 5 8 4 9 3 10 2 11 1 12 13 13
REMARK SMILES IDX 14 14 15 15 16 16 17 17 18 18 19 19 20 20 21 21 22 22 23 23
REMARK SMILES IDX 24 24
REMARK H PARENT
REMARK Flexibility Score: inf
ROOT
ATOM      1  C   UNL     1      46.401  46.056  35.291  1.00  0.00     0.000 C 
ENDROOT
BRANCH   1   2
ATOM      2  C   UNL     1      47.804  45.960  35.912  1.00  0.00     0.000 C 
BRANCH   2   3
ATOM      3  C   UNL     1      47.884  46.596  37.312  1.00  0.00     0.000 C 
BRANCH   3   4
ATOM      4  C   UNL     1      47.835  45.536  38.433  1.00  0.00    -0.000 C 
BRANCH   4   5
ATOM      5  C   UNL     1      46.700  45.760  39.447  1.00  0.00    -0.000 C 
BRANCH   5   6
ATOM      6  C   UNL     1      45.372  46.151  38.779  1.00  0.00    -0.000 C 
BRANCH   6   7
ATOM      7  C   UNL     1      44.505  47.052  39.674  1.00  0.00    -0.000 C 
BRANCH   7   8
ATOM      8  C   UNL     1      43.899  48.241  38.907  1.00  0.00    -0.000 C 
BRANCH   8   9
ATOM      9  C   UNL     1      44.720  48.617  37.664  1.00  0.00    -0.000 C 
BRANCH   9  10
ATOM     10  C   UNL     1      45.275  50.051  37.735  1.00  0.00    -0.000 C 
BRANCH  10  11
ATOM     11  C   UNL     1      46.794  50.106  37.512  1.00  0.00    -0.003 C 
ATOM     12  C   UNL     1      47.587  49.866  38.798  1.00  0.00     0.004 C 
ENDBRANCH  10  11
ENDBRANCH   9  10
ENDBRANCH   8   9
ENDBRANCH   7   8
ENDBRANCH   6   7
ENDBRANCH   5   6
ENDBRANCH   4   5
ENDBRANCH   3   4
ENDBRANCH   2   3
ENDBRANCH   1   2
BRANCH   1  13
ATOM     13  C   UNL     1      45.980  44.758  34.581  1.00  0.00     0.000 C 
BRANCH  13  14
ATOM     14  C   UNL     1      46.998  43.618  34.769  1.00  0.00     0.000 C 
BRANCH  14  15
ATOM     15  C   UNL     1      46.483  42.405  35.570  1.00  0.00     0.000 C 
BRANCH  15  16
ATOM     16  C   UNL     1      47.411  41.923  36.702  1.00  0.00     0.000 C 
BRANCH  16  17
ATOM     17  C   UNL     1      46.825  42.031  38.122  1.00  0.00     0.000 C 
BRANCH  17  18
ATOM     18  C   UNL     1      45.383  42.565  38.132  1.00  0.00     0.000 C 
BRANCH  18  19
ATOM     19  C   UNL     1      44.358  41.516  38.603  1.00  0.00     0.000 C 
BRANCH  19  20
ATOM     20  C   UNL     1      44.782  40.046  38.407  1.00  0.00     0.006 C 
BRANCH  20  21
ATOM     21  C   UNL     1      44.390  39.443  37.049  1.00  0.00     0.053 C 
BRANCH  21  22
ATOM     22  C   UNL     1      45.318  38.342  36.638  1.00  0.00     0.041 C 
ATOM     23  O   UNL     1      44.867  37.304  36.085  1.00  0.00    -0.550 OA
ATOM     24  O   UNL     1      46.686  38.475  36.837  1.00  0.00    -0.550 OA
ENDBRANCH  21  22
ENDBRANCH  20  21
ENDBRANCH  19  20
ENDBRANCH  18  19
ENDBRANCH  17  18
ENDBRANCH  16  17
ENDBRANCH  15  16
ENDBRANCH  14  15
ENDBRANCH  13  14
ENDBRANCH   1  13
TORSDOF 20
ENDMDL
MODEL 9
REMARK VINA RESULT:    -4.766     14.851     16.932
REMARK INTER + INTRA:         -13.404
REMARK INTER:                  -9.836
REMARK INTRA:                  -3.568
REMARK UNBOUND:                -3.065
REMARK SMILES CCCCCCCCCCCCCCCCCCCCCC(=O)[O-]
REMARK SMILES IDX 12 1 11 2 10 3 9 4 8 5 7 6 6 7 5 8 4 9 3 10 2 11 1 12 13 13
REMARK SMILES IDX 14 14 15 15 16 16 17 17 18 18 19 19 20 20 21 21 22 22 23 23
REMARK SMILES IDX 24 24
REMARK H PARENT
REMARK Flexibility Score: inf
ROOT
ATOM      1  C   UNL     1      47.867  40.965  35.264  1.00  0.00     0.000 C 
ENDROOT
BRANCH   1   2
ATOM      2  C   UNL     1      46.783  42.047  35.128  1.00  0.00     0.000 C 
BRANCH   2   3
ATOM      3  C   UNL     1      45.624  41.861  36.125  1.00  0.00     0.000 C 
BRANCH   3   4
ATOM      4  C   UNL     1      45.207  40.380  36.257  1.00  0.00    -0.000 C 
BRANCH   4   5
ATOM      5  C   UNL     1      44.058  40.148  37.253  1.00  0.00    -0.000 C 
BRANCH   5   6
ATOM      6  C   UNL     1      44.406  40.598  38.681  1.00  0.00    -0.000 C 
BRANCH   6   7
ATOM      7  C   UNL     1      45.609  39.836  39.261  1.00  0.00    -0.000 C 
BRANCH   7   8
ATOM      8  C   UNL     1      45.227  38.442  39.790  1.00  0.00    -0.000 C 
BRANCH   8   9
ATOM      9  C   UNL     1      46.116  37.330  39.211  1.00  0.00    -0.000 C 
BRANCH   9  10
ATOM     10  C   UNL     1      47.356  37.883  38.487  1.00  0.00    -0.000 C 
BRANCH  10  11
ATOM     11  C   UNL     1      47.485  37.352  37.052  1.00  0.00    -0.003 C 
ATOM     12  C   UNL     1      46.161  36.826  36.496  1.00  0.00     0.004 C 
ENDBRANCH  10  11
ENDBRANCH   9  10
ENDBRANCH   8   9
ENDBRANCH   7   8
ENDBRANCH   6   7
ENDBRANCH   5   6
ENDBRANCH   4   5
ENDBRANCH   3   4
ENDBRANCH   2   3
ENDBRANCH   1   2
BRANCH   1  13
ATOM     13  C   UNL     1      49.047  41.419  36.140  1.00  0.00     0.000 C 
BRANCH  13  14
ATOM     14  C   UNL     1      48.912  40.965  37.606  1.00  0.00     0.000 C 
BRANCH  14  15
ATOM     15  C   UNL     1      48.487  42.068  38.597  1.00  0.00     0.000 C 
BRANCH  15  16
ATOM     16  C   UNL     1      48.866  43.504  38.184  1.00  0.00     0.000 C 
BRANCH  16  17
ATOM     17  C   UNL     1      47.676  44.443  37.910  1.00  0.00     0.000 C 
BRANCH  17  18
ATOM     18  C   UNL     1      46.441  44.104  38.762  1.00  0.00     0.000 C 
BRANCH  18  19
ATOM     19  C   UNL     1      45.377  45.218  38.745  1.00  0.00     0.000 C 
BRANCH  19  20
ATOM     20  C   UNL     1      45.694  46.445  39.624  1.00  0.00     0.006 C 
BRANCH  20  21
ATOM     21  C   UNL     1      46.022  47.725  38.841  1.00  0.00     0.053 C 
BRANCH  21  22
ATOM     22  C   UNL     1      44.791  48.370  38.282  1.00  0.00     0.041 C 
ATOM     23  O   UNL     1      44.844  49.007  37.196  1.00  0.00    -0.550 OA
ATOM     24  O   UNL     1      43.578  48.241  38.944  1.00  0.00    -0.550 OA
ENDBRANCH  21  22
ENDBRANCH  20  21
ENDBRANCH  19  20
ENDBRANCH  18  19
ENDBRANCH  17  18
ENDBRANCH  16  17
ENDBRANCH  15  16
ENDBRANCH  14  15
ENDBRANCH  13  14
ENDBRANCH   1  13
TORSDOF 20
ENDMDL
