MODEL 1
REMARK VINA RESULT:    -5.894      0.000      0.000
REMARK INTER + INTRA:          -7.652
REMARK INTER:                  -7.272
REMARK INTRA:                  -0.379
REMARK UNBOUND:                -0.379
REMARK SMILES Oc1cc(O)c2cc(O)c(-c3cc(O)c(O)c(O)c3)[o+]c2c1
REMARK SMILES IDX 10 1 20 2 21 3 22 4 2 5 3 6 4 7 6 8 7 9 8 10 11 11 12 12
REMARK SMILES IDX 13 13 19 14 15 15 17 16 14 17 16 19 18 21 9 23 1 25 5 27
REMARK H PARENT 14 18 16 20 18 22 9 24 1 26 5 28
REMARK Flexibility Score: inf
ROOT
ATOM      1  C   UNL     1      47.994 -27.439  -4.147  1.00  0.00     0.402 A 
ATOM      2  O   UNL     1      46.855 -26.874  -3.753  1.00  0.00    -0.202 OA
ATOM      3  C   UNL     1      46.685 -26.337  -2.549  1.00  0.00     0.368 A 
ATOM      4  C   UNL     1      45.452 -25.763  -2.229  1.00  0.00     0.162 A 
ATOM      5  C   UNL     1      45.246 -25.189  -0.974  1.00  0.00     0.128 A 
ATOM      6  C   UNL     1      46.280 -25.186  -0.031  1.00  0.00     0.093 A 
ATOM      7  C   UNL     1      47.525 -25.753  -0.328  1.00  0.00     0.136 A 
ATOM      8  C   UNL     1      47.738 -26.341  -1.603  1.00  0.00     0.125 A 
ATOM      9  C   UNL     1      48.947 -26.944  -1.982  1.00  0.00     0.078 A 
ATOM     10  C   UNL     1      49.081 -27.507  -3.255  1.00  0.00     0.223 A 
ENDROOT
BRANCH   1  11
ATOM     11  C   UNL     1      48.062 -27.994  -5.517  1.00  0.00     0.091 A 
ATOM     12  C   UNL     1      47.682 -29.320  -5.789  1.00  0.00     0.068 A 
ATOM     13  C   UNL     1      47.775 -29.836  -7.089  1.00  0.00     0.162 A 
ATOM     14  C   UNL     1      48.568 -27.203  -6.560  1.00  0.00     0.068 A 
ATOM     15  C   UNL     1      48.261 -29.028  -8.131  1.00  0.00     0.200 A 
ATOM     16  C   UNL     1      48.661 -27.709  -7.860  1.00  0.00     0.162 A 
BRANCH  13  17
ATOM     17  O   UNL     1      47.390 -31.150  -7.348  1.00  0.00    -0.504 OA
ATOM     18  H   UNL     1      46.459 -31.376  -7.682  1.00  0.00     0.293 HD
ENDBRANCH  13  17
BRANCH  15  19
ATOM     19  O   UNL     1      48.355 -29.523  -9.432  1.00  0.00    -0.502 OA
ATOM     20  H   UNL     1      48.463 -28.914 -10.235  1.00  0.00     0.293 HD
ENDBRANCH  15  19
BRANCH  16  21
ATOM     21  O   UNL     1      49.156 -26.884  -8.870  1.00  0.00    -0.504 OA
ATOM     22  H   UNL     1      49.518 -27.255  -9.741  1.00  0.00     0.293 HD
ENDBRANCH  16  21
ENDBRANCH   1  11
BRANCH  10  23
ATOM     23  O   UNL     1      50.265 -28.151  -3.616  1.00  0.00    -0.500 OA
ATOM     24  H   UNL     1      50.388 -29.148  -3.489  1.00  0.00     0.294 HD
ENDBRANCH  10  23
BRANCH   5  25
ATOM     25  O   UNL     1      44.009 -24.623  -0.673  1.00  0.00    -0.507 OA
ATOM     26  H   UNL     1      43.451 -24.954   0.104  1.00  0.00     0.293 HD
ENDBRANCH   5  25
BRANCH   7  27
ATOM     27  O   UNL     1      48.508 -25.707   0.665  1.00  0.00    -0.507 OA
ATOM     28  H   UNL     1      48.631 -26.409   1.379  1.00  0.00     0.293 HD
ENDBRANCH   7  27
TORSDOF 7
ENDMDL
MODEL 2
REMARK VINA RESULT:    -5.824      0.092      1.796
REMARK INTER + INTRA:          -7.566
REMARK INTER:                  -7.182
REMARK INTRA:                  -0.383
REMARK UNBOUND:                -0.379
REMARK SMILES Oc1cc(O)c2cc(O)c(-c3cc(O)c(O)c(O)c3)[o+]c2c1
REMARK SMILES IDX 10 1 20 2 21 3 22 4 2 5 3 6 4 7 6 8 7 9 8 10 11 11 12 12
REMARK SMILES IDX 13 13 19 14 15 15 17 16 14 17 16 19 18 21 9 23 1 25 5 27
REMARK H PARENT 14 18 16 20 18 22 9 24 1 26 5 28
REMARK Flexibility Score: inf
ROOT
ATOM      1  C   UNL     1      48.088 -27.384  -4.106  1.00  0.00     0.402 A 
ATOM      2  O   UNL     1      46.936 -26.834  -3.728  1.00  0.00    -0.202 OA
ATOM      3  C   UNL     1      46.742 -26.304  -2.525  1.00  0.00     0.368 A 
ATOM      4  C   UNL     1      45.498 -25.745  -2.222  1.00  0.00     0.162 A 
ATOM      5  C   UNL     1      45.266 -25.178  -0.968  1.00  0.00     0.128 A 
ATOM      6  C   UNL     1      46.286 -25.167  -0.009  1.00  0.00     0.093 A 
ATOM      7  C   UNL     1      47.541 -25.719  -0.289  1.00  0.00     0.136 A 
ATOM      8  C   UNL     1      47.780 -26.300  -1.562  1.00  0.00     0.125 A 
ATOM      9  C   UNL     1      49.002 -26.888  -1.926  1.00  0.00     0.078 A 
ATOM     10  C   UNL     1      49.162 -27.444  -3.199  1.00  0.00     0.223 A 
ENDROOT
BRANCH   1  11
ATOM     11  C   UNL     1      48.183 -27.934  -5.478  1.00  0.00     0.091 A 
ATOM     12  C   UNL     1      48.675 -27.161  -6.544  1.00  0.00     0.068 A 
ATOM     13  C   UNL     1      48.737 -27.690  -7.840  1.00  0.00     0.162 A 
ATOM     14  C   UNL     1      47.723 -29.234  -5.734  1.00  0.00     0.068 A 
ATOM     15  C   UNL     1      48.294 -29.002  -8.083  1.00  0.00     0.200 A 
ATOM     16  C   UNL     1      47.783 -29.772  -7.024  1.00  0.00     0.162 A 
BRANCH  13  17
ATOM     17  O   UNL     1      49.231 -26.916  -8.888  1.00  0.00    -0.504 OA
ATOM     18  H   UNL     1      50.103 -27.146  -9.353  1.00  0.00     0.293 HD
ENDBRANCH  13  17
BRANCH  15  19
ATOM     19  O   UNL     1      48.353 -29.548  -9.365  1.00  0.00    -0.502 OA
ATOM     20  H   UNL     1      47.753 -29.228 -10.117  1.00  0.00     0.293 HD
ENDBRANCH  15  19
BRANCH  16  21
ATOM     21  O   UNL     1      47.328 -31.074  -7.233  1.00  0.00    -0.504 OA
ATOM     22  H   UNL     1      47.233 -31.468  -8.162  1.00  0.00     0.293 HD
ENDBRANCH  16  21
ENDBRANCH   1  11
BRANCH  10  23
ATOM     23  O   UNL     1      50.358 -28.073  -3.543  1.00  0.00    -0.500 OA
ATOM     24  H   UNL     1      50.546 -28.378  -4.491  1.00  0.00     0.294 HD
ENDBRANCH  10  23
BRANCH   5  25
ATOM     25  O   UNL     1      44.019 -24.627  -0.684  1.00  0.00    -0.507 OA
ATOM     26  H   UNL     1      43.925 -23.793  -0.117  1.00  0.00     0.293 HD
ENDBRANCH   5  25
BRANCH   7  27
ATOM     27  O   UNL     1      48.508 -25.666   0.720  1.00  0.00    -0.507 OA
ATOM     28  H   UNL     1      48.507 -24.996   1.474  1.00  0.00     0.293 HD
ENDBRANCH   7  27
TORSDOF 7
ENDMDL
MODEL 3
REMARK VINA RESULT:    -5.305      1.383      7.273
REMARK INTER + INTRA:          -6.925
REMARK INTER:                  -6.634
REMARK INTRA:                  -0.291
REMARK UNBOUND:                -0.379
REMARK SMILES Oc1cc(O)c2cc(O)c(-c3cc(O)c(O)c(O)c3)[o+]c2c1
REMARK SMILES IDX 10 1 20 2 21 3 22 4 2 5 3 6 4 7 6 8 7 9 8 10 11 11 12 12
REMARK SMILES IDX 13 13 19 14 15 15 17 16 14 17 16 19 18 21 9 23 1 25 5 27
REMARK H PARENT 14 18 16 20 18 22 9 24 1 26 5 28
REMARK Flexibility Score: inf
ROOT
ATOM      1  C   UNL     1      47.823 -27.397  -4.387  1.00  0.00     0.402 A 
ATOM      2  O   UNL     1      48.645 -27.032  -5.368  1.00  0.00    -0.202 OA
ATOM      3  C   UNL     1      48.733 -27.679  -6.525  1.00  0.00     0.368 A 
ATOM      4  C   UNL     1      49.624 -27.215  -7.496  1.00  0.00     0.162 A 
ATOM      5  C   UNL     1      49.736 -27.873  -8.722  1.00  0.00     0.128 A 
ATOM      6  C   UNL     1      48.950 -29.002  -8.981  1.00  0.00     0.093 A 
ATOM      7  C   UNL     1      48.049 -29.485  -8.024  1.00  0.00     0.136 A 
ATOM      8  C   UNL     1      47.935 -28.821  -6.775  1.00  0.00     0.125 A 
ATOM      9  C   UNL     1      47.069 -29.242  -5.753  1.00  0.00     0.078 A 
ATOM     10  C   UNL     1      47.014 -28.538  -4.546  1.00  0.00     0.223 A 
ENDROOT
BRANCH   1  11
ATOM     11  C   UNL     1      47.810 -26.589  -3.147  1.00  0.00     0.091 A 
ATOM     12  C   UNL     1      48.877 -26.632  -2.233  1.00  0.00     0.068 A 
ATOM     13  C   UNL     1      48.836 -25.877  -1.053  1.00  0.00     0.162 A 
ATOM     14  C   UNL     1      46.686 -25.804  -2.846  1.00  0.00     0.068 A 
ATOM     15  C   UNL     1      47.716 -25.076  -0.771  1.00  0.00     0.200 A 
ATOM     16  C   UNL     1      46.638 -25.045  -1.672  1.00  0.00     0.162 A 
BRANCH  13  17
ATOM     17  O   UNL     1      49.903 -25.923  -0.157  1.00  0.00    -0.504 OA
ATOM     18  H   UNL     1      50.865 -25.884  -0.474  1.00  0.00     0.293 HD
ENDBRANCH  13  17
BRANCH  15  19
ATOM     19  O   UNL     1      47.661 -24.313   0.395  1.00  0.00    -0.502 OA
ATOM     20  H   UNL     1      48.491 -23.919   0.823  1.00  0.00     0.293 HD
ENDBRANCH  15  19
BRANCH  16  21
ATOM     21  O   UNL     1      45.508 -24.267  -1.418  1.00  0.00    -0.504 OA
ATOM     22  H   UNL     1      45.510 -23.261  -1.536  1.00  0.00     0.293 HD
ENDBRANCH  16  21
ENDBRANCH   1  11
BRANCH  10  23
ATOM     23  O   UNL     1      46.192 -28.985  -3.512  1.00  0.00    -0.500 OA
ATOM     24  H   UNL     1      46.486 -29.718  -2.877  1.00  0.00     0.294 HD
ENDBRANCH  10  23
BRANCH   5  25
ATOM     25  O   UNL     1      50.630 -27.396  -9.677  1.00  0.00    -0.507 OA
ATOM     26  H   UNL     1      50.511 -27.600 -10.663  1.00  0.00     0.293 HD
ENDBRANCH   5  25
BRANCH   7  27
ATOM     27  O   UNL     1      47.297 -30.615  -8.361  1.00  0.00    -0.507 OA
ATOM     28  H   UNL     1      47.585 -31.313  -9.030  1.00  0.00     0.293 HD
ENDBRANCH   7  27
TORSDOF 7
ENDMDL
MODEL 4
REMARK VINA RESULT:    -5.288      1.392      7.297
REMARK INTER + INTRA:          -6.905
REMARK INTER:                  -6.591
REMARK INTRA:                  -0.313
REMARK UNBOUND:                -0.379
REMARK SMILES Oc1cc(O)c2cc(O)c(-c3cc(O)c(O)c(O)c3)[o+]c2c1
REMARK SMILES IDX 10 1 20 2 21 3 22 4 2 5 3 6 4 7 6 8 7 9 8 10 11 11 12 12
REMARK SMILES IDX 13 13 19 14 15 15 17 16 14 17 16 19 18 21 9 23 1 25 5 27
REMARK H PARENT 14 18 16 20 18 22 9 24 1 26 5 28
REMARK Flexibility Score: inf
ROOT
ATOM      1  C   UNL     1      47.829 -27.516  -4.550  1.00  0.00     0.402 A 
ATOM      2  O   UNL     1      48.672 -27.121  -5.502  1.00  0.00    -0.202 OA
ATOM      3  C   UNL     1      48.783 -27.731  -6.677  1.00  0.00     0.368 A 
ATOM      4  C   UNL     1      49.695 -27.239  -7.614  1.00  0.00     0.162 A 
ATOM      5  C   UNL     1      49.830 -27.857  -8.858  1.00  0.00     0.128 A 
ATOM      6  C   UNL     1      49.047 -28.975  -9.169  1.00  0.00     0.093 A 
ATOM      7  C   UNL     1      48.126 -29.486  -8.248  1.00  0.00     0.136 A 
ATOM      8  C   UNL     1      47.987 -28.862  -6.980  1.00  0.00     0.125 A 
ATOM      9  C   UNL     1      47.099 -29.313  -5.991  1.00  0.00     0.078 A 
ATOM     10  C   UNL     1      47.021 -28.648  -4.763  1.00  0.00     0.223 A 
ENDROOT
BRANCH   1  11
ATOM     11  C   UNL     1      47.792 -26.747  -3.285  1.00  0.00     0.091 A 
ATOM     12  C   UNL     1      46.692 -25.937  -2.954  1.00  0.00     0.068 A 
ATOM     13  C   UNL     1      46.684 -25.198  -1.762  1.00  0.00     0.162 A 
ATOM     14  C   UNL     1      48.898 -26.782  -2.423  1.00  0.00     0.068 A 
ATOM     15  C   UNL     1      47.787 -25.257  -0.894  1.00  0.00     0.200 A 
ATOM     16  C   UNL     1      48.898 -26.050  -1.231  1.00  0.00     0.162 A 
BRANCH  13  17
ATOM     17  O   UNL     1      45.586 -24.402  -1.441  1.00  0.00    -0.504 OA
ATOM     18  H   UNL     1      45.699 -23.458  -1.089  1.00  0.00     0.293 HD
ENDBRANCH  13  17
BRANCH  15  19
ATOM     19  O   UNL     1      47.795 -24.533   0.299  1.00  0.00    -0.502 OA
ATOM     20  H   UNL     1      47.598 -23.540   0.329  1.00  0.00     0.293 HD
ENDBRANCH  15  19
BRANCH  16  21
ATOM     21  O   UNL     1      50.012 -26.124  -0.395  1.00  0.00    -0.504 OA
ATOM     22  H   UNL     1      50.017 -25.715   0.532  1.00  0.00     0.293 HD
ENDBRANCH  16  21
ENDBRANCH   1  11
BRANCH  10  23
ATOM     23  O   UNL     1      46.176 -29.126  -3.761  1.00  0.00    -0.500 OA
ATOM     24  H   UNL     1      46.505 -29.767  -3.049  1.00  0.00     0.294 HD
ENDBRANCH  10  23
BRANCH   5  25
ATOM     25  O   UNL     1      50.746 -27.353  -9.779  1.00  0.00    -0.507 OA
ATOM     26  H   UNL     1      51.738 -27.326  -9.578  1.00  0.00     0.293 HD
ENDBRANCH   5  25
BRANCH   7  27
ATOM     27  O   UNL     1      47.379 -30.602  -8.636  1.00  0.00    -0.507 OA
ATOM     28  H   UNL     1      47.768 -31.517  -8.808  1.00  0.00     0.293 HD
ENDBRANCH   7  27
TORSDOF 7
ENDMDL
MODEL 5
REMARK VINA RESULT:    -4.393      1.875      7.380
REMARK INTER + INTRA:          -5.800
REMARK INTER:                  -5.533
REMARK INTRA:                  -0.266
REMARK UNBOUND:                -0.379
REMARK SMILES Oc1cc(O)c2cc(O)c(-c3cc(O)c(O)c(O)c3)[o+]c2c1
REMARK SMILES IDX 10 1 20 2 21 3 22 4 2 5 3 6 4 7 6 8 7 9 8 10 11 11 12 12
REMARK SMILES IDX 13 13 19 14 15 15 17 16 14 17 16 19 18 21 9 23 1 25 5 27
REMARK H PARENT 14 18 16 20 18 22 9 24 1 26 5 28
REMARK Flexibility Score: inf
ROOT
ATOM      1  C   UNL     1      46.398 -26.268  -1.559  1.00  0.00     0.402 A 
ATOM      2  O   UNL     1      46.299 -27.041  -2.639  1.00  0.00    -0.202 OA
ATOM      3  C   UNL     1      47.352 -27.520  -3.292  1.00  0.00     0.368 A 
ATOM      4  C   UNL     1      47.146 -28.327  -4.414  1.00  0.00     0.162 A 
ATOM      5  C   UNL     1      48.233 -28.847  -5.118  1.00  0.00     0.128 A 
ATOM      6  C   UNL     1      49.536 -28.560  -4.697  1.00  0.00     0.093 A 
ATOM      7  C   UNL     1      49.769 -27.755  -3.576  1.00  0.00     0.136 A 
ATOM      8  C   UNL     1      48.666 -27.222  -2.859  1.00  0.00     0.125 A 
ATOM      9  C   UNL     1      48.805 -26.395  -1.733  1.00  0.00     0.078 A 
ATOM     10  C   UNL     1      47.670 -25.904  -1.080  1.00  0.00     0.223 A 
ENDROOT
BRANCH   1  11
ATOM     11  C   UNL     1      45.149 -25.804  -0.913  1.00  0.00     0.091 A 
ATOM     12  C   UNL     1      44.763 -24.454  -0.952  1.00  0.00     0.068 A 
ATOM     13  C   UNL     1      43.589 -24.029  -0.315  1.00  0.00     0.162 A 
ATOM     14  C   UNL     1      44.360 -26.719  -0.199  1.00  0.00     0.068 A 
ATOM     15  C   UNL     1      42.793 -24.956   0.379  1.00  0.00     0.200 A 
ATOM     16  C   UNL     1      43.186 -26.304   0.438  1.00  0.00     0.162 A 
BRANCH  13  17
ATOM     17  O   UNL     1      43.213 -22.688  -0.366  1.00  0.00    -0.504 OA
ATOM     18  H   UNL     1      42.394 -22.346   0.126  1.00  0.00     0.293 HD
ENDBRANCH  13  17
BRANCH  15  19
ATOM     19  O   UNL     1      41.618 -24.553   1.014  1.00  0.00    -0.502 OA
ATOM     20  H   UNL     1      41.037 -23.806   0.650  1.00  0.00     0.293 HD
ENDBRANCH  15  19
BRANCH  16  21
ATOM     21  O   UNL     1      42.423 -27.248   1.125  1.00  0.00    -0.504 OA
ATOM     22  H   UNL     1      42.115 -27.100   2.079  1.00  0.00     0.293 HD
ENDBRANCH  16  21
ENDBRANCH   1  11
BRANCH  10  23
ATOM     23  O   UNL     1      47.807 -25.042   0.009  1.00  0.00    -0.500 OA
ATOM     24  H   UNL     1      47.828 -25.387   0.961  1.00  0.00     0.294 HD
ENDBRANCH  10  23
BRANCH   5  25
ATOM     25  O   UNL     1      48.007 -29.648  -6.234  1.00  0.00    -0.507 OA
ATOM     26  H   UNL     1      47.508 -30.527  -6.163  1.00  0.00     0.293 HD
ENDBRANCH   5  25
BRANCH   7  27
ATOM     27  O   UNL     1      51.100 -27.518  -3.218  1.00  0.00    -0.507 OA
ATOM     28  H   UNL     1      51.560 -27.938  -2.425  1.00  0.00     0.293 HD
ENDBRANCH   7  27
TORSDOF 7
ENDMDL
MODEL 6
REMARK VINA RESULT:    -4.006      1.458      3.136
REMARK INTER + INTRA:          -5.322
REMARK INTER:                  -5.590
REMARK INTRA:                   0.268
REMARK UNBOUND:                -0.379
REMARK SMILES Oc1cc(O)c2cc(O)c(-c3cc(O)c(O)c(O)c3)[o+]c2c1
REMARK SMILES IDX 10 1 20 2 21 3 22 4 2 5 3 6 4 7 6 8 7 9 8 10 11 11 12 12
REMARK SMILES IDX 13 13 19 14 15 15 17 16 14 17 16 19 18 21 9 23 1 25 5 27
REMARK H PARENT 14 18 16 20 18 22 9 24 1 26 5 28
REMARK Flexibility Score: inf
ROOT
ATOM      1  C   UNL     1      48.009 -27.395  -3.561  1.00  0.00     0.402 A 
ATOM      2  O   UNL     1      48.937 -26.652  -2.963  1.00  0.00    -0.202 OA
ATOM      3  C   UNL     1      48.795 -26.154  -1.739  1.00  0.00     0.368 A 
ATOM      4  C   UNL     1      49.828 -25.387  -1.194  1.00  0.00     0.162 A 
ATOM      5  C   UNL     1      49.709 -24.854   0.090  1.00  0.00     0.128 A 
ATOM      6  C   UNL     1      48.549 -25.091   0.837  1.00  0.00     0.093 A 
ATOM      7  C   UNL     1      47.501 -25.857   0.314  1.00  0.00     0.136 A 
ATOM      8  C   UNL     1      47.617 -26.398  -0.993  1.00  0.00     0.125 A 
ATOM      9  C   UNL     1      46.613 -27.166  -1.602  1.00  0.00     0.078 A 
ATOM     10  C   UNL     1      46.797 -27.663  -2.897  1.00  0.00     0.223 A 
ENDROOT
BRANCH   1  11
ATOM     11  C   UNL     1      48.288 -27.900  -4.925  1.00  0.00     0.091 A 
ATOM     12  C   UNL     1      49.128 -27.198  -5.807  1.00  0.00     0.068 A 
ATOM     13  C   UNL     1      49.363 -27.679  -7.102  1.00  0.00     0.162 A 
ATOM     14  C   UNL     1      47.660 -29.073  -5.369  1.00  0.00     0.068 A 
ATOM     15  C   UNL     1      48.747 -28.868  -7.531  1.00  0.00     0.200 A 
ATOM     16  C   UNL     1      47.891 -29.562  -6.659  1.00  0.00     0.162 A 
BRANCH  13  17
ATOM     17  O   UNL     1      50.202 -26.979  -7.967  1.00  0.00    -0.504 OA
ATOM     18  H   UNL     1      49.983 -26.037  -8.273  1.00  0.00     0.293 HD
ENDBRANCH  13  17
BRANCH  15  19
ATOM     19  O   UNL     1      48.973 -29.365  -8.815  1.00  0.00    -0.502 OA
ATOM     20  H   UNL     1      49.036 -30.358  -9.006  1.00  0.00     0.293 HD
ENDBRANCH  15  19
BRANCH  16  21
ATOM     21  O   UNL     1      47.258 -30.740  -7.056  1.00  0.00    -0.504 OA
ATOM     22  H   UNL     1      47.771 -31.522  -7.445  1.00  0.00     0.293 HD
ENDBRANCH  16  21
ENDBRANCH   1  11
BRANCH  10  23
ATOM     23  O   UNL     1      45.780 -28.383  -3.522  1.00  0.00    -0.500 OA
ATOM     24  H   UNL     1      45.980 -29.098  -4.211  1.00  0.00     0.294 HD
ENDBRANCH  10  23
BRANCH   5  25
ATOM     25  O   UNL     1      50.749 -24.091   0.616  1.00  0.00    -0.507 OA
ATOM     26  H   UNL     1      51.558 -24.524   1.046  1.00  0.00     0.293 HD
ENDBRANCH   5  25
BRANCH   7  27
ATOM     27  O   UNL     1      46.379 -26.052   1.125  1.00  0.00    -0.507 OA
ATOM     28  H   UNL     1      45.781 -25.311   1.458  1.00  0.00     0.293 HD
ENDBRANCH   7  27
TORSDOF 7
ENDMDL
MODEL 7
REMARK VINA RESULT:    -3.993     11.381     13.528
REMARK INTER + INTRA:          -5.307
REMARK INTER:                  -5.190
REMARK INTRA:                  -0.117
REMARK UNBOUND:                -0.379
REMARK SMILES Oc1cc(O)c2cc(O)c(-c3cc(O)c(O)c(O)c3)[o+]c2c1
REMARK SMILES IDX 10 1 20 2 21 3 22 4 2 5 3 6 4 7 6 8 7 9 8 10 11 11 12 12
REMARK SMILES IDX 13 13 19 14 15 15 17 16 14 17 16 19 18 21 9 23 1 25 5 27
REMARK H PARENT 14 18 16 20 18 22 9 24 1 26 5 28
REMARK Flexibility Score: inf
ROOT
ATOM      1  C   UNL     1      45.931 -32.243 -16.214  1.00  0.00     0.402 A 
ATOM      2  O   UNL     1      45.505 -31.521 -15.180  1.00  0.00    -0.202 OA
ATOM      3  C   UNL     1      44.300 -30.965 -15.126  1.00  0.00     0.368 A 
ATOM      4  C   UNL     1      43.943 -30.227 -13.994  1.00  0.00     0.162 A 
ATOM      5  C   UNL     1      42.683 -29.634 -13.907  1.00  0.00     0.128 A 
ATOM      6  C   UNL     1      41.771 -29.781 -14.959  1.00  0.00     0.093 A 
ATOM      7  C   UNL     1      42.104 -30.516 -16.103  1.00  0.00     0.136 A 
ATOM      8  C   UNL     1      43.386 -31.118 -16.196  1.00  0.00     0.125 A 
ATOM      9  C   UNL     1      43.811 -31.860 -17.309  1.00  0.00     0.078 A 
ATOM     10  C   UNL     1      45.092 -32.421 -17.330  1.00  0.00     0.223 A 
ENDROOT
BRANCH   1  11
ATOM     11  C   UNL     1      47.293 -32.820 -16.152  1.00  0.00     0.091 A 
ATOM     12  C   UNL     1      48.244 -32.560 -17.154  1.00  0.00     0.068 A 
ATOM     13  C   UNL     1      49.522 -33.133 -17.091  1.00  0.00     0.162 A 
ATOM     14  C   UNL     1      47.629 -33.688 -15.102  1.00  0.00     0.068 A 
ATOM     15  C   UNL     1      49.856 -33.984 -16.023  1.00  0.00     0.200 A 
ATOM     16  C   UNL     1      48.902 -34.263 -15.030  1.00  0.00     0.162 A 
BRANCH  13  17
ATOM     17  O   UNL     1      50.459 -32.863 -18.087  1.00  0.00    -0.504 OA
ATOM     18  H   UNL     1      50.236 -32.272 -18.880  1.00  0.00     0.293 HD
ENDBRANCH  13  17
BRANCH  15  19
ATOM     19  O   UNL     1      51.125 -34.558 -15.940  1.00  0.00    -0.502 OA
ATOM     20  H   UNL     1      51.566 -34.767 -15.052  1.00  0.00     0.293 HD
ENDBRANCH  15  19
BRANCH  16  21
ATOM     21  O   UNL     1      49.199 -35.109 -13.962  1.00  0.00    -0.504 OA
ATOM     22  H   UNL     1      48.866 -34.928 -13.022  1.00  0.00     0.293 HD
ENDBRANCH  16  21
ENDBRANCH   1  11
BRANCH  10  23
ATOM     23  O   UNL     1      45.534 -33.116 -18.456  1.00  0.00    -0.500 OA
ATOM     24  H   UNL     1      46.290 -32.768 -19.034  1.00  0.00     0.294 HD
ENDBRANCH  10  23
BRANCH   5  25
ATOM     25  O   UNL     1      42.346 -28.902 -12.772  1.00  0.00    -0.507 OA
ATOM     26  H   UNL     1      42.180 -29.354 -11.880  1.00  0.00     0.293 HD
ENDBRANCH   5  25
BRANCH   7  27
ATOM     27  O   UNL     1      41.137 -30.619 -17.107  1.00  0.00    -0.507 OA
ATOM     28  H   UNL     1      40.351 -31.251 -17.079  1.00  0.00     0.293 HD
ENDBRANCH   7  27
TORSDOF 7
ENDMDL
MODEL 8
REMARK VINA RESULT:    -3.891      1.450      2.526
REMARK INTER + INTRA:          -5.180
REMARK INTER:                  -5.370
REMARK INTRA:                   0.189
REMARK UNBOUND:                -0.379
REMARK SMILES Oc1cc(O)c2cc(O)c(-c3cc(O)c(O)c(O)c3)[o+]c2c1
REMARK SMILES IDX 10 1 20 2 21 3 22 4 2 5 3 6 4 7 6 8 7 9 8 10 11 11 12 12
REMARK SMILES IDX 13 13 19 14 15 15 17 16 14 17 16 19 18 21 9 23 1 25 5 27
REMARK H PARENT 14 18 16 20 18 22 9 24 1 26 5 28
REMARK Flexibility Score: inf
ROOT
ATOM      1  C   UNL     1      47.903 -27.525  -3.726  1.00  0.00     0.402 A 
ATOM      2  O   UNL     1      48.809 -26.755  -3.130  1.00  0.00    -0.202 OA
ATOM      3  C   UNL     1      48.654 -26.257  -1.908  1.00  0.00     0.368 A 
ATOM      4  C   UNL     1      49.665 -25.461  -1.364  1.00  0.00     0.162 A 
ATOM      5  C   UNL     1      49.531 -24.928  -0.082  1.00  0.00     0.128 A 
ATOM      6  C   UNL     1      48.377 -25.194   0.665  1.00  0.00     0.093 A 
ATOM      7  C   UNL     1      47.351 -25.990   0.144  1.00  0.00     0.136 A 
ATOM      8  C   UNL     1      47.482 -26.531  -1.161  1.00  0.00     0.125 A 
ATOM      9  C   UNL     1      46.499 -27.328  -1.769  1.00  0.00     0.078 A 
ATOM     10  C   UNL     1      46.698 -27.823  -3.061  1.00  0.00     0.223 A 
ENDROOT
BRANCH   1  11
ATOM     11  C   UNL     1      48.197 -28.026  -5.088  1.00  0.00     0.091 A 
ATOM     12  C   UNL     1      47.646 -29.231  -5.559  1.00  0.00     0.068 A 
ATOM     13  C   UNL     1      47.953 -29.701  -6.843  1.00  0.00     0.162 A 
ATOM     14  C   UNL     1      49.087 -27.316  -5.908  1.00  0.00     0.068 A 
ATOM     15  C   UNL     1      48.828 -28.971  -7.666  1.00  0.00     0.200 A 
ATOM     16  C   UNL     1      49.398 -27.777  -7.192  1.00  0.00     0.162 A 
BRANCH  13  17
ATOM     17  O   UNL     1      47.396 -30.893  -7.303  1.00  0.00    -0.504 OA
ATOM     18  H   UNL     1      46.648 -30.901  -7.986  1.00  0.00     0.293 HD
ENDBRANCH  13  17
BRANCH  15  19
ATOM     19  O   UNL     1      49.141 -29.421  -8.949  1.00  0.00    -0.502 OA
ATOM     20  H   UNL     1      48.838 -30.325  -9.293  1.00  0.00     0.293 HD
ENDBRANCH  15  19
BRANCH  16  21
ATOM     21  O   UNL     1      50.276 -27.034  -7.980  1.00  0.00    -0.504 OA
ATOM     22  H   UNL     1      50.567 -26.097  -7.724  1.00  0.00     0.293 HD
ENDBRANCH  16  21
ENDBRANCH   1  11
BRANCH  10  23
ATOM     23  O   UNL     1      45.701 -28.573  -3.686  1.00  0.00    -0.500 OA
ATOM     24  H   UNL     1      45.891 -29.485  -4.084  1.00  0.00     0.294 HD
ENDBRANCH  10  23
BRANCH   5  25
ATOM     25  O   UNL     1      50.549 -24.135   0.442  1.00  0.00    -0.507 OA
ATOM     26  H   UNL     1      51.038 -24.394   1.291  1.00  0.00     0.293 HD
ENDBRANCH   5  25
BRANCH   7  27
ATOM     27  O   UNL     1      46.233 -26.212   0.955  1.00  0.00    -0.507 OA
ATOM     28  H   UNL     1      45.386 -25.666   0.919  1.00  0.00     0.293 HD
ENDBRANCH   7  27
TORSDOF 7
ENDMDL
