MODEL 1
REMARK VINA RESULT:    25.009      0.000      0.000
REMARK INTER + INTRA:          42.388
REMARK INTER:                  41.092
REMARK INTRA:                   1.295
REMARK UNBOUND:                 1.295
REMARK SMILES C[C@@H]1O[C@@H](OC[C@@H]2O[C@@H](Oc3c(-c4ccc(O)c(O)c4)oc4cc(O)cc(O)c4c3=O)[C@H](O)[C@@H](O)[C@@H]2O)[C@@H](O)[C@H](O)[C@@H]1O
REMARK SMILES IDX 7 1 36 2 34 3 32 4 9 5 8 6 6 7 5 8 4 9 1 10 2 11 42 12 3 13
REMARK SMILES IDX 40 14 38 15 43 16 41 18 39 20 37 22 35 24 10 26 11 27 12 28
REMARK SMILES IDX 30 29 21 30 29 31 31 32 22 33 27 34 23 35 26 36 24 37 13 38
REMARK SMILES IDX 20 39 14 40 18 41 15 42 16 43 19 44 17 46 28 48 25 50 33 52
REMARK H PARENT 43 17 41 19 39 21 37 23 35 25 19 45 17 47 28 49 25 51 33 53
REMARK Flexibility Score: inf
ROOT
ATOM      1  C   UNL     1     150.346 142.426 147.846  1.00  0.00     0.180 C 
ATOM      2  C   UNL     1     149.491 142.143 149.112  1.00  0.00     0.177 C 
ATOM      3  C   UNL     1     150.343 141.510 150.239  1.00  0.00     0.180 C 
ATOM      4  C   UNL     1     151.277 140.406 149.709  1.00  0.00     0.214 C 
ATOM      5  C   UNL     1     151.958 140.807 148.386  1.00  0.00     0.339 C 
ATOM      6  O   UNL     1     151.021 141.255 147.419  1.00  0.00    -0.332 OA
ENDROOT
BRANCH   1   7
ATOM      7  C   UNL     1     149.462 142.950 146.697  1.00  0.00     0.198 C 
BRANCH   7   8
ATOM      8  O   UNL     1     149.004 144.264 146.973  1.00  0.00    -0.347 OA
BRANCH   8   9
ATOM      9  C   UNL     1     149.447 145.206 146.001  1.00  0.00     0.281 C 
ATOM     10  C   UNL     1     148.720 148.278 147.905  1.00  0.00     0.041 C 
ATOM     11  C   UNL     1     148.420 146.990 147.140  1.00  0.00     0.150 C 
ATOM     12  C   UNL     1     147.379 147.237 146.020  1.00  0.00     0.174 C 
ATOM     13  O   UNL     1     149.632 146.478 146.605  1.00  0.00    -0.344 OA
ATOM     14  C   UNL     1     147.127 145.927 145.256  1.00  0.00     0.179 C 
ATOM     15  C   UNL     1     148.458 145.293 144.813  1.00  0.00     0.202 C 
BRANCH  12  16
ATOM     16  O   UNL     1     147.768 148.271 145.142  1.00  0.00    -0.388 OA
ATOM     17  H   UNL     1     147.797 147.905 144.219  1.00  0.00     0.211 HD
ENDBRANCH  12  16
BRANCH  14  18
ATOM     18  O   UNL     1     146.314 146.185 144.140  1.00  0.00    -0.387 OA
ATOM     19  H   UNL     1     145.402 145.864 144.369  1.00  0.00     0.211 HD
ENDBRANCH  14  18
BRANCH  15  20
ATOM     20  O   UNL     1     148.210 144.016 144.286  1.00  0.00    -0.385 OA
ATOM     21  H   UNL     1     148.488 143.358 144.976  1.00  0.00     0.211 HD
ENDBRANCH  15  20
ENDBRANCH   8   9
ENDBRANCH   7   8
ENDBRANCH   1   7
BRANCH   2  22
ATOM     22  O   UNL     1     148.378 141.328 148.827  1.00  0.00    -0.387 OA
ATOM     23  H   UNL     1     148.703 140.506 148.379  1.00  0.00     0.211 HD
ENDBRANCH   2  22
BRANCH   3  24
ATOM     24  O   UNL     1     151.071 142.482 150.952  1.00  0.00    -0.387 OA
ATOM     25  H   UNL     1     150.488 142.861 151.655  1.00  0.00     0.211 HD
ENDBRANCH   3  24
BRANCH   5  26
ATOM     26  O   UNL     1     152.985 141.777 148.620  1.00  0.00    -0.454 OA
BRANCH  26  27
ATOM     27  C   UNL     1     153.978 142.112 147.681  1.00  0.00     0.214 A 
ATOM     28  C   UNL     1     155.273 142.425 148.136  1.00  0.00     0.180 A 
ATOM     29  C   UNL     1     153.737 142.114 146.295  1.00  0.00     0.239 A 
ATOM     30  O   UNL     1     156.264 142.616 147.266  1.00  0.00    -0.452 OA
ATOM     31  C   UNL     1     154.806 142.345 145.401  1.00  0.00     0.111 A 
ATOM     32  O   UNL     1     152.569 141.916 145.864  1.00  0.00    -0.285 OA
ATOM     33  C   UNL     1     156.090 142.577 145.950  1.00  0.00     0.146 A 
ATOM     34  C   UNL     1     154.649 142.337 143.995  1.00  0.00     0.134 A 
ATOM     35  C   UNL     1     157.191 142.774 145.110  1.00  0.00     0.094 A 
ATOM     36  C   UNL     1     155.764 142.544 143.168  1.00  0.00     0.093 A 
ATOM     37  C   UNL     1     157.032 142.753 143.719  1.00  0.00     0.123 A 
BRANCH  28  38
ATOM     38  C   UNL     1     155.572 142.524 149.576  1.00  0.00     0.025 A 
ATOM     39  C   UNL     1     154.535 142.689 150.509  1.00  0.00     0.062 A 
ATOM     40  C   UNL     1     156.902 142.480 150.023  1.00  0.00     0.016 A 
ATOM     41  C   UNL     1     154.825 142.784 151.876  1.00  0.00     0.158 A 
ATOM     42  C   UNL     1     157.193 142.566 151.390  1.00  0.00     0.051 A 
ATOM     43  C   UNL     1     156.154 142.710 152.318  1.00  0.00     0.157 A 
BRANCH  41  44
ATOM     44  O   UNL     1     153.800 142.955 152.802  1.00  0.00    -0.504 OA
ATOM     45  H   UNL     1     152.837 142.725 152.578  1.00  0.00     0.293 HD
ENDBRANCH  41  44
BRANCH  43  46
ATOM     46  O   UNL     1     156.434 142.787 153.682  1.00  0.00    -0.504 OA
ATOM     47  H   UNL     1     156.995 142.082 154.147  1.00  0.00     0.293 HD
ENDBRANCH  43  46
ENDBRANCH  28  38
BRANCH  34  48
ATOM     48  O   UNL     1     153.397 142.122 143.412  1.00  0.00    -0.507 OA
ATOM     49  H   UNL     1     153.082 141.196 143.147  1.00  0.00     0.293 HD
ENDBRANCH  34  48
BRANCH  37  50
ATOM     50  O   UNL     1     158.125 142.942 142.875  1.00  0.00    -0.508 OA
ATOM     51  H   UNL     1     158.007 143.097 141.878  1.00  0.00     0.293 HD
ENDBRANCH  37  50
ENDBRANCH  26  27
ENDBRANCH   5  26
BRANCH   4  52
ATOM     52  O   UNL     1     150.535 139.229 149.518  1.00  0.00    -0.384 OA
ATOM     53  H   UNL     1     150.177 138.966 150.407  1.00  0.00     0.211 HD
ENDBRANCH   4  52
TORSDOF 16
ENDMDL
