MODEL 1
REMARK VINA RESULT:    -3.897      0.000      0.000
REMARK INTER + INTRA:         -15.379
REMARK INTER:                 -10.277
REMARK INTRA:                  -5.102
REMARK UNBOUND:                -5.102
REMARK SMILES CCCCCCCCCCCCCCCCCCCCCCCCCCCCCC(=O)[O-]
REMARK SMILES IDX 16 1 17 2 18 3 19 4 20 5 21 6 22 7 23 8 24 9 25 10 26 11
REMARK SMILES IDX 27 12 28 13 29 14 30 15 31 16 32 17 15 18 14 19 13 20 12 21
REMARK SMILES IDX 11 22 10 23 9 24 8 25 7 26 6 27 5 28 4 29 3 30 2 31 1 32
REMARK H PARENT
REMARK Flexibility Score: inf
ROOT
ATOM      1  C   UNL     1      -3.057  26.742   3.098  1.00  0.00     0.000 C 
ENDROOT
BRANCH   1   2
ATOM      2  C   UNL     1      -3.285  28.138   2.491  1.00  0.00     0.000 C 
BRANCH   2   3
ATOM      3  C   UNL     1      -2.632  29.257   3.317  1.00  0.00     0.000 C 
BRANCH   3   4
ATOM      4  C   UNL     1      -1.098  29.216   3.246  1.00  0.00     0.000 C 
BRANCH   4   5
ATOM      5  C   UNL     1      -0.575  29.352   1.809  1.00  0.00     0.000 C 
BRANCH   5   6
ATOM      6  C   UNL     1      -0.818  30.755   1.223  1.00  0.00     0.000 C 
BRANCH   6   7
ATOM      7  C   UNL     1      -1.835  30.738   0.062  1.00  0.00     0.000 C 
BRANCH   7   8
ATOM      8  C   UNL     1      -3.239  31.234   0.461  1.00  0.00     0.000 C 
BRANCH   8   9
ATOM      9  C   UNL     1      -4.403  30.448  -0.166  1.00  0.00     0.000 C 
BRANCH   9  10
ATOM     10  C   UNL     1      -3.924  29.258  -1.016  1.00  0.00     0.000 C 
BRANCH  10  11
ATOM     11  C   UNL     1      -4.499  29.284  -2.440  1.00  0.00     0.000 C 
BRANCH  11  12
ATOM     12  C   UNL     1      -4.286  30.640  -3.134  1.00  0.00     0.000 C 
BRANCH  12  13
ATOM     13  C   UNL     1      -5.627  31.343  -3.372  1.00  0.00     0.006 C 
BRANCH  13  14
ATOM     14  C   UNL     1      -5.656  32.725  -2.711  1.00  0.00     0.053 C 
BRANCH  14  15
ATOM     15  C   UNL     1      -6.973  32.953  -2.039  1.00  0.00     0.041 C 
ATOM     16  O   UNL     1      -7.593  31.986  -1.519  1.00  0.00    -0.550 OA
ATOM     17  O   UNL     1      -7.476  34.242  -1.913  1.00  0.00    -0.550 OA
ENDBRANCH  14  15
ENDBRANCH  13  14
ENDBRANCH  12  13
ENDBRANCH  11  12
ENDBRANCH  10  11
ENDBRANCH   9  10
ENDBRANCH   8   9
ENDBRANCH   7   8
ENDBRANCH   6   7
ENDBRANCH   5   6
ENDBRANCH   4   5
ENDBRANCH   3   4
ENDBRANCH   2   3
ENDBRANCH   1   2
BRANCH   1  18
ATOM     18  C   UNL     1      -2.659  25.703   2.036  1.00  0.00     0.000 C 
BRANCH  18  19
ATOM     19  C   UNL     1      -2.438  26.343   0.656  1.00  0.00     0.000 C 
BRANCH  19  20
ATOM     20  C   UNL     1      -2.373  25.304  -0.480  1.00  0.00     0.000 C 
BRANCH  20  21
ATOM     21  C   UNL     1      -2.739  23.867  -0.061  1.00  0.00     0.000 C 
BRANCH  21  22
ATOM     22  C   UNL     1      -4.070  23.333  -0.627  1.00  0.00     0.000 C 
BRANCH  22  23
ATOM     23  C   UNL     1      -4.677  24.212  -1.743  1.00  0.00     0.000 C 
BRANCH  23  24
ATOM     24  C   UNL     1      -6.094  24.703  -1.400  1.00  0.00    -0.000 C 
BRANCH  24  25
ATOM     25  C   UNL     1      -6.144  26.201  -1.061  1.00  0.00    -0.000 C 
BRANCH  25  26
ATOM     26  C   UNL     1      -6.004  26.466   0.448  1.00  0.00    -0.000 C 
BRANCH  26  27
ATOM     27  C   UNL     1      -6.812  25.470   1.296  1.00  0.00    -0.000 C 
BRANCH  27  28
ATOM     28  C   UNL     1      -6.391  25.494   2.776  1.00  0.00    -0.000 C 
BRANCH  28  29
ATOM     29  C   UNL     1      -7.234  26.464   3.623  1.00  0.00    -0.000 C 
BRANCH  29  30
ATOM     30  C   UNL     1      -8.265  25.790   4.550  1.00  0.00    -0.000 C 
BRANCH  30  31
ATOM     31  C   UNL     1      -7.748  25.449   5.958  1.00  0.00    -0.003 C 
ATOM     32  C   UNL     1      -6.665  26.412   6.444  1.00  0.00     0.004 C 
ENDBRANCH  30  31
ENDBRANCH  29  30
ENDBRANCH  28  29
ENDBRANCH  27  28
ENDBRANCH  26  27
ENDBRANCH  25  26
ENDBRANCH  24  25
ENDBRANCH  23  24
ENDBRANCH  22  23
ENDBRANCH  21  22
ENDBRANCH  20  21
ENDBRANCH  19  20
ENDBRANCH  18  19
ENDBRANCH   1  18
TORSDOF 28
ENDMDL
MODEL 2
REMARK VINA RESULT:    -3.863      2.389      6.782
REMARK INTER + INTRA:         -15.287
REMARK INTER:                  -9.226
REMARK INTRA:                  -6.061
REMARK UNBOUND:                -5.102
REMARK SMILES CCCCCCCCCCCCCCCCCCCCCCCCCCCCCC(=O)[O-]
REMARK SMILES IDX 16 1 17 2 18 3 19 4 20 5 21 6 22 7 23 8 24 9 25 10 26 11
REMARK SMILES IDX 27 12 28 13 29 14 30 15 31 16 32 17 15 18 14 19 13 20 12 21
REMARK SMILES IDX 11 22 10 23 9 24 8 25 7 26 6 27 5 28 4 29 3 30 2 31 1 32
REMARK H PARENT
REMARK Flexibility Score: inf
ROOT
ATOM      1  C   UNL     1      -0.310  30.884   1.827  1.00  0.00     0.000 C 
ENDROOT
BRANCH   1   2
ATOM      2  C   UNL     1      -0.892  29.733   2.666  1.00  0.00     0.000 C 
BRANCH   2   3
ATOM      3  C   UNL     1      -2.367  29.955   3.036  1.00  0.00     0.000 C 
BRANCH   3   4
ATOM      4  C   UNL     1      -3.313  29.671   1.859  1.00  0.00     0.000 C 
BRANCH   4   5
ATOM      5  C   UNL     1      -3.925  28.264   1.928  1.00  0.00     0.000 C 
BRANCH   5   6
ATOM      6  C   UNL     1      -3.301  27.299   0.903  1.00  0.00     0.000 C 
BRANCH   6   7
ATOM      7  C   UNL     1      -2.250  26.366   1.541  1.00  0.00     0.000 C 
BRANCH   7   8
ATOM      8  C   UNL     1      -1.537  25.450   0.527  1.00  0.00     0.000 C 
BRANCH   8   9
ATOM      9  C   UNL     1      -2.233  24.101   0.275  1.00  0.00     0.000 C 
BRANCH   9  10
ATOM     10  C   UNL     1      -3.223  24.157  -0.903  1.00  0.00     0.000 C 
BRANCH  10  11
ATOM     11  C   UNL     1      -4.676  23.929  -0.460  1.00  0.00     0.000 C 
BRANCH  11  12
ATOM     12  C   UNL     1      -4.804  23.742   1.061  1.00  0.00     0.000 C 
BRANCH  12  13
ATOM     13  C   UNL     1      -6.210  24.124   1.538  1.00  0.00     0.006 C 
BRANCH  13  14
ATOM     14  C   UNL     1      -6.160  25.244   2.581  1.00  0.00     0.053 C 
BRANCH  14  15
ATOM     15  C   UNL     1      -7.343  26.148   2.431  1.00  0.00     0.041 C 
ATOM     16  O   UNL     1      -7.175  27.364   2.141  1.00  0.00    -0.550 OA
ATOM     17  O   UNL     1      -8.629  25.633   2.529  1.00  0.00    -0.550 OA
ENDBRANCH  14  15
ENDBRANCH  13  14
ENDBRANCH  12  13
ENDBRANCH  11  12
ENDBRANCH  10  11
ENDBRANCH   9  10
ENDBRANCH   8   9
ENDBRANCH   7   8
ENDBRANCH   6   7
ENDBRANCH   5   6
ENDBRANCH   4   5
ENDBRANCH   3   4
ENDBRANCH   2   3
ENDBRANCH   1   2
BRANCH   1  18
ATOM     18  C   UNL     1       0.452  30.377   0.591  1.00  0.00     0.000 C 
BRANCH  18  19
ATOM     19  C   UNL     1       0.156  28.897   0.296  1.00  0.00     0.000 C 
BRANCH  19  20
ATOM     20  C   UNL     1      -0.453  28.679  -1.102  1.00  0.00     0.000 C 
BRANCH  20  21
ATOM     21  C   UNL     1      -1.685  29.551  -1.413  1.00  0.00     0.000 C 
BRANCH  21  22
ATOM     22  C   UNL     1      -1.487  30.599  -2.526  1.00  0.00     0.000 C 
BRANCH  22  23
ATOM     23  C   UNL     1      -2.136  31.968  -2.223  1.00  0.00     0.000 C 
BRANCH  23  24
ATOM     24  C   UNL     1      -2.487  32.137  -0.734  1.00  0.00    -0.000 C 
BRANCH  24  25
ATOM     25  C   UNL     1      -3.749  32.983  -0.507  1.00  0.00    -0.000 C 
BRANCH  25  26
ATOM     26  C   UNL     1      -4.482  33.306  -1.821  1.00  0.00    -0.000 C 
BRANCH  26  27
ATOM     27  C   UNL     1      -5.895  32.702  -1.868  1.00  0.00    -0.000 C 
BRANCH  27  28
ATOM     28  C   UNL     1      -5.981  31.506  -2.833  1.00  0.00    -0.000 C 
BRANCH  28  29
ATOM     29  C   UNL     1      -5.659  30.163  -2.154  1.00  0.00    -0.000 C 
BRANCH  29  30
ATOM     30  C   UNL     1      -4.906  29.151  -3.040  1.00  0.00    -0.000 C 
BRANCH  30  31
ATOM     31  C   UNL     1      -4.736  27.750  -2.426  1.00  0.00    -0.003 C 
ATOM     32  C   UNL     1      -5.939  27.317  -1.590  1.00  0.00     0.004 C 
ENDBRANCH  30  31
ENDBRANCH  29  30
ENDBRANCH  28  29
ENDBRANCH  27  28
ENDBRANCH  26  27
ENDBRANCH  25  26
ENDBRANCH  24  25
ENDBRANCH  23  24
ENDBRANCH  22  23
ENDBRANCH  21  22
ENDBRANCH  20  21
ENDBRANCH  19  20
ENDBRANCH  18  19
ENDBRANCH   1  18
TORSDOF 28
ENDMDL
MODEL 3
REMARK VINA RESULT:    -3.855      1.740      3.882
REMARK INTER + INTRA:         -15.268
REMARK INTER:                  -9.612
REMARK INTRA:                  -5.656
REMARK UNBOUND:                -5.102
REMARK SMILES CCCCCCCCCCCCCCCCCCCCCCCCCCCCCC(=O)[O-]
REMARK SMILES IDX 16 1 17 2 18 3 19 4 20 5 21 6 22 7 23 8 24 9 25 10 26 11
REMARK SMILES IDX 27 12 28 13 29 14 30 15 31 16 32 17 15 18 14 19 13 20 12 21
REMARK SMILES IDX 11 22 10 23 9 24 8 25 7 26 6 27 5 28 4 29 3 30 2 31 1 32
REMARK H PARENT
REMARK Flexibility Score: inf
ROOT
ATOM      1  C   UNL     1      -0.944  30.085   2.184  1.00  0.00     0.000 C 
ENDROOT
BRANCH   1   2
ATOM      2  C   UNL     1      -1.309  29.212   3.398  1.00  0.00     0.000 C 
BRANCH   2   3
ATOM      3  C   UNL     1      -2.717  28.606   3.290  1.00  0.00     0.000 C 
BRANCH   3   4
ATOM      4  C   UNL     1      -2.682  27.092   3.028  1.00  0.00     0.000 C 
BRANCH   4   5
ATOM      5  C   UNL     1      -2.766  26.756   1.531  1.00  0.00     0.000 C 
BRANCH   5   6
ATOM      6  C   UNL     1      -3.665  27.737   0.756  1.00  0.00     0.000 C 
BRANCH   6   7
ATOM      7  C   UNL     1      -4.475  27.037  -0.356  1.00  0.00     0.000 C 
BRANCH   7   8
ATOM      8  C   UNL     1      -3.676  26.808  -1.654  1.00  0.00     0.000 C 
BRANCH   8   9
ATOM      9  C   UNL     1      -4.207  27.569  -2.881  1.00  0.00     0.000 C 
BRANCH   9  10
ATOM     10  C   UNL     1      -5.364  28.523  -2.531  1.00  0.00     0.000 C 
BRANCH  10  11
ATOM     11  C   UNL     1      -4.966  30.001  -2.663  1.00  0.00     0.000 C 
BRANCH  11  12
ATOM     12  C   UNL     1      -4.274  30.537  -1.399  1.00  0.00     0.000 C 
BRANCH  12  13
ATOM     13  C   UNL     1      -4.844  31.906  -1.008  1.00  0.00     0.006 C 
BRANCH  13  14
ATOM     14  C   UNL     1      -5.995  31.764  -0.007  1.00  0.00     0.053 C 
BRANCH  14  15
ATOM     15  C   UNL     1      -7.310  31.959  -0.693  1.00  0.00     0.041 C 
ATOM     16  O   UNL     1      -7.370  32.615  -1.768  1.00  0.00    -0.550 OA
ATOM     17  O   UNL     1      -8.452  31.348  -0.193  1.00  0.00    -0.550 OA
ENDBRANCH  14  15
ENDBRANCH  13  14
ENDBRANCH  12  13
ENDBRANCH  11  12
ENDBRANCH  10  11
ENDBRANCH   9  10
ENDBRANCH   8   9
ENDBRANCH   7   8
ENDBRANCH   6   7
ENDBRANCH   5   6
ENDBRANCH   4   5
ENDBRANCH   3   4
ENDBRANCH   2   3
ENDBRANCH   1   2
BRANCH   1  18
ATOM     18  C   UNL     1      -0.189  29.293   1.103  1.00  0.00     0.000 C 
BRANCH  18  19
ATOM     19  C   UNL     1      -0.512  29.795  -0.314  1.00  0.00     0.000 C 
BRANCH  19  20
ATOM     20  C   UNL     1      -0.567  28.658  -1.351  1.00  0.00     0.000 C 
BRANCH  20  21
ATOM     21  C   UNL     1      -0.125  27.280  -0.822  1.00  0.00     0.000 C 
BRANCH  21  22
ATOM     22  C   UNL     1      -0.001  26.173  -1.888  1.00  0.00     0.000 C 
BRANCH  22  23
ATOM     23  C   UNL     1       0.318  24.776  -1.309  1.00  0.00     0.000 C 
BRANCH  23  24
ATOM     24  C   UNL     1      -0.395  24.517   0.030  1.00  0.00    -0.000 C 
BRANCH  24  25
ATOM     25  C   UNL     1      -1.390  23.348  -0.037  1.00  0.00    -0.000 C 
BRANCH  25  26
ATOM     26  C   UNL     1      -2.208  23.348  -1.340  1.00  0.00    -0.000 C 
BRANCH  26  27
ATOM     27  C   UNL     1      -3.717  23.199  -1.086  1.00  0.00    -0.000 C 
BRANCH  27  28
ATOM     28  C   UNL     1      -4.041  23.066   0.413  1.00  0.00    -0.000 C 
BRANCH  28  29
ATOM     29  C   UNL     1      -5.304  23.843   0.824  1.00  0.00    -0.000 C 
BRANCH  29  30
ATOM     30  C   UNL     1      -5.300  24.368   2.273  1.00  0.00    -0.000 C 
BRANCH  30  31
ATOM     31  C   UNL     1      -6.243  25.555   2.537  1.00  0.00    -0.003 C 
ATOM     32  C   UNL     1      -7.680  25.285   2.093  1.00  0.00     0.004 C 
ENDBRANCH  30  31
ENDBRANCH  29  30
ENDBRANCH  28  29
ENDBRANCH  27  28
ENDBRANCH  26  27
ENDBRANCH  25  26
ENDBRANCH  24  25
ENDBRANCH  23  24
ENDBRANCH  22  23
ENDBRANCH  21  22
ENDBRANCH  20  21
ENDBRANCH  19  20
ENDBRANCH  18  19
ENDBRANCH   1  18
TORSDOF 28
ENDMDL
MODEL 4
REMARK VINA RESULT:    -3.814      2.413      6.024
REMARK INTER + INTRA:         -15.158
REMARK INTER:                  -8.931
REMARK INTRA:                  -6.227
REMARK UNBOUND:                -5.102
REMARK SMILES CCCCCCCCCCCCCCCCCCCCCCCCCCCCCC(=O)[O-]
REMARK SMILES IDX 16 1 17 2 18 3 19 4 20 5 21 6 22 7 23 8 24 9 25 10 26 11
REMARK SMILES IDX 27 12 28 13 29 14 30 15 31 16 32 17 15 18 14 19 13 20 12 21
REMARK SMILES IDX 11 22 10 23 9 24 8 25 7 26 6 27 5 28 4 29 3 30 2 31 1 32
REMARK H PARENT
REMARK Flexibility Score: inf
ROOT
ATOM      1  C   UNL     1      -1.905  25.962  -2.042  1.00  0.00     0.000 C 
ENDROOT
BRANCH   1   2
ATOM      2  C   UNL     1      -2.233  26.764  -0.770  1.00  0.00     0.000 C 
BRANCH   2   3
ATOM      3  C   UNL     1      -3.177  27.945  -1.041  1.00  0.00     0.000 C 
BRANCH   3   4
ATOM      4  C   UNL     1      -4.461  27.871  -0.200  1.00  0.00     0.000 C 
BRANCH   4   5
ATOM      5  C   UNL     1      -4.973  29.260   0.209  1.00  0.00     0.000 C 
BRANCH   5   6
ATOM      6  C   UNL     1      -3.831  30.271   0.419  1.00  0.00     0.000 C 
BRANCH   6   7
ATOM      7  C   UNL     1      -3.376  30.344   1.892  1.00  0.00     0.000 C 
BRANCH   7   8
ATOM      8  C   UNL     1      -1.858  30.159   2.082  1.00  0.00     0.000 C 
BRANCH   8   9
ATOM      9  C   UNL     1      -1.439  28.783   2.630  1.00  0.00     0.000 C 
BRANCH   9  10
ATOM     10  C   UNL     1      -2.645  27.916   3.035  1.00  0.00     0.000 C 
BRANCH  10  11
ATOM     11  C   UNL     1      -2.524  26.470   2.529  1.00  0.00     0.000 C 
BRANCH  11  12
ATOM     12  C   UNL     1      -3.612  25.553   3.111  1.00  0.00     0.000 C 
BRANCH  12  13
ATOM     13  C   UNL     1      -4.924  26.323   3.304  1.00  0.00     0.006 C 
BRANCH  13  14
ATOM     14  C   UNL     1      -6.124  25.515   2.798  1.00  0.00     0.053 C 
BRANCH  14  15
ATOM     15  C   UNL     1      -7.353  26.368   2.775  1.00  0.00     0.041 C 
ATOM     16  O   UNL     1      -7.313  27.519   2.263  1.00  0.00    -0.550 OA
ATOM     17  O   UNL     1      -8.559  25.861   3.241  1.00  0.00    -0.550 OA
ENDBRANCH  14  15
ENDBRANCH  13  14
ENDBRANCH  12  13
ENDBRANCH  11  12
ENDBRANCH  10  11
ENDBRANCH   9  10
ENDBRANCH   8   9
ENDBRANCH   7   8
ENDBRANCH   6   7
ENDBRANCH   5   6
ENDBRANCH   4   5
ENDBRANCH   3   4
ENDBRANCH   2   3
ENDBRANCH   1   2
BRANCH   1  18
ATOM     18  C   UNL     1      -0.920  24.813  -1.769  1.00  0.00     0.000 C 
BRANCH  18  19
ATOM     19  C   UNL     1      -0.578  24.687  -0.275  1.00  0.00     0.000 C 
BRANCH  19  20
ATOM     20  C   UNL     1      -1.135  23.399   0.358  1.00  0.00     0.000 C 
BRANCH  20  21
ATOM     21  C   UNL     1      -1.726  22.390  -0.646  1.00  0.00     0.000 C 
BRANCH  21  22
ATOM     22  C   UNL     1      -3.237  22.123  -0.501  1.00  0.00     0.000 C 
BRANCH  22  23
ATOM     23  C   UNL     1      -3.975  23.147   0.389  1.00  0.00     0.000 C 
BRANCH  23  24
ATOM     24  C   UNL     1      -4.823  24.136  -0.431  1.00  0.00    -0.000 C 
BRANCH  24  25
ATOM     25  C   UNL     1      -5.175  23.608  -1.830  1.00  0.00    -0.000 C 
BRANCH  25  26
ATOM     26  C   UNL     1      -4.749  24.577  -2.947  1.00  0.00    -0.000 C 
BRANCH  26  27
ATOM     27  C   UNL     1      -5.952  25.215  -3.661  1.00  0.00    -0.000 C 
BRANCH  27  28
ATOM     28  C   UNL     1      -6.131  26.696  -3.283  1.00  0.00    -0.000 C 
BRANCH  28  29
ATOM     29  C   UNL     1      -6.047  27.639  -4.496  1.00  0.00    -0.000 C 
BRANCH  29  30
ATOM     30  C   UNL     1      -5.025  28.784  -4.361  1.00  0.00    -0.000 C 
BRANCH  30  31
ATOM     31  C   UNL     1      -5.388  29.860  -3.323  1.00  0.00    -0.003 C 
ATOM     32  C   UNL     1      -4.496  31.098  -3.411  1.00  0.00     0.004 C 
ENDBRANCH  30  31
ENDBRANCH  29  30
ENDBRANCH  28  29
ENDBRANCH  27  28
ENDBRANCH  26  27
ENDBRANCH  25  26
ENDBRANCH  24  25
ENDBRANCH  23  24
ENDBRANCH  22  23
ENDBRANCH  21  22
ENDBRANCH  20  21
ENDBRANCH  19  20
ENDBRANCH  18  19
ENDBRANCH   1  18
TORSDOF 28
ENDMDL
MODEL 5
REMARK VINA RESULT:    -3.777      2.453      6.631
REMARK INTER + INTRA:         -15.062
REMARK INTER:                  -9.380
REMARK INTRA:                  -5.682
REMARK UNBOUND:                -5.102
REMARK SMILES CCCCCCCCCCCCCCCCCCCCCCCCCCCCCC(=O)[O-]
REMARK SMILES IDX 16 1 17 2 18 3 19 4 20 5 21 6 22 7 23 8 24 9 25 10 26 11
REMARK SMILES IDX 27 12 28 13 29 14 30 15 31 16 32 17 15 18 14 19 13 20 12 21
REMARK SMILES IDX 11 22 10 23 9 24 8 25 7 26 6 27 5 28 4 29 3 30 2 31 1 32
REMARK H PARENT
REMARK Flexibility Score: inf
ROOT
ATOM      1  C   UNL     1      -3.687  25.869   0.847  1.00  0.00     0.000 C 
ENDROOT
BRANCH   1   2
ATOM      2  C   UNL     1      -4.783  25.065   1.569  1.00  0.00     0.000 C 
BRANCH   2   3
ATOM      3  C   UNL     1      -4.829  23.594   1.126  1.00  0.00     0.000 C 
BRANCH   3   4
ATOM      4  C   UNL     1      -3.899  23.315  -0.065  1.00  0.00     0.000 C 
BRANCH   4   5
ATOM      5  C   UNL     1      -3.272  21.914  -0.001  1.00  0.00     0.000 C 
BRANCH   5   6
ATOM      6  C   UNL     1      -1.776  21.921  -0.366  1.00  0.00     0.000 C 
BRANCH   6   7
ATOM      7  C   UNL     1      -1.065  23.210   0.098  1.00  0.00     0.000 C 
BRANCH   7   8
ATOM      8  C   UNL     1      -0.326  23.952  -1.033  1.00  0.00     0.000 C 
BRANCH   8   9
ATOM      9  C   UNL     1      -0.003  25.426  -0.734  1.00  0.00     0.000 C 
BRANCH   9  10
ATOM     10  C   UNL     1      -0.857  26.399  -1.566  1.00  0.00     0.000 C 
BRANCH  10  11
ATOM     11  C   UNL     1      -1.815  25.670  -2.521  1.00  0.00     0.000 C 
BRANCH  11  12
ATOM     12  C   UNL     1      -3.140  26.428  -2.714  1.00  0.00     0.000 C 
BRANCH  12  13
ATOM     13  C   UNL     1      -4.314  25.448  -2.820  1.00  0.00     0.006 C 
BRANCH  13  14
ATOM     14  C   UNL     1      -5.573  26.142  -3.350  1.00  0.00     0.053 C 
BRANCH  14  15
ATOM     15  C   UNL     1      -6.437  26.591  -2.215  1.00  0.00     0.041 C 
ATOM     16  O   UNL     1      -6.730  25.788  -1.287  1.00  0.00    -0.550 OA
ATOM     17  O   UNL     1      -6.850  27.914  -2.136  1.00  0.00    -0.550 OA
ENDBRANCH  14  15
ENDBRANCH  13  14
ENDBRANCH  12  13
ENDBRANCH  11  12
ENDBRANCH  10  11
ENDBRANCH   9  10
ENDBRANCH   8   9
ENDBRANCH   7   8
ENDBRANCH   6   7
ENDBRANCH   5   6
ENDBRANCH   4   5
ENDBRANCH   3   4
ENDBRANCH   2   3
ENDBRANCH   1   2
BRANCH   1  18
ATOM     18  C   UNL     1      -2.500  26.194   1.770  1.00  0.00     0.000 C 
BRANCH  18  19
ATOM     19  C   UNL     1      -2.948  26.897   3.062  1.00  0.00     0.000 C 
BRANCH  19  20
ATOM     20  C   UNL     1      -3.267  28.388   2.850  1.00  0.00     0.000 C 
BRANCH  20  21
ATOM     21  C   UNL     1      -2.301  29.361   3.551  1.00  0.00     0.000 C 
BRANCH  21  22
ATOM     22  C   UNL     1      -0.827  29.259   3.111  1.00  0.00     0.000 C 
BRANCH  22  23
ATOM     23  C   UNL     1      -0.621  29.323   1.581  1.00  0.00     0.000 C 
BRANCH  23  24
ATOM     24  C   UNL     1      -0.807  30.745   1.021  1.00  0.00    -0.000 C 
BRANCH  24  25
ATOM     25  C   UNL     1      -2.112  30.911   0.227  1.00  0.00    -0.000 C 
BRANCH  25  26
ATOM     26  C   UNL     1      -2.531  29.615  -0.489  1.00  0.00    -0.000 C 
BRANCH  26  27
ATOM     27  C   UNL     1      -3.987  29.662  -0.982  1.00  0.00    -0.000 C 
BRANCH  27  28
ATOM     28  C   UNL     1      -4.986  29.822   0.178  1.00  0.00    -0.000 C 
BRANCH  28  29
ATOM     29  C   UNL     1      -5.846  31.092   0.058  1.00  0.00    -0.000 C 
BRANCH  29  30
ATOM     30  C   UNL     1      -6.297  31.438  -1.375  1.00  0.00    -0.000 C 
BRANCH  30  31
ATOM     31  C   UNL     1      -6.002  32.882  -1.818  1.00  0.00    -0.003 C 
ATOM     32  C   UNL     1      -4.509  33.206  -1.839  1.00  0.00     0.004 C 
ENDBRANCH  30  31
ENDBRANCH  29  30
ENDBRANCH  28  29
ENDBRANCH  27  28
ENDBRANCH  26  27
ENDBRANCH  25  26
ENDBRANCH  24  25
ENDBRANCH  23  24
ENDBRANCH  22  23
ENDBRANCH  21  22
ENDBRANCH  20  21
ENDBRANCH  19  20
ENDBRANCH  18  19
ENDBRANCH   1  18
TORSDOF 28
ENDMDL
MODEL 6
REMARK VINA RESULT:    -3.767      2.612      6.753
REMARK INTER + INTRA:         -15.036
REMARK INTER:                  -8.280
REMARK INTRA:                  -6.756
REMARK UNBOUND:                -5.102
REMARK SMILES CCCCCCCCCCCCCCCCCCCCCCCCCCCCCC(=O)[O-]
REMARK SMILES IDX 16 1 17 2 18 3 19 4 20 5 21 6 22 7 23 8 24 9 25 10 26 11
REMARK SMILES IDX 27 12 28 13 29 14 30 15 31 16 32 17 15 18 14 19 13 20 12 21
REMARK SMILES IDX 11 22 10 23 9 24 8 25 7 26 6 27 5 28 4 29 3 30 2 31 1 32
REMARK H PARENT
REMARK Flexibility Score: inf
ROOT
ATOM      1  C   UNL     1      -4.015  22.894   0.354  1.00  0.00     0.000 C 
ENDROOT
BRANCH   1   2
ATOM      2  C   UNL     1      -4.953  23.908  -0.325  1.00  0.00     0.000 C 
BRANCH   2   3
ATOM      3  C   UNL     1      -4.480  24.302  -1.733  1.00  0.00     0.000 C 
BRANCH   3   4
ATOM      4  C   UNL     1      -4.297  25.821  -1.883  1.00  0.00     0.000 C 
BRANCH   4   5
ATOM      5  C   UNL     1      -4.483  26.566  -0.553  1.00  0.00     0.000 C 
BRANCH   5   6
ATOM      6  C   UNL     1      -4.197  28.074  -0.677  1.00  0.00     0.000 C 
BRANCH   6   7
ATOM      7  C   UNL     1      -4.858  28.891   0.454  1.00  0.00     0.000 C 
BRANCH   7   8
ATOM      8  C   UNL     1      -3.851  29.489   1.456  1.00  0.00     0.000 C 
BRANCH   8   9
ATOM      9  C   UNL     1      -2.401  29.008   1.278  1.00  0.00     0.000 C 
BRANCH   9  10
ATOM     10  C   UNL     1      -1.842  28.334   2.544  1.00  0.00     0.000 C 
BRANCH  10  11
ATOM     11  C   UNL     1      -2.902  27.504   3.284  1.00  0.00     0.000 C 
BRANCH  11  12
ATOM     12  C   UNL     1      -3.007  26.069   2.742  1.00  0.00     0.000 C 
BRANCH  12  13
ATOM     13  C   UNL     1      -4.433  25.530   2.907  1.00  0.00     0.006 C 
BRANCH  13  14
ATOM     14  C   UNL     1      -5.395  26.631   3.366  1.00  0.00     0.053 C 
BRANCH  14  15
ATOM     15  C   UNL     1      -6.799  26.290   2.980  1.00  0.00     0.041 C 
ATOM     16  O   UNL     1      -7.671  26.097   3.871  1.00  0.00    -0.550 OA
ATOM     17  O   UNL     1      -7.166  26.266   1.641  1.00  0.00    -0.550 OA
ENDBRANCH  14  15
ENDBRANCH  13  14
ENDBRANCH  12  13
ENDBRANCH  11  12
ENDBRANCH  10  11
ENDBRANCH   9  10
ENDBRANCH   8   9
ENDBRANCH   7   8
ENDBRANCH   6   7
ENDBRANCH   5   6
ENDBRANCH   4   5
ENDBRANCH   3   4
ENDBRANCH   2   3
ENDBRANCH   1   2
BRANCH   1  18
ATOM     18  C   UNL     1      -3.086  22.195  -0.652  1.00  0.00     0.000 C 
BRANCH  18  19
ATOM     19  C   UNL     1      -1.629  22.155  -0.163  1.00  0.00     0.000 C 
BRANCH  19  20
ATOM     20  C   UNL     1      -1.138  23.518   0.362  1.00  0.00     0.000 C 
BRANCH  20  21
ATOM     21  C   UNL     1      -0.882  24.574  -0.730  1.00  0.00     0.000 C 
BRANCH  21  22
ATOM     22  C   UNL     1      -0.857  26.036  -0.241  1.00  0.00     0.000 C 
BRANCH  22  23
ATOM     23  C   UNL     1      -0.016  26.982  -1.127  1.00  0.00     0.000 C 
BRANCH  23  24
ATOM     24  C   UNL     1      -0.872  28.063  -1.810  1.00  0.00    -0.000 C 
BRANCH  24  25
ATOM     25  C   UNL     1      -1.415  27.623  -3.179  1.00  0.00    -0.000 C 
BRANCH  25  26
ATOM     26  C   UNL     1      -1.566  28.801  -4.156  1.00  0.00    -0.000 C 
BRANCH  26  27
ATOM     27  C   UNL     1      -2.748  28.613  -5.123  1.00  0.00    -0.000 C 
BRANCH  27  28
ATOM     28  C   UNL     1      -4.099  28.589  -4.386  1.00  0.00    -0.000 C 
BRANCH  28  29
ATOM     29  C   UNL     1      -4.789  29.963  -4.355  1.00  0.00    -0.000 C 
BRANCH  29  30
ATOM     30  C   UNL     1      -4.727  30.691  -2.997  1.00  0.00    -0.000 C 
BRANCH  30  31
ATOM     31  C   UNL     1      -3.553  31.672  -2.839  1.00  0.00    -0.003 C 
ATOM     32  C   UNL     1      -2.694  31.380  -1.609  1.00  0.00     0.004 C 
ENDBRANCH  30  31
ENDBRANCH  29  30
ENDBRANCH  28  29
ENDBRANCH  27  28
ENDBRANCH  26  27
ENDBRANCH  25  26
ENDBRANCH  24  25
ENDBRANCH  23  24
ENDBRANCH  22  23
ENDBRANCH  21  22
ENDBRANCH  20  21
ENDBRANCH  19  20
ENDBRANCH  18  19
ENDBRANCH   1  18
TORSDOF 28
ENDMDL
MODEL 7
REMARK VINA RESULT:    -3.765      3.385      7.365
REMARK INTER + INTRA:         -15.031
REMARK INTER:                  -9.004
REMARK INTRA:                  -6.027
REMARK UNBOUND:                -5.102
REMARK SMILES CCCCCCCCCCCCCCCCCCCCCCCCCCCCCC(=O)[O-]
REMARK SMILES IDX 16 1 17 2 18 3 19 4 20 5 21 6 22 7 23 8 24 9 25 10 26 11
REMARK SMILES IDX 27 12 28 13 29 14 30 15 31 16 32 17 15 18 14 19 13 20 12 21
REMARK SMILES IDX 11 22 10 23 9 24 8 25 7 26 6 27 5 28 4 29 3 30 2 31 1 32
REMARK H PARENT
REMARK Flexibility Score: inf
ROOT
ATOM      1  C   UNL     1      -4.147  26.549   3.521  1.00  0.00     0.000 C 
ENDROOT
BRANCH   1   2
ATOM      2  C   UNL     1      -5.538  25.986   3.181  1.00  0.00     0.000 C 
BRANCH   2   3
ATOM      3  C   UNL     1      -6.350  26.922   2.271  1.00  0.00     0.000 C 
BRANCH   3   4
ATOM      4  C   UNL     1      -6.288  26.499   0.795  1.00  0.00     0.000 C 
BRANCH   4   5
ATOM      5  C   UNL     1      -6.553  24.998   0.606  1.00  0.00     0.000 C 
BRANCH   5   6
ATOM      6  C   UNL     1      -5.577  24.348  -0.392  1.00  0.00     0.000 C 
BRANCH   6   7
ATOM      7  C   UNL     1      -4.376  23.682   0.312  1.00  0.00     0.000 C 
BRANCH   7   8
ATOM      8  C   UNL     1      -3.083  23.689  -0.528  1.00  0.00     0.000 C 
BRANCH   8   9
ATOM      9  C   UNL     1      -2.235  22.411  -0.418  1.00  0.00     0.000 C 
BRANCH   9  10
ATOM     10  C   UNL     1      -0.724  22.702  -0.413  1.00  0.00     0.000 C 
BRANCH  10  11
ATOM     11  C   UNL     1      -0.406  24.149  -0.004  1.00  0.00     0.000 C 
BRANCH  11  12
ATOM     12  C   UNL     1       0.534  24.847  -1.001  1.00  0.00     0.000 C 
BRANCH  12  13
ATOM     13  C   UNL     1       0.064  26.280  -1.277  1.00  0.00     0.006 C 
BRANCH  13  14
ATOM     14  C   UNL     1      -0.735  26.362  -2.582  1.00  0.00     0.053 C 
BRANCH  14  15
ATOM     15  C   UNL     1      -0.102  25.508  -3.635  1.00  0.00     0.041 C 
ATOM     16  O   UNL     1      -0.643  24.421  -3.976  1.00  0.00    -0.550 OA
ATOM     17  O   UNL     1       1.035  25.950  -4.297  1.00  0.00    -0.550 OA
ENDBRANCH  14  15
ENDBRANCH  13  14
ENDBRANCH  12  13
ENDBRANCH  11  12
ENDBRANCH  10  11
ENDBRANCH   9  10
ENDBRANCH   8   9
ENDBRANCH   7   8
ENDBRANCH   6   7
ENDBRANCH   5   6
ENDBRANCH   4   5
ENDBRANCH   3   4
ENDBRANCH   2   3
ENDBRANCH   1   2
BRANCH   1  18
ATOM     18  C   UNL     1      -3.030  25.870   2.710  1.00  0.00     0.000 C 
BRANCH  18  19
ATOM     19  C   UNL     1      -2.222  26.882   1.879  1.00  0.00     0.000 C 
BRANCH  19  20
ATOM     20  C   UNL     1      -2.859  27.169   0.507  1.00  0.00     0.000 C 
BRANCH  20  21
ATOM     21  C   UNL     1      -3.020  28.664   0.172  1.00  0.00     0.000 C 
BRANCH  21  22
ATOM     22  C   UNL     1      -3.787  29.497   1.219  1.00  0.00     0.000 C 
BRANCH  22  23
ATOM     23  C   UNL     1      -4.406  30.797   0.659  1.00  0.00     0.000 C 
BRANCH  23  24
ATOM     24  C   UNL     1      -5.909  30.653   0.364  1.00  0.00    -0.000 C 
BRANCH  24  25
ATOM     25  C   UNL     1      -6.383  31.555  -0.787  1.00  0.00    -0.000 C 
BRANCH  25  26
ATOM     26  C   UNL     1      -5.223  32.016  -1.686  1.00  0.00    -0.000 C 
BRANCH  26  27
ATOM     27  C   UNL     1      -5.566  31.920  -3.182  1.00  0.00    -0.000 C 
BRANCH  27  28
ATOM     28  C   UNL     1      -4.561  31.044  -3.951  1.00  0.00    -0.000 C 
BRANCH  28  29
ATOM     29  C   UNL     1      -3.878  29.993  -3.059  1.00  0.00    -0.000 C 
BRANCH  29  30
ATOM     30  C   UNL     1      -3.842  28.568  -3.645  1.00  0.00    -0.000 C 
BRANCH  30  31
ATOM     31  C   UNL     1      -4.713  27.538  -2.904  1.00  0.00    -0.003 C 
ATOM     32  C   UNL     1      -6.012  28.134  -2.365  1.00  0.00     0.004 C 
ENDBRANCH  30  31
ENDBRANCH  29  30
ENDBRANCH  28  29
ENDBRANCH  27  28
ENDBRANCH  26  27
ENDBRANCH  25  26
ENDBRANCH  24  25
ENDBRANCH  23  24
ENDBRANCH  22  23
ENDBRANCH  21  22
ENDBRANCH  20  21
ENDBRANCH  19  20
ENDBRANCH  18  19
ENDBRANCH   1  18
TORSDOF 28
ENDMDL
MODEL 8
REMARK VINA RESULT:    -3.761      2.644      7.724
REMARK INTER + INTRA:         -15.018
REMARK INTER:                 -10.273
REMARK INTRA:                  -4.745
REMARK UNBOUND:                -5.102
REMARK SMILES CCCCCCCCCCCCCCCCCCCCCCCCCCCCCC(=O)[O-]
REMARK SMILES IDX 16 1 17 2 18 3 19 4 20 5 21 6 22 7 23 8 24 9 25 10 26 11
REMARK SMILES IDX 27 12 28 13 29 14 30 15 31 16 32 17 15 18 14 19 13 20 12 21
REMARK SMILES IDX 11 22 10 23 9 24 8 25 7 26 6 27 5 28 4 29 3 30 2 31 1 32
REMARK H PARENT
REMARK Flexibility Score: inf
ROOT
ATOM      1  C   UNL     1      -0.991  27.647  -0.270  1.00  0.00     0.000 C 
ENDROOT
BRANCH   1   2
ATOM      2  C   UNL     1      -1.161  26.212   0.260  1.00  0.00     0.000 C 
BRANCH   2   3
ATOM      3  C   UNL     1      -0.194  25.218  -0.402  1.00  0.00     0.000 C 
BRANCH   3   4
ATOM      4  C   UNL     1      -0.473  23.766   0.017  1.00  0.00     0.000 C 
BRANCH   4   5
ATOM      5  C   UNL     1      -0.051  22.755  -1.060  1.00  0.00     0.000 C 
BRANCH   5   6
ATOM      6  C   UNL     1      -1.139  21.702  -1.339  1.00  0.00     0.000 C 
BRANCH   6   7
ATOM      7  C   UNL     1      -1.885  21.275  -0.057  1.00  0.00     0.000 C 
BRANCH   7   8
ATOM      8  C   UNL     1      -3.389  21.613  -0.073  1.00  0.00     0.000 C 
BRANCH   8   9
ATOM      9  C   UNL     1      -3.843  22.480  -1.260  1.00  0.00     0.000 C 
BRANCH   9  10
ATOM     10  C   UNL     1      -4.090  23.946  -0.861  1.00  0.00     0.000 C 
BRANCH  10  11
ATOM     11  C   UNL     1      -4.084  24.149   0.662  1.00  0.00     0.000 C 
BRANCH  11  12
ATOM     12  C   UNL     1      -4.613  25.534   1.071  1.00  0.00     0.000 C 
BRANCH  12  13
ATOM     13  C   UNL     1      -4.704  25.650   2.597  1.00  0.00     0.006 C 
BRANCH  13  14
ATOM     14  C   UNL     1      -6.101  26.097   3.040  1.00  0.00     0.053 C 
BRANCH  14  15
ATOM     15  C   UNL     1      -7.151  25.317   2.315  1.00  0.00     0.041 C 
ATOM     16  O   UNL     1      -7.927  25.899   1.510  1.00  0.00    -0.550 OA
ATOM     17  O   UNL     1      -7.220  23.938   2.465  1.00  0.00    -0.550 OA
ENDBRANCH  14  15
ENDBRANCH  13  14
ENDBRANCH  12  13
ENDBRANCH  11  12
ENDBRANCH  10  11
ENDBRANCH   9  10
ENDBRANCH   8   9
ENDBRANCH   7   8
ENDBRANCH   6   7
ENDBRANCH   5   6
ENDBRANCH   4   5
ENDBRANCH   3   4
ENDBRANCH   2   3
ENDBRANCH   1   2
BRANCH   1  18
ATOM     18  C   UNL     1      -1.037  28.693   0.856  1.00  0.00     0.000 C 
BRANCH  18  19
ATOM     19  C   UNL     1      -1.575  28.104   2.171  1.00  0.00     0.000 C 
BRANCH  19  20
ATOM     20  C   UNL     1      -2.865  28.796   2.650  1.00  0.00     0.000 C 
BRANCH  20  21
ATOM     21  C   UNL     1      -3.057  30.234   2.132  1.00  0.00     0.000 C 
BRANCH  21  22
ATOM     22  C   UNL     1      -4.058  30.389   0.970  1.00  0.00     0.000 C 
BRANCH  22  23
ATOM     23  C   UNL     1      -4.893  29.121   0.685  1.00  0.00     0.000 C 
BRANCH  23  24
ATOM     24  C   UNL     1      -5.022  28.827  -0.821  1.00  0.00    -0.000 C 
BRANCH  24  25
ATOM     25  C   UNL     1      -3.812  29.316  -1.633  1.00  0.00    -0.000 C 
BRANCH  25  26
ATOM     26  C   UNL     1      -4.220  30.234  -2.797  1.00  0.00    -0.000 C 
BRANCH  26  27
ATOM     27  C   UNL     1      -5.713  30.602  -2.760  1.00  0.00    -0.000 C 
BRANCH  27  28
ATOM     28  C   UNL     1      -5.933  32.126  -2.761  1.00  0.00    -0.000 C 
BRANCH  28  29
ATOM     29  C   UNL     1      -5.210  32.837  -1.603  1.00  0.00    -0.000 C 
BRANCH  29  30
ATOM     30  C   UNL     1      -4.450  34.117  -2.001  1.00  0.00    -0.000 C 
BRANCH  30  31
ATOM     31  C   UNL     1      -4.023  34.187  -3.478  1.00  0.00    -0.003 C 
ATOM     32  C   UNL     1      -2.526  34.438  -3.654  1.00  0.00     0.004 C 
ENDBRANCH  30  31
ENDBRANCH  29  30
ENDBRANCH  28  29
ENDBRANCH  27  28
ENDBRANCH  26  27
ENDBRANCH  25  26
ENDBRANCH  24  25
ENDBRANCH  23  24
ENDBRANCH  22  23
ENDBRANCH  21  22
ENDBRANCH  20  21
ENDBRANCH  19  20
ENDBRANCH  18  19
ENDBRANCH   1  18
TORSDOF 28
ENDMDL
MODEL 9
REMARK VINA RESULT:    -3.746      2.366      6.113
REMARK INTER + INTRA:         -14.979
REMARK INTER:                  -8.898
REMARK INTRA:                  -6.081
REMARK UNBOUND:                -5.102
REMARK SMILES CCCCCCCCCCCCCCCCCCCCCCCCCCCCCC(=O)[O-]
REMARK SMILES IDX 16 1 17 2 18 3 19 4 20 5 21 6 22 7 23 8 24 9 25 10 26 11
REMARK SMILES IDX 27 12 28 13 29 14 30 15 31 16 32 17 15 18 14 19 13 20 12 21
REMARK SMILES IDX 11 22 10 23 9 24 8 25 7 26 6 27 5 28 4 29 3 30 2 31 1 32
REMARK H PARENT
REMARK Flexibility Score: inf
ROOT
ATOM      1  C   UNL     1      -5.602  29.044  -2.841  1.00  0.00     0.000 C 
ENDROOT
BRANCH   1   2
ATOM      2  C   UNL     1      -5.566  30.534  -2.457  1.00  0.00     0.000 C 
BRANCH   2   3
ATOM      3  C   UNL     1      -6.472  30.859  -1.259  1.00  0.00     0.000 C 
BRANCH   3   4
ATOM      4  C   UNL     1      -5.696  31.500  -0.097  1.00  0.00     0.000 C 
BRANCH   4   5
ATOM      5  C   UNL     1      -4.278  31.925  -0.506  1.00  0.00     0.000 C 
BRANCH   5   6
ATOM      6  C   UNL     1      -3.187  31.111   0.215  1.00  0.00     0.000 C 
BRANCH   6   7
ATOM      7  C   UNL     1      -3.718  30.416   1.486  1.00  0.00     0.000 C 
BRANCH   7   8
ATOM      8  C   UNL     1      -2.676  29.519   2.183  1.00  0.00     0.000 C 
BRANCH   8   9
ATOM      9  C   UNL     1      -1.597  28.940   1.252  1.00  0.00     0.000 C 
BRANCH   9  10
ATOM     10  C   UNL     1      -1.466  27.412   1.377  1.00  0.00     0.000 C 
BRANCH  10  11
ATOM     11  C   UNL     1      -2.626  26.785   2.165  1.00  0.00     0.000 C 
BRANCH  11  12
ATOM     12  C   UNL     1      -3.336  25.671   1.377  1.00  0.00     0.000 C 
BRANCH  12  13
ATOM     13  C   UNL     1      -4.490  25.080   2.196  1.00  0.00     0.006 C 
BRANCH  13  14
ATOM     14  C   UNL     1      -5.335  26.181   2.845  1.00  0.00     0.053 C 
BRANCH  14  15
ATOM     15  C   UNL     1      -6.343  26.705   1.873  1.00  0.00     0.041 C 
ATOM     16  O   UNL     1      -7.254  25.949   1.439  1.00  0.00    -0.550 OA
ATOM     17  O   UNL     1      -6.329  28.046   1.512  1.00  0.00    -0.550 OA
ENDBRANCH  14  15
ENDBRANCH  13  14
ENDBRANCH  12  13
ENDBRANCH  11  12
ENDBRANCH  10  11
ENDBRANCH   9  10
ENDBRANCH   8   9
ENDBRANCH   7   8
ENDBRANCH   6   7
ENDBRANCH   5   6
ENDBRANCH   4   5
ENDBRANCH   3   4
ENDBRANCH   2   3
ENDBRANCH   1   2
BRANCH   1  18
ATOM     18  C   UNL     1      -5.263  28.127  -1.654  1.00  0.00     0.000 C 
BRANCH  18  19
ATOM     19  C   UNL     1      -3.761  27.802  -1.586  1.00  0.00     0.000 C 
BRANCH  19  20
ATOM     20  C   UNL     1      -3.095  27.770  -2.974  1.00  0.00     0.000 C 
BRANCH  20  21
ATOM     21  C   UNL     1      -2.125  26.593  -3.197  1.00  0.00     0.000 C 
BRANCH  21  22
ATOM     22  C   UNL     1      -1.542  25.967  -1.914  1.00  0.00     0.000 C 
BRANCH  22  23
ATOM     23  C   UNL     1      -0.041  26.263  -1.696  1.00  0.00     0.000 C 
BRANCH  23  24
ATOM     24  C   UNL     1       0.741  25.023  -1.229  1.00  0.00    -0.000 C 
BRANCH  24  25
ATOM     25  C   UNL     1      -0.142  23.991  -0.511  1.00  0.00    -0.000 C 
BRANCH  25  26
ATOM     26  C   UNL     1      -0.020  22.586  -1.125  1.00  0.00    -0.000 C 
BRANCH  26  27
ATOM     27  C   UNL     1      -1.344  21.806  -1.074  1.00  0.00    -0.000 C 
BRANCH  27  28
ATOM     28  C   UNL     1      -2.290  22.342   0.016  1.00  0.00    -0.000 C 
BRANCH  28  29
ATOM     29  C   UNL     1      -3.754  22.428  -0.451  1.00  0.00    -0.000 C 
BRANCH  29  30
ATOM     30  C   UNL     1      -3.941  22.674  -1.960  1.00  0.00    -0.000 C 
BRANCH  30  31
ATOM     31  C   UNL     1      -4.625  24.005  -2.322  1.00  0.00    -0.003 C 
ATOM     32  C   UNL     1      -5.676  24.432  -1.298  1.00  0.00     0.004 C 
ENDBRANCH  30  31
ENDBRANCH  29  30
ENDBRANCH  28  29
ENDBRANCH  27  28
ENDBRANCH  26  27
ENDBRANCH  25  26
ENDBRANCH  24  25
ENDBRANCH  23  24
ENDBRANCH  22  23
ENDBRANCH  21  22
ENDBRANCH  20  21
ENDBRANCH  19  20
ENDBRANCH  18  19
ENDBRANCH   1  18
TORSDOF 28
ENDMDL
