MODEL 1
REMARK VINA RESULT:    -4.177      0.000      0.000
REMARK INTER + INTRA:          -5.480
REMARK INTER:                  -5.886
REMARK INTRA:                   0.405
REMARK UNBOUND:                 0.405
REMARK SMILES CC1=CCC(=C(C)C)C(=O)CC(C)=CCC1
REMARK SMILES IDX 12 1 14 2 13 3 15 4 16 5 2 6 1 7 3 8 11 10 9 11 10 12 5 13
REMARK SMILES IDX 6 14 7 15 8 16 4 17
REMARK H PARENT
REMARK Flexibility Score: 60.00
ROOT
ATOM      1  C   UNL     1      42.528 -40.915  -5.139  1.00  0.00    -0.070 C 
ATOM      2  C   UNL     1      41.330 -41.317  -5.619  1.00  0.00    -0.027 C 
ATOM      3  C   UNL     1      43.750 -41.698  -5.545  1.00  0.00     0.039 C 
ENDROOT
BRANCH   2   4
ATOM      4  C   UNL     1      40.010 -40.610  -5.406  1.00  0.00     0.032 C 
BRANCH   4   5
ATOM      5  C   UNL     1      39.153 -41.173  -4.253  1.00  0.00     0.034 C 
BRANCH   5   6
ATOM      6  C   UNL     1      38.536 -40.091  -3.385  1.00  0.00    -0.077 C 
ATOM      7  C   UNL     1      37.228 -39.491  -3.836  1.00  0.00     0.039 C 
ATOM      8  C   UNL     1      39.048 -39.678  -2.199  1.00  0.00    -0.023 CG0
ATOM      9  G   UNL     1      40.348 -40.123  -1.561  1.00  0.00     0.000 G0
ENDBRANCH   5   6
ENDBRANCH   4   5
ENDBRANCH   2   4
BRANCH   1  10
ATOM     10  C   UNL     1      42.709 -39.671  -4.294  1.00  0.00     0.111 C 
BRANCH  10  11
ATOM     11  C   UNL     1      42.565 -39.972  -2.825  1.00  0.00     0.163 C 
ATOM     12  O   UNL     1      43.379 -40.780  -2.301  1.00  0.00    -0.294 OA
BRANCH  11  13
ATOM     13  C   UNL     1      41.541 -39.305  -1.966  1.00  0.00    -0.002 C 
ATOM     14  C   UNL     1      41.652 -37.980  -1.646  1.00  0.00    -0.069 C 
ATOM     15  C   UNL     1      40.556 -37.238  -0.914  1.00  0.00     0.039 C 
ATOM     16  C   UNL     1      42.886 -37.185  -2.015  1.00  0.00     0.039 C 
BRANCH  13  17
ATOM     17  C   UNL     1      40.336 -40.134  -1.550  1.00  0.00     0.066 CG0
ATOM     18  G   UNL     1      39.057 -39.665  -2.213  1.00  0.00     0.000 G0
ENDBRANCH  13  17
ENDBRANCH  11  13
ENDBRANCH  10  11
ENDBRANCH   1  10
TORSDOF 0
ENDMDL
MODEL 2
REMARK VINA RESULT:    -3.835      1.626      3.638
REMARK INTER + INTRA:          -4.999
REMARK INTER:                  -5.183
REMARK INTRA:                   0.184
REMARK UNBOUND:                 0.405
REMARK SMILES CC1=CCC(=C(C)C)C(=O)CC(C)=CCC1
REMARK SMILES IDX 12 1 14 2 13 3 15 4 16 5 2 6 1 7 3 8 11 10 9 11 10 12 5 13
REMARK SMILES IDX 6 14 7 15 8 16 4 17
REMARK H PARENT
REMARK Flexibility Score: 60.00
ROOT
ATOM      1  C   UNL     1      42.970 -40.572  -4.302  1.00  0.00    -0.070 C 
ATOM      2  C   UNL     1      43.311 -40.551  -2.994  1.00  0.00    -0.027 C 
ATOM      3  C   UNL     1      43.746 -41.483  -5.219  1.00  0.00     0.039 C 
ENDROOT
BRANCH   2   4
ATOM      4  C   UNL     1      42.594 -39.781  -1.907  1.00  0.00     0.032 C 
BRANCH   4   5
ATOM      5  C   UNL     1      41.576 -40.606  -1.092  1.00  0.00     0.034 C 
BRANCH   5   6
ATOM      6  C   UNL     1      40.199 -39.969  -1.036  1.00  0.00    -0.077 C 
ATOM      7  C   UNL     1      39.947 -38.935   0.032  1.00  0.00     0.039 C 
ATOM      8  C   UNL     1      39.206 -40.218  -1.925  1.00  0.00    -0.023 CG0
ATOM      9  G   UNL     1      39.225 -41.222  -3.060  1.00  0.00     0.000 G0
ENDBRANCH   5   6
ENDBRANCH   4   5
ENDBRANCH   2   4
BRANCH   1  10
ATOM     10  C   UNL     1      41.795 -39.801  -4.867  1.00  0.00     0.111 C 
BRANCH  10  11
ATOM     11  C   UNL     1      40.624 -40.704  -5.155  1.00  0.00     0.163 C 
ATOM     12  O   UNL     1      40.784 -41.634  -5.992  1.00  0.00    -0.294 OA
BRANCH  11  13
ATOM     13  C   UNL     1      39.317 -40.574  -4.445  1.00  0.00    -0.002 C 
ATOM     14  C   UNL     1      38.251 -39.966  -5.047  1.00  0.00    -0.069 C 
ATOM     15  C   UNL     1      36.874 -39.958  -4.420  1.00  0.00     0.039 C 
ATOM     16  C   UNL     1      38.398 -39.268  -6.381  1.00  0.00     0.039 C 
BRANCH  13  17
ATOM     17  C   UNL     1      39.203 -41.226  -3.076  1.00  0.00     0.066 CG0
ATOM     18  G   UNL     1      39.183 -40.209  -1.953  1.00  0.00     0.000 G0
ENDBRANCH  13  17
ENDBRANCH  11  13
ENDBRANCH  10  11
ENDBRANCH   1  10
TORSDOF 0
ENDMDL
MODEL 3
REMARK VINA RESULT:    -3.659      1.954      4.133
REMARK INTER + INTRA:          -4.750
REMARK INTER:                  -4.995
REMARK INTRA:                   0.245
REMARK UNBOUND:                 0.405
REMARK SMILES CC1=CCC(=C(C)C)C(=O)CC(C)=CCC1
REMARK SMILES IDX 12 1 14 2 13 3 15 4 16 5 2 6 1 7 3 8 11 10 9 11 10 12 5 13
REMARK SMILES IDX 6 14 7 15 8 16 4 17
REMARK H PARENT
REMARK Flexibility Score: 60.00
ROOT
ATOM      1  C   UNL     1      38.630 -40.264  -3.702  1.00  0.00    -0.070 C 
ATOM      2  C   UNL     1      39.058 -40.082  -4.972  1.00  0.00    -0.027 C 
ATOM      3  C   UNL     1      37.271 -39.728  -3.332  1.00  0.00     0.039 C 
ENDROOT
BRANCH   2   4
ATOM      4  C   UNL     1      40.341 -40.628  -5.558  1.00  0.00     0.032 C 
BRANCH   4   5
ATOM      5  C   UNL     1      41.605 -39.805  -5.229  1.00  0.00     0.034 C 
BRANCH   5   6
ATOM      6  C   UNL     1      42.692 -40.624  -4.557  1.00  0.00    -0.077 C 
ATOM      7  C   UNL     1      43.442 -41.623  -5.402  1.00  0.00     0.039 C 
ATOM      8  C   UNL     1      43.077 -40.469  -3.266  1.00  0.00    -0.023 CG0
ATOM      9  G   UNL     1      42.461 -39.548  -2.233  1.00  0.00     0.000 G0
ENDBRANCH   5   6
ENDBRANCH   4   5
ENDBRANCH   2   4
BRANCH   1  10
ATOM     10  C   UNL     1      39.405 -41.056  -2.670  1.00  0.00     0.111 C 
BRANCH  10  11
ATOM     11  C   UNL     1      40.039 -40.156  -1.641  1.00  0.00     0.163 C 
ATOM     12  O   UNL     1      39.298 -39.342  -1.027  1.00  0.00    -0.294 OA
BRANCH  11  13
ATOM     13  C   UNL     1      41.487 -40.239  -1.286  1.00  0.00    -0.002 C 
ATOM     14  C   UNL     1      41.905 -40.993  -0.224  1.00  0.00    -0.069 C 
ATOM     15  C   UNL     1      43.372 -41.225   0.065  1.00  0.00     0.039 C 
ATOM     16  C   UNL     1      40.912 -41.638   0.718  1.00  0.00     0.039 C 
BRANCH  13  17
ATOM     17  C   UNL     1      42.470 -39.533  -2.206  1.00  0.00     0.066 CG0
ATOM     18  G   UNL     1      43.051 -40.463  -3.252  1.00  0.00     0.000 G0
ENDBRANCH  13  17
ENDBRANCH  11  13
ENDBRANCH  10  11
ENDBRANCH   1  10
TORSDOF 0
ENDMDL
MODEL 4
REMARK VINA RESULT:    -3.437      2.127      4.052
REMARK INTER + INTRA:          -4.439
REMARK INTER:                  -4.662
REMARK INTRA:                   0.223
REMARK UNBOUND:                 0.405
REMARK SMILES CC1=CCC(=C(C)C)C(=O)CC(C)=CCC1
REMARK SMILES IDX 12 1 14 2 13 3 15 4 16 5 2 6 1 7 3 8 11 10 9 11 10 12 5 13
REMARK SMILES IDX 6 14 7 15 8 16 4 17
REMARK H PARENT
REMARK Flexibility Score: 60.00
ROOT
ATOM      1  C   UNL     1      41.431 -41.211  -5.282  1.00  0.00    -0.070 C 
ATOM      2  C   UNL     1      42.625 -40.830  -4.774  1.00  0.00    -0.027 C 
ATOM      3  C   UNL     1      41.433 -42.032  -6.547  1.00  0.00     0.039 C 
ENDROOT
BRANCH   2   4
ATOM      4  C   UNL     1      42.835 -40.091  -3.471  1.00  0.00     0.032 C 
BRANCH   4   5
ATOM      5  C   UNL     1      42.650 -38.562  -3.557  1.00  0.00     0.034 C 
BRANCH   5   6
ATOM      6  C   UNL     1      41.679 -38.019  -2.524  1.00  0.00    -0.077 C 
ATOM      7  C   UNL     1      42.137 -37.968  -1.088  1.00  0.00     0.039 C 
ATOM      8  C   UNL     1      40.455 -37.515  -2.817  1.00  0.00    -0.023 CG0
ATOM      9  G   UNL     1      39.783 -37.479  -4.175  1.00  0.00     0.000 G0
ENDBRANCH   5   6
ENDBRANCH   4   5
ENDBRANCH   2   4
BRANCH   1  10
ATOM     10  C   UNL     1      40.110 -40.935  -4.596  1.00  0.00     0.111 C 
BRANCH  10  11
ATOM     11  C   UNL     1      39.392 -39.768  -5.223  1.00  0.00     0.163 C 
ATOM     12  O   UNL     1      39.203 -39.788  -6.470  1.00  0.00    -0.294 OA
BRANCH  11  13
ATOM     13  C   UNL     1      38.848 -38.634  -4.419  1.00  0.00    -0.002 C 
ATOM     14  C   UNL     1      37.603 -38.705  -3.861  1.00  0.00    -0.069 C 
ATOM     15  C   UNL     1      37.087 -37.645  -2.913  1.00  0.00     0.039 C 
ATOM     16  C   UNL     1      36.672 -39.860  -4.165  1.00  0.00     0.039 C 
BRANCH  13  17
ATOM     17  C   UNL     1      39.772 -37.451  -4.173  1.00  0.00     0.066 CG0
ATOM     18  G   UNL     1      40.435 -37.511  -2.812  1.00  0.00     0.000 G0
ENDBRANCH  13  17
ENDBRANCH  11  13
ENDBRANCH  10  11
ENDBRANCH   1  10
TORSDOF 0
ENDMDL
MODEL 5
REMARK VINA RESULT:    -3.407      3.593      5.182
REMARK INTER + INTRA:          -4.396
REMARK INTER:                  -4.677
REMARK INTRA:                   0.281
REMARK UNBOUND:                 0.405
REMARK SMILES CC1=CCC(=C(C)C)C(=O)CC(C)=CCC1
REMARK SMILES IDX 12 1 14 2 13 3 15 4 16 5 2 6 1 7 3 8 11 10 9 11 10 12 5 13
REMARK SMILES IDX 6 14 7 15 8 16 4 17
REMARK H PARENT
REMARK Flexibility Score: 60.00
ROOT
ATOM      1  C   UNL     1      37.788 -38.497  -7.982  1.00  0.00    -0.070 C 
ATOM      2  C   UNL     1      37.914 -37.151  -7.983  1.00  0.00    -0.027 C 
ATOM      3  C   UNL     1      36.557 -39.092  -8.618  1.00  0.00     0.039 C 
ENDROOT
BRANCH   2   4
ATOM      4  C   UNL     1      39.112 -36.375  -7.484  1.00  0.00     0.032 C 
BRANCH   4   5
ATOM      5  C   UNL     1      39.056 -35.986  -5.991  1.00  0.00     0.034 C 
BRANCH   5   6
ATOM      6  C   UNL     1      40.366 -36.224  -5.263  1.00  0.00    -0.077 C 
ATOM      7  C   UNL     1      41.470 -35.216  -5.459  1.00  0.00     0.039 C 
ATOM      8  C   UNL     1      40.585 -37.244  -4.397  1.00  0.00    -0.023 CG0
ATOM      9  G   UNL     1      39.636 -38.377  -4.061  1.00  0.00     0.000 G0
ENDBRANCH   5   6
ENDBRANCH   4   5
ENDBRANCH   2   4
BRANCH   1  10
ATOM     10  C   UNL     1      38.859 -39.431  -7.458  1.00  0.00     0.111 C 
BRANCH  10  11
ATOM     11  C   UNL     1      38.660 -39.742  -5.998  1.00  0.00     0.163 C 
ATOM     12  O   UNL     1      37.547 -40.215  -5.638  1.00  0.00    -0.294 OA
BRANCH  11  13
ATOM     13  C   UNL     1      39.744 -39.570  -4.986  1.00  0.00    -0.002 C 
ATOM     14  C   UNL     1      40.822 -40.409  -4.966  1.00  0.00    -0.069 C 
ATOM     15  C   UNL     1      42.010 -40.166  -4.060  1.00  0.00     0.039 C 
ATOM     16  C   UNL     1      40.883 -41.629  -5.858  1.00  0.00     0.039 C 
BRANCH  13  17
ATOM     17  C   UNL     1      39.639 -38.374  -4.052  1.00  0.00     0.066 CG0
ATOM     18  G   UNL     1      40.611 -37.271  -4.417  1.00  0.00     0.000 G0
ENDBRANCH  13  17
ENDBRANCH  11  13
ENDBRANCH  10  11
ENDBRANCH   1  10
TORSDOF 0
ENDMDL
MODEL 6
REMARK VINA RESULT:    -3.379      1.999      3.704
REMARK INTER + INTRA:          -4.356
REMARK INTER:                  -4.825
REMARK INTRA:                   0.469
REMARK UNBOUND:                 0.405
REMARK SMILES CC1=CCC(=C(C)C)C(=O)CC(C)=CCC1
REMARK SMILES IDX 12 1 14 2 13 3 15 4 16 5 2 6 1 7 3 8 11 10 9 11 10 12 5 13
REMARK SMILES IDX 6 14 7 15 8 16 4 17
REMARK H PARENT
REMARK Flexibility Score: 60.00
ROOT
ATOM      1  C   UNL     1      41.484 -40.589  -4.885  1.00  0.00    -0.070 C 
ATOM      2  C   UNL     1      42.596 -40.583  -4.115  1.00  0.00    -0.027 C 
ATOM      3  C   UNL     1      41.407 -41.594  -6.005  1.00  0.00     0.039 C 
ENDROOT
BRANCH   2   4
ATOM      4  C   UNL     1      42.819 -39.722  -2.892  1.00  0.00     0.032 C 
BRANCH   4   5
ATOM      5  C   UNL     1      43.042 -40.504  -1.581  1.00  0.00     0.034 C 
BRANCH   5   6
ATOM      6  C   UNL     1      42.136 -40.047  -0.452  1.00  0.00    -0.077 C 
ATOM      7  C   UNL     1      42.752 -39.234   0.658  1.00  0.00     0.039 C 
ATOM      8  C   UNL     1      40.797 -40.264  -0.412  1.00  0.00    -0.023 CG0
ATOM      9  G   UNL     1      39.971 -41.064  -1.399  1.00  0.00     0.000 G0
ENDBRANCH   5   6
ENDBRANCH   4   5
ENDBRANCH   2   4
BRANCH   1  10
ATOM     10  C   UNL     1      40.285 -39.703  -4.618  1.00  0.00     0.111 C 
BRANCH  10  11
ATOM     11  C   UNL     1      39.243 -40.413  -3.793  1.00  0.00     0.163 C 
ATOM     12  O   UNL     1      38.502 -41.256  -4.369  1.00  0.00    -0.294 OA
BRANCH  11  13
ATOM     13  C   UNL     1      39.103 -40.200  -2.322  1.00  0.00    -0.002 C 
ATOM     14  C   UNL     1      38.188 -39.313  -1.827  1.00  0.00    -0.069 C 
ATOM     15  C   UNL     1      37.911 -39.191  -0.345  1.00  0.00     0.039 C 
ATOM     16  C   UNL     1      37.399 -38.407  -2.746  1.00  0.00     0.039 C 
BRANCH  13  17
ATOM     17  C   UNL     1      39.949 -41.075  -1.409  1.00  0.00     0.066 CG0
ATOM     18  G   UNL     1      40.789 -40.260  -0.447  1.00  0.00     0.000 G0
ENDBRANCH  13  17
ENDBRANCH  11  13
ENDBRANCH  10  11
ENDBRANCH   1  10
TORSDOF 0
ENDMDL
MODEL 7
REMARK VINA RESULT:    -3.266      2.156      2.723
REMARK INTER + INTRA:          -4.197
REMARK INTER:                  -4.383
REMARK INTRA:                   0.186
REMARK UNBOUND:                 0.405
REMARK SMILES CC1=CCC(=C(C)C)C(=O)CC(C)=CCC1
REMARK SMILES IDX 12 1 14 2 13 3 15 4 16 5 2 6 1 7 3 8 11 10 9 11 10 12 5 13
REMARK SMILES IDX 6 14 7 15 8 16 4 17
REMARK H PARENT
REMARK Flexibility Score: 60.00
ROOT
ATOM      1  C   UNL     1      40.416 -40.727  -5.198  1.00  0.00    -0.070 C 
ATOM      2  C   UNL     1      39.503 -39.973  -5.853  1.00  0.00    -0.027 C 
ATOM      3  C   UNL     1      41.192 -41.745  -5.995  1.00  0.00     0.039 C 
ENDROOT
BRANCH   2   4
ATOM      4  C   UNL     1      38.699 -38.841  -5.254  1.00  0.00     0.032 C 
BRANCH   4   5
ATOM      5  C   UNL     1      39.466 -37.511  -5.102  1.00  0.00     0.034 C 
BRANCH   5   6
ATOM      6  C   UNL     1      39.361 -36.917  -3.709  1.00  0.00    -0.077 C 
ATOM      7  C   UNL     1      38.003 -36.450  -3.246  1.00  0.00     0.039 C 
ATOM      8  C   UNL     1      40.391 -36.842  -2.831  1.00  0.00    -0.023 CG0
ATOM      9  G   UNL     1      41.834 -37.229  -3.080  1.00  0.00     0.000 G0
ENDBRANCH   5   6
ENDBRANCH   4   5
ENDBRANCH   2   4
BRANCH   1  10
ATOM     10  C   UNL     1      40.757 -40.533  -3.736  1.00  0.00     0.111 C 
BRANCH  10  11
ATOM     11  C   UNL     1      42.025 -39.737  -3.562  1.00  0.00     0.163 C 
ATOM     12  O   UNL     1      42.997 -39.995  -4.324  1.00  0.00    -0.294 OA
BRANCH  11  13
ATOM     13  C   UNL     1      42.145 -38.626  -2.572  1.00  0.00    -0.002 C 
ATOM     14  C   UNL     1      42.601 -38.864  -1.306  1.00  0.00    -0.069 C 
ATOM     15  C   UNL     1      42.884 -37.741  -0.332  1.00  0.00     0.039 C 
ATOM     16  C   UNL     1      42.850 -40.273  -0.813  1.00  0.00     0.039 C 
BRANCH  13  17
ATOM     17  C   UNL     1      41.831 -37.221  -3.063  1.00  0.00     0.066 CG0
ATOM     18  G   UNL     1      40.382 -36.842  -2.834  1.00  0.00     0.000 G0
ENDBRANCH  13  17
ENDBRANCH  11  13
ENDBRANCH  10  11
ENDBRANCH   1  10
TORSDOF 0
ENDMDL
MODEL 8
REMARK VINA RESULT:    -3.151     13.541     15.936
REMARK INTER + INTRA:          -4.035
REMARK INTER:                  -4.294
REMARK INTRA:                   0.259
REMARK UNBOUND:                 0.405
REMARK SMILES CC1=CCC(=C(C)C)C(=O)CC(C)=CCC1
REMARK SMILES IDX 12 1 14 2 13 3 15 4 16 5 2 6 1 7 3 8 11 10 9 11 10 12 5 13
REMARK SMILES IDX 6 14 7 15 8 16 4 17
REMARK H PARENT
REMARK Flexibility Score: 60.00
ROOT
ATOM      1  C   UNL     1      27.936 -33.258   1.343  1.00  0.00    -0.070 C 
ATOM      2  C   UNL     1      28.868 -33.260   0.363  1.00  0.00    -0.027 C 
ATOM      3  C   UNL     1      26.529 -33.658   0.978  1.00  0.00     0.039 C 
ENDROOT
BRANCH   2   4
ATOM      4  C   UNL     1      30.344 -32.984   0.547  1.00  0.00     0.032 C 
BRANCH   4   5
ATOM      5  C   UNL     1      30.698 -31.506   0.815  1.00  0.00     0.034 C 
BRANCH   5   6
ATOM      6  C   UNL     1      31.510 -31.308   2.082  1.00  0.00    -0.077 C 
ATOM      7  C   UNL     1      32.881 -31.933   2.144  1.00  0.00     0.039 C 
ATOM      8  C   UNL     1      31.111 -30.550   3.134  1.00  0.00    -0.023 CG0
ATOM      9  G   UNL     1      29.779 -29.847   3.301  1.00  0.00     0.000 G0
ENDBRANCH   5   6
ENDBRANCH   4   5
ENDBRANCH   2   4
BRANCH   1  10
ATOM     10  C   UNL     1      28.257 -32.966   2.793  1.00  0.00     0.111 C 
BRANCH  10  11
ATOM     11  C   UNL     1      27.875 -31.559   3.174  1.00  0.00     0.163 C 
ATOM     12  O   UNL     1      26.751 -31.127   2.801  1.00  0.00    -0.294 OA
BRANCH  11  13
ATOM     13  C   UNL     1      28.748 -30.692   4.021  1.00  0.00    -0.002 C 
ATOM     14  C   UNL     1      28.675 -30.745   5.384  1.00  0.00    -0.069 C 
ATOM     15  C   UNL     1      29.651 -30.001   6.269  1.00  0.00     0.039 C 
ATOM     16  C   UNL     1      27.607 -31.561   6.081  1.00  0.00     0.039 C 
BRANCH  13  17
ATOM     17  C   UNL     1      29.775 -29.829   3.304  1.00  0.00     0.066 CG0
ATOM     18  G   UNL     1      31.109 -30.530   3.148  1.00  0.00     0.000 G0
ENDBRANCH  13  17
ENDBRANCH  11  13
ENDBRANCH  10  11
ENDBRANCH   1  10
TORSDOF 0
ENDMDL
MODEL 9
REMARK VINA RESULT:    -3.075      2.212      4.290
REMARK INTER + INTRA:          -3.928
REMARK INTER:                  -4.477
REMARK INTRA:                   0.550
REMARK UNBOUND:                 0.405
REMARK SMILES CC1=CCC(=C(C)C)C(=O)CC(C)=CCC1
REMARK SMILES IDX 12 1 14 2 13 3 15 4 16 5 2 6 1 7 3 8 11 10 9 11 10 12 5 13
REMARK SMILES IDX 6 14 7 15 8 16 4 17
REMARK H PARENT
REMARK Flexibility Score: 60.00
ROOT
ATOM      1  C   UNL     1      42.653 -40.303   0.737  1.00  0.00    -0.070 C 
ATOM      2  C   UNL     1      41.621 -40.789   1.463  1.00  0.00    -0.027 C 
ATOM      3  C   UNL     1      43.581 -39.318   1.401  1.00  0.00     0.039 C 
ENDROOT
BRANCH   2   4
ATOM      4  C   UNL     1      40.644 -41.851   1.009  1.00  0.00     0.032 C 
BRANCH   4   5
ATOM      5  C   UNL     1      39.192 -41.363   0.831  1.00  0.00     0.034 C 
BRANCH   5   6
ATOM      6  C   UNL     1      39.100 -39.982   0.206  1.00  0.00    -0.077 C 
ATOM      7  C   UNL     1      38.613 -38.850   1.075  1.00  0.00     0.039 C 
ATOM      8  C   UNL     1      39.491 -39.688  -1.059  1.00  0.00    -0.023 CG0
ATOM      9  G   UNL     1      39.991 -40.658  -2.109  1.00  0.00     0.000 G0
ENDBRANCH   5   6
ENDBRANCH   4   5
ENDBRANCH   2   4
BRANCH   1  10
ATOM     10  C   UNL     1      42.971 -40.768  -0.669  1.00  0.00     0.111 C 
BRANCH  10  11
ATOM     11  C   UNL     1      42.390 -39.842  -1.705  1.00  0.00     0.163 C 
ATOM     12  O   UNL     1      42.848 -38.669  -1.777  1.00  0.00    -0.294 OA
BRANCH  11  13
ATOM     13  C   UNL     1      41.347 -40.281  -2.680  1.00  0.00    -0.002 C 
ATOM     14  C   UNL     1      41.641 -40.410  -4.008  1.00  0.00    -0.069 C 
ATOM     15  C   UNL     1      40.656 -41.003  -4.993  1.00  0.00     0.039 C 
ATOM     16  C   UNL     1      42.977 -39.967  -4.563  1.00  0.00     0.039 C 
BRANCH  13  17
ATOM     17  C   UNL     1      39.987 -40.664  -2.116  1.00  0.00     0.066 CG0
ATOM     18  G   UNL     1      39.502 -39.686  -1.066  1.00  0.00     0.000 G0
ENDBRANCH  13  17
ENDBRANCH  11  13
ENDBRANCH  10  11
ENDBRANCH   1  10
TORSDOF 0
ENDMDL
