MODEL 1
REMARK VINA RESULT:    -5.511      0.000      0.000
REMARK INTER + INTRA:          -5.511
REMARK INTER:                  -5.511
REMARK INTRA:                   0.000
REMARK UNBOUND:                 0.000
REMARK SMILES CC1=CC=CC(C)(C)[C@@H]1C
REMARK SMILES IDX 10 1 9 2 2 3 3 4 4 5 5 6 6 7 7 8 8 9 1 10
REMARK H PARENT
REMARK Flexibility Score: inf
ROOT
ATOM      1  C   UNL     1     136.427 135.634 124.541  1.00  0.00     0.013 C 
ATOM      2  C   UNL     1     137.613 136.592 124.331  1.00  0.00     0.021 C 
ATOM      3  C   UNL     1     137.399 137.341 123.023  1.00  0.00    -0.070 C 
ATOM      4  C   UNL     1     137.875 136.832 121.876  1.00  0.00    -0.001 C 
ATOM      5  C   UNL     1     138.714 135.619 121.877  1.00  0.00    -0.004 C 
ATOM      6  C   UNL     1     139.211 135.133 123.019  1.00  0.00    -0.020 C 
ATOM      7  C   UNL     1     139.010 135.871 124.332  1.00  0.00    -0.011 C 
ATOM      8  C   UNL     1     140.132 136.924 124.471  1.00  0.00     0.016 C 
ATOM      9  C   UNL     1     139.145 134.875 125.505  1.00  0.00     0.016 C 
ATOM     10  C   UNL     1     136.581 138.601 122.995  1.00  0.00     0.040 C 
ENDROOT
TORSDOF 0
ENDMDL
MODEL 2
REMARK VINA RESULT:    -5.460      1.032      3.489
REMARK INTER + INTRA:          -5.460
REMARK INTER:                  -5.460
REMARK INTRA:                   0.000
REMARK UNBOUND:                 0.000
REMARK SMILES CC1=CC=CC(C)(C)[C@@H]1C
REMARK SMILES IDX 10 1 9 2 2 3 3 4 4 5 5 6 6 7 7 8 8 9 1 10
REMARK H PARENT
REMARK Flexibility Score: inf
ROOT
ATOM      1  C   UNL     1     139.485 134.999 122.717  1.00  0.00     0.013 C 
ATOM      2  C   UNL     1     138.939 136.175 123.548  1.00  0.00     0.021 C 
ATOM      3  C   UNL     1     138.534 135.646 124.917  1.00  0.00    -0.070 C 
ATOM      4  C   UNL     1     137.284 135.197 125.116  1.00  0.00    -0.001 C 
ATOM      5  C   UNL     1     136.258 135.323 124.064  1.00  0.00    -0.004 C 
ATOM      6  C   UNL     1     136.474 136.086 122.987  1.00  0.00    -0.020 C 
ATOM      7  C   UNL     1     137.737 136.921 122.865  1.00  0.00    -0.011 C 
ATOM      8  C   UNL     1     137.496 138.269 123.581  1.00  0.00     0.016 C 
ATOM      9  C   UNL     1     138.013 137.217 121.374  1.00  0.00     0.016 C 
ATOM     10  C   UNL     1     139.546 135.542 126.021  1.00  0.00     0.040 C 
ENDROOT
TORSDOF 0
ENDMDL
MODEL 3
REMARK VINA RESULT:    -5.443     14.503     16.487
REMARK INTER + INTRA:          -5.443
REMARK INTER:                  -5.443
REMARK INTRA:                   0.000
REMARK UNBOUND:                 0.000
REMARK SMILES CC1=CC=CC(C)(C)[C@@H]1C
REMARK SMILES IDX 10 1 9 2 2 3 3 4 4 5 5 6 6 7 7 8 8 9 1 10
REMARK H PARENT
REMARK Flexibility Score: inf
ROOT
ATOM      1  C   UNL     1     135.634 154.341 124.608  1.00  0.00     0.013 C 
ATOM      2  C   UNL     1     136.574 153.148 124.356  1.00  0.00     0.021 C 
ATOM      3  C   UNL     1     137.289 153.373 123.031  1.00  0.00    -0.070 C 
ATOM      4  C   UNL     1     136.744 152.917 121.892  1.00  0.00    -0.001 C 
ATOM      5  C   UNL     1     135.523 152.090 121.915  1.00  0.00    -0.004 C 
ATOM      6  C   UNL     1     135.064 151.582 123.064  1.00  0.00    -0.020 C 
ATOM      7  C   UNL     1     135.839 151.759 124.359  1.00  0.00    -0.011 C 
ATOM      8  C   UNL     1     136.885 150.625 124.454  1.00  0.00     0.016 C 
ATOM      9  C   UNL     1     134.875 151.618 125.557  1.00  0.00     0.016 C 
ATOM     10  C   UNL     1     138.555 154.179 122.979  1.00  0.00     0.040 C 
ENDROOT
TORSDOF 0
ENDMDL
MODEL 4
REMARK VINA RESULT:    -5.430     15.214     16.825
REMARK INTER + INTRA:          -5.430
REMARK INTER:                  -5.430
REMARK INTRA:                   0.000
REMARK UNBOUND:                 0.000
REMARK SMILES CC1=CC=CC(C)(C)[C@@H]1C
REMARK SMILES IDX 10 1 9 2 2 3 3 4 4 5 5 6 6 7 7 8 8 9 1 10
REMARK H PARENT
REMARK Flexibility Score: inf
ROOT
ATOM      1  C   UNL     1     135.029 151.226 122.782  1.00  0.00     0.013 C 
ATOM      2  C   UNL     1     136.177 151.793 123.637  1.00  0.00     0.021 C 
ATOM      3  C   UNL     1     135.627 152.128 125.016  1.00  0.00    -0.070 C 
ATOM      4  C   UNL     1     135.122 153.348 125.257  1.00  0.00    -0.001 C 
ATOM      5  C   UNL     1     135.206 154.415 124.241  1.00  0.00    -0.004 C 
ATOM      6  C   UNL     1     135.981 154.270 123.161  1.00  0.00    -0.020 C 
ATOM      7  C   UNL     1     136.872 153.051 122.999  1.00  0.00    -0.011 C 
ATOM      8  C   UNL     1     138.205 153.326 123.730  1.00  0.00     0.016 C 
ATOM      9  C   UNL     1     137.185 152.840 121.502  1.00  0.00     0.016 C 
ATOM     10  C   UNL     1     135.564 151.074 126.084  1.00  0.00     0.040 C 
ENDROOT
TORSDOF 0
ENDMDL
MODEL 5
REMARK VINA RESULT:    -5.053     13.732     15.535
REMARK INTER + INTRA:          -5.053
REMARK INTER:                  -5.053
REMARK INTRA:                   0.000
REMARK UNBOUND:                 0.000
REMARK SMILES CC1=CC=CC(C)(C)[C@@H]1C
REMARK SMILES IDX 10 1 9 2 2 3 3 4 4 5 5 6 6 7 7 8 8 9 1 10
REMARK H PARENT
REMARK Flexibility Score: inf
ROOT
ATOM      1  C   UNL     1     153.222 137.871 121.637  1.00  0.00     0.013 C 
ATOM      2  C   UNL     1     152.905 137.796 123.142  1.00  0.00     0.021 C 
ATOM      3  C   UNL     1     154.037 138.469 123.904  1.00  0.00    -0.070 C 
ATOM      4  C   UNL     1     155.097 137.748 124.303  1.00  0.00    -0.001 C 
ATOM      5  C   UNL     1     155.125 136.284 124.124  1.00  0.00    -0.004 C 
ATOM      6  C   UNL     1     154.019 135.615 123.780  1.00  0.00    -0.020 C 
ATOM      7  C   UNL     1     152.683 136.329 123.663  1.00  0.00    -0.011 C 
ATOM      8  C   UNL     1     152.035 136.376 125.065  1.00  0.00     0.016 C 
ATOM      9  C   UNL     1     151.750 135.522 122.735  1.00  0.00     0.016 C 
ATOM     10  C   UNL     1     154.019 139.953 124.137  1.00  0.00     0.040 C 
ENDROOT
TORSDOF 0
ENDMDL
MODEL 6
REMARK VINA RESULT:    -5.011     14.784     17.003
REMARK INTER + INTRA:          -5.011
REMARK INTER:                  -5.011
REMARK INTRA:                   0.000
REMARK UNBOUND:                 0.000
REMARK SMILES CC1=CC=CC(C)(C)[C@@H]1C
REMARK SMILES IDX 10 1 9 2 2 3 3 4 4 5 5 6 6 7 7 8 8 9 1 10
REMARK H PARENT
REMARK Flexibility Score: inf
ROOT
ATOM      1  C   UNL     1     136.723 150.913 124.023  1.00  0.00     0.013 C 
ATOM      2  C   UNL     1     136.127 152.243 123.524  1.00  0.00     0.021 C 
ATOM      3  C   UNL     1     137.112 152.874 122.551  1.00  0.00    -0.070 C 
ATOM      4  C   UNL     1     138.059 153.710 123.007  1.00  0.00    -0.001 C 
ATOM      5  C   UNL     1     138.084 154.126 124.422  1.00  0.00    -0.004 C 
ATOM      6  C   UNL     1     137.045 153.875 125.226  1.00  0.00    -0.020 C 
ATOM      7  C   UNL     1     135.773 153.245 124.682  1.00  0.00    -0.011 C 
ATOM      8  C   UNL     1     134.875 154.374 124.128  1.00  0.00     0.016 C 
ATOM      9  C   UNL     1     135.012 152.553 125.834  1.00  0.00     0.016 C 
ATOM     10  C   UNL     1     137.088 152.500 121.097  1.00  0.00     0.040 C 
ENDROOT
TORSDOF 0
ENDMDL
MODEL 7
REMARK VINA RESULT:    -4.979      1.206      3.034
REMARK INTER + INTRA:          -4.979
REMARK INTER:                  -4.979
REMARK INTRA:                   0.000
REMARK UNBOUND:                 0.000
REMARK SMILES CC1=CC=CC(C)(C)[C@@H]1C
REMARK SMILES IDX 10 1 9 2 2 3 3 4 4 5 5 6 6 7 7 8 8 9 1 10
REMARK H PARENT
REMARK Flexibility Score: inf
ROOT
ATOM      1  C   UNL     1     137.981 138.222 123.008  1.00  0.00     0.013 C 
ATOM      2  C   UNL     1     138.002 136.948 123.873  1.00  0.00     0.021 C 
ATOM      3  C   UNL     1     139.366 136.288 123.722  1.00  0.00    -0.070 C 
ATOM      4  C   UNL     1     139.566 135.383 122.751  1.00  0.00    -0.001 C 
ATOM      5  C   UNL     1     138.450 134.922 121.904  1.00  0.00    -0.004 C 
ATOM      6  C   UNL     1     137.184 135.210 122.225  1.00  0.00    -0.020 C 
ATOM      7  C   UNL     1     136.855 135.932 123.520  1.00  0.00    -0.011 C 
ATOM      8  C   UNL     1     136.739 134.879 124.645  1.00  0.00     0.016 C 
ATOM      9  C   UNL     1     135.486 136.633 123.382  1.00  0.00     0.016 C 
ATOM     10  C   UNL     1     140.513 136.709 124.595  1.00  0.00     0.040 C 
ENDROOT
TORSDOF 0
ENDMDL
MODEL 8
REMARK VINA RESULT:    -4.881     14.159     16.721
REMARK INTER + INTRA:          -4.881
REMARK INTER:                  -4.881
REMARK INTRA:                   0.000
REMARK UNBOUND:                 0.000
REMARK SMILES CC1=CC=CC(C)(C)[C@@H]1C
REMARK SMILES IDX 10 1 9 2 2 3 3 4 4 5 5 6 6 7 7 8 8 9 1 10
REMARK H PARENT
REMARK Flexibility Score: inf
ROOT
ATOM      1  C   UNL     1     138.261 152.677 123.159  1.00  0.00     0.013 C 
ATOM      2  C   UNL     1     136.978 152.575 124.003  1.00  0.00     0.021 C 
ATOM      3  C   UNL     1     136.324 151.230 123.721  1.00  0.00    -0.070 C 
ATOM      4  C   UNL     1     135.430 151.116 122.726  1.00  0.00    -0.001 C 
ATOM      5  C   UNL     1     134.975 152.304 121.979  1.00  0.00    -0.004 C 
ATOM      6  C   UNL     1     135.256 153.536 122.417  1.00  0.00    -0.020 C 
ATOM      7  C   UNL     1     135.963 153.748 123.746  1.00  0.00    -0.011 C 
ATOM      8  C   UNL     1     134.897 153.759 124.864  1.00  0.00     0.016 C 
ATOM      9  C   UNL     1     136.661 155.125 123.740  1.00  0.00     0.016 C 
ATOM     10  C   UNL     1     136.738 150.008 124.491  1.00  0.00     0.040 C 
ENDROOT
TORSDOF 0
ENDMDL
