MODEL 1
REMARK VINA RESULT:    -4.632      0.000      0.000
REMARK INTER + INTRA:          -4.926
REMARK INTER:                  -4.902
REMARK INTRA:                  -0.024
REMARK UNBOUND:                -0.024
REMARK SMILES O=C([O-])c1cccnc1
REMARK SMILES IDX 4 1 5 2 9 3 6 4 8 5 7 6 2 7 1 8 3 9
REMARK H PARENT
REMARK Flexibility Score: inf
ROOT
ATOM      1  C   UNL     1      36.852  -1.152 -20.182  1.00  0.00     0.016 A 
ATOM      2  C   UNL     1      35.694  -0.837 -20.909  1.00  0.00     0.013 A 
ATOM      3  C   UNL     1      36.706  -1.726 -18.906  1.00  0.00     0.120 A 
ATOM      4  C   UNL     1      34.433  -1.093 -20.366  1.00  0.00     0.021 A 
ATOM      5  N   UNL     1      35.466  -1.965 -18.400  1.00  0.00    -0.264 NA
ATOM      6  C   UNL     1      34.338  -1.664 -19.097  1.00  0.00     0.111 A 
ENDROOT
BRANCH   1   7
ATOM      7  C   UNL     1      38.193  -0.885 -20.746  1.00  0.00     0.073 C 
ATOM      8  O   UNL     1      39.229  -1.077 -20.055  1.00  0.00    -0.545 OA
ATOM      9  O   UNL     1      38.328  -0.417 -22.048  1.00  0.00    -0.545 OA
ENDBRANCH   1   7
TORSDOF 1
ENDMDL
MODEL 2
REMARK VINA RESULT:    -4.453      1.202      1.758
REMARK INTER + INTRA:          -4.737
REMARK INTER:                  -4.713
REMARK INTRA:                  -0.024
REMARK UNBOUND:                -0.024
REMARK SMILES O=C([O-])c1cccnc1
REMARK SMILES IDX 4 1 5 2 9 3 6 4 8 5 7 6 2 7 1 8 3 9
REMARK H PARENT
REMARK Flexibility Score: inf
ROOT
ATOM      1  C   UNL     1      36.845  -1.287 -19.617  1.00  0.00     0.016 A 
ATOM      2  C   UNL     1      36.479  -0.323 -20.569  1.00  0.00     0.013 A 
ATOM      3  C   UNL     1      35.828  -1.916 -18.877  1.00  0.00     0.120 A 
ATOM      4  C   UNL     1      35.133  -0.006 -20.764  1.00  0.00     0.021 A 
ATOM      5  N   UNL     1      34.525  -1.589 -19.087  1.00  0.00    -0.264 NA
ATOM      6  C   UNL     1      34.160  -0.657 -20.007  1.00  0.00     0.111 A 
ENDROOT
BRANCH   1   7
ATOM      7  C   UNL     1      38.267  -1.632 -19.400  1.00  0.00     0.073 C 
ATOM      8  O   UNL     1      39.152  -1.236 -20.204  1.00  0.00    -0.545 OA
ATOM      9  O   UNL     1      38.646  -2.400 -18.305  1.00  0.00    -0.545 OA
ENDBRANCH   1   7
TORSDOF 1
ENDMDL
MODEL 3
REMARK VINA RESULT:    -4.450      3.069      3.776
REMARK INTER + INTRA:          -4.734
REMARK INTER:                  -4.717
REMARK INTRA:                  -0.016
REMARK UNBOUND:                -0.024
REMARK SMILES O=C([O-])c1cccnc1
REMARK SMILES IDX 4 1 5 2 9 3 6 4 8 5 7 6 2 7 1 8 3 9
REMARK H PARENT
REMARK Flexibility Score: inf
ROOT
ATOM      1  C   UNL     1      34.957  -1.267 -20.149  1.00  0.00     0.016 A 
ATOM      2  C   UNL     1      35.646  -0.698 -21.232  1.00  0.00     0.013 A 
ATOM      3  C   UNL     1      35.704  -1.748 -19.059  1.00  0.00     0.120 A 
ATOM      4  C   UNL     1      37.040  -0.620 -21.213  1.00  0.00     0.021 A 
ATOM      5  N   UNL     1      37.061  -1.659 -19.065  1.00  0.00    -0.264 NA
ATOM      6  C   UNL     1      37.738  -1.110 -20.109  1.00  0.00     0.111 A 
ENDROOT
BRANCH   1   7
ATOM      7  C   UNL     1      33.481  -1.356 -20.157  1.00  0.00     0.073 C 
ATOM      8  O   UNL     1      32.787  -0.569 -19.460  1.00  0.00    -0.545 OA
ATOM      9  O   UNL     1      32.837  -2.312 -20.936  1.00  0.00    -0.545 OA
ENDBRANCH   1   7
TORSDOF 1
ENDMDL
MODEL 4
REMARK VINA RESULT:    -4.396      0.899      1.606
REMARK INTER + INTRA:          -4.677
REMARK INTER:                  -4.653
REMARK INTRA:                  -0.024
REMARK UNBOUND:                -0.024
REMARK SMILES O=C([O-])c1cccnc1
REMARK SMILES IDX 4 1 5 2 9 3 6 4 8 5 7 6 2 7 1 8 3 9
REMARK H PARENT
REMARK Flexibility Score: inf
ROOT
ATOM      1  C   UNL     1      36.942  -1.228 -20.182  1.00  0.00     0.016 A 
ATOM      2  C   UNL     1      36.840  -1.776 -18.893  1.00  0.00     0.013 A 
ATOM      3  C   UNL     1      35.757  -0.967 -20.893  1.00  0.00     0.120 A 
ATOM      4  C   UNL     1      35.585  -2.050 -18.345  1.00  0.00     0.021 A 
ATOM      5  N   UNL     1      34.548  -1.243 -20.336  1.00  0.00    -0.264 NA
ATOM      6  C   UNL     1      34.438  -1.773 -19.089  1.00  0.00     0.111 A 
ENDROOT
BRANCH   1   7
ATOM      7  C   UNL     1      38.265  -0.933 -20.773  1.00  0.00     0.073 C 
ATOM      8  O   UNL     1      39.312  -1.028 -20.081  1.00  0.00    -0.545 OA
ATOM      9  O   UNL     1      38.369  -0.545 -22.105  1.00  0.00    -0.545 OA
ENDBRANCH   1   7
TORSDOF 1
ENDMDL
MODEL 5
REMARK VINA RESULT:    -4.268      3.050      3.948
REMARK INTER + INTRA:          -4.541
REMARK INTER:                  -4.525
REMARK INTRA:                  -0.016
REMARK UNBOUND:                -0.024
REMARK SMILES O=C([O-])c1cccnc1
REMARK SMILES IDX 4 1 5 2 9 3 6 4 8 5 7 6 2 7 1 8 3 9
REMARK H PARENT
REMARK Flexibility Score: inf
ROOT
ATOM      1  C   UNL     1      35.551  -1.247 -20.286  1.00  0.00     0.016 A 
ATOM      2  C   UNL     1      36.322  -1.765 -19.233  1.00  0.00     0.013 A 
ATOM      3  C   UNL     1      36.215  -0.623 -21.358  1.00  0.00     0.120 A 
ATOM      4  C   UNL     1      37.713  -1.653 -19.263  1.00  0.00     0.021 A 
ATOM      5  N   UNL     1      37.571  -0.529 -21.362  1.00  0.00    -0.264 NA
ATOM      6  C   UNL     1      38.327  -1.027 -20.347  1.00  0.00     0.111 A 
ENDROOT
BRANCH   1   7
ATOM      7  C   UNL     1      34.076  -1.359 -20.267  1.00  0.00     0.073 C 
ATOM      8  O   UNL     1      33.374  -0.470 -19.716  1.00  0.00    -0.545 OA
ATOM      9  O   UNL     1      33.445  -2.449 -20.857  1.00  0.00    -0.545 OA
ENDBRANCH   1   7
TORSDOF 1
ENDMDL
MODEL 6
REMARK VINA RESULT:    -4.264      2.921      3.582
REMARK INTER + INTRA:          -4.537
REMARK INTER:                  -4.519
REMARK INTRA:                  -0.019
REMARK UNBOUND:                -0.024
REMARK SMILES O=C([O-])c1cccnc1
REMARK SMILES IDX 4 1 5 2 9 3 6 4 8 5 7 6 2 7 1 8 3 9
REMARK H PARENT
REMARK Flexibility Score: inf
ROOT
ATOM      1  C   UNL     1      36.442  -1.663 -19.045  1.00  0.00     0.016 A 
ATOM      2  C   UNL     1      35.579  -1.140 -20.021  1.00  0.00     0.013 A 
ATOM      3  C   UNL     1      37.826  -1.649 -19.299  1.00  0.00     0.120 A 
ATOM      4  C   UNL     1      36.097  -0.622 -21.210  1.00  0.00     0.021 A 
ATOM      5  N   UNL     1      38.304  -1.138 -20.465  1.00  0.00    -0.264 NA
ATOM      6  C   UNL     1      37.476  -0.629 -21.416  1.00  0.00     0.111 A 
ENDROOT
BRANCH   1   7
ATOM      7  C   UNL     1      35.906  -2.215 -17.782  1.00  0.00     0.073 C 
ATOM      8  O   UNL     1      35.024  -3.113 -17.798  1.00  0.00    -0.545 OA
ATOM      9  O   UNL     1      36.370  -1.747 -16.557  1.00  0.00    -0.545 OA
ENDBRANCH   1   7
TORSDOF 1
ENDMDL
MODEL 7
REMARK VINA RESULT:    -4.170      2.742      3.720
REMARK INTER + INTRA:          -4.438
REMARK INTER:                  -4.414
REMARK INTRA:                  -0.024
REMARK UNBOUND:                -0.024
REMARK SMILES O=C([O-])c1cccnc1
REMARK SMILES IDX 4 1 5 2 9 3 6 4 8 5 7 6 2 7 1 8 3 9
REMARK H PARENT
REMARK Flexibility Score: inf
ROOT
ATOM      1  C   UNL     1      36.707  -1.635 -19.090  1.00  0.00     0.016 A 
ATOM      2  C   UNL     1      38.083  -1.599 -19.368  1.00  0.00     0.013 A 
ATOM      3  C   UNL     1      35.818  -1.105 -20.042  1.00  0.00     0.120 A 
ATOM      4  C   UNL     1      38.542  -1.045 -20.565  1.00  0.00     0.021 A 
ATOM      5  N   UNL     1      36.292  -0.572 -21.200  1.00  0.00    -0.264 NA
ATOM      6  C   UNL     1      37.622  -0.532 -21.479  1.00  0.00     0.111 A 
ENDROOT
BRANCH   1   7
ATOM      7  C   UNL     1      36.208  -2.218 -17.826  1.00  0.00     0.073 C 
ATOM      8  O   UNL     1      37.012  -2.598 -16.934  1.00  0.00    -0.545 OA
ATOM      9  O   UNL     1      34.842  -2.358 -17.607  1.00  0.00    -0.545 OA
ENDBRANCH   1   7
TORSDOF 1
ENDMDL
MODEL 8
REMARK VINA RESULT:    -4.109      2.781      3.583
REMARK INTER + INTRA:          -4.372
REMARK INTER:                  -4.355
REMARK INTRA:                  -0.017
REMARK UNBOUND:                -0.024
REMARK SMILES O=C([O-])c1cccnc1
REMARK SMILES IDX 4 1 5 2 9 3 6 4 8 5 7 6 2 7 1 8 3 9
REMARK H PARENT
REMARK Flexibility Score: inf
ROOT
ATOM      1  C   UNL     1      35.951  -1.785 -18.744  1.00  0.00     0.016 A 
ATOM      2  C   UNL     1      37.130  -1.397 -19.400  1.00  0.00     0.013 A 
ATOM      3  C   UNL     1      34.724  -1.591 -19.403  1.00  0.00     0.120 A 
ATOM      4  C   UNL     1      37.069  -0.833 -20.676  1.00  0.00     0.021 A 
ATOM      5  N   UNL     1      34.693  -1.039 -20.646  1.00  0.00    -0.264 NA
ATOM      6  C   UNL     1      35.829  -0.660 -21.290  1.00  0.00     0.111 A 
ENDROOT
BRANCH   1   7
ATOM      7  C   UNL     1      36.002  -2.384 -17.393  1.00  0.00     0.073 C 
ATOM      8  O   UNL     1      36.377  -1.702 -16.403  1.00  0.00    -0.545 OA
ATOM      9  O   UNL     1      35.635  -3.712 -17.197  1.00  0.00    -0.545 OA
ENDBRANCH   1   7
TORSDOF 1
ENDMDL
MODEL 9
REMARK VINA RESULT:    -3.911      1.703      2.414
REMARK INTER + INTRA:          -4.163
REMARK INTER:                  -4.139
REMARK INTRA:                  -0.024
REMARK UNBOUND:                -0.024
REMARK SMILES O=C([O-])c1cccnc1
REMARK SMILES IDX 4 1 5 2 9 3 6 4 8 5 7 6 2 7 1 8 3 9
REMARK H PARENT
REMARK Flexibility Score: inf
ROOT
ATOM      1  C   UNL     1      36.376  -1.398 -19.577  1.00  0.00     0.016 A 
ATOM      2  C   UNL     1      35.177  -1.735 -18.930  1.00  0.00     0.013 A 
ATOM      3  C   UNL     1      37.588  -1.816 -18.999  1.00  0.00     0.120 A 
ATOM      4  C   UNL     1      35.203  -2.468 -17.742  1.00  0.00     0.021 A 
ATOM      5  N   UNL     1      37.586  -2.530 -17.842  1.00  0.00    -0.264 NA
ATOM      6  C   UNL     1      36.430  -2.861 -17.207  1.00  0.00     0.111 A 
ENDROOT
BRANCH   1   7
ATOM      7  C   UNL     1      36.362  -0.622 -20.836  1.00  0.00     0.073 C 
ATOM      8  O   UNL     1      35.304  -0.068 -21.236  1.00  0.00    -0.545 OA
ATOM      9  O   UNL     1      37.519  -0.495 -21.597  1.00  0.00    -0.545 OA
ENDBRANCH   1   7
TORSDOF 1
ENDMDL
