MODEL 1
REMARK VINA RESULT:    -4.887      0.000      0.000
REMARK INTER + INTRA:          -6.400
REMARK INTER:                  -5.601
REMARK INTRA:                  -0.800
REMARK UNBOUND:                -0.800
REMARK SMILES C=C(C)[C@H]1CC[C@]2(C(=O)[O-])CC[C@]3(C)[C@H](CC[C@H]4[C@@]5(C)CC[C@H](O)C(C)(C)[C@@H]5CC[C@@]43C)[C@H]12
REMARK SMILES IDX 7 1 6 2 33 3 11 4 5 5 15 6 4 7 12 8 16 9 13 10 17 11 31 12
REMARK SMILES IDX 14 13 18 14 30 15 32 16 19 17 29 18 21 19 20 20 28 21 22 22
REMARK SMILES IDX 25 23 23 24 26 25 27 26 8 27 9 28 10 29 2 30 3 31 1 32 24 33
REMARK H PARENT 24 34
REMARK Flexibility Score: inf
ROOT
ATOM      1  C   UNL     1       8.366  -4.294  -7.714  1.00  0.00     0.014 C 
ATOM      2  C   UNL     1       9.318  -5.509  -7.916  1.00  0.00     0.014 C 
ATOM      3  C   UNL     1       8.237  -4.171  -6.170  1.00  0.00     0.012 C 
ATOM      4  C   UNL     1       8.990  -3.012  -8.378  1.00  0.00     0.014 C 
ATOM      5  C   UNL     1       9.865  -5.914  -6.541  1.00  0.00     0.009 C 
ATOM      6  C   UNL     1       7.774  -2.757  -5.735  1.00  0.00     0.000 C 
ATOM      7  C   UNL     1       9.519  -4.776  -5.582  1.00  0.00     0.018 C 
ATOM      8  C   UNL     1       8.493  -1.643  -7.825  1.00  0.00     0.008 C 
ATOM      9  C   UNL     1       7.281  -2.599  -4.289  1.00  0.00     0.005 C 
ATOM     10  C   UNL     1       8.584  -1.509  -6.265  1.00  0.00    -0.024 C 
ATOM     11  C   UNL     1       6.287  -1.403  -4.163  1.00  0.00     0.005 C 
ATOM     12  C   UNL     1       7.926  -0.121  -5.669  1.00  0.00    -0.024 C 
ATOM     13  C   UNL     1      10.106  -1.548  -5.896  1.00  0.00     0.012 C 
ATOM     14  C   UNL     1       6.409  -0.348  -5.322  1.00  0.00     0.002 C 
ATOM     15  C   UNL     1       7.997   1.026  -6.718  1.00  0.00     0.008 C 
ATOM     16  C   UNL     1       8.685   0.343  -4.361  1.00  0.00     0.012 C 
ATOM     17  C   UNL     1       5.447   0.954  -5.267  1.00  0.00    -0.026 C 
ATOM     18  C   UNL     1       7.427   2.381  -6.254  1.00  0.00     0.005 C 
ATOM     19  C   UNL     1       4.514   0.923  -4.014  1.00  0.00     0.010 C 
ATOM     20  C   UNL     1       4.544   0.916  -6.542  1.00  0.00     0.012 C 
ATOM     21  C   UNL     1       6.278   2.295  -5.210  1.00  0.00     0.003 C 
ATOM     22  C   UNL     1       3.657   2.189  -3.830  1.00  0.00     0.033 C 
ATOM     23  C   UNL     1       5.456   3.640  -5.017  1.00  0.00    -0.006 C 
ATOM     24  C   UNL     1       4.523   3.465  -3.772  1.00  0.00     0.120 C 
ATOM     25  C   UNL     1       4.644   4.082  -6.273  1.00  0.00     0.014 C 
ATOM     26  C   UNL     1       6.451   4.790  -4.690  1.00  0.00     0.014 C 
ENDROOT
BRANCH   1  27
ATOM     27  C   UNL     1       6.997  -4.598  -8.320  1.00  0.00     0.048 C 
ATOM     28  O   UNL     1       6.669  -4.151  -9.452  1.00  0.00    -0.550 OA
ATOM     29  O   UNL     1       6.063  -5.333  -7.597  1.00  0.00    -0.550 OA
ENDBRANCH   1  27
BRANCH   7  30
ATOM     30  C   UNL     1       9.388  -5.226  -4.129  1.00  0.00    -0.077 C 
ATOM     31  C   UNL     1       8.401  -6.306  -3.765  1.00  0.00     0.039 C 
ATOM     32  C   UNL     1      10.125  -4.679  -3.146  1.00  0.00     0.008 C 
ENDBRANCH   7  30
BRANCH  24  33
ATOM     33  O   UNL     1       3.731   4.607  -3.541  1.00  0.00    -0.393 OA
ATOM     34  H   UNL     1       3.888   5.252  -4.278  1.00  0.00     0.210 HD
ENDBRANCH  24  33
TORSDOF 3
ENDMDL
MODEL 2
REMARK VINA RESULT:    -4.278      2.754      7.646
REMARK INTER + INTRA:          -5.702
REMARK INTER:                  -4.905
REMARK INTRA:                  -0.798
REMARK UNBOUND:                -0.800
REMARK SMILES C=C(C)[C@H]1CC[C@]2(C(=O)[O-])CC[C@]3(C)[C@H](CC[C@H]4[C@@]5(C)CC[C@H](O)C(C)(C)[C@@H]5CC[C@@]43C)[C@H]12
REMARK SMILES IDX 7 1 6 2 33 3 11 4 5 5 15 6 4 7 12 8 16 9 13 10 17 11 31 12
REMARK SMILES IDX 14 13 18 14 30 15 32 16 19 17 29 18 21 19 20 20 28 21 22 22
REMARK SMILES IDX 25 23 23 24 26 25 27 26 8 27 9 28 10 29 2 30 3 31 1 32 24 33
REMARK H PARENT 24 34
REMARK Flexibility Score: inf
ROOT
ATOM      1  C   UNL     1       7.831   3.895  -8.440  1.00  0.00     0.014 C 
ATOM      2  C   UNL     1       7.571   4.933  -9.571  1.00  0.00     0.014 C 
ATOM      3  C   UNL     1       6.414   3.366  -8.085  1.00  0.00     0.012 C 
ATOM      4  C   UNL     1       8.790   2.765  -8.964  1.00  0.00     0.014 C 
ATOM      5  C   UNL     1       6.095   4.832  -9.975  1.00  0.00     0.009 C 
ATOM      6  C   UNL     1       6.468   1.989  -7.372  1.00  0.00     0.000 C 
ATOM      7  C   UNL     1       5.558   3.547  -9.345  1.00  0.00     0.018 C 
ATOM      8  C   UNL     1       8.722   1.404  -8.209  1.00  0.00     0.008 C 
ATOM      9  C   UNL     1       5.186   1.518  -6.669  1.00  0.00     0.005 C 
ATOM     10  C   UNL     1       7.274   0.821  -8.065  1.00  0.00    -0.024 C 
ATOM     11  C   UNL     1       5.516   0.527  -5.509  1.00  0.00     0.005 C 
ATOM     12  C   UNL     1       7.185  -0.542  -7.144  1.00  0.00    -0.024 C 
ATOM     13  C   UNL     1       6.774   0.489  -9.513  1.00  0.00     0.012 C 
ATOM     14  C   UNL     1       6.923  -0.161  -5.640  1.00  0.00     0.002 C 
ATOM     15  C   UNL     1       8.519  -1.341  -7.198  1.00  0.00     0.008 C 
ATOM     16  C   UNL     1       6.014  -1.482  -7.644  1.00  0.00     0.012 C 
ATOM     17  C   UNL     1       7.350  -1.239  -4.508  1.00  0.00    -0.026 C 
ATOM     18  C   UNL     1       8.537  -2.650  -6.385  1.00  0.00     0.005 C 
ATOM     19  C   UNL     1       6.235  -1.401  -3.425  1.00  0.00     0.010 C 
ATOM     20  C   UNL     1       8.630  -0.685  -3.803  1.00  0.00     0.012 C 
ATOM     21  C   UNL     1       7.623  -2.665  -5.127  1.00  0.00     0.003 C 
ATOM     22  C   UNL     1       6.517  -2.498  -2.383  1.00  0.00     0.033 C 
ATOM     23  C   UNL     1       7.919  -3.845  -4.107  1.00  0.00    -0.006 C 
ATOM     24  C   UNL     1       6.768  -3.868  -3.045  1.00  0.00     0.120 C 
ATOM     25  C   UNL     1       9.318  -3.766  -3.421  1.00  0.00     0.014 C 
ATOM     26  C   UNL     1       7.865  -5.195  -4.877  1.00  0.00     0.014 C 
ENDROOT
BRANCH   1  27
ATOM     27  C   UNL     1       8.438   4.592  -7.223  1.00  0.00     0.048 C 
ATOM     28  O   UNL     1       9.681   4.576  -7.014  1.00  0.00    -0.550 OA
ATOM     29  O   UNL     1       7.612   5.210  -6.290  1.00  0.00    -0.550 OA
ENDBRANCH   1  27
BRANCH   7  30
ATOM     30  C   UNL     1       4.055   3.584  -9.080  1.00  0.00    -0.077 C 
ATOM     31  C   UNL     1       3.148   2.593  -9.764  1.00  0.00     0.039 C 
ATOM     32  C   UNL     1       3.501   4.488  -8.252  1.00  0.00     0.008 C 
ENDBRANCH   7  30
BRANCH  24  33
ATOM     33  O   UNL     1       6.964  -4.873  -2.077  1.00  0.00    -0.393 OA
ATOM     34  H   UNL     1       7.688  -5.475  -2.391  1.00  0.00     0.210 HD
ENDBRANCH  24  33
TORSDOF 3
ENDMDL
MODEL 3
REMARK VINA RESULT:    -4.049      1.930      2.599
REMARK INTER + INTRA:          -5.440
REMARK INTER:                  -4.815
REMARK INTRA:                  -0.626
REMARK UNBOUND:                -0.800
REMARK SMILES C=C(C)[C@H]1CC[C@]2(C(=O)[O-])CC[C@]3(C)[C@H](CC[C@H]4[C@@]5(C)CC[C@H](O)C(C)(C)[C@@H]5CC[C@@]43C)[C@H]12
REMARK SMILES IDX 7 1 6 2 33 3 11 4 5 5 15 6 4 7 12 8 16 9 13 10 17 11 31 12
REMARK SMILES IDX 14 13 18 14 30 15 32 16 19 17 29 18 21 19 20 20 28 21 22 22
REMARK SMILES IDX 25 23 23 24 26 25 27 26 8 27 9 28 10 29 2 30 3 31 1 32 24 33
REMARK H PARENT 24 34
REMARK Flexibility Score: inf
ROOT
ATOM      1  C   UNL     1       8.236  -4.156  -7.022  1.00  0.00     0.014 C 
ATOM      2  C   UNL     1       8.810  -5.470  -6.415  1.00  0.00     0.014 C 
ATOM      3  C   UNL     1       7.524  -3.470  -5.824  1.00  0.00     0.012 C 
ATOM      4  C   UNL     1       9.405  -3.289  -7.616  1.00  0.00     0.014 C 
ATOM      5  C   UNL     1       8.609  -5.415  -4.895  1.00  0.00     0.009 C 
ATOM      6  C   UNL     1       7.334  -1.948  -6.054  1.00  0.00     0.000 C 
ATOM      7  C   UNL     1       8.230  -3.974  -4.558  1.00  0.00     0.018 C 
ATOM      8  C   UNL     1       9.125  -1.762  -7.752  1.00  0.00     0.008 C 
ATOM      9  C   UNL     1       6.356  -1.219  -5.120  1.00  0.00     0.005 C 
ATOM     10  C   UNL     1       8.601  -1.086  -6.438  1.00  0.00    -0.024 C 
ATOM     11  C   UNL     1       5.772   0.056  -5.806  1.00  0.00     0.005 C 
ATOM     12  C   UNL     1       8.169   0.493  -6.620  1.00  0.00    -0.024 C 
ATOM     13  C   UNL     1       9.762  -1.177  -5.389  1.00  0.00     0.012 C 
ATOM     14  C   UNL     1       6.645   0.596  -6.996  1.00  0.00     0.002 C 
ATOM     15  C   UNL     1       8.978   1.166  -7.766  1.00  0.00     0.008 C 
ATOM     16  C   UNL     1       8.420   1.301  -5.283  1.00  0.00     0.012 C 
ATOM     17  C   UNL     1       6.147   1.939  -7.754  1.00  0.00    -0.026 C 
ATOM     18  C   UNL     1       8.666   2.656  -8.007  1.00  0.00     0.005 C 
ATOM     19  C   UNL     1       4.813   2.478  -7.144  1.00  0.00     0.010 C 
ATOM     20  C   UNL     1       5.875   1.554  -9.244  1.00  0.00     0.012 C 
ATOM     21  C   UNL     1       7.216   3.096  -7.661  1.00  0.00     0.003 C 
ATOM     22  C   UNL     1       4.343   3.820  -7.733  1.00  0.00     0.033 C 
ATOM     23  C   UNL     1       6.795   4.510  -8.247  1.00  0.00    -0.006 C 
ATOM     24  C   UNL     1       5.424   4.913  -7.606  1.00  0.00     0.120 C 
ATOM     25  C   UNL     1       6.727   4.566  -9.804  1.00  0.00     0.014 C 
ATOM     26  C   UNL     1       7.844   5.568  -7.799  1.00  0.00     0.014 C 
ENDROOT
BRANCH   1  27
ATOM     27  C   UNL     1       7.210  -4.488  -8.106  1.00  0.00     0.048 C 
ATOM     28  O   UNL     1       6.057  -4.900  -7.810  1.00  0.00    -0.550 OA
ATOM     29  O   UNL     1       7.562  -4.392  -9.448  1.00  0.00    -0.550 OA
ENDBRANCH   1  27
BRANCH   7  30
ATOM     30  C   UNL     1       7.395  -3.849  -3.285  1.00  0.00    -0.077 C 
ATOM     31  C   UNL     1       7.586  -2.660  -2.378  1.00  0.00     0.039 C 
ATOM     32  C   UNL     1       6.488  -4.778  -2.936  1.00  0.00     0.008 C 
ENDBRANCH   7  30
BRANCH  24  33
ATOM     33  O   UNL     1       4.958   6.150  -8.092  1.00  0.00    -0.393 OA
ATOM     34  H   UNL     1       5.455   6.370  -8.922  1.00  0.00     0.210 HD
ENDBRANCH  24  33
TORSDOF 3
ENDMDL
MODEL 4
REMARK VINA RESULT:    -3.897      2.578      7.785
REMARK INTER + INTRA:          -5.266
REMARK INTER:                  -4.465
REMARK INTRA:                  -0.801
REMARK UNBOUND:                -0.800
REMARK SMILES C=C(C)[C@H]1CC[C@]2(C(=O)[O-])CC[C@]3(C)[C@H](CC[C@H]4[C@@]5(C)CC[C@H](O)C(C)(C)[C@@H]5CC[C@@]43C)[C@H]12
REMARK SMILES IDX 7 1 6 2 33 3 11 4 5 5 15 6 4 7 12 8 16 9 13 10 17 11 31 12
REMARK SMILES IDX 14 13 18 14 30 15 32 16 19 17 29 18 21 19 20 20 28 21 22 22
REMARK SMILES IDX 25 23 23 24 26 25 27 26 8 27 9 28 10 29 2 30 3 31 1 32 24 33
REMARK H PARENT 24 34
REMARK Flexibility Score: inf
ROOT
ATOM      1  C   UNL     1       7.387   3.424  -8.358  1.00  0.00     0.014 C 
ATOM      2  C   UNL     1       6.687   4.770  -8.707  1.00  0.00     0.014 C 
ATOM      3  C   UNL     1       7.140   3.256  -6.834  1.00  0.00     0.012 C 
ATOM      4  C   UNL     1       6.758   2.261  -9.210  1.00  0.00     0.014 C 
ATOM      5  C   UNL     1       5.901   5.227  -7.471  1.00  0.00     0.009 C 
ATOM      6  C   UNL     1       7.288   1.781  -6.378  1.00  0.00     0.000 C 
ATOM      7  C   UNL     1       5.855   4.034  -6.518  1.00  0.00     0.018 C 
ATOM      8  C   UNL     1       6.918   0.824  -8.630  1.00  0.00     0.008 C 
ATOM      9  C   UNL     1       7.409   1.527  -4.869  1.00  0.00     0.005 C 
ATOM     10  C   UNL     1       6.454   0.677  -7.140  1.00  0.00    -0.024 C 
ATOM     11  C   UNL     1       8.170   0.194  -4.584  1.00  0.00     0.005 C 
ATOM     12  C   UNL     1       6.757  -0.803  -6.483  1.00  0.00    -0.024 C 
ATOM     13  C   UNL     1       4.909   0.934  -7.120  1.00  0.00     0.012 C 
ATOM     14  C   UNL     1       8.171  -0.809  -5.793  1.00  0.00     0.002 C 
ATOM     15  C   UNL     1       6.768  -1.909  -7.578  1.00  0.00     0.008 C 
ATOM     16  C   UNL     1       5.661  -1.174  -5.404  1.00  0.00     0.012 C 
ATOM     17  C   UNL     1       8.902  -2.241  -5.591  1.00  0.00    -0.026 C 
ATOM     18  C   UNL     1       7.021  -3.341  -7.067  1.00  0.00     0.005 C 
ATOM     19  C   UNL     1       9.518  -2.371  -4.160  1.00  0.00     0.010 C 
ATOM     20  C   UNL     1      10.069  -2.314  -6.627  1.00  0.00     0.012 C 
ATOM     21  C   UNL     1       7.901  -3.445  -5.789  1.00  0.00     0.003 C 
ATOM     22  C   UNL     1      10.123  -3.752  -3.853  1.00  0.00     0.033 C 
ATOM     23  C   UNL     1       8.460  -4.900  -5.486  1.00  0.00    -0.006 C 
ATOM     24  C   UNL     1       9.098  -4.886  -4.056  1.00  0.00     0.120 C 
ATOM     25  C   UNL     1       9.468  -5.435  -6.549  1.00  0.00     0.014 C 
ATOM     26  C   UNL     1       7.265  -5.895  -5.450  1.00  0.00     0.014 C 
ENDROOT
BRANCH   1  27
ATOM     27  C   UNL     1       8.888   3.533  -8.626  1.00  0.00     0.048 C 
ATOM     28  O   UNL     1       9.666   4.050  -7.781  1.00  0.00    -0.550 OA
ATOM     29  O   UNL     1       9.409   3.111  -9.845  1.00  0.00    -0.550 OA
ENDBRANCH   1  27
BRANCH   7  30
ATOM     30  C   UNL     1       5.711   4.433  -5.051  1.00  0.00    -0.077 C 
ATOM     31  C   UNL     1       4.628   3.811  -4.207  1.00  0.00     0.039 C 
ATOM     32  C   UNL     1       6.522   5.340  -4.479  1.00  0.00     0.008 C 
ENDBRANCH   7  30
BRANCH  24  33
ATOM     33  O   UNL     1       9.647  -6.137  -3.712  1.00  0.00    -0.393 OA
ATOM     34  H   UNL     1      10.331  -6.378  -4.390  1.00  0.00     0.210 HD
ENDBRANCH  24  33
TORSDOF 3
ENDMDL
MODEL 5
REMARK VINA RESULT:    -3.824      2.076      8.001
REMARK INTER + INTRA:          -5.182
REMARK INTER:                  -5.913
REMARK INTRA:                   0.731
REMARK UNBOUND:                -0.800
REMARK SMILES C=C(C)[C@H]1CC[C@]2(C(=O)[O-])CC[C@]3(C)[C@H](CC[C@H]4[C@@]5(C)CC[C@H](O)C(C)(C)[C@@H]5CC[C@@]43C)[C@H]12
REMARK SMILES IDX 7 1 6 2 33 3 11 4 5 5 15 6 4 7 12 8 16 9 13 10 17 11 31 12
REMARK SMILES IDX 14 13 18 14 30 15 32 16 19 17 29 18 21 19 20 20 28 21 22 22
REMARK SMILES IDX 25 23 23 24 26 25 27 26 8 27 9 28 10 29 2 30 3 31 1 32 24 33
REMARK H PARENT 24 34
REMARK Flexibility Score: inf
ROOT
ATOM      1  C   UNL     1       7.583   4.077  -5.552  1.00  0.00     0.014 C 
ATOM      2  C   UNL     1       6.927   5.453  -5.236  1.00  0.00     0.014 C 
ATOM      3  C   UNL     1       6.582   3.041  -4.971  1.00  0.00     0.012 C 
ATOM      4  C   UNL     1       7.784   3.926  -7.105  1.00  0.00     0.014 C 
ATOM      5  C   UNL     1       5.517   5.188  -4.690  1.00  0.00     0.009 C 
ATOM      6  C   UNL     1       6.760   1.638  -5.607  1.00  0.00     0.000 C 
ATOM      7  C   UNL     1       5.206   3.720  -4.979  1.00  0.00     0.018 C 
ATOM      8  C   UNL     1       7.896   2.469  -7.643  1.00  0.00     0.008 C 
ATOM      9  C   UNL     1       6.083   0.458  -4.894  1.00  0.00     0.005 C 
ATOM     10  C   UNL     1       6.734   1.523  -7.183  1.00  0.00    -0.024 C 
ATOM     11  C   UNL     1       6.821  -0.882  -5.203  1.00  0.00     0.005 C 
ATOM     12  C   UNL     1       6.927  -0.050  -7.631  1.00  0.00    -0.024 C 
ATOM     13  C   UNL     1       5.417   2.077  -7.828  1.00  0.00     0.012 C 
ATOM     14  C   UNL     1       7.695  -0.841  -6.509  1.00  0.00     0.002 C 
ATOM     15  C   UNL     1       7.768  -0.159  -8.936  1.00  0.00     0.008 C 
ATOM     16  C   UNL     1       5.525  -0.741  -7.875  1.00  0.00     0.012 C 
ATOM     17  C   UNL     1       8.474  -2.194  -6.943  1.00  0.00    -0.026 C 
ATOM     18  C   UNL     1       7.991  -1.592  -9.459  1.00  0.00     0.005 C 
ATOM     19  C   UNL     1       8.216  -3.354  -5.927  1.00  0.00     0.010 C 
ATOM     20  C   UNL     1      10.003  -1.871  -6.927  1.00  0.00     0.012 C 
ATOM     21  C   UNL     1       8.024  -2.700  -8.369  1.00  0.00     0.003 C 
ATOM     22  C   UNL     1       8.826  -4.705  -6.339  1.00  0.00     0.033 C 
ATOM     23  C   UNL     1       8.614  -4.091  -8.855  1.00  0.00    -0.006 C 
ATOM     24  C   UNL     1       8.343  -5.151  -7.735  1.00  0.00     0.120 C 
ATOM     25  C   UNL     1      10.125  -4.050  -9.239  1.00  0.00     0.014 C 
ATOM     26  C   UNL     1       7.834  -4.548 -10.122  1.00  0.00     0.014 C 
ENDROOT
BRANCH   1  27
ATOM     27  C   UNL     1       8.923   3.960  -4.825  1.00  0.00     0.048 C 
ATOM     28  O   UNL     1       9.389   4.921  -4.156  1.00  0.00    -0.550 OA
ATOM     29  O   UNL     1       9.678   2.798  -4.942  1.00  0.00    -0.550 OA
ENDBRANCH   1  27
BRANCH   7  30
ATOM     30  C   UNL     1       4.202   3.110  -4.004  1.00  0.00    -0.077 C 
ATOM     31  C   UNL     1       2.851   3.753  -3.819  1.00  0.00     0.039 C 
ATOM     32  C   UNL     1       4.486   2.008  -3.288  1.00  0.00     0.008 C 
ENDBRANCH   7  30
BRANCH  24  33
ATOM     33  O   UNL     1       8.861  -6.418  -8.071  1.00  0.00    -0.393 OA
ATOM     34  H   UNL     1       9.770  -6.296  -8.448  1.00  0.00     0.210 HD
ENDBRANCH  24  33
TORSDOF 3
ENDMDL
MODEL 6
REMARK VINA RESULT:    -3.768      2.489      8.111
REMARK INTER + INTRA:          -5.118
REMARK INTER:                  -4.552
REMARK INTRA:                  -0.566
REMARK UNBOUND:                -0.800
REMARK SMILES C=C(C)[C@H]1CC[C@]2(C(=O)[O-])CC[C@]3(C)[C@H](CC[C@H]4[C@@]5(C)CC[C@H](O)C(C)(C)[C@@H]5CC[C@@]43C)[C@H]12
REMARK SMILES IDX 7 1 6 2 33 3 11 4 5 5 15 6 4 7 12 8 16 9 13 10 17 11 31 12
REMARK SMILES IDX 14 13 18 14 30 15 32 16 19 17 29 18 21 19 20 20 28 21 22 22
REMARK SMILES IDX 25 23 23 24 26 25 27 26 8 27 9 28 10 29 2 30 3 31 1 32 24 33
REMARK H PARENT 24 34
REMARK Flexibility Score: inf
ROOT
ATOM      1  C   UNL     1       5.163   3.058  -7.752  1.00  0.00     0.014 C 
ATOM      2  C   UNL     1       5.033   4.595  -7.542  1.00  0.00     0.014 C 
ATOM      3  C   UNL     1       6.589   2.880  -8.342  1.00  0.00     0.012 C 
ATOM      4  C   UNL     1       4.974   2.315  -6.379  1.00  0.00     0.014 C 
ATOM      5  C   UNL     1       6.407   5.226  -7.806  1.00  0.00     0.009 C 
ATOM      6  C   UNL     1       7.123   1.436  -8.151  1.00  0.00     0.000 C 
ATOM      7  C   UNL     1       7.413   4.076  -7.847  1.00  0.00     0.018 C 
ATOM      8  C   UNL     1       5.599   0.891  -6.279  1.00  0.00     0.008 C 
ATOM      9  C   UNL     1       8.355   1.034  -8.975  1.00  0.00     0.005 C 
ATOM     10  C   UNL     1       7.109   0.821  -6.696  1.00  0.00    -0.024 C 
ATOM     11  C   UNL     1       8.398  -0.510  -9.201  1.00  0.00     0.005 C 
ATOM     12  C   UNL     1       7.729  -0.705  -6.729  1.00  0.00    -0.024 C 
ATOM     13  C   UNL     1       7.907   1.671  -5.649  1.00  0.00     0.012 C 
ATOM     14  C   UNL     1       7.551  -1.330  -8.161  1.00  0.00     0.002 C 
ATOM     15  C   UNL     1       6.987  -1.631  -5.721  1.00  0.00     0.008 C 
ATOM     16  C   UNL     1       9.268  -0.693  -6.364  1.00  0.00     0.012 C 
ATOM     17  C   UNL     1       7.557  -2.946  -8.282  1.00  0.00    -0.026 C 
ATOM     18  C   UNL     1       7.504  -3.081  -5.655  1.00  0.00     0.005 C 
ATOM     19  C   UNL     1       8.440  -3.426  -9.480  1.00  0.00     0.010 C 
ATOM     20  C   UNL     1       6.086  -3.394  -8.557  1.00  0.00     0.012 C 
ATOM     21  C   UNL     1       8.116  -3.630  -6.975  1.00  0.00     0.003 C 
ATOM     22  C   UNL     1       8.592  -4.954  -9.583  1.00  0.00     0.033 C 
ATOM     23  C   UNL     1       8.301  -5.207  -7.014  1.00  0.00    -0.006 C 
ATOM     24  C   UNL     1       9.149  -5.564  -8.281  1.00  0.00     0.120 C 
ATOM     25  C   UNL     1       6.966  -6.012  -6.982  1.00  0.00     0.014 C 
ATOM     26  C   UNL     1       9.125  -5.643  -5.768  1.00  0.00     0.014 C 
ENDROOT
BRANCH   1  27
ATOM     27  C   UNL     1       4.125   2.581  -8.767  1.00  0.00     0.048 C 
ATOM     28  O   UNL     1       3.975   1.355  -9.022  1.00  0.00    -0.550 OA
ATOM     29  O   UNL     1       3.364   3.508  -9.471  1.00  0.00    -0.550 OA
ENDBRANCH   1  27
BRANCH   7  30
ATOM     30  C   UNL     1       8.646   4.380  -8.696  1.00  0.00    -0.077 C 
ATOM     31  C   UNL     1      10.020   4.276  -8.085  1.00  0.00     0.039 C 
ATOM     32  C   UNL     1       8.548   4.751  -9.985  1.00  0.00     0.008 C 
ENDBRANCH   7  30
BRANCH  24  33
ATOM     33  O   UNL     1       9.341  -6.954  -8.411  1.00  0.00    -0.393 OA
ATOM     34  H   UNL     1      10.203  -7.194  -7.983  1.00  0.00     0.210 HD
ENDBRANCH  24  33
TORSDOF 3
ENDMDL
MODEL 7
REMARK VINA RESULT:    -3.744      2.258      7.836
REMARK INTER + INTRA:          -5.091
REMARK INTER:                  -4.549
REMARK INTRA:                  -0.542
REMARK UNBOUND:                -0.800
REMARK SMILES C=C(C)[C@H]1CC[C@]2(C(=O)[O-])CC[C@]3(C)[C@H](CC[C@H]4[C@@]5(C)CC[C@H](O)C(C)(C)[C@@H]5CC[C@@]43C)[C@H]12
REMARK SMILES IDX 7 1 6 2 33 3 11 4 5 5 15 6 4 7 12 8 16 9 13 10 17 11 31 12
REMARK SMILES IDX 14 13 18 14 30 15 32 16 19 17 29 18 21 19 20 20 28 21 22 22
REMARK SMILES IDX 25 23 23 24 26 25 27 26 8 27 9 28 10 29 2 30 3 31 1 32 24 33
REMARK H PARENT 24 34
REMARK Flexibility Score: inf
ROOT
ATOM      1  C   UNL     1       8.465   3.649  -5.965  1.00  0.00     0.014 C 
ATOM      2  C   UNL     1       8.153   5.122  -6.361  1.00  0.00     0.014 C 
ATOM      3  C   UNL     1       7.130   3.133  -5.361  1.00  0.00     0.012 C 
ATOM      4  C   UNL     1       8.912   2.839  -7.237  1.00  0.00     0.014 C 
ATOM      5  C   UNL     1       6.647   5.351  -6.179  1.00  0.00     0.009 C 
ATOM      6  C   UNL     1       7.044   1.584  -5.375  1.00  0.00     0.000 C 
ATOM      7  C   UNL     1       6.015   3.971  -6.000  1.00  0.00     0.018 C 
ATOM      8  C   UNL     1       8.730   1.293  -7.164  1.00  0.00     0.008 C 
ATOM      9  C   UNL     1       5.951   0.939  -4.511  1.00  0.00     0.005 C 
ATOM     10  C   UNL     1       7.290   0.835  -6.745  1.00  0.00    -0.024 C 
ATOM     11  C   UNL     1       6.348  -0.514  -4.098  1.00  0.00     0.005 C 
ATOM     12  C   UNL     1       7.137  -0.790  -6.527  1.00  0.00    -0.024 C 
ATOM     13  C   UNL     1       6.320   1.288  -7.889  1.00  0.00     0.012 C 
ATOM     14  C   UNL     1       7.435  -1.166  -5.029  1.00  0.00     0.002 C 
ATOM     15  C   UNL     1       8.152  -1.570  -7.413  1.00  0.00     0.008 C 
ATOM     16  C   UNL     1       5.675  -1.271  -6.893  1.00  0.00     0.012 C 
ATOM     17  C   UNL     1       7.891  -2.688  -4.711  1.00  0.00    -0.026 C 
ATOM     18  C   UNL     1       8.079  -3.106  -7.303  1.00  0.00     0.005 C 
ATOM     19  C   UNL     1       7.141  -3.261  -3.466  1.00  0.00     0.010 C 
ATOM     20  C   UNL     1       9.418  -2.652  -4.381  1.00  0.00     0.012 C 
ATOM     21  C   UNL     1       7.604  -3.652  -5.927  1.00  0.00     0.003 C 
ATOM     22  C   UNL     1       7.433  -4.745  -3.177  1.00  0.00     0.033 C 
ATOM     23  C   UNL     1       7.880  -5.199  -5.696  1.00  0.00    -0.006 C 
ATOM     24  C   UNL     1       7.126  -5.638  -4.397  1.00  0.00     0.120 C 
ATOM     25  C   UNL     1       9.392  -5.577  -5.626  1.00  0.00     0.014 C 
ATOM     26  C   UNL     1       7.265  -5.997  -6.881  1.00  0.00     0.014 C 
ENDROOT
BRANCH   1  27
ATOM     27  C   UNL     1       9.558   3.617  -4.898  1.00  0.00     0.048 C 
ATOM     28  O   UNL     1      10.001   4.679  -4.384  1.00  0.00    -0.550 OA
ATOM     29  O   UNL     1      10.125   2.404  -4.520  1.00  0.00    -0.550 OA
ENDBRANCH   1  27
BRANCH   7  30
ATOM     30  C   UNL     1       4.716   3.999  -5.197  1.00  0.00    -0.077 C 
ATOM     31  C   UNL     1       4.752   4.319  -3.724  1.00  0.00     0.039 C 
ATOM     32  C   UNL     1       3.525   3.735  -5.763  1.00  0.00     0.008 C 
ENDBRANCH   7  30
BRANCH  24  33
ATOM     33  O   UNL     1       7.339  -6.998  -4.098  1.00  0.00    -0.393 OA
ATOM     34  H   UNL     1       8.314  -7.148  -3.990  1.00  0.00     0.210 HD
ENDBRANCH  24  33
TORSDOF 3
ENDMDL
MODEL 8
REMARK VINA RESULT:    -3.612      2.181      7.912
REMARK INTER + INTRA:          -4.940
REMARK INTER:                  -4.387
REMARK INTRA:                  -0.552
REMARK UNBOUND:                -0.800
REMARK SMILES C=C(C)[C@H]1CC[C@]2(C(=O)[O-])CC[C@]3(C)[C@H](CC[C@H]4[C@@]5(C)CC[C@H](O)C(C)(C)[C@@H]5CC[C@@]43C)[C@H]12
REMARK SMILES IDX 7 1 6 2 33 3 11 4 5 5 15 6 4 7 12 8 16 9 13 10 17 11 31 12
REMARK SMILES IDX 14 13 18 14 30 15 32 16 19 17 29 18 21 19 20 20 28 21 22 22
REMARK SMILES IDX 25 23 23 24 26 25 27 26 8 27 9 28 10 29 2 30 3 31 1 32 24 33
REMARK H PARENT 24 34
REMARK Flexibility Score: inf
ROOT
ATOM      1  C   UNL     1       5.407   2.046  -7.296  1.00  0.00     0.014 C 
ATOM      2  C   UNL     1       5.204   3.578  -7.110  1.00  0.00     0.014 C 
ATOM      3  C   UNL     1       6.879   1.918  -7.774  1.00  0.00     0.012 C 
ATOM      4  C   UNL     1       5.140   1.304  -5.935  1.00  0.00     0.014 C 
ATOM      5  C   UNL     1       6.569   4.259  -7.273  1.00  0.00     0.009 C 
ATOM      6  C   UNL     1       7.450   0.497  -7.530  1.00  0.00     0.000 C 
ATOM      7  C   UNL     1       7.618   3.148  -7.228  1.00  0.00     0.018 C 
ATOM      8  C   UNL     1       5.808  -0.095  -5.776  1.00  0.00     0.008 C 
ATOM      9  C   UNL     1       8.755   0.137  -8.254  1.00  0.00     0.005 C 
ATOM     10  C   UNL     1       7.346  -0.110  -6.075  1.00  0.00    -0.024 C 
ATOM     11  C   UNL     1       8.873  -1.406  -8.463  1.00  0.00     0.005 C 
ATOM     12  C   UNL     1       8.023  -1.612  -6.047  1.00  0.00    -0.024 C 
ATOM     13  C   UNL     1       8.030   0.775  -4.978  1.00  0.00     0.012 C 
ATOM     14  C   UNL     1       7.979  -2.251  -7.484  1.00  0.00     0.002 C 
ATOM     15  C   UNL     1       7.241  -2.559  -5.092  1.00  0.00     0.008 C 
ATOM     16  C   UNL     1       9.528  -1.541  -5.566  1.00  0.00     0.012 C 
ATOM     17  C   UNL     1       8.054  -3.866  -7.591  1.00  0.00    -0.026 C 
ATOM     18  C   UNL     1       7.805  -3.989  -4.974  1.00  0.00     0.005 C 
ATOM     19  C   UNL     1       9.043  -4.319  -8.713  1.00  0.00     0.010 C 
ATOM     20  C   UNL     1       6.626  -4.371  -7.974  1.00  0.00     0.012 C 
ATOM     21  C   UNL     1       8.535  -4.522  -6.238  1.00  0.00     0.003 C 
ATOM     22  C   UNL     1       9.259  -5.841  -8.791  1.00  0.00     0.033 C 
ATOM     23  C   UNL     1       8.782  -6.090  -6.249  1.00  0.00    -0.006 C 
ATOM     24  C   UNL     1       9.736  -6.423  -7.445  1.00  0.00     0.120 C 
ATOM     25  C   UNL     1       7.478  -6.945  -6.313  1.00  0.00     0.014 C 
ATOM     26  C   UNL     1       9.523  -6.488  -4.941  1.00  0.00     0.014 C 
ENDROOT
BRANCH   1  27
ATOM     27  C   UNL     1       4.467   1.525  -8.383  1.00  0.00     0.048 C 
ATOM     28  O   UNL     1       4.386   0.294  -8.641  1.00  0.00    -0.550 OA
ATOM     29  O   UNL     1       3.726   2.419  -9.149  1.00  0.00    -0.550 OA
ENDBRANCH   1  27
BRANCH   7  30
ATOM     30  C   UNL     1       8.900   3.493  -7.982  1.00  0.00    -0.077 C 
ATOM     31  C   UNL     1       8.869   3.649  -9.481  1.00  0.00     0.039 C 
ATOM     32  C   UNL     1      10.075   3.655  -7.349  1.00  0.00     0.008 C 
ENDBRANCH   7  30
BRANCH  24  33
ATOM     33  O   UNL     1       9.989  -7.805  -7.549  1.00  0.00    -0.393 OA
ATOM     34  H   UNL     1       9.826  -8.085  -8.487  1.00  0.00     0.210 HD
ENDBRANCH  24  33
TORSDOF 3
ENDMDL
MODEL 9
REMARK VINA RESULT:    -3.326      2.445      3.498
REMARK INTER + INTRA:          -4.611
REMARK INTER:                  -3.883
REMARK INTRA:                  -0.729
REMARK UNBOUND:                -0.800
REMARK SMILES C=C(C)[C@H]1CC[C@]2(C(=O)[O-])CC[C@]3(C)[C@H](CC[C@H]4[C@@]5(C)CC[C@H](O)C(C)(C)[C@@H]5CC[C@@]43C)[C@H]12
REMARK SMILES IDX 7 1 6 2 33 3 11 4 5 5 15 6 4 7 12 8 16 9 13 10 17 11 31 12
REMARK SMILES IDX 14 13 18 14 30 15 32 16 19 17 29 18 21 19 20 20 28 21 22 22
REMARK SMILES IDX 25 23 23 24 26 25 27 26 8 27 9 28 10 29 2 30 3 31 1 32 24 33
REMARK H PARENT 24 34
REMARK Flexibility Score: inf
ROOT
ATOM      1  C   UNL     1       8.325  -5.088  -5.331  1.00  0.00     0.014 C 
ATOM      2  C   UNL     1       8.476  -6.291  -4.355  1.00  0.00     0.014 C 
ATOM      3  C   UNL     1       7.417  -4.091  -4.560  1.00  0.00     0.012 C 
ATOM      4  C   UNL     1       9.742  -4.491  -5.664  1.00  0.00     0.014 C 
ATOM      5  C   UNL     1       7.853  -5.890  -3.011  1.00  0.00     0.009 C 
ATOM      6  C   UNL     1       7.552  -2.643  -5.100  1.00  0.00     0.000 C 
ATOM      7  C   UNL     1       7.632  -4.379  -3.068  1.00  0.00     0.018 C 
ATOM      8  C   UNL     1       9.765  -3.010  -6.146  1.00  0.00     0.008 C 
ATOM      9  C   UNL     1       6.477  -1.635  -4.667  1.00  0.00     0.005 C 
ATOM     10  C   UNL     1       8.999  -2.017  -5.205  1.00  0.00    -0.024 C 
ATOM     11  C   UNL     1       6.332  -0.487  -5.714  1.00  0.00     0.005 C 
ATOM     12  C   UNL     1       8.900  -0.479  -5.787  1.00  0.00    -0.024 C 
ATOM     13  C   UNL     1       9.772  -1.996  -3.843  1.00  0.00     0.012 C 
ATOM     14  C   UNL     1       7.590  -0.306  -6.640  1.00  0.00     0.002 C 
ATOM     15  C   UNL     1      10.106  -0.154  -6.715  1.00  0.00     0.008 C 
ATOM     16  C   UNL     1       8.879   0.570  -4.602  1.00  0.00     0.012 C 
ATOM     17  C   UNL     1       7.559   0.885  -7.738  1.00  0.00    -0.026 C 
ATOM     18  C   UNL     1      10.125   1.273  -7.298  1.00  0.00     0.005 C 
ATOM     19  C   UNL     1       6.212   1.674  -7.687  1.00  0.00     0.010 C 
ATOM     20  C   UNL     1       7.675   0.217  -9.146  1.00  0.00     0.012 C 
ATOM     21  C   UNL     1       8.728   1.921  -7.513  1.00  0.00     0.003 C 
ATOM     22  C   UNL     1       6.158   2.898  -8.619  1.00  0.00     0.033 C 
ATOM     23  C   UNL     1       8.731   3.211  -8.439  1.00  0.00    -0.006 C 
ATOM     24  C   UNL     1       7.318   3.878  -8.347  1.00  0.00     0.120 C 
ATOM     25  C   UNL     1       9.130   2.935  -9.922  1.00  0.00     0.014 C 
ATOM     26  C   UNL     1       9.762   4.229  -7.872  1.00  0.00     0.014 C 
ENDROOT
BRANCH   1  27
ATOM     27  C   UNL     1       7.621  -5.540  -6.610  1.00  0.00     0.048 C 
ATOM     28  O   UNL     1       6.365  -5.631  -6.667  1.00  0.00    -0.550 OA
ATOM     29  O   UNL     1       8.369  -5.917  -7.720  1.00  0.00    -0.550 OA
ENDBRANCH   1  27
BRANCH   7  30
ATOM     30  C   UNL     1       6.494  -3.898  -2.170  1.00  0.00    -0.077 C 
ATOM     31  C   UNL     1       5.185  -4.646  -2.153  1.00  0.00     0.039 C 
ATOM     32  C   UNL     1       6.616  -2.812  -1.388  1.00  0.00     0.008 C 
ENDBRANCH   7  30
BRANCH  24  33
ATOM     33  O   UNL     1       7.221   5.022  -9.164  1.00  0.00    -0.393 OA
ATOM     34  H   UNL     1       7.436   4.761 -10.097  1.00  0.00     0.210 HD
ENDBRANCH  24  33
TORSDOF 3
ENDMDL
