MODEL 1
REMARK VINA RESULT:    -7.038      0.000      0.000
REMARK INTER + INTRA:          -8.616
REMARK INTER:                  -8.478
REMARK INTRA:                  -0.138
REMARK UNBOUND:                -0.138
REMARK SMILES O=c1c(O)c(-c2ccc(O)c(O)c2)oc2cc(O)cc(O)c12
REMARK SMILES IDX 5 1 3 2 2 3 1 4 22 5 20 6 19 7 17 8 16 9 15 10 14 11 6 12
REMARK SMILES IDX 7 13 8 14 9 15 13 16 11 17 10 18 12 20 4 22 21 24 18 26
REMARK H PARENT 10 19 12 21 4 23 21 25 18 27
REMARK Flexibility Score: inf
ROOT
ATOM      1  C   UNL     1     -12.613  -2.441 -20.041  1.00  0.00     0.180 A 
ATOM      2  C   UNL     1     -11.790  -1.718 -20.926  1.00  0.00     0.208 A 
ATOM      3  C   UNL     1     -12.048  -1.791 -22.304  1.00  0.00     0.238 A 
ATOM      4  O   UNL     1     -11.325  -1.139 -23.106  1.00  0.00    -0.285 OA
ATOM      5  C   UNL     1     -13.105  -2.598 -22.773  1.00  0.00     0.111 A 
ATOM      6  C   UNL     1     -13.428  -2.729 -24.145  1.00  0.00     0.134 A 
ATOM      7  C   UNL     1     -14.490  -3.561 -24.533  1.00  0.00     0.093 A 
ATOM      8  C   UNL     1     -15.233  -4.260 -23.580  1.00  0.00     0.123 A 
ATOM      9  C   UNL     1     -14.918  -4.133 -22.222  1.00  0.00     0.094 A 
ATOM     10  C   UNL     1     -13.865  -3.309 -21.816  1.00  0.00     0.146 A 
ATOM     11  O   UNL     1     -13.591  -3.202 -20.520  1.00  0.00    -0.452 OA
ENDROOT
BRANCH   1  12
ATOM     12  C   UNL     1     -12.416  -2.399 -18.573  1.00  0.00     0.025 A 
ATOM     13  C   UNL     1     -13.418  -1.916 -17.714  1.00  0.00     0.016 A 
ATOM     14  C   UNL     1     -13.219  -1.908 -16.331  1.00  0.00     0.051 A 
ATOM     15  C   UNL     1     -12.027  -2.394 -15.785  1.00  0.00     0.157 A 
ATOM     16  C   UNL     1     -11.228  -2.905 -18.021  1.00  0.00     0.062 A 
ATOM     17  C   UNL     1     -11.027  -2.898 -16.633  1.00  0.00     0.158 A 
BRANCH  15  18
ATOM     18  O   UNL     1     -11.857  -2.372 -14.401  1.00  0.00    -0.504 OA
ATOM     19  H   UNL     1     -12.235  -3.095 -13.801  1.00  0.00     0.293 HD
ENDBRANCH  15  18
BRANCH  17  20
ATOM     20  O   UNL     1      -9.838  -3.389 -16.095  1.00  0.00    -0.504 OA
ATOM     21  H   UNL     1      -8.938  -3.002 -16.354  1.00  0.00     0.293 HD
ENDBRANCH  17  20
ENDBRANCH   1  12
BRANCH   2  22
ATOM     22  O   UNL     1     -10.718  -0.965 -20.440  1.00  0.00    -0.502 OA
ATOM     23  H   UNL     1     -10.803  -0.353 -19.638  1.00  0.00     0.293 HD
ENDBRANCH   2  22
BRANCH   6  24
ATOM     24  O   UNL     1     -12.704  -2.045 -25.123  1.00  0.00    -0.507 OA
ATOM     25  H   UNL     1     -12.923  -1.089 -25.376  1.00  0.00     0.293 HD
ENDBRANCH   6  24
BRANCH   8  26
ATOM     26  O   UNL     1     -16.282  -5.079 -23.991  1.00  0.00    -0.508 OA
ATOM     27  H   UNL     1     -16.731  -5.726 -23.354  1.00  0.00     0.293 HD
ENDBRANCH   8  26
TORSDOF 6
ENDMDL
MODEL 2
REMARK VINA RESULT:    -6.821      1.753      7.154
REMARK INTER + INTRA:          -8.354
REMARK INTER:                  -8.114
REMARK INTRA:                  -0.240
REMARK UNBOUND:                -0.138
REMARK SMILES O=c1c(O)c(-c2ccc(O)c(O)c2)oc2cc(O)cc(O)c12
REMARK SMILES IDX 5 1 3 2 2 3 1 4 22 5 20 6 19 7 17 8 16 9 15 10 14 11 6 12
REMARK SMILES IDX 7 13 8 14 9 15 13 16 11 17 10 18 12 20 4 22 21 24 18 26
REMARK H PARENT 10 19 12 21 4 23 21 25 18 27
REMARK Flexibility Score: inf
ROOT
ATOM      1  C   UNL     1     -14.072  -2.854 -21.387  1.00  0.00     0.180 A 
ATOM      2  C   UNL     1     -15.170  -2.238 -20.756  1.00  0.00     0.208 A 
ATOM      3  C   UNL     1     -15.068  -1.894 -19.400  1.00  0.00     0.238 A 
ATOM      4  O   UNL     1     -16.041  -1.332 -18.826  1.00  0.00    -0.285 OA
ATOM      5  C   UNL     1     -13.884  -2.189 -18.693  1.00  0.00     0.111 A 
ATOM      6  C   UNL     1     -13.702  -1.879 -17.324  1.00  0.00     0.134 A 
ATOM      7  C   UNL     1     -12.496  -2.214 -16.689  1.00  0.00     0.093 A 
ATOM      8  C   UNL     1     -11.472  -2.849 -17.394  1.00  0.00     0.123 A 
ATOM      9  C   UNL     1     -11.646  -3.157 -18.748  1.00  0.00     0.094 A 
ATOM     10  C   UNL     1     -12.840  -2.831 -19.398  1.00  0.00     0.146 A 
ATOM     11  O   UNL     1     -12.976  -3.129 -20.686  1.00  0.00    -0.452 OA
ENDROOT
BRANCH   1  12
ATOM     12  C   UNL     1     -14.096  -3.228 -22.820  1.00  0.00     0.025 A 
ATOM     13  C   UNL     1     -14.873  -4.304 -23.282  1.00  0.00     0.016 A 
ATOM     14  C   UNL     1     -14.899  -4.623 -24.643  1.00  0.00     0.051 A 
ATOM     15  C   UNL     1     -14.162  -3.867 -25.560  1.00  0.00     0.157 A 
ATOM     16  C   UNL     1     -13.374  -2.458 -23.746  1.00  0.00     0.062 A 
ATOM     17  C   UNL     1     -13.398  -2.778 -25.112  1.00  0.00     0.158 A 
BRANCH  15  18
ATOM     18  O   UNL     1     -14.206  -4.212 -26.911  1.00  0.00    -0.504 OA
ATOM     19  H   UNL     1     -13.533  -4.845 -27.326  1.00  0.00     0.293 HD
ENDBRANCH  15  18
BRANCH  17  20
ATOM     20  O   UNL     1     -12.667  -2.016 -26.023  1.00  0.00    -0.504 OA
ATOM     21  H   UNL     1     -11.732  -2.285 -26.310  1.00  0.00     0.293 HD
ENDBRANCH  17  20
ENDBRANCH   1  12
BRANCH   2  22
ATOM     22  O   UNL     1     -16.351  -2.002 -21.465  1.00  0.00    -0.502 OA
ATOM     23  H   UNL     1     -17.213  -2.495 -21.266  1.00  0.00     0.293 HD
ENDBRANCH   2  22
BRANCH   6  24
ATOM     24  O   UNL     1     -14.707  -1.246 -16.590  1.00  0.00    -0.507 OA
ATOM     25  H   UNL     1     -15.573  -1.716 -16.358  1.00  0.00     0.293 HD
ENDBRANCH   6  24
BRANCH   8  26
ATOM     26  O   UNL     1     -10.285  -3.171 -16.741  1.00  0.00    -0.508 OA
ATOM     27  H   UNL     1     -10.187  -3.069 -15.738  1.00  0.00     0.293 HD
ENDBRANCH   8  26
TORSDOF 6
ENDMDL
MODEL 3
REMARK VINA RESULT:    -6.744      4.040      6.879
REMARK INTER + INTRA:          -8.261
REMARK INTER:                  -8.089
REMARK INTRA:                  -0.172
REMARK UNBOUND:                -0.138
REMARK SMILES O=c1c(O)c(-c2ccc(O)c(O)c2)oc2cc(O)cc(O)c12
REMARK SMILES IDX 5 1 3 2 2 3 1 4 22 5 20 6 19 7 17 8 16 9 15 10 14 11 6 12
REMARK SMILES IDX 7 13 8 14 9 15 13 16 11 17 10 18 12 20 4 22 21 24 18 26
REMARK H PARENT 10 19 12 21 4 23 21 25 18 27
REMARK Flexibility Score: inf
ROOT
ATOM      1  C   UNL     1     -15.586  -2.413 -22.225  1.00  0.00     0.180 A 
ATOM      2  C   UNL     1     -15.430  -1.353 -21.311  1.00  0.00     0.208 A 
ATOM      3  C   UNL     1     -16.460  -1.089 -20.397  1.00  0.00     0.238 A 
ATOM      4  O   UNL     1     -16.327  -0.149 -19.566  1.00  0.00    -0.285 OA
ATOM      5  C   UNL     1     -17.634  -1.871 -20.424  1.00  0.00     0.111 A 
ATOM      6  C   UNL     1     -18.720  -1.666 -19.539  1.00  0.00     0.134 A 
ATOM      7  C   UNL     1     -19.858  -2.481 -19.636  1.00  0.00     0.093 A 
ATOM      8  C   UNL     1     -19.932  -3.493 -20.596  1.00  0.00     0.123 A 
ATOM      9  C   UNL     1     -18.860  -3.699 -21.472  1.00  0.00     0.094 A 
ATOM     10  C   UNL     1     -17.717  -2.898 -21.391  1.00  0.00     0.146 A 
ATOM     11  O   UNL     1     -16.712  -3.120 -22.231  1.00  0.00    -0.452 OA
ENDROOT
BRANCH   1  12
ATOM     12  C   UNL     1     -14.536  -2.766 -23.208  1.00  0.00     0.025 A 
ATOM     13  C   UNL     1     -13.265  -3.204 -22.796  1.00  0.00     0.016 A 
ATOM     14  C   UNL     1     -12.298  -3.555 -23.741  1.00  0.00     0.051 A 
ATOM     15  C   UNL     1     -12.588  -3.488 -25.108  1.00  0.00     0.157 A 
ATOM     16  C   UNL     1     -14.830  -2.720 -24.580  1.00  0.00     0.062 A 
ATOM     17  C   UNL     1     -13.861  -3.071 -25.530  1.00  0.00     0.158 A 
BRANCH  15  18
ATOM     18  O   UNL     1     -11.601  -3.842 -26.027  1.00  0.00    -0.504 OA
ATOM     19  H   UNL     1     -10.864  -4.499 -25.798  1.00  0.00     0.293 HD
ENDBRANCH  15  18
BRANCH  17  20
ATOM     20  O   UNL     1     -14.158  -3.008 -26.891  1.00  0.00    -0.504 OA
ATOM     21  H   UNL     1     -13.926  -3.769 -27.521  1.00  0.00     0.293 HD
ENDBRANCH  17  20
ENDBRANCH   1  12
BRANCH   2  22
ATOM     22  O   UNL     1     -14.278  -0.562 -21.338  1.00  0.00    -0.502 OA
ATOM     23  H   UNL     1     -14.281   0.390 -21.683  1.00  0.00     0.293 HD
ENDBRANCH   2  22
BRANCH   6  24
ATOM     24  O   UNL     1     -18.679  -0.663 -18.569  1.00  0.00    -0.507 OA
ATOM     25  H   UNL     1     -18.550  -0.876 -17.587  1.00  0.00     0.293 HD
ENDBRANCH   6  24
BRANCH   8  26
ATOM     26  O   UNL     1     -21.073  -4.287 -20.672  1.00  0.00    -0.508 OA
ATOM     27  H   UNL     1     -21.992  -3.917 -20.459  1.00  0.00     0.293 HD
ENDBRANCH   8  26
TORSDOF 6
ENDMDL
MODEL 4
REMARK VINA RESULT:    -6.714      3.167      6.246
REMARK INTER + INTRA:          -8.225
REMARK INTER:                  -8.099
REMARK INTRA:                  -0.127
REMARK UNBOUND:                -0.138
REMARK SMILES O=c1c(O)c(-c2ccc(O)c(O)c2)oc2cc(O)cc(O)c12
REMARK SMILES IDX 5 1 3 2 2 3 1 4 22 5 20 6 19 7 17 8 16 9 15 10 14 11 6 12
REMARK SMILES IDX 7 13 8 14 9 15 13 16 11 17 10 18 12 20 4 22 21 24 18 26
REMARK H PARENT 10 19 12 21 4 23 21 25 18 27
REMARK Flexibility Score: inf
ROOT
ATOM      1  C   UNL     1     -15.634  -2.269 -21.287  1.00  0.00     0.180 A 
ATOM      2  C   UNL     1     -15.144  -1.547 -22.393  1.00  0.00     0.208 A 
ATOM      3  C   UNL     1     -13.787  -1.191 -22.422  1.00  0.00     0.238 A 
ATOM      4  O   UNL     1     -13.334  -0.554 -23.413  1.00  0.00    -0.285 OA
ATOM      5  C   UNL     1     -12.951  -1.542 -21.343  1.00  0.00     0.111 A 
ATOM      6  C   UNL     1     -11.573  -1.217 -21.294  1.00  0.00     0.134 A 
ATOM      7  C   UNL     1     -10.810  -1.593 -20.179  1.00  0.00     0.093 A 
ATOM      8  C   UNL     1     -11.393  -2.286 -19.116  1.00  0.00     0.123 A 
ATOM      9  C   UNL     1     -12.754  -2.610 -19.160  1.00  0.00     0.094 A 
ATOM     10  C   UNL     1     -13.531  -2.244 -20.262  1.00  0.00     0.146 A 
ATOM     11  O   UNL     1     -14.819  -2.570 -20.281  1.00  0.00    -0.452 OA
ENDROOT
BRANCH   1  12
ATOM     12  C   UNL     1     -17.049  -2.698 -21.192  1.00  0.00     0.025 A 
ATOM     13  C   UNL     1     -17.632  -3.519 -22.172  1.00  0.00     0.016 A 
ATOM     14  C   UNL     1     -18.962  -3.930 -22.048  1.00  0.00     0.051 A 
ATOM     15  C   UNL     1     -19.722  -3.541 -20.940  1.00  0.00     0.157 A 
ATOM     16  C   UNL     1     -17.809  -2.326 -20.071  1.00  0.00     0.062 A 
ATOM     17  C   UNL     1     -19.143  -2.737 -19.945  1.00  0.00     0.158 A 
BRANCH  15  18
ATOM     18  O   UNL     1     -21.047  -3.966 -20.846  1.00  0.00    -0.504 OA
ATOM     19  H   UNL     1     -21.800  -3.331 -20.608  1.00  0.00     0.293 HD
ENDBRANCH  15  18
BRANCH  17  20
ATOM     20  O   UNL     1     -19.894  -2.352 -18.836  1.00  0.00    -0.504 OA
ATOM     21  H   UNL     1     -20.829  -2.710 -18.676  1.00  0.00     0.293 HD
ENDBRANCH  17  20
ENDBRANCH   1  12
BRANCH   2  22
ATOM     22  O   UNL     1     -16.005  -1.168 -23.427  1.00  0.00    -0.502 OA
ATOM     23  H   UNL     1     -16.871  -0.672 -23.258  1.00  0.00     0.293 HD
ENDBRANCH   2  22
BRANCH   6  24
ATOM     24  O   UNL     1     -10.960  -0.524 -22.339  1.00  0.00    -0.507 OA
ATOM     25  H   UNL     1     -11.286   0.387 -22.637  1.00  0.00     0.293 HD
ENDBRANCH   6  24
BRANCH   8  26
ATOM     26  O   UNL     1     -10.613  -2.648 -18.020  1.00  0.00    -0.508 OA
ATOM     27  H   UNL     1      -9.617  -2.463 -17.994  1.00  0.00     0.293 HD
ENDBRANCH   8  26
TORSDOF 6
ENDMDL
MODEL 5
REMARK VINA RESULT:    -6.649      1.669      7.187
REMARK INTER + INTRA:          -8.147
REMARK INTER:                  -7.872
REMARK INTRA:                  -0.275
REMARK UNBOUND:                -0.138
REMARK SMILES O=c1c(O)c(-c2ccc(O)c(O)c2)oc2cc(O)cc(O)c12
REMARK SMILES IDX 5 1 3 2 2 3 1 4 22 5 20 6 19 7 17 8 16 9 15 10 14 11 6 12
REMARK SMILES IDX 7 13 8 14 9 15 13 16 11 17 10 18 12 20 4 22 21 24 18 26
REMARK H PARENT 10 19 12 21 4 23 21 25 18 27
REMARK Flexibility Score: inf
ROOT
ATOM      1  C   UNL     1     -13.920  -2.198 -20.717  1.00  0.00     0.180 A 
ATOM      2  C   UNL     1     -15.041  -1.790 -19.969  1.00  0.00     0.208 A 
ATOM      3  C   UNL     1     -14.924  -1.687 -18.574  1.00  0.00     0.238 A 
ATOM      4  O   UNL     1     -15.918  -1.312 -17.894  1.00  0.00    -0.285 OA
ATOM      5  C   UNL     1     -13.701  -2.010 -17.952  1.00  0.00     0.111 A 
ATOM      6  C   UNL     1     -13.502  -1.935 -16.552  1.00  0.00     0.134 A 
ATOM      7  C   UNL     1     -12.256  -2.284 -16.007  1.00  0.00     0.093 A 
ATOM      8  C   UNL     1     -11.210  -2.702 -16.831  1.00  0.00     0.123 A 
ATOM      9  C   UNL     1     -11.401  -2.777 -18.215  1.00  0.00     0.094 A 
ATOM     10  C   UNL     1     -12.634  -2.434 -18.777  1.00  0.00     0.146 A 
ATOM     11  O   UNL     1     -12.787  -2.508 -20.095  1.00  0.00    -0.452 OA
ENDROOT
BRANCH   1  12
ATOM     12  C   UNL     1     -13.959  -2.312 -22.194  1.00  0.00     0.025 A 
ATOM     13  C   UNL     1     -13.347  -1.353 -23.019  1.00  0.00     0.016 A 
ATOM     14  C   UNL     1     -13.376  -1.495 -24.409  1.00  0.00     0.051 A 
ATOM     15  C   UNL     1     -14.002  -2.601 -24.993  1.00  0.00     0.157 A 
ATOM     16  C   UNL     1     -14.569  -3.431 -22.783  1.00  0.00     0.062 A 
ATOM     17  C   UNL     1     -14.600  -3.576 -24.178  1.00  0.00     0.158 A 
BRANCH  15  18
ATOM     18  O   UNL     1     -14.017  -2.713 -26.383  1.00  0.00    -0.504 OA
ATOM     19  H   UNL     1     -13.435  -2.133 -26.976  1.00  0.00     0.293 HD
ENDBRANCH  15  18
BRANCH  17  20
ATOM     20  O   UNL     1     -15.220  -4.683 -24.754  1.00  0.00    -0.504 OA
ATOM     21  H   UNL     1     -15.847  -5.277 -24.223  1.00  0.00     0.293 HD
ENDBRANCH  17  20
ENDBRANCH   1  12
BRANCH   2  22
ATOM     22  O   UNL     1     -16.257  -1.524 -20.605  1.00  0.00    -0.502 OA
ATOM     23  H   UNL     1     -16.308  -1.106 -21.525  1.00  0.00     0.293 HD
ENDBRANCH   2  22
BRANCH   6  24
ATOM     24  O   UNL     1     -14.528  -1.521 -15.700  1.00  0.00    -0.507 OA
ATOM     25  H   UNL     1     -14.708  -0.541 -15.521  1.00  0.00     0.293 HD
ENDBRANCH   6  24
BRANCH   8  26
ATOM     26  O   UNL     1      -9.984  -3.043 -16.265  1.00  0.00    -0.508 OA
ATOM     27  H   UNL     1      -9.169  -3.229 -16.838  1.00  0.00     0.293 HD
ENDBRANCH   8  26
TORSDOF 6
ENDMDL
MODEL 6
REMARK VINA RESULT:    -6.407     13.901     15.044
REMARK INTER + INTRA:          -7.856
REMARK INTER:                  -7.535
REMARK INTRA:                  -0.321
REMARK UNBOUND:                -0.138
REMARK SMILES O=c1c(O)c(-c2ccc(O)c(O)c2)oc2cc(O)cc(O)c12
REMARK SMILES IDX 5 1 3 2 2 3 1 4 22 5 20 6 19 7 17 8 16 9 15 10 14 11 6 12
REMARK SMILES IDX 7 13 8 14 9 15 13 16 11 17 10 18 12 20 4 22 21 24 18 26
REMARK H PARENT 10 19 12 21 4 23 21 25 18 27
REMARK Flexibility Score: inf
ROOT
ATOM      1  C   UNL     1     -17.620  10.962 -17.278  1.00  0.00     0.180 A 
ATOM      2  C   UNL     1     -18.361  10.760 -18.458  1.00  0.00     0.208 A 
ATOM      3  C   UNL     1     -17.679  10.676 -19.681  1.00  0.00     0.238 A 
ATOM      4  O   UNL     1     -18.332  10.484 -20.744  1.00  0.00    -0.285 OA
ATOM      5  C   UNL     1     -16.276  10.815 -19.708  1.00  0.00     0.111 A 
ATOM      6  C   UNL     1     -15.514  10.747 -20.899  1.00  0.00     0.134 A 
ATOM      7  C   UNL     1     -14.121  10.906 -20.844  1.00  0.00     0.093 A 
ATOM      8  C   UNL     1     -13.477  11.130 -19.625  1.00  0.00     0.123 A 
ATOM      9  C   UNL     1     -14.225  11.197 -18.445  1.00  0.00     0.094 A 
ATOM     10  C   UNL     1     -15.614  11.040 -18.479  1.00  0.00     0.146 A 
ATOM     11  O   UNL     1     -16.300  11.103 -17.343  1.00  0.00    -0.452 OA
ENDROOT
BRANCH   1  12
ATOM     12  C   UNL     1     -18.266  11.041 -15.947  1.00  0.00     0.025 A 
ATOM     13  C   UNL     1     -18.783  12.252 -15.455  1.00  0.00     0.016 A 
ATOM     14  C   UNL     1     -19.409  12.298 -14.207  1.00  0.00     0.051 A 
ATOM     15  C   UNL     1     -19.541  11.136 -13.439  1.00  0.00     0.157 A 
ATOM     16  C   UNL     1     -18.417   9.873 -15.182  1.00  0.00     0.062 A 
ATOM     17  C   UNL     1     -19.045   9.917 -13.929  1.00  0.00     0.158 A 
BRANCH  15  18
ATOM     18  O   UNL     1     -20.169  11.214 -12.196  1.00  0.00    -0.504 OA
ATOM     19  H   UNL     1     -19.835  10.696 -11.392  1.00  0.00     0.293 HD
ENDBRANCH  15  18
BRANCH  17  20
ATOM     20  O   UNL     1     -19.179   8.755 -13.171  1.00  0.00    -0.504 OA
ATOM     21  H   UNL     1     -18.908   7.848 -13.536  1.00  0.00     0.293 HD
ENDBRANCH  17  20
ENDBRANCH   1  12
BRANCH   2  22
ATOM     22  O   UNL     1     -19.756  10.674 -18.411  1.00  0.00    -0.502 OA
ATOM     23  H   UNL     1     -20.357  11.333 -18.890  1.00  0.00     0.293 HD
ENDBRANCH   2  22
BRANCH   6  24
ATOM     24  O   UNL     1     -16.128  10.527 -22.134  1.00  0.00    -0.507 OA
ATOM     25  H   UNL     1     -16.201  11.258 -22.831  1.00  0.00     0.293 HD
ENDBRANCH   6  24
BRANCH   8  26
ATOM     26  O   UNL     1     -12.093  11.284 -19.597  1.00  0.00    -0.508 OA
ATOM     27  H   UNL     1     -11.495  10.829 -20.276  1.00  0.00     0.293 HD
ENDBRANCH   8  26
TORSDOF 6
ENDMDL
MODEL 7
REMARK VINA RESULT:    -6.365      1.915      7.401
REMARK INTER + INTRA:          -7.805
REMARK INTER:                  -7.484
REMARK INTRA:                  -0.321
REMARK UNBOUND:                -0.138
REMARK SMILES O=c1c(O)c(-c2ccc(O)c(O)c2)oc2cc(O)cc(O)c12
REMARK SMILES IDX 5 1 3 2 2 3 1 4 22 5 20 6 19 7 17 8 16 9 15 10 14 11 6 12
REMARK SMILES IDX 7 13 8 14 9 15 13 16 11 17 10 18 12 20 4 22 21 24 18 26
REMARK H PARENT 10 19 12 21 4 23 21 25 18 27
REMARK Flexibility Score: inf
ROOT
ATOM      1  C   UNL     1     -13.678  -2.541 -18.768  1.00  0.00     0.180 A 
ATOM      2  C   UNL     1     -14.655  -2.264 -17.791  1.00  0.00     0.208 A 
ATOM      3  C   UNL     1     -14.260  -2.154 -16.449  1.00  0.00     0.238 A 
ATOM      4  O   UNL     1     -15.124  -1.895 -15.567  1.00  0.00    -0.285 OA
ATOM      5  C   UNL     1     -12.906  -2.341 -16.104  1.00  0.00     0.111 A 
ATOM      6  C   UNL     1     -12.427  -2.251 -14.774  1.00  0.00     0.134 A 
ATOM      7  C   UNL     1     -11.065  -2.461 -14.510  1.00  0.00     0.093 A 
ATOM      8  C   UNL     1     -10.175  -2.757 -15.545  1.00  0.00     0.123 A 
ATOM      9  C   UNL     1     -10.643  -2.846 -16.861  1.00  0.00     0.094 A 
ATOM     10  C   UNL     1     -11.997  -2.640 -17.144  1.00  0.00     0.146 A 
ATOM     11  O   UNL     1     -12.413  -2.726 -18.403  1.00  0.00    -0.452 OA
ENDROOT
BRANCH   1  12
ATOM     12  C   UNL     1     -14.013  -2.653 -20.206  1.00  0.00     0.025 A 
ATOM     13  C   UNL     1     -14.143  -1.513 -21.019  1.00  0.00     0.016 A 
ATOM     14  C   UNL     1     -14.435  -1.645 -22.378  1.00  0.00     0.051 A 
ATOM     15  C   UNL     1     -14.589  -2.913 -22.949  1.00  0.00     0.157 A 
ATOM     16  C   UNL     1     -14.148  -3.925 -20.786  1.00  0.00     0.062 A 
ATOM     17  C   UNL     1     -14.442  -4.059 -22.151  1.00  0.00     0.158 A 
BRANCH  15  18
ATOM     18  O   UNL     1     -14.883  -3.012 -24.309  1.00  0.00    -0.504 OA
ATOM     19  H   UNL     1     -14.157  -3.072 -25.013  1.00  0.00     0.293 HD
ENDBRANCH  15  18
BRANCH  17  20
ATOM     20  O   UNL     1     -14.588  -5.325 -22.715  1.00  0.00    -0.504 OA
ATOM     21  H   UNL     1     -14.634  -6.161 -22.142  1.00  0.00     0.293 HD
ENDBRANCH  17  20
ENDBRANCH   1  12
BRANCH   2  22
ATOM     22  O   UNL     1     -15.998  -2.132 -18.153  1.00  0.00    -0.502 OA
ATOM     23  H   UNL     1     -16.747  -2.121 -17.471  1.00  0.00     0.293 HD
ENDBRANCH   2  22
BRANCH   6  24
ATOM     24  O   UNL     1     -13.291  -1.958 -13.717  1.00  0.00    -0.507 OA
ATOM     25  H   UNL     1     -14.274  -1.767 -13.870  1.00  0.00     0.293 HD
ENDBRANCH   6  24
BRANCH   8  26
ATOM     26  O   UNL     1      -8.829  -2.961 -15.256  1.00  0.00    -0.508 OA
ATOM     27  H   UNL     1      -8.514  -3.774 -14.740  1.00  0.00     0.293 HD
ENDBRANCH   8  26
TORSDOF 6
ENDMDL
MODEL 8
REMARK VINA RESULT:    -6.285      5.070      6.585
REMARK INTER + INTRA:          -7.708
REMARK INTER:                  -7.386
REMARK INTRA:                  -0.323
REMARK UNBOUND:                -0.138
REMARK SMILES O=c1c(O)c(-c2ccc(O)c(O)c2)oc2cc(O)cc(O)c12
REMARK SMILES IDX 5 1 3 2 2 3 1 4 22 5 20 6 19 7 17 8 16 9 15 10 14 11 6 12
REMARK SMILES IDX 7 13 8 14 9 15 13 16 11 17 10 18 12 20 4 22 21 24 18 26
REMARK H PARENT 10 19 12 21 4 23 21 25 18 27
REMARK Flexibility Score: inf
ROOT
ATOM      1  C   UNL     1     -15.323  -0.129 -20.078  1.00  0.00     0.180 A 
ATOM      2  C   UNL     1     -16.386  -1.013 -19.810  1.00  0.00     0.208 A 
ATOM      3  C   UNL     1     -17.696  -0.512 -19.788  1.00  0.00     0.238 A 
ATOM      4  O   UNL     1     -18.657  -1.297 -19.561  1.00  0.00    -0.285 OA
ATOM      5  C   UNL     1     -17.920   0.862 -20.011  1.00  0.00     0.111 A 
ATOM      6  C   UNL     1     -19.210   1.448 -20.001  1.00  0.00     0.134 A 
ATOM      7  C   UNL     1     -19.349   2.826 -20.222  1.00  0.00     0.093 A 
ATOM      8  C   UNL     1     -18.230   3.628 -20.453  1.00  0.00     0.123 A 
ATOM      9  C   UNL     1     -16.953   3.055 -20.464  1.00  0.00     0.094 A 
ATOM     10  C   UNL     1     -16.794   1.683 -20.247  1.00  0.00     0.146 A 
ATOM     11  O   UNL     1     -15.571   1.163 -20.269  1.00  0.00    -0.452 OA
ENDROOT
BRANCH   1  12
ATOM     12  C   UNL     1     -13.915  -0.586 -20.138  1.00  0.00     0.025 A 
ATOM     13  C   UNL     1     -13.121  -0.663 -18.981  1.00  0.00     0.016 A 
ATOM     14  C   UNL     1     -11.803  -1.120 -19.059  1.00  0.00     0.051 A 
ATOM     15  C   UNL     1     -11.264  -1.519 -20.286  1.00  0.00     0.157 A 
ATOM     16  C   UNL     1     -13.378  -1.006 -21.365  1.00  0.00     0.062 A 
ATOM     17  C   UNL     1     -12.055  -1.465 -21.445  1.00  0.00     0.158 A 
BRANCH  15  18
ATOM     18  O   UNL     1      -9.945  -1.968 -20.333  1.00  0.00    -0.504 OA
ATOM     19  H   UNL     1      -9.406  -2.143 -19.492  1.00  0.00     0.293 HD
ENDBRANCH  15  18
BRANCH  17  20
ATOM     20  O   UNL     1     -11.526  -1.867 -22.671  1.00  0.00    -0.504 OA
ATOM     21  H   UNL     1     -10.746  -2.513 -22.726  1.00  0.00     0.293 HD
ENDBRANCH  17  20
ENDBRANCH   1  12
BRANCH   2  22
ATOM     22  O   UNL     1     -16.133  -2.362 -19.543  1.00  0.00    -0.502 OA
ATOM     23  H   UNL     1     -15.391  -2.663 -18.923  1.00  0.00     0.293 HD
ENDBRANCH   2  22
BRANCH   6  24
ATOM     24  O   UNL     1     -20.349   0.674 -19.772  1.00  0.00    -0.507 OA
ATOM     25  H   UNL     1     -20.364  -0.321 -19.960  1.00  0.00     0.293 HD
ENDBRANCH   6  24
BRANCH   8  26
ATOM     26  O   UNL     1     -18.395   4.994 -20.669  1.00  0.00    -0.508 OA
ATOM     27  H   UNL     1     -17.666   5.556 -21.091  1.00  0.00     0.293 HD
ENDBRANCH   8  26
TORSDOF 6
ENDMDL
MODEL 9
REMARK VINA RESULT:    -6.071      4.220      5.755
REMARK INTER + INTRA:          -7.451
REMARK INTER:                  -7.137
REMARK INTRA:                  -0.314
REMARK UNBOUND:                -0.138
REMARK SMILES O=c1c(O)c(-c2ccc(O)c(O)c2)oc2cc(O)cc(O)c12
REMARK SMILES IDX 5 1 3 2 2 3 1 4 22 5 20 6 19 7 17 8 16 9 15 10 14 11 6 12
REMARK SMILES IDX 7 13 8 14 9 15 13 16 11 17 10 18 12 20 4 22 21 24 18 26
REMARK H PARENT 10 19 12 21 4 23 21 25 18 27
REMARK Flexibility Score: inf
ROOT
ATOM      1  C   UNL     1     -15.280  -0.405 -20.946  1.00  0.00     0.180 A 
ATOM      2  C   UNL     1     -15.137  -1.563 -20.159  1.00  0.00     0.208 A 
ATOM      3  C   UNL     1     -14.474  -2.674 -20.702  1.00  0.00     0.238 A 
ATOM      4  O   UNL     1     -14.330  -3.714 -20.002  1.00  0.00    -0.285 OA
ATOM      5  C   UNL     1     -13.985  -2.617 -22.024  1.00  0.00     0.111 A 
ATOM      6  C   UNL     1     -13.310  -3.695 -22.646  1.00  0.00     0.134 A 
ATOM      7  C   UNL     1     -12.862  -3.563 -23.970  1.00  0.00     0.093 A 
ATOM      8  C   UNL     1     -13.075  -2.380 -24.680  1.00  0.00     0.123 A 
ATOM      9  C   UNL     1     -13.742  -1.312 -24.069  1.00  0.00     0.094 A 
ATOM     10  C   UNL     1     -14.194  -1.423 -22.751  1.00  0.00     0.146 A 
ATOM     11  O   UNL     1     -14.819  -0.392 -22.193  1.00  0.00    -0.452 OA
ENDROOT
BRANCH   1  12
ATOM     12  C   UNL     1     -15.950   0.815 -20.437  1.00  0.00     0.025 A 
ATOM     13  C   UNL     1     -15.277   1.726 -19.605  1.00  0.00     0.016 A 
ATOM     14  C   UNL     1     -15.922   2.882 -19.156  1.00  0.00     0.051 A 
ATOM     15  C   UNL     1     -17.239   3.151 -19.542  1.00  0.00     0.157 A 
ATOM     16  C   UNL     1     -17.265   1.099 -20.839  1.00  0.00     0.062 A 
ATOM     17  C   UNL     1     -17.914   2.258 -20.390  1.00  0.00     0.158 A 
BRANCH  15  18
ATOM     18  O   UNL     1     -17.856   4.312 -19.077  1.00  0.00    -0.504 OA
ATOM     19  H   UNL     1     -17.679   5.219 -19.492  1.00  0.00     0.293 HD
ENDBRANCH  15  18
BRANCH  17  20
ATOM     20  O   UNL     1     -19.224   2.524 -20.783  1.00  0.00    -0.504 OA
ATOM     21  H   UNL     1     -20.010   2.356 -20.164  1.00  0.00     0.293 HD
ENDBRANCH  17  20
ENDBRANCH   1  12
BRANCH   2  22
ATOM     22  O   UNL     1     -15.674  -1.613 -18.869  1.00  0.00    -0.502 OA
ATOM     23  H   UNL     1     -16.243  -2.385 -18.547  1.00  0.00     0.293 HD
ENDBRANCH   2  22
BRANCH   6  24
ATOM     24  O   UNL     1     -13.082  -4.891 -21.964  1.00  0.00    -0.507 OA
ATOM     25  H   UNL     1     -12.157  -5.298 -21.897  1.00  0.00     0.293 HD
ENDBRANCH   6  24
BRANCH   8  26
ATOM     26  O   UNL     1     -12.622  -2.275 -25.992  1.00  0.00    -0.508 OA
ATOM     27  H   UNL     1     -13.249  -2.382 -26.780  1.00  0.00     0.293 HD
ENDBRANCH   8  26
TORSDOF 6
ENDMDL
