MODEL 1
REMARK VINA RESULT:    -4.438      0.000      0.000
REMARK INTER + INTRA:          -4.568
REMARK INTER:                  -4.568
REMARK INTRA:                   0.000
REMARK UNBOUND:                 0.000
REMARK SMILES Cc1cccc(O)c1C
REMARK SMILES IDX 1 1 2 2 8 3 6 4 5 5 4 6 3 7 9 8 7 9
REMARK H PARENT 7 10
REMARK Flexibility Score: inf
ROOT
ATOM      1  C   UNL     1      36.722  17.512  54.005  1.00  0.00     0.045 C 
ATOM      2  C   UNL     1      37.605  18.711  54.236  1.00  0.00    -0.045 A 
ATOM      3  C   UNL     1      38.982  18.693  53.896  1.00  0.00    -0.006 A 
ATOM      4  C   UNL     1      39.772  19.836  54.152  1.00  0.00     0.118 A 
ATOM      5  C   UNL     1      39.187  20.986  54.697  1.00  0.00     0.046 A 
ATOM      6  C   UNL     1      37.827  21.009  55.000  1.00  0.00     0.004 A 
ATOM      7  C   UNL     1      37.040  19.881  54.771  1.00  0.00     0.004 A 
ATOM      8  C   UNL     1      39.617  17.450  53.318  1.00  0.00     0.048 C 
ENDROOT
BRANCH   4   9
ATOM      9  O   UNL     1      41.138  19.829  53.866  1.00  0.00    -0.508 OA
ATOM     10  H   UNL     1      41.593  20.620  53.424  1.00  0.00     0.293 HD
ENDBRANCH   4   9
TORSDOF 1
ENDMDL
MODEL 2
REMARK VINA RESULT:    -4.154     14.803     16.089
REMARK INTER + INTRA:          -4.276
REMARK INTER:                  -4.276
REMARK INTRA:                   0.000
REMARK UNBOUND:                 0.000
REMARK SMILES Cc1cccc(O)c1C
REMARK SMILES IDX 1 1 2 2 8 3 6 4 5 5 4 6 3 7 9 8 7 9
REMARK H PARENT 7 10
REMARK Flexibility Score: inf
ROOT
ATOM      1  C   UNL     1      44.130  32.530  53.102  1.00  0.00     0.045 C 
ATOM      2  C   UNL     1      45.583  32.627  52.715  1.00  0.00    -0.045 A 
ATOM      3  C   UNL     1      46.537  33.243  53.567  1.00  0.00    -0.006 A 
ATOM      4  C   UNL     1      47.883  33.328  53.148  1.00  0.00     0.118 A 
ATOM      5  C   UNL     1      48.274  32.772  51.923  1.00  0.00     0.046 A 
ATOM      6  C   UNL     1      47.339  32.140  51.105  1.00  0.00     0.004 A 
ATOM      7  C   UNL     1      46.003  32.067  51.497  1.00  0.00     0.004 A 
ATOM      8  C   UNL     1      46.114  33.853  54.882  1.00  0.00     0.048 C 
ENDROOT
BRANCH   4   9
ATOM      9  O   UNL     1      48.832  33.966  53.948  1.00  0.00    -0.508 OA
ATOM     10  H   UNL     1      49.014  33.667  54.899  1.00  0.00     0.293 HD
ENDBRANCH   4   9
TORSDOF 1
ENDMDL
MODEL 3
REMARK VINA RESULT:    -4.027      1.761      2.726
REMARK INTER + INTRA:          -4.145
REMARK INTER:                  -4.145
REMARK INTRA:                   0.000
REMARK UNBOUND:                 0.000
REMARK SMILES Cc1cccc(O)c1C
REMARK SMILES IDX 1 1 2 2 8 3 6 4 5 5 4 6 3 7 9 8 7 9
REMARK H PARENT 7 10
REMARK Flexibility Score: inf
ROOT
ATOM      1  C   UNL     1      38.740  17.247  53.515  1.00  0.00     0.045 C 
ATOM      2  C   UNL     1      38.933  18.719  53.776  1.00  0.00    -0.045 A 
ATOM      3  C   UNL     1      37.966  19.478  54.484  1.00  0.00    -0.006 A 
ATOM      4  C   UNL     1      38.183  20.860  54.683  1.00  0.00     0.118 A 
ATOM      5  C   UNL     1      39.362  21.459  54.221  1.00  0.00     0.046 A 
ATOM      6  C   UNL     1      40.323  20.701  53.553  1.00  0.00     0.004 A 
ATOM      7  C   UNL     1      40.111  19.341  53.332  1.00  0.00     0.004 A 
ATOM      8  C   UNL     1      36.689  18.836  54.973  1.00  0.00     0.048 C 
ENDROOT
BRANCH   4   9
ATOM      9  O   UNL     1      37.229  21.638  55.340  1.00  0.00    -0.508 OA
ATOM     10  H   UNL     1      36.397  21.971  54.866  1.00  0.00     0.293 HD
ENDBRANCH   4   9
TORSDOF 1
ENDMDL
MODEL 4
REMARK VINA RESULT:    -4.015      1.605      2.803
REMARK INTER + INTRA:          -4.133
REMARK INTER:                  -4.133
REMARK INTRA:                   0.000
REMARK UNBOUND:                 0.000
REMARK SMILES Cc1cccc(O)c1C
REMARK SMILES IDX 1 1 2 2 8 3 6 4 5 5 4 6 3 7 9 8 7 9
REMARK H PARENT 7 10
REMARK Flexibility Score: inf
ROOT
ATOM      1  C   UNL     1      36.626  18.686  55.570  1.00  0.00     0.045 C 
ATOM      2  C   UNL     1      37.627  19.365  54.670  1.00  0.00    -0.045 A 
ATOM      3  C   UNL     1      38.020  20.711  54.882  1.00  0.00    -0.006 A 
ATOM      4  C   UNL     1      38.945  21.309  53.997  1.00  0.00     0.118 A 
ATOM      5  C   UNL     1      39.496  20.561  52.948  1.00  0.00     0.046 A 
ATOM      6  C   UNL     1      39.130  19.229  52.764  1.00  0.00     0.004 A 
ATOM      7  C   UNL     1      38.203  18.633  53.618  1.00  0.00     0.004 A 
ATOM      8  C   UNL     1      37.418  21.522  56.005  1.00  0.00     0.048 C 
ENDROOT
BRANCH   4   9
ATOM      9  O   UNL     1      39.316  22.644  54.158  1.00  0.00    -0.508 OA
ATOM     10  H   UNL     1      38.933  23.378  53.572  1.00  0.00     0.293 HD
ENDBRANCH   4   9
TORSDOF 1
ENDMDL
MODEL 5
REMARK VINA RESULT:    -4.008      1.357      2.447
REMARK INTER + INTRA:          -4.125
REMARK INTER:                  -4.125
REMARK INTRA:                   0.000
REMARK UNBOUND:                 0.000
REMARK SMILES Cc1cccc(O)c1C
REMARK SMILES IDX 1 1 2 2 8 3 6 4 5 5 4 6 3 7 9 8 7 9
REMARK H PARENT 7 10
REMARK Flexibility Score: inf
ROOT
ATOM      1  C   UNL     1      39.841  17.546  53.132  1.00  0.00     0.045 C 
ATOM      2  C   UNL     1      38.904  18.500  53.828  1.00  0.00    -0.045 A 
ATOM      3  C   UNL     1      39.216  19.878  53.961  1.00  0.00    -0.006 A 
ATOM      4  C   UNL     1      38.314  20.727  54.641  1.00  0.00     0.118 A 
ATOM      5  C   UNL     1      37.108  20.217  55.138  1.00  0.00     0.046 A 
ATOM      6  C   UNL     1      36.793  18.869  54.976  1.00  0.00     0.004 A 
ATOM      7  C   UNL     1      37.684  18.015  54.325  1.00  0.00     0.004 A 
ATOM      8  C   UNL     1      40.521  20.427  53.435  1.00  0.00     0.048 C 
ENDROOT
BRANCH   4   9
ATOM      9  O   UNL     1      38.616  22.077  54.823  1.00  0.00    -0.508 OA
ATOM     10  H   UNL     1      39.397  22.375  55.398  1.00  0.00     0.293 HD
ENDBRANCH   4   9
TORSDOF 1
ENDMDL
MODEL 6
REMARK VINA RESULT:    -4.003      0.942      2.783
REMARK INTER + INTRA:          -4.120
REMARK INTER:                  -4.120
REMARK INTRA:                   0.000
REMARK UNBOUND:                 0.000
REMARK SMILES Cc1cccc(O)c1C
REMARK SMILES IDX 1 1 2 2 8 3 6 4 5 5 4 6 3 7 9 8 7 9
REMARK H PARENT 7 10
REMARK Flexibility Score: inf
ROOT
ATOM      1  C   UNL     1      37.124  20.344  54.912  1.00  0.00     0.045 C 
ATOM      2  C   UNL     1      37.815  19.145  54.314  1.00  0.00    -0.045 A 
ATOM      3  C   UNL     1      39.209  19.151  54.047  1.00  0.00    -0.006 A 
ATOM      4  C   UNL     1      39.805  18.010  53.466  1.00  0.00     0.118 A 
ATOM      5  C   UNL     1      39.032  16.873  53.197  1.00  0.00     0.046 A 
ATOM      6  C   UNL     1      37.669  16.863  53.491  1.00  0.00     0.004 A 
ATOM      7  C   UNL     1      37.064  17.989  54.047  1.00  0.00     0.004 A 
ATOM      8  C   UNL     1      40.042  20.380  54.326  1.00  0.00     0.048 C 
ENDROOT
BRANCH   4   9
ATOM      9  O   UNL     1      41.165  18.005  53.154  1.00  0.00    -0.508 OA
ATOM     10  H   UNL     1      41.565  17.316  52.527  1.00  0.00     0.293 HD
ENDBRANCH   4   9
TORSDOF 1
ENDMDL
MODEL 7
REMARK VINA RESULT:    -3.952     16.437     17.378
REMARK INTER + INTRA:          -4.067
REMARK INTER:                  -4.067
REMARK INTRA:                   0.000
REMARK UNBOUND:                 0.000
REMARK SMILES Cc1cccc(O)c1C
REMARK SMILES IDX 1 1 2 2 8 3 6 4 5 5 4 6 3 7 9 8 7 9
REMARK H PARENT 7 10
REMARK Flexibility Score: inf
ROOT
ATOM      1  C   UNL     1      48.433  33.749  60.569  1.00  0.00     0.045 C 
ATOM      2  C   UNL     1      47.102  33.357  61.157  1.00  0.00    -0.045 A 
ATOM      3  C   UNL     1      45.925  33.323  60.367  1.00  0.00    -0.006 A 
ATOM      4  C   UNL     1      44.697  32.970  60.971  1.00  0.00     0.118 A 
ATOM      5  C   UNL     1      44.658  32.617  62.326  1.00  0.00     0.046 A 
ATOM      6  C   UNL     1      45.824  32.622  63.090  1.00  0.00     0.004 A 
ATOM      7  C   UNL     1      47.038  32.988  62.511  1.00  0.00     0.004 A 
ATOM      8  C   UNL     1      45.964  33.714  58.908  1.00  0.00     0.048 C 
ENDROOT
BRANCH   4   9
ATOM      9  O   UNL     1      43.517  32.971  60.226  1.00  0.00    -0.508 OA
ATOM     10  H   UNL     1      43.048  33.833  59.972  1.00  0.00     0.293 HD
ENDBRANCH   4   9
TORSDOF 1
ENDMDL
MODEL 8
REMARK VINA RESULT:    -3.944     16.419     18.036
REMARK INTER + INTRA:          -4.059
REMARK INTER:                  -4.059
REMARK INTRA:                   0.000
REMARK UNBOUND:                 0.000
REMARK SMILES Cc1cccc(O)c1C
REMARK SMILES IDX 1 1 2 2 8 3 6 4 5 5 4 6 3 7 9 8 7 9
REMARK H PARENT 7 10
REMARK Flexibility Score: inf
ROOT
ATOM      1  C   UNL     1      46.609  33.551  64.216  1.00  0.00     0.045 C 
ATOM      2  C   UNL     1      47.058  33.514  62.778  1.00  0.00    -0.045 A 
ATOM      3  C   UNL     1      46.267  32.905  61.770  1.00  0.00    -0.006 A 
ATOM      4  C   UNL     1      46.744  32.878  60.440  1.00  0.00     0.118 A 
ATOM      5  C   UNL     1      47.965  33.484  60.120  1.00  0.00     0.046 A 
ATOM      6  C   UNL     1      48.723  34.109  61.109  1.00  0.00     0.004 A 
ATOM      7  C   UNL     1      48.274  34.125  62.429  1.00  0.00     0.004 A 
ATOM      8  C   UNL     1      44.955  32.241  62.116  1.00  0.00     0.048 C 
ENDROOT
BRANCH   4   9
ATOM      9  O   UNL     1      46.005  32.248  59.438  1.00  0.00    -0.508 OA
ATOM     10  H   UNL     1      45.226  31.637  59.655  1.00  0.00     0.293 HD
ENDBRANCH   4   9
TORSDOF 1
ENDMDL
MODEL 9
REMARK VINA RESULT:    -3.934      2.427      3.555
REMARK INTER + INTRA:          -4.049
REMARK INTER:                  -4.049
REMARK INTRA:                   0.000
REMARK UNBOUND:                 0.000
REMARK SMILES Cc1cccc(O)c1C
REMARK SMILES IDX 1 1 2 2 8 3 6 4 5 5 4 6 3 7 9 8 7 9
REMARK H PARENT 7 10
REMARK Flexibility Score: inf
ROOT
ATOM      1  C   UNL     1      40.286  19.483  52.188  1.00  0.00     0.045 C 
ATOM      2  C   UNL     1      38.991  19.440  52.959  1.00  0.00    -0.045 A 
ATOM      3  C   UNL     1      38.013  20.458  52.821  1.00  0.00    -0.006 A 
ATOM      4  C   UNL     1      36.826  20.384  53.583  1.00  0.00     0.118 A 
ATOM      5  C   UNL     1      36.604  19.291  54.432  1.00  0.00     0.046 A 
ATOM      6  C   UNL     1      37.555  18.278  54.539  1.00  0.00     0.004 A 
ATOM      7  C   UNL     1      38.740  18.350  53.808  1.00  0.00     0.004 A 
ATOM      8  C   UNL     1      38.256  21.642  51.915  1.00  0.00     0.048 C 
ENDROOT
BRANCH   4   9
ATOM      9  O   UNL     1      35.867  21.394  53.498  1.00  0.00    -0.508 OA
ATOM     10  H   UNL     1      35.912  22.221  54.083  1.00  0.00     0.293 HD
ENDBRANCH   4   9
TORSDOF 1
ENDMDL
