MODEL 1
REMARK VINA RESULT:    -4.653      0.000      0.000
REMARK INTER + INTRA:          -7.783
REMARK INTER:                  -7.100
REMARK INTRA:                  -0.682
REMARK UNBOUND:                -0.682
REMARK SMILES CCCCCCCCCCC(=O)[O-]
REMARK SMILES IDX 7 1 8 2 9 3 10 4 11 5 12 6 13 7 6 8 5 9 4 10 3 11 2 12 1 13
REMARK H PARENT
REMARK Flexibility Score: inf
ROOT
ATOM      1  C   UNL     1       8.848  27.608 -12.926  1.00  0.00     0.000 C 
ENDROOT
BRANCH   1   2
ATOM      2  C   UNL     1       9.010  29.116 -13.179  1.00  0.00     0.000 C 
BRANCH   2   3
ATOM      3  C   UNL     1       7.702  29.896 -12.976  1.00  0.00     0.006 C 
BRANCH   3   4
ATOM      4  C   UNL     1       7.397  30.779 -14.189  1.00  0.00     0.053 C 
BRANCH   4   5
ATOM      5  C   UNL     1       6.264  30.208 -14.983  1.00  0.00     0.041 C 
ATOM      6  O   UNL     1       5.111  30.706 -14.889  1.00  0.00    -0.550 OA
ATOM      7  O   UNL     1       6.492  29.159 -15.864  1.00  0.00    -0.550 OA
ENDBRANCH   4   5
ENDBRANCH   3   4
ENDBRANCH   2   3
ENDBRANCH   1   2
BRANCH   1   8
ATOM      8  C   UNL     1       7.387  27.141 -13.047  1.00  0.00     0.000 C 
BRANCH   8   9
ATOM      9  C   UNL     1       7.239  25.621 -12.881  1.00  0.00    -0.000 C 
BRANCH   9  10
ATOM     10  C   UNL     1       8.564  24.868 -13.095  1.00  0.00    -0.000 C 
BRANCH  10  11
ATOM     11  C   UNL     1       8.749  23.705 -12.107  1.00  0.00    -0.000 C 
BRANCH  11  12
ATOM     12  C   UNL     1       8.593  24.144 -10.644  1.00  0.00    -0.003 C 
ATOM     13  C   UNL     1       7.783  23.125  -9.849  1.00  0.00     0.004 C 
ENDBRANCH  11  12
ENDBRANCH  10  11
ENDBRANCH   9  10
ENDBRANCH   8   9
ENDBRANCH   1   8
TORSDOF 9
ENDMDL
MODEL 2
REMARK VINA RESULT:    -4.505      1.074      1.512
REMARK INTER + INTRA:          -7.558
REMARK INTER:                  -6.783
REMARK INTRA:                  -0.775
REMARK UNBOUND:                -0.682
REMARK SMILES CCCCCCCCCCC(=O)[O-]
REMARK SMILES IDX 7 1 8 2 9 3 10 4 11 5 12 6 13 7 6 8 5 9 4 10 3 11 2 12 1 13
REMARK H PARENT
REMARK Flexibility Score: inf
ROOT
ATOM      1  C   UNL     1       9.735  27.589 -13.550  1.00  0.00     0.000 C 
ENDROOT
BRANCH   1   2
ATOM      2  C   UNL     1       9.212  28.971 -13.125  1.00  0.00     0.000 C 
BRANCH   2   3
ATOM      3  C   UNL     1       7.692  28.989 -12.907  1.00  0.00     0.006 C 
BRANCH   3   4
ATOM      4  C   UNL     1       6.965  28.297 -14.064  1.00  0.00     0.053 C 
BRANCH   4   5
ATOM      5  C   UNL     1       6.566  29.295 -15.105  1.00  0.00     0.041 C 
ATOM      6  O   UNL     1       6.344  30.493 -14.783  1.00  0.00    -0.550 OA
ATOM      7  O   UNL     1       6.490  28.916 -16.439  1.00  0.00    -0.550 OA
ENDBRANCH   4   5
ENDBRANCH   3   4
ENDBRANCH   2   3
ENDBRANCH   1   2
BRANCH   1   8
ATOM      8  C   UNL     1      10.289  26.777 -12.366  1.00  0.00     0.000 C 
BRANCH   8   9
ATOM      9  C   UNL     1       9.891  25.294 -12.432  1.00  0.00    -0.000 C 
BRANCH   9  10
ATOM     10  C   UNL     1       8.424  25.090 -12.850  1.00  0.00    -0.000 C 
BRANCH  10  11
ATOM     11  C   UNL     1       7.614  24.312 -11.801  1.00  0.00    -0.000 C 
BRANCH  11  12
ATOM     12  C   UNL     1       8.438  23.977 -10.549  1.00  0.00    -0.003 C 
ATOM     13  C   UNL     1       7.735  22.926  -9.695  1.00  0.00     0.004 C 
ENDBRANCH  11  12
ENDBRANCH  10  11
ENDBRANCH   9  10
ENDBRANCH   8   9
ENDBRANCH   1   8
TORSDOF 9
ENDMDL
MODEL 3
REMARK VINA RESULT:    -4.462      3.668      6.687
REMARK INTER + INTRA:          -7.492
REMARK INTER:                  -6.847
REMARK INTRA:                  -0.645
REMARK UNBOUND:                -0.682
REMARK SMILES CCCCCCCCCCC(=O)[O-]
REMARK SMILES IDX 7 1 8 2 9 3 10 4 11 5 12 6 13 7 6 8 5 9 4 10 3 11 2 12 1 13
REMARK H PARENT
REMARK Flexibility Score: inf
ROOT
ATOM      1  C   UNL     1       7.986  26.650 -12.995  1.00  0.00     0.000 C 
ENDROOT
BRANCH   1   2
ATOM      2  C   UNL     1       7.985  25.113 -12.967  1.00  0.00     0.000 C 
BRANCH   2   3
ATOM      3  C   UNL     1       9.146  24.534 -12.144  1.00  0.00     0.006 C 
BRANCH   3   4
ATOM      4  C   UNL     1       8.771  24.437 -10.662  1.00  0.00     0.053 C 
BRANCH   4   5
ATOM      5  C   UNL     1       8.221  23.081 -10.348  1.00  0.00     0.041 C 
ATOM      6  O   UNL     1       8.264  22.164 -11.210  1.00  0.00    -0.550 OA
ATOM      7  O   UNL     1       7.706  22.816  -9.086  1.00  0.00    -0.550 OA
ENDBRANCH   4   5
ENDBRANCH   3   4
ENDBRANCH   2   3
ENDBRANCH   1   2
BRANCH   1   8
ATOM      8  C   UNL     1       9.407  27.241 -13.016  1.00  0.00     0.000 C 
BRANCH   8   9
ATOM      9  C   UNL     1       9.407  28.776 -12.950  1.00  0.00    -0.000 C 
BRANCH   9  10
ATOM     10  C   UNL     1       7.988  29.371 -12.929  1.00  0.00    -0.000 C 
BRANCH  10  11
ATOM     11  C   UNL     1       7.763  30.402 -14.044  1.00  0.00    -0.000 C 
BRANCH  11  12
ATOM     12  C   UNL     1       6.396  30.246 -14.726  1.00  0.00    -0.003 C 
ATOM     13  C   UNL     1       6.332  28.957 -15.540  1.00  0.00     0.004 C 
ENDBRANCH  11  12
ENDBRANCH  10  11
ENDBRANCH   9  10
ENDBRANCH   8   9
ENDBRANCH   1   8
TORSDOF 9
ENDMDL
MODEL 4
REMARK VINA RESULT:    -4.453      3.365      5.913
REMARK INTER + INTRA:          -7.478
REMARK INTER:                  -6.461
REMARK INTRA:                  -1.017
REMARK UNBOUND:                -0.682
REMARK SMILES CCCCCCCCCCC(=O)[O-]
REMARK SMILES IDX 7 1 8 2 9 3 10 4 11 5 12 6 13 7 6 8 5 9 4 10 3 11 2 12 1 13
REMARK H PARENT
REMARK Flexibility Score: inf
ROOT
ATOM      1  C   UNL     1      10.441  26.380 -13.767  1.00  0.00     0.000 C 
ENDROOT
BRANCH   1   2
ATOM      2  C   UNL     1      10.166  25.943 -12.318  1.00  0.00     0.000 C 
BRANCH   2   3
ATOM      3  C   UNL     1       9.337  24.653 -12.234  1.00  0.00     0.006 C 
BRANCH   3   4
ATOM      4  C   UNL     1       8.942  24.350 -10.786  1.00  0.00     0.053 C 
BRANCH   4   5
ATOM      5  C   UNL     1       7.640  23.614 -10.740  1.00  0.00     0.041 C 
ATOM      6  O   UNL     1       7.475  22.668  -9.925  1.00  0.00    -0.550 OA
ATOM      7  O   UNL     1       6.591  24.007 -11.560  1.00  0.00    -0.550 OA
ENDBRANCH   4   5
ENDBRANCH   3   4
ENDBRANCH   2   3
ENDBRANCH   1   2
BRANCH   1   8
ATOM      8  C   UNL     1      11.060  27.786 -13.853  1.00  0.00     0.000 C 
BRANCH   8   9
ATOM      9  C   UNL     1      10.545  28.724 -12.750  1.00  0.00    -0.000 C 
BRANCH   9  10
ATOM     10  C   UNL     1       9.423  29.656 -13.238  1.00  0.00    -0.000 C 
BRANCH  10  11
ATOM     11  C   UNL     1       8.033  29.208 -12.760  1.00  0.00    -0.000 C 
BRANCH  11  12
ATOM     12  C   UNL     1       7.272  28.409 -13.828  1.00  0.00    -0.003 C 
ATOM     13  C   UNL     1       6.803  27.065 -13.278  1.00  0.00     0.004 C 
ENDBRANCH  11  12
ENDBRANCH  10  11
ENDBRANCH   9  10
ENDBRANCH   8   9
ENDBRANCH   1   8
TORSDOF 9
ENDMDL
MODEL 5
REMARK VINA RESULT:    -4.375      0.976      1.519
REMARK INTER + INTRA:          -7.359
REMARK INTER:                  -6.806
REMARK INTRA:                  -0.553
REMARK UNBOUND:                -0.682
REMARK SMILES CCCCCCCCCCC(=O)[O-]
REMARK SMILES IDX 7 1 8 2 9 3 10 4 11 5 12 6 13 7 6 8 5 9 4 10 3 11 2 12 1 13
REMARK H PARENT
REMARK Flexibility Score: inf
ROOT
ATOM      1  C   UNL     1       9.058  28.456 -13.018  1.00  0.00     0.000 C 
ENDROOT
BRANCH   1   2
ATOM      2  C   UNL     1       7.765  29.278 -12.895  1.00  0.00     0.000 C 
BRANCH   2   3
ATOM      3  C   UNL     1       7.569  30.254 -14.064  1.00  0.00     0.006 C 
BRANCH   3   4
ATOM      4  C   UNL     1       6.278  29.942 -14.827  1.00  0.00     0.053 C 
BRANCH   4   5
ATOM      5  C   UNL     1       5.722  31.185 -15.447  1.00  0.00     0.041 C 
ATOM      6  O   UNL     1       6.141  31.576 -16.569  1.00  0.00    -0.550 OA
ATOM      7  O   UNL     1       4.705  31.885 -14.811  1.00  0.00    -0.550 OA
ENDBRANCH   4   5
ENDBRANCH   3   4
ENDBRANCH   2   3
ENDBRANCH   1   2
BRANCH   1   8
ATOM      8  C   UNL     1       8.789  26.972 -13.326  1.00  0.00     0.000 C 
BRANCH   8   9
ATOM      9  C   UNL     1       7.346  26.557 -13.003  1.00  0.00    -0.000 C 
BRANCH   9  10
ATOM     10  C   UNL     1       7.233  25.083 -12.574  1.00  0.00    -0.000 C 
BRANCH  10  11
ATOM     11  C   UNL     1       8.601  24.443 -12.294  1.00  0.00    -0.000 C 
BRANCH  11  12
ATOM     12  C   UNL     1       8.925  24.376 -10.794  1.00  0.00    -0.003 C 
ATOM     13  C   UNL     1       8.027  23.369 -10.082  1.00  0.00     0.004 C 
ENDBRANCH  11  12
ENDBRANCH  10  11
ENDBRANCH   9  10
ENDBRANCH   8   9
ENDBRANCH   1   8
TORSDOF 9
ENDMDL
MODEL 6
REMARK VINA RESULT:    -4.297      2.658      5.813
REMARK INTER + INTRA:          -7.240
REMARK INTER:                  -6.463
REMARK INTRA:                  -0.777
REMARK UNBOUND:                -0.682
REMARK SMILES CCCCCCCCCCC(=O)[O-]
REMARK SMILES IDX 7 1 8 2 9 3 10 4 11 5 12 6 13 7 6 8 5 9 4 10 3 11 2 12 1 13
REMARK H PARENT
REMARK Flexibility Score: inf
ROOT
ATOM      1  C   UNL     1       9.678  27.522 -13.500  1.00  0.00     0.000 C 
ENDROOT
BRANCH   1   2
ATOM      2  C   UNL     1      10.427  26.754 -12.399  1.00  0.00     0.000 C 
BRANCH   2   3
ATOM      3  C   UNL     1       9.787  25.394 -12.082  1.00  0.00     0.006 C 
BRANCH   3   4
ATOM      4  C   UNL     1       8.707  25.045 -13.110  1.00  0.00     0.053 C 
BRANCH   4   5
ATOM      5  C   UNL     1       7.471  24.554 -12.425  1.00  0.00     0.041 C 
ATOM      6  O   UNL     1       7.556  23.719 -11.485  1.00  0.00    -0.550 OA
ATOM      7  O   UNL     1       6.228  25.054 -12.790  1.00  0.00    -0.550 OA
ENDBRANCH   4   5
ENDBRANCH   3   4
ENDBRANCH   2   3
ENDBRANCH   1   2
BRANCH   1   8
ATOM      8  C   UNL     1       9.233  28.923 -13.046  1.00  0.00     0.000 C 
BRANCH   8   9
ATOM      9  C   UNL     1       7.704  29.058 -12.968  1.00  0.00    -0.000 C 
BRANCH   9  10
ATOM     10  C   UNL     1       6.975  28.168 -13.989  1.00  0.00    -0.000 C 
BRANCH  10  11
ATOM     11  C   UNL     1       6.287  28.980 -15.097  1.00  0.00    -0.000 C 
BRANCH  11  12
ATOM     12  C   UNL     1       6.541  30.489 -14.966  1.00  0.00    -0.003 C 
ATOM     13  C   UNL     1       5.230  31.256 -14.820  1.00  0.00     0.004 C 
ENDBRANCH  11  12
ENDBRANCH  10  11
ENDBRANCH   9  10
ENDBRANCH   8   9
ENDBRANCH   1   8
TORSDOF 9
ENDMDL
MODEL 7
REMARK VINA RESULT:    -4.233     12.783     15.387
REMARK INTER + INTRA:          -7.143
REMARK INTER:                  -6.001
REMARK INTRA:                  -1.142
REMARK UNBOUND:                -0.682
REMARK SMILES CCCCCCCCCCC(=O)[O-]
REMARK SMILES IDX 7 1 8 2 9 3 10 4 11 5 12 6 13 7 6 8 5 9 4 10 3 11 2 12 1 13
REMARK H PARENT
REMARK Flexibility Score: inf
ROOT
ATOM      1  C   UNL     1      -6.298  31.560 -16.903  1.00  0.00     0.000 C 
ENDROOT
BRANCH   1   2
ATOM      2  C   UNL     1      -6.090  31.814 -18.405  1.00  0.00     0.000 C 
BRANCH   2   3
ATOM      3  C   UNL     1      -4.688  31.411 -18.886  1.00  0.00     0.006 C 
BRANCH   3   4
ATOM      4  C   UNL     1      -3.777  32.636 -19.002  1.00  0.00     0.053 C 
BRANCH   4   5
ATOM      5  C   UNL     1      -2.561  32.469 -18.145  1.00  0.00     0.041 C 
ATOM      6  O   UNL     1      -2.681  32.285 -16.905  1.00  0.00    -0.550 OA
ATOM      7  O   UNL     1      -1.299  32.465 -18.724  1.00  0.00    -0.550 OA
ENDBRANCH   4   5
ENDBRANCH   3   4
ENDBRANCH   2   3
ENDBRANCH   1   2
BRANCH   1   8
ATOM      8  C   UNL     1      -7.105  32.679 -16.220  1.00  0.00     0.000 C 
BRANCH   8   9
ATOM      9  C   UNL     1      -7.450  33.826 -17.182  1.00  0.00    -0.000 C 
BRANCH   9  10
ATOM     10  C   UNL     1      -6.708  35.131 -16.842  1.00  0.00    -0.000 C 
BRANCH  10  11
ATOM     11  C   UNL     1      -5.352  34.880 -16.165  1.00  0.00    -0.000 C 
BRANCH  11  12
ATOM     12  C   UNL     1      -4.239  35.778 -16.722  1.00  0.00    -0.003 C 
ATOM     13  C   UNL     1      -4.507  36.146 -18.178  1.00  0.00     0.004 C 
ENDBRANCH  11  12
ENDBRANCH  10  11
ENDBRANCH   9  10
ENDBRANCH   8   9
ENDBRANCH   1   8
TORSDOF 9
ENDMDL
MODEL 8
REMARK VINA RESULT:    -4.191      3.098      6.444
REMARK INTER + INTRA:          -7.078
REMARK INTER:                  -6.415
REMARK INTRA:                  -0.663
REMARK UNBOUND:                -0.682
REMARK SMILES CCCCCCCCCCC(=O)[O-]
REMARK SMILES IDX 7 1 8 2 9 3 10 4 11 5 12 6 13 7 6 8 5 9 4 10 3 11 2 12 1 13
REMARK H PARENT
REMARK Flexibility Score: inf
ROOT
ATOM      1  C   UNL     1       8.698  28.421 -13.390  1.00  0.00     0.000 C 
ENDROOT
BRANCH   1   2
ATOM      2  C   UNL     1       7.288  27.836 -13.206  1.00  0.00     0.000 C 
BRANCH   2   3
ATOM      3  C   UNL     1       7.300  26.317 -12.982  1.00  0.00     0.006 C 
BRANCH   3   4
ATOM      4  C   UNL     1       8.703  25.830 -12.607  1.00  0.00     0.053 C 
BRANCH   4   5
ATOM      5  C   UNL     1       8.864  24.382 -12.949  1.00  0.00     0.041 C 
ATOM      6  O   UNL     1       8.586  23.495 -12.098  1.00  0.00    -0.550 OA
ATOM      7  O   UNL     1       9.274  24.010 -14.222  1.00  0.00    -0.550 OA
ENDBRANCH   4   5
ENDBRANCH   3   4
ENDBRANCH   2   3
ENDBRANCH   1   2
BRANCH   1   8
ATOM      8  C   UNL     1       8.818  29.856 -12.848  1.00  0.00     0.000 C 
BRANCH   8   9
ATOM      9  C   UNL     1       7.464  30.581 -12.798  1.00  0.00    -0.000 C 
BRANCH   9  10
ATOM     10  C   UNL     1       7.392  31.774 -13.767  1.00  0.00    -0.000 C 
BRANCH  10  11
ATOM     11  C   UNL     1       6.652  31.434 -15.069  1.00  0.00    -0.000 C 
BRANCH  11  12
ATOM     12  C   UNL     1       5.232  30.904 -14.820  1.00  0.00    -0.003 C 
ATOM     13  C   UNL     1       4.367  31.955 -14.131  1.00  0.00     0.004 C 
ENDBRANCH  11  12
ENDBRANCH  10  11
ENDBRANCH   9  10
ENDBRANCH   8   9
ENDBRANCH   1   8
TORSDOF 9
ENDMDL
MODEL 9
REMARK VINA RESULT:    -4.167     12.084     14.787
REMARK INTER + INTRA:          -7.042
REMARK INTER:                  -5.942
REMARK INTRA:                  -1.100
REMARK UNBOUND:                -0.682
REMARK SMILES CCCCCCCCCCC(=O)[O-]
REMARK SMILES IDX 7 1 8 2 9 3 10 4 11 5 12 6 13 7 6 8 5 9 4 10 3 11 2 12 1 13
REMARK H PARENT
REMARK Flexibility Score: inf
ROOT
ATOM      1  C   UNL     1      -4.331  32.805 -19.446  1.00  0.00     0.000 C 
ENDROOT
BRANCH   1   2
ATOM      2  C   UNL     1      -4.022  34.002 -18.531  1.00  0.00     0.000 C 
BRANCH   2   3
ATOM      3  C   UNL     1      -3.116  33.627 -17.348  1.00  0.00     0.006 C 
BRANCH   3   4
ATOM      4  C   UNL     1      -1.729  34.260 -17.499  1.00  0.00     0.053 C 
BRANCH   4   5
ATOM      5  C   UNL     1      -0.857  33.413 -18.371  1.00  0.00     0.041 C 
ATOM      6  O   UNL     1      -0.984  32.160 -18.367  1.00  0.00    -0.550 OA
ATOM      7  O   UNL     1       0.060  34.010 -19.226  1.00  0.00    -0.550 OA
ENDBRANCH   4   5
ENDBRANCH   3   4
ENDBRANCH   2   3
ENDBRANCH   1   2
BRANCH   1   8
ATOM      8  C   UNL     1      -4.643  31.522 -18.656  1.00  0.00     0.000 C 
BRANCH   8   9
ATOM      9  C   UNL     1      -6.117  31.438 -18.229  1.00  0.00    -0.000 C 
BRANCH   9  10
ATOM     10  C   UNL     1      -6.314  31.669 -16.721  1.00  0.00    -0.000 C 
BRANCH  10  11
ATOM     11  C   UNL     1      -7.451  32.655 -16.417  1.00  0.00    -0.000 C 
BRANCH  11  12
ATOM     12  C   UNL     1      -7.952  33.384 -17.672  1.00  0.00    -0.003 C 
ATOM     13  C   UNL     1      -7.569  34.860 -17.640  1.00  0.00     0.004 C 
ENDBRANCH  11  12
ENDBRANCH  10  11
ENDBRANCH   9  10
ENDBRANCH   8   9
ENDBRANCH   1   8
TORSDOF 9
ENDMDL
