MODEL 1
REMARK VINA RESULT:    -5.016      0.000      0.000
REMARK INTER + INTRA:          -8.264
REMARK INTER:                  -6.921
REMARK INTRA:                  -1.343
REMARK UNBOUND:                -1.343
REMARK SMILES CC[C@@H](CC[C@H](C)[C@@H]1CC[C@@H]2C3=CC[C@H]4C[C@@H](O)CC[C@@]4(C)[C@@H]3CC[C@@]21C)C(C)C
REMARK SMILES IDX 5 1 4 2 3 3 2 4 1 5 28 6 29 7 30 8 6 9 7 10 8 11 9 12 26 13
REMARK SMILES IDX 10 14 11 15 25 16 27 17 12 18 24 19 23 20 13 21 21 22 14 23
REMARK SMILES IDX 15 24 20 25 22 26 16 27 19 28 17 29 18 30
REMARK H PARENT 18 31
REMARK Flexibility Score: inf
ROOT
ATOM      1  C   UNL     1       5.390  -1.717  -0.662  1.00  0.00     0.004 C 
ENDROOT
BRANCH   1   2
ATOM      2  C   UNL     1       4.129  -1.931  -1.524  1.00  0.00     0.004 C 
BRANCH   2   3
ATOM      3  C   UNL     1       3.718  -3.428  -1.646  1.00  0.00    -0.009 C 
BRANCH   3   4
ATOM      4  C   UNL     1       3.952  -3.951  -3.088  1.00  0.00     0.000 C 
ATOM      5  C   UNL     1       4.476  -2.902  -4.071  1.00  0.00     0.004 C 
ENDBRANCH   3   4
BRANCH   3   6
ATOM      6  C   UNL     1       2.286  -3.804  -1.112  1.00  0.00    -0.014 C 
ATOM      7  C   UNL     1       1.526  -2.655  -0.424  1.00  0.00     0.007 C 
ATOM      8  C   UNL     1       2.314  -5.042  -0.201  1.00  0.00     0.007 C 
ENDBRANCH   3   6
ENDBRANCH   2   3
ENDBRANCH   1   2
BRANCH   1   9
ATOM      9  C   UNL     1       6.614  -1.142  -1.433  1.00  0.00    -0.011 C 
ATOM     10  C   UNL     1       7.894  -1.899  -1.037  1.00  0.00     0.008 C 
BRANCH   9  11
ATOM     11  C   UNL     1       6.768   0.415  -1.288  1.00  0.00    -0.002 C 
ATOM     12  C   UNL     1       5.701   1.037  -0.376  1.00  0.00     0.005 C 
ATOM     13  C   UNL     1       6.720   1.279  -2.594  1.00  0.00    -0.023 C 
ATOM     14  C   UNL     1       5.506   2.476  -0.842  1.00  0.00     0.009 C 
ATOM     15  C   UNL     1       6.458   2.691  -2.025  1.00  0.00     0.021 C 
ATOM     16  C   UNL     1       5.538   0.835  -3.529  1.00  0.00     0.008 C 
ATOM     17  C   UNL     1       8.091   1.250  -3.337  1.00  0.00     0.012 C 
ATOM     18  C   UNL     1       5.916   3.697  -3.036  1.00  0.00    -0.067 C 
ATOM     19  C   UNL     1       4.889   1.932  -4.409  1.00  0.00     0.009 C 
ATOM     20  C   UNL     1       5.686   3.256  -4.482  1.00  0.00     0.021 C 
ATOM     21  C   UNL     1       5.582   4.919  -2.587  1.00  0.00    -0.027 C 
ATOM     22  C   UNL     1       5.089   4.374  -5.459  1.00  0.00    -0.023 C 
ATOM     23  C   UNL     1       5.041   5.994  -3.462  1.00  0.00     0.031 C 
ATOM     24  C   UNL     1       4.263   5.437  -4.669  1.00  0.00     0.002 C 
ATOM     25  C   UNL     1       6.270   5.099  -6.178  1.00  0.00     0.010 C 
ATOM     26  C   UNL     1       4.187   3.720  -6.553  1.00  0.00     0.012 C 
ATOM     27  C   UNL     1       3.782   6.606  -5.569  1.00  0.00     0.036 C 
ATOM     28  C   UNL     1       5.828   6.259  -7.091  1.00  0.00     0.032 C 
ATOM     29  C   UNL     1       4.903   7.277  -6.394  1.00  0.00     0.114 C 
BRANCH  29  30
ATOM     30  O   UNL     1       5.651   8.145  -5.582  1.00  0.00    -0.393 OA
ATOM     31  H   UNL     1       6.558   7.751  -5.491  1.00  0.00     0.210 HD
ENDBRANCH  29  30
ENDBRANCH   9  11
ENDBRANCH   1   9
TORSDOF 7
ENDMDL
MODEL 2
REMARK VINA RESULT:    -4.958      1.140      1.829
REMARK INTER + INTRA:          -8.185
REMARK INTER:                  -6.625
REMARK INTRA:                  -1.560
REMARK UNBOUND:                -1.343
REMARK SMILES CC[C@@H](CC[C@H](C)[C@@H]1CC[C@@H]2C3=CC[C@H]4C[C@@H](O)CC[C@@]4(C)[C@@H]3CC[C@@]21C)C(C)C
REMARK SMILES IDX 5 1 4 2 3 3 2 4 1 5 28 6 29 7 30 8 6 9 7 10 8 11 9 12 26 13
REMARK SMILES IDX 10 14 11 15 25 16 27 17 12 18 24 19 23 20 13 21 21 22 14 23
REMARK SMILES IDX 15 24 20 25 22 26 16 27 19 28 17 29 18 30
REMARK H PARENT 18 31
REMARK Flexibility Score: inf
ROOT
ATOM      1  C   UNL     1       5.705  -3.021  -0.766  1.00  0.00     0.004 C 
ENDROOT
BRANCH   1   2
ATOM      2  C   UNL     1       4.861  -3.903  -1.709  1.00  0.00     0.004 C 
BRANCH   2   3
ATOM      3  C   UNL     1       3.454  -3.307  -2.008  1.00  0.00    -0.009 C 
BRANCH   3   4
ATOM      4  C   UNL     1       2.960  -2.430  -0.826  1.00  0.00     0.000 C 
ATOM      5  C   UNL     1       1.486  -2.621  -0.462  1.00  0.00     0.004 C 
ENDBRANCH   3   4
BRANCH   3   6
ATOM      6  C   UNL     1       2.351  -4.326  -2.481  1.00  0.00    -0.014 C 
ATOM      7  C   UNL     1       2.651  -5.802  -2.164  1.00  0.00     0.007 C 
ATOM      8  C   UNL     1       2.012  -4.161  -3.971  1.00  0.00     0.007 C 
ENDBRANCH   3   6
ENDBRANCH   2   3
ENDBRANCH   1   2
BRANCH   1   9
ATOM      9  C   UNL     1       6.948  -2.363  -1.432  1.00  0.00    -0.011 C 
ATOM     10  C   UNL     1       8.227  -3.120  -1.032  1.00  0.00     0.008 C 
BRANCH   9  11
ATOM     11  C   UNL     1       7.056  -0.819  -1.163  1.00  0.00    -0.002 C 
ATOM     12  C   UNL     1       5.999  -0.311  -0.171  1.00  0.00     0.005 C 
ATOM     13  C   UNL     1       6.937   0.147  -2.389  1.00  0.00    -0.023 C 
ATOM     14  C   UNL     1       5.742   1.153  -0.509  1.00  0.00     0.009 C 
ATOM     15  C   UNL     1       6.648   1.498  -1.698  1.00  0.00     0.021 C 
ATOM     16  C   UNL     1       5.741  -0.260  -3.323  1.00  0.00     0.008 C 
ATOM     17  C   UNL     1       8.284   0.228  -3.173  1.00  0.00     0.012 C 
ATOM     18  C   UNL     1       6.041   2.564  -2.606  1.00  0.00    -0.067 C 
ATOM     19  C   UNL     1       5.028   0.882  -4.090  1.00  0.00     0.009 C 
ATOM     20  C   UNL     1       5.779   2.235  -4.075  1.00  0.00     0.021 C 
ATOM     21  C   UNL     1       5.681   3.732  -2.047  1.00  0.00    -0.027 C 
ATOM     22  C   UNL     1       5.115   3.407  -4.939  1.00  0.00    -0.023 C 
ATOM     23  C   UNL     1       5.077   4.855  -2.814  1.00  0.00     0.031 C 
ATOM     24  C   UNL     1       4.280   4.372  -4.039  1.00  0.00     0.002 C 
ATOM     25  C   UNL     1       6.247   4.230  -5.629  1.00  0.00     0.010 C 
ATOM     26  C   UNL     1       4.199   2.815  -6.056  1.00  0.00     0.012 C 
ATOM     27  C   UNL     1       3.732   5.594  -4.824  1.00  0.00     0.036 C 
ATOM     28  C   UNL     1       5.738   5.445  -6.429  1.00  0.00     0.032 C 
ATOM     29  C   UNL     1       4.804   6.369  -5.623  1.00  0.00     0.114 C 
BRANCH  29  30
ATOM     30  O   UNL     1       5.548   7.194  -4.764  1.00  0.00    -0.393 OA
ATOM     31  H   UNL     1       5.909   6.613  -4.043  1.00  0.00     0.210 HD
ENDBRANCH  29  30
ENDBRANCH   9  11
ENDBRANCH   1   9
TORSDOF 7
ENDMDL
MODEL 3
REMARK VINA RESULT:    -4.826      1.627      2.687
REMARK INTER + INTRA:          -8.002
REMARK INTER:                  -5.825
REMARK INTRA:                  -2.177
REMARK UNBOUND:                -1.343
REMARK SMILES CC[C@@H](CC[C@H](C)[C@@H]1CC[C@@H]2C3=CC[C@H]4C[C@@H](O)CC[C@@]4(C)[C@@H]3CC[C@@]21C)C(C)C
REMARK SMILES IDX 5 1 4 2 3 3 2 4 1 5 28 6 29 7 30 8 6 9 7 10 8 11 9 12 26 13
REMARK SMILES IDX 10 14 11 15 25 16 27 17 12 18 24 19 23 20 13 21 21 22 14 23
REMARK SMILES IDX 15 24 20 25 22 26 16 27 19 28 17 29 18 30
REMARK H PARENT 18 31
REMARK Flexibility Score: inf
ROOT
ATOM      1  C   UNL     1       7.027  -0.147   0.416  1.00  0.00     0.004 C 
ENDROOT
BRANCH   1   2
ATOM      2  C   UNL     1       7.467  -1.527  -0.115  1.00  0.00     0.004 C 
BRANCH   2   3
ATOM      3  C   UNL     1       6.735  -1.940  -1.426  1.00  0.00    -0.009 C 
BRANCH   3   4
ATOM      4  C   UNL     1       7.689  -1.849  -2.647  1.00  0.00     0.000 C 
ATOM      5  C   UNL     1       9.148  -1.551  -2.295  1.00  0.00     0.004 C 
ENDBRANCH   3   4
BRANCH   3   6
ATOM      6  C   UNL     1       5.356  -1.234  -1.707  1.00  0.00    -0.014 C 
ATOM      7  C   UNL     1       4.131  -1.928  -1.083  1.00  0.00     0.007 C 
ATOM      8  C   UNL     1       5.124  -0.996  -3.208  1.00  0.00     0.007 C 
ENDBRANCH   3   6
ENDBRANCH   2   3
ENDBRANCH   1   2
BRANCH   1   9
ATOM      9  C   UNL     1       8.055   0.998   0.182  1.00  0.00    -0.011 C 
ATOM     10  C   UNL     1       9.009   1.108   1.383  1.00  0.00     0.008 C 
BRANCH   9  11
ATOM     11  C   UNL     1       7.386   2.372  -0.182  1.00  0.00    -0.002 C 
ATOM     12  C   UNL     1       5.864   2.368   0.025  1.00  0.00     0.005 C 
ATOM     13  C   UNL     1       7.581   2.918  -1.636  1.00  0.00    -0.023 C 
ATOM     14  C   UNL     1       5.282   3.386  -0.949  1.00  0.00     0.009 C 
ATOM     15  C   UNL     1       6.464   3.982  -1.725  1.00  0.00     0.021 C 
ATOM     16  C   UNL     1       7.352   1.790  -2.706  1.00  0.00     0.008 C 
ATOM     17  C   UNL     1       8.976   3.597  -1.798  1.00  0.00     0.012 C 
ATOM     18  C   UNL     1       6.084   4.394  -3.144  1.00  0.00    -0.067 C 
ATOM     19  C   UNL     1       6.788   2.229  -4.080  1.00  0.00     0.009 C 
ATOM     20  C   UNL     1       6.810   3.756  -4.328  1.00  0.00     0.021 C 
ATOM     21  C   UNL     1       5.057   5.248  -3.295  1.00  0.00    -0.027 C 
ATOM     22  C   UNL     1       6.322   4.232  -5.776  1.00  0.00    -0.023 C 
ATOM     23  C   UNL     1       4.581   5.731  -4.619  1.00  0.00     0.031 C 
ATOM     24  C   UNL     1       4.837   4.712  -5.745  1.00  0.00     0.002 C 
ATOM     25  C   UNL     1       7.217   5.422  -6.245  1.00  0.00     0.010 C 
ATOM     26  C   UNL     1       6.474   3.075  -6.813  1.00  0.00     0.012 C 
ATOM     27  C   UNL     1       4.374   5.304  -7.103  1.00  0.00     0.036 C 
ATOM     28  C   UNL     1       6.793   6.026  -7.599  1.00  0.00     0.032 C 
ATOM     29  C   UNL     1       5.300   6.404  -7.666  1.00  0.00     0.114 C 
BRANCH  29  30
ATOM     30  O   UNL     1       5.069   7.620  -7.003  1.00  0.00    -0.393 OA
ATOM     31  H   UNL     1       5.554   8.324  -7.509  1.00  0.00     0.210 HD
ENDBRANCH  29  30
ENDBRANCH   9  11
ENDBRANCH   1   9
TORSDOF 7
ENDMDL
MODEL 4
REMARK VINA RESULT:    -4.782      7.479      9.952
REMARK INTER + INTRA:          -7.942
REMARK INTER:                  -6.441
REMARK INTRA:                  -1.501
REMARK UNBOUND:                -1.343
REMARK SMILES CC[C@@H](CC[C@H](C)[C@@H]1CC[C@@H]2C3=CC[C@H]4C[C@@H](O)CC[C@@]4(C)[C@@H]3CC[C@@]21C)C(C)C
REMARK SMILES IDX 5 1 4 2 3 3 2 4 1 5 28 6 29 7 30 8 6 9 7 10 8 11 9 12 26 13
REMARK SMILES IDX 10 14 11 15 25 16 27 17 12 18 24 19 23 20 13 21 21 22 14 23
REMARK SMILES IDX 15 24 20 25 22 26 16 27 19 28 17 29 18 30
REMARK H PARENT 18 31
REMARK Flexibility Score: inf
ROOT
ATOM      1  C   UNL     1       2.809  -5.714  -4.277  1.00  0.00     0.004 C 
ENDROOT
BRANCH   1   2
ATOM      2  C   UNL     1       2.841  -4.406  -3.461  1.00  0.00     0.004 C 
BRANCH   2   3
ATOM      3  C   UNL     1       2.503  -4.616  -1.955  1.00  0.00    -0.009 C 
BRANCH   3   4
ATOM      4  C   UNL     1       2.655  -3.289  -1.164  1.00  0.00     0.000 C 
ATOM      5  C   UNL     1       1.349  -2.736  -0.589  1.00  0.00     0.004 C 
ENDBRANCH   3   4
BRANCH   3   6
ATOM      6  C   UNL     1       3.232  -5.812  -1.237  1.00  0.00    -0.014 C 
ATOM      7  C   UNL     1       2.611  -6.240   0.105  1.00  0.00     0.007 C 
ATOM      8  C   UNL     1       4.738  -5.552  -1.066  1.00  0.00     0.007 C 
ENDBRANCH   3   6
ENDBRANCH   2   3
ENDBRANCH   1   2
BRANCH   1   9
ATOM      9  C   UNL     1       1.428  -6.431  -4.304  1.00  0.00    -0.011 C 
ATOM     10  C   UNL     1       1.576  -7.886  -3.829  1.00  0.00     0.008 C 
BRANCH   9  11
ATOM     11  C   UNL     1       0.695  -6.323  -5.690  1.00  0.00    -0.002 C 
ATOM     12  C   UNL     1       1.576  -5.702  -6.783  1.00  0.00     0.005 C 
ATOM     13  C   UNL     1      -0.639  -5.505  -5.750  1.00  0.00    -0.023 C 
ATOM     14  C   UNL     1       0.637  -5.032  -7.781  1.00  0.00     0.009 C 
ATOM     15  C   UNL     1      -0.790  -5.263  -7.268  1.00  0.00     0.021 C 
ATOM     16  C   UNL     1      -0.505  -4.138  -4.987  1.00  0.00     0.008 C 
ATOM     17  C   UNL     1      -1.840  -6.349  -5.223  1.00  0.00     0.012 C 
ATOM     18  C   UNL     1      -1.737  -4.127  -7.643  1.00  0.00    -0.067 C 
ATOM     19  C   UNL     1      -1.350  -2.952  -5.516  1.00  0.00     0.009 C 
ATOM     20  C   UNL     1      -2.444  -3.345  -6.537  1.00  0.00     0.021 C 
ATOM     21  C   UNL     1      -1.844  -3.805  -8.944  1.00  0.00    -0.027 C 
ATOM     22  C   UNL     1      -3.394  -2.155  -7.029  1.00  0.00    -0.023 C 
ATOM     23  C   UNL     1      -2.728  -2.719  -9.449  1.00  0.00     0.031 C 
ATOM     24  C   UNL     1      -2.935  -1.598  -8.414  1.00  0.00     0.002 C 
ATOM     25  C   UNL     1      -4.850  -2.698  -7.173  1.00  0.00     0.010 C 
ATOM     26  C   UNL     1      -3.411  -0.998  -5.982  1.00  0.00     0.012 C 
ATOM     27  C   UNL     1      -3.912  -0.534  -8.981  1.00  0.00     0.036 C 
ATOM     28  C   UNL     1      -5.852  -1.662  -7.722  1.00  0.00     0.032 C 
ATOM     29  C   UNL     1      -5.388  -0.987  -9.028  1.00  0.00     0.114 C 
BRANCH  29  30
ATOM     30  O   UNL     1      -5.602  -1.837 -10.125  1.00  0.00    -0.393 OA
ATOM     31  H   UNL     1      -5.483  -2.768  -9.799  1.00  0.00     0.210 HD
ENDBRANCH  29  30
ENDBRANCH   9  11
ENDBRANCH   1   9
TORSDOF 7
ENDMDL
MODEL 5
REMARK VINA RESULT:    -4.766      3.724      8.595
REMARK INTER + INTRA:          -7.920
REMARK INTER:                  -5.894
REMARK INTRA:                  -2.026
REMARK UNBOUND:                -1.343
REMARK SMILES CC[C@@H](CC[C@H](C)[C@@H]1CC[C@@H]2C3=CC[C@H]4C[C@@H](O)CC[C@@]4(C)[C@@H]3CC[C@@]21C)C(C)C
REMARK SMILES IDX 5 1 4 2 3 3 2 4 1 5 28 6 29 7 30 8 6 9 7 10 8 11 9 12 26 13
REMARK SMILES IDX 10 14 11 15 25 16 27 17 12 18 24 19 23 20 13 21 21 22 14 23
REMARK SMILES IDX 15 24 20 25 22 26 16 27 19 28 17 29 18 30
REMARK H PARENT 18 31
REMARK Flexibility Score: inf
ROOT
ATOM      1  C   UNL     1       8.897   2.051  -1.425  1.00  0.00     0.004 C 
ENDROOT
BRANCH   1   2
ATOM      2  C   UNL     1       8.124   3.376  -1.276  1.00  0.00     0.004 C 
BRANCH   2   3
ATOM      3  C   UNL     1       6.883   3.471  -2.212  1.00  0.00    -0.009 C 
BRANCH   3   4
ATOM      4  C   UNL     1       5.566   3.368  -1.398  1.00  0.00     0.000 C 
ATOM      5  C   UNL     1       5.755   3.334   0.120  1.00  0.00     0.004 C 
ENDBRANCH   3   4
BRANCH   3   6
ATOM      6  C   UNL     1       6.877   2.511  -3.460  1.00  0.00    -0.014 C 
ATOM      7  C   UNL     1       7.222   3.184  -4.800  1.00  0.00     0.007 C 
ATOM      8  C   UNL     1       5.558   1.731  -3.582  1.00  0.00     0.007 C 
ENDBRANCH   3   6
ENDBRANCH   2   3
ENDBRANCH   1   2
BRANCH   1   9
ATOM      9  C   UNL     1       8.409   0.905  -0.492  1.00  0.00    -0.011 C 
ATOM     10  C   UNL     1       9.208   0.915   0.823  1.00  0.00     0.008 C 
BRANCH   9  11
ATOM     11  C   UNL     1       8.409  -0.506  -1.183  1.00  0.00    -0.002 C 
ATOM     12  C   UNL     1       8.352  -0.419  -2.716  1.00  0.00     0.005 C 
ATOM     13  C   UNL     1       7.265  -1.506  -0.805  1.00  0.00    -0.023 C 
ATOM     14  C   UNL     1       7.680  -1.697  -3.206  1.00  0.00     0.009 C 
ATOM     15  C   UNL     1       7.346  -2.528  -1.961  1.00  0.00     0.021 C 
ATOM     16  C   UNL     1       5.864  -0.794  -0.798  1.00  0.00     0.008 C 
ATOM     17  C   UNL     1       7.563  -2.213   0.553  1.00  0.00     0.012 C 
ATOM     18  C   UNL     1       6.097  -3.384  -2.146  1.00  0.00    -0.067 C 
ATOM     19  C   UNL     1       4.635  -1.659  -1.175  1.00  0.00     0.009 C 
ATOM     20  C   UNL     1       4.905  -3.181  -1.211  1.00  0.00     0.021 C 
ATOM     21  C   UNL     1       6.066  -4.230  -3.190  1.00  0.00    -0.027 C 
ATOM     22  C   UNL     1       3.631  -4.106  -1.503  1.00  0.00    -0.023 C 
ATOM     23  C   UNL     1       4.912  -5.120  -3.490  1.00  0.00     0.031 C 
ATOM     24  C   UNL     1       3.574  -4.535  -3.004  1.00  0.00     0.002 C 
ATOM     25  C   UNL     1       3.729  -5.392  -0.625  1.00  0.00     0.010 C 
ATOM     26  C   UNL     1       2.314  -3.361  -1.124  1.00  0.00     0.012 C 
ATOM     27  C   UNL     1       2.426  -5.539  -3.292  1.00  0.00     0.036 C 
ATOM     28  C   UNL     1       2.596  -6.408  -0.876  1.00  0.00     0.032 C 
ATOM     29  C   UNL     1       2.412  -6.773  -2.362  1.00  0.00     0.114 C 
BRANCH  29  30
ATOM     30  O   UNL     1       3.388  -7.698  -2.767  1.00  0.00    -0.393 OA
ATOM     31  H   UNL     1       4.205  -7.179  -2.991  1.00  0.00     0.210 HD
ENDBRANCH  29  30
ENDBRANCH   9  11
ENDBRANCH   1   9
TORSDOF 7
ENDMDL
MODEL 6
REMARK VINA RESULT:    -4.764      3.455      8.685
REMARK INTER + INTRA:          -7.917
REMARK INTER:                  -6.100
REMARK INTRA:                  -1.817
REMARK UNBOUND:                -1.343
REMARK SMILES CC[C@@H](CC[C@H](C)[C@@H]1CC[C@@H]2C3=CC[C@H]4C[C@@H](O)CC[C@@]4(C)[C@@H]3CC[C@@]21C)C(C)C
REMARK SMILES IDX 5 1 4 2 3 3 2 4 1 5 28 6 29 7 30 8 6 9 7 10 8 11 9 12 26 13
REMARK SMILES IDX 10 14 11 15 25 16 27 17 12 18 24 19 23 20 13 21 21 22 14 23
REMARK SMILES IDX 15 24 20 25 22 26 16 27 19 28 17 29 18 30
REMARK H PARENT 18 31
REMARK Flexibility Score: inf
ROOT
ATOM      1  C   UNL     1       4.623   6.821  -7.535  1.00  0.00     0.004 C 
ENDROOT
BRANCH   1   2
ATOM      2  C   UNL     1       5.944   7.015  -8.307  1.00  0.00     0.004 C 
BRANCH   2   3
ATOM      3  C   UNL     1       7.196   7.044  -7.382  1.00  0.00    -0.009 C 
BRANCH   3   4
ATOM      4  C   UNL     1       7.942   8.400  -7.501  1.00  0.00     0.000 C 
ATOM      5  C   UNL     1       7.125   9.619  -7.069  1.00  0.00     0.004 C 
ENDBRANCH   3   4
BRANCH   3   6
ATOM      6  C   UNL     1       8.181   5.822  -7.502  1.00  0.00    -0.014 C 
ATOM      7  C   UNL     1       9.663   6.197  -7.688  1.00  0.00     0.007 C 
ATOM      8  C   UNL     1       7.743   4.832  -8.593  1.00  0.00     0.007 C 
ENDBRANCH   3   6
ENDBRANCH   2   3
ENDBRANCH   1   2
BRANCH   1   9
ATOM      9  C   UNL     1       4.328   5.354  -7.110  1.00  0.00    -0.011 C 
ATOM     10  C   UNL     1       3.140   4.797  -7.914  1.00  0.00     0.008 C 
BRANCH   9  11
ATOM     11  C   UNL     1       4.139   5.179  -5.560  1.00  0.00    -0.002 C 
ATOM     12  C   UNL     1       4.708   6.356  -4.753  1.00  0.00     0.005 C 
ATOM     13  C   UNL     1       4.757   3.908  -4.887  1.00  0.00    -0.023 C 
ATOM     14  C   UNL     1       5.098   5.807  -3.385  1.00  0.00     0.009 C 
ATOM     15  C   UNL     1       4.757   4.311  -3.395  1.00  0.00     0.021 C 
ATOM     16  C   UNL     1       6.224   3.653  -5.387  1.00  0.00     0.008 C 
ATOM     17  C   UNL     1       3.846   2.660  -5.101  1.00  0.00     0.012 C 
ATOM     18  C   UNL     1       5.692   3.492  -2.511  1.00  0.00    -0.067 C 
ATOM     19  C   UNL     1       7.200   2.983  -4.388  1.00  0.00     0.009 C 
ATOM     20  C   UNL     1       6.525   2.373  -3.137  1.00  0.00     0.021 C 
ATOM     21  C   UNL     1       5.808   3.850  -1.221  1.00  0.00    -0.027 C 
ATOM     22  C   UNL     1       7.497   1.591  -2.134  1.00  0.00    -0.023 C 
ATOM     23  C   UNL     1       6.685   3.141  -0.249  1.00  0.00     0.031 C 
ATOM     24  C   UNL     1       7.905   2.488  -0.924  1.00  0.00     0.002 C 
ATOM     25  C   UNL     1       6.752   0.332  -1.588  1.00  0.00     0.010 C 
ATOM     26  C   UNL     1       8.779   1.106  -2.880  1.00  0.00     0.012 C 
ATOM     27  C   UNL     1       8.739   1.717   0.134  1.00  0.00     0.036 C 
ATOM     28  C   UNL     1       7.557  -0.466  -0.543  1.00  0.00     0.032 C 
ATOM     29  C   UNL     1       8.094   0.398   0.615  1.00  0.00     0.114 C 
BRANCH  29  30
ATOM     30  O   UNL     1       7.074   0.666   1.543  1.00  0.00    -0.393 OA
ATOM     31  H   UNL     1       6.268   0.924   1.024  1.00  0.00     0.210 HD
ENDBRANCH  29  30
ENDBRANCH   9  11
ENDBRANCH   1   9
TORSDOF 7
ENDMDL
MODEL 7
REMARK VINA RESULT:    -4.716      7.234     11.087
REMARK INTER + INTRA:          -7.851
REMARK INTER:                  -6.230
REMARK INTRA:                  -1.621
REMARK UNBOUND:                -1.343
REMARK SMILES CC[C@@H](CC[C@H](C)[C@@H]1CC[C@@H]2C3=CC[C@H]4C[C@@H](O)CC[C@@]4(C)[C@@H]3CC[C@@]21C)C(C)C
REMARK SMILES IDX 5 1 4 2 3 3 2 4 1 5 28 6 29 7 30 8 6 9 7 10 8 11 9 12 26 13
REMARK SMILES IDX 10 14 11 15 25 16 27 17 12 18 24 19 23 20 13 21 21 22 14 23
REMARK SMILES IDX 15 24 20 25 22 26 16 27 19 28 17 29 18 30
REMARK H PARENT 18 31
REMARK Flexibility Score: inf
ROOT
ATOM      1  C   UNL     1      -3.337  -3.829  -6.830  1.00  0.00     0.004 C 
ENDROOT
BRANCH   1   2
ATOM      2  C   UNL     1      -3.655  -2.765  -5.759  1.00  0.00     0.004 C 
BRANCH   2   3
ATOM      3  C   UNL     1      -4.661  -1.683  -6.251  1.00  0.00    -0.009 C 
BRANCH   3   4
ATOM      4  C   UNL     1      -5.812  -2.328  -7.068  1.00  0.00     0.000 C 
ATOM      5  C   UNL     1      -7.218  -1.917  -6.625  1.00  0.00     0.004 C 
ENDBRANCH   3   4
BRANCH   3   6
ATOM      6  C   UNL     1      -4.042  -0.440  -6.992  1.00  0.00    -0.014 C 
ATOM      7  C   UNL     1      -4.091  -0.509  -8.529  1.00  0.00     0.007 C 
ATOM      8  C   UNL     1      -2.610  -0.140  -6.520  1.00  0.00     0.007 C 
ENDBRANCH   3   6
ENDBRANCH   2   3
ENDBRANCH   1   2
BRANCH   1   9
ATOM      9  C   UNL     1      -1.880  -3.787  -7.375  1.00  0.00    -0.011 C 
ATOM     10  C   UNL     1      -1.890  -3.624  -8.905  1.00  0.00     0.008 C 
BRANCH   9  11
ATOM     11  C   UNL     1      -1.004  -5.005  -6.908  1.00  0.00    -0.002 C 
ATOM     12  C   UNL     1      -1.784  -6.003  -6.040  1.00  0.00     0.005 C 
ATOM     13  C   UNL     1       0.292  -4.699  -6.083  1.00  0.00    -0.023 C 
ATOM     14  C   UNL     1      -0.770  -6.682  -5.126  1.00  0.00     0.009 C 
ATOM     15  C   UNL     1       0.600  -6.079  -5.460  1.00  0.00     0.021 C 
ATOM     16  C   UNL     1       0.016  -3.638  -4.959  1.00  0.00     0.008 C 
ATOM     17  C   UNL     1       1.462  -4.264  -7.018  1.00  0.00     0.012 C 
ATOM     18  C   UNL     1       1.533  -6.042  -4.254  1.00  0.00    -0.067 C 
ATOM     19  C   UNL     1       0.862  -3.748  -3.666  1.00  0.00     0.009 C 
ATOM     20  C   UNL     1       2.078  -4.698  -3.770  1.00  0.00     0.021 C 
ATOM     21  C   UNL     1       1.770  -7.197  -3.609  1.00  0.00    -0.027 C 
ATOM     22  C   UNL     1       3.025  -4.760  -2.481  1.00  0.00    -0.023 C 
ATOM     23  C   UNL     1       2.656  -7.304  -2.418  1.00  0.00     0.031 C 
ATOM     24  C   UNL     1       2.699  -6.003  -1.596  1.00  0.00     0.002 C 
ATOM     25  C   UNL     1       4.511  -4.862  -2.950  1.00  0.00     0.010 C 
ATOM     26  C   UNL     1       2.876  -3.460  -1.629  1.00  0.00     0.012 C 
ATOM     27  C   UNL     1       3.686  -6.165  -0.409  1.00  0.00     0.036 C 
ATOM     28  C   UNL     1       5.521  -5.011  -1.795  1.00  0.00     0.032 C 
ATOM     29  C   UNL     1       5.177  -6.149  -0.815  1.00  0.00     0.114 C 
BRANCH  29  30
ATOM     30  O   UNL     1       5.546  -7.392  -1.355  1.00  0.00    -0.393 OA
ATOM     31  H   UNL     1       5.241  -7.402  -2.300  1.00  0.00     0.210 HD
ENDBRANCH  29  30
ENDBRANCH   9  11
ENDBRANCH   1   9
TORSDOF 7
ENDMDL
MODEL 8
REMARK VINA RESULT:    -4.710      3.354      6.137
REMARK INTER + INTRA:          -7.843
REMARK INTER:                  -6.696
REMARK INTRA:                  -1.147
REMARK UNBOUND:                -1.343
REMARK SMILES CC[C@@H](CC[C@H](C)[C@@H]1CC[C@@H]2C3=CC[C@H]4C[C@@H](O)CC[C@@]4(C)[C@@H]3CC[C@@]21C)C(C)C
REMARK SMILES IDX 5 1 4 2 3 3 2 4 1 5 28 6 29 7 30 8 6 9 7 10 8 11 9 12 26 13
REMARK SMILES IDX 10 14 11 15 25 16 27 17 12 18 24 19 23 20 13 21 21 22 14 23
REMARK SMILES IDX 15 24 20 25 22 26 16 27 19 28 17 29 18 30
REMARK H PARENT 18 31
REMARK Flexibility Score: inf
ROOT
ATOM      1  C   UNL     1       3.427  -6.963  -3.024  1.00  0.00     0.004 C 
ENDROOT
BRANCH   1   2
ATOM      2  C   UNL     1       1.933  -7.248  -3.279  1.00  0.00     0.004 C 
BRANCH   2   3
ATOM      3  C   UNL     1       1.434  -6.716  -4.655  1.00  0.00    -0.009 C 
BRANCH   3   4
ATOM      4  C   UNL     1       0.896  -5.266  -4.527  1.00  0.00     0.000 C 
ATOM      5  C   UNL     1       1.431  -4.291  -5.578  1.00  0.00     0.004 C 
ENDBRANCH   3   4
BRANCH   3   6
ATOM      6  C   UNL     1       0.433  -7.644  -5.439  1.00  0.00    -0.014 C 
ATOM      7  C   UNL     1      -1.005  -7.103  -5.549  1.00  0.00     0.007 C 
ATOM      8  C   UNL     1       0.420  -9.078  -4.887  1.00  0.00     0.007 C 
ENDBRANCH   3   6
ENDBRANCH   2   3
ENDBRANCH   1   2
BRANCH   1   9
ATOM      9  C   UNL     1       3.707  -5.799  -2.031  1.00  0.00    -0.011 C 
ATOM     10  C   UNL     1       2.720  -5.857  -0.852  1.00  0.00     0.008 C 
BRANCH   9  11
ATOM     11  C   UNL     1       3.738  -4.386  -2.718  1.00  0.00    -0.002 C 
ATOM     12  C   UNL     1       4.726  -4.316  -3.893  1.00  0.00     0.005 C 
ATOM     13  C   UNL     1       4.099  -3.148  -1.829  1.00  0.00    -0.023 C 
ATOM     14  C   UNL     1       5.177  -2.864  -4.005  1.00  0.00     0.009 C 
ATOM     15  C   UNL     1       4.454  -2.089  -2.896  1.00  0.00     0.021 C 
ATOM     16  C   UNL     1       5.342  -3.445  -0.915  1.00  0.00     0.008 C 
ATOM     17  C   UNL     1       2.866  -2.676  -0.999  1.00  0.00     0.012 C 
ATOM     18  C   UNL     1       5.271  -0.909  -2.378  1.00  0.00    -0.067 C 
ATOM     19  C   UNL     1       6.256  -2.245  -0.562  1.00  0.00     0.009 C 
ATOM     20  C   UNL     1       5.660  -0.859  -0.901  1.00  0.00     0.021 C 
ATOM     21  C   UNL     1       5.691   0.003  -3.272  1.00  0.00    -0.027 C 
ATOM     22  C   UNL     1       6.541   0.403  -0.461  1.00  0.00    -0.023 C 
ATOM     23  C   UNL     1       6.495   1.200  -2.906  1.00  0.00     0.031 C 
ATOM     24  C   UNL     1       7.369   0.964  -1.660  1.00  0.00     0.002 C 
ATOM     25  C   UNL     1       5.590   1.529   0.054  1.00  0.00     0.010 C 
ATOM     26  C   UNL     1       7.507   0.018   0.704  1.00  0.00     0.012 C 
ATOM     27  C   UNL     1       8.131   2.267  -1.299  1.00  0.00     0.036 C 
ATOM     28  C   UNL     1       6.315   2.835   0.434  1.00  0.00     0.032 C 
ATOM     29  C   UNL     1       7.247   3.368  -0.672  1.00  0.00     0.114 C 
BRANCH  29  30
ATOM     30  O   UNL     1       6.505   4.022  -1.669  1.00  0.00    -0.393 OA
ATOM     31  H   UNL     1       6.725   3.581  -2.532  1.00  0.00     0.210 HD
ENDBRANCH  29  30
ENDBRANCH   9  11
ENDBRANCH   1   9
TORSDOF 7
ENDMDL
MODEL 9
REMARK VINA RESULT:    -4.700      3.376      5.871
REMARK INTER + INTRA:          -7.829
REMARK INTER:                  -6.832
REMARK INTRA:                  -0.997
REMARK UNBOUND:                -1.343
REMARK SMILES CC[C@@H](CC[C@H](C)[C@@H]1CC[C@@H]2C3=CC[C@H]4C[C@@H](O)CC[C@@]4(C)[C@@H]3CC[C@@]21C)C(C)C
REMARK SMILES IDX 5 1 4 2 3 3 2 4 1 5 28 6 29 7 30 8 6 9 7 10 8 11 9 12 26 13
REMARK SMILES IDX 10 14 11 15 25 16 27 17 12 18 24 19 23 20 13 21 21 22 14 23
REMARK SMILES IDX 15 24 20 25 22 26 16 27 19 28 17 29 18 30
REMARK H PARENT 18 31
REMARK Flexibility Score: inf
ROOT
ATOM      1  C   UNL     1       1.673  -4.275  -3.888  1.00  0.00     0.004 C 
ENDROOT
BRANCH   1   2
ATOM      2  C   UNL     1       1.283  -4.774  -5.294  1.00  0.00     0.004 C 
BRANCH   2   3
ATOM      3  C   UNL     1      -0.236  -4.616  -5.600  1.00  0.00    -0.009 C 
BRANCH   3   4
ATOM      4  C   UNL     1      -0.821  -3.375  -4.875  1.00  0.00     0.000 C 
ATOM      5  C   UNL     1      -2.307  -3.122  -5.141  1.00  0.00     0.004 C 
ENDBRANCH   3   4
BRANCH   3   6
ATOM      6  C   UNL     1      -1.128  -5.895  -5.385  1.00  0.00    -0.014 C 
ATOM      7  C   UNL     1      -0.373  -7.136  -4.874  1.00  0.00     0.007 C 
ATOM      8  C   UNL     1      -1.943  -6.249  -6.639  1.00  0.00     0.007 C 
ENDBRANCH   3   6
ENDBRANCH   2   3
ENDBRANCH   1   2
BRANCH   1   9
ATOM      9  C   UNL     1       2.958  -4.927  -3.299  1.00  0.00    -0.011 C 
ATOM     10  C   UNL     1       2.693  -6.402  -2.952  1.00  0.00     0.008 C 
BRANCH   9  11
ATOM     11  C   UNL     1       3.567  -4.126  -2.093  1.00  0.00    -0.002 C 
ATOM     12  C   UNL     1       2.544  -3.205  -1.411  1.00  0.00     0.005 C 
ATOM     13  C   UNL     1       4.798  -3.201  -2.377  1.00  0.00    -0.023 C 
ATOM     14  C   UNL     1       3.329  -2.050  -0.798  1.00  0.00     0.009 C 
ATOM     15  C   UNL     1       4.808  -2.297  -1.124  1.00  0.00     0.021 C 
ATOM     16  C   UNL     1       4.580  -2.341  -3.673  1.00  0.00     0.008 C 
ATOM     17  C   UNL     1       6.118  -4.029  -2.445  1.00  0.00     0.012 C 
ATOM     18  C   UNL     1       5.598  -1.001  -1.276  1.00  0.00    -0.067 C 
ATOM     19  C   UNL     1       5.251  -0.945  -3.712  1.00  0.00     0.009 C 
ATOM     20  C   UNL     1       6.300  -0.703  -2.601  1.00  0.00     0.021 C 
ATOM     21  C   UNL     1       5.571  -0.127  -0.255  1.00  0.00    -0.027 C 
ATOM     22  C   UNL     1       7.079   0.693  -2.672  1.00  0.00    -0.023 C 
ATOM     23  C   UNL     1       6.294   1.173  -0.270  1.00  0.00     0.031 C 
ATOM     24  C   UNL     1       6.459   1.739  -1.693  1.00  0.00     0.002 C 
ATOM     25  C   UNL     1       8.569   0.462  -2.271  1.00  0.00     0.010 C 
ATOM     26  C   UNL     1       7.053   1.261  -4.126  1.00  0.00     0.012 C 
ATOM     27  C   UNL     1       7.273   3.060  -1.641  1.00  0.00     0.036 C 
ATOM     28  C   UNL     1       9.411   1.752  -2.222  1.00  0.00     0.032 C 
ATOM     29  C   UNL     1       8.781   2.868  -1.366  1.00  0.00     0.114 C 
BRANCH  29  30
ATOM     30  O   UNL     1       8.999   2.624  -0.000  1.00  0.00    -0.393 OA
ATOM     31  H   UNL     1       8.207   2.127   0.336  1.00  0.00     0.210 HD
ENDBRANCH  29  30
ENDBRANCH   9  11
ENDBRANCH   1   9
TORSDOF 7
ENDMDL
