MODEL 1
REMARK VINA RESULT:    -3.942      0.000      0.000
REMARK INTER + INTRA:         -11.048
REMARK INTER:                  -8.321
REMARK INTRA:                  -2.727
REMARK UNBOUND:                -2.727
REMARK SMILES CCC(=O)CCCCC[C@H]1NC(=O)[C@H]2CCCCN2C(=O)[C@H]([C@H](C)CC)NC(=O)[C@H](Cc2cn(OC)c3ccccc23)NC1=O
REMARK SMILES IDX 9 1 10 2 44 3 43 4 45 6 30 7 28 8 27 9 29 11 22 12 23 14
REMARK SMILES IDX 24 15 25 16 26 17 31 18 32 19 33 20 42 21 34 22 37 23 41 24
REMARK SMILES IDX 38 25 40 26 39 27 35 28 36 29 11 30 12 31 13 33 14 34 19 35
REMARK SMILES IDX 15 36 18 37 16 38 17 39 20 40 21 41 8 43 7 44 6 45 5 46 3 47
REMARK SMILES IDX 4 48 2 49 1 50
REMARK H PARENT 43 5 27 10 11 32
REMARK Flexibility Score: 80.00
ROOT
ATOM      1  C   UNL     1      61.618  24.747  51.500  1.00  0.00     0.035 C 
ENDROOT
BRANCH   1   2
ATOM      2  C   UNL     1      60.119  24.494  51.210  1.00  0.00     0.171 C 
BRANCH   2   3
ATOM      3  C   UNL     1      59.228  24.622  52.420  1.00  0.00     0.243 C 
ATOM      4  N   UNL     1      57.806  24.597  52.242  1.00  0.00    -0.342 N 
ATOM      5  H   UNL     1      57.427  24.640  51.269  1.00  0.00     0.164 HD
ATOM      6  O   UNL     1      59.720  24.664  53.582  1.00  0.00    -0.273 OA
BRANCH   4   7
ATOM      7  C   UNL     1      56.892  24.358  53.361  1.00  0.00     0.175 C 
BRANCH   7   8
ATOM      8  C   UNL     1      57.059  22.946  53.872  1.00  0.00     0.243 C 
ATOM      9  N   UNL     1      57.252  21.846  52.962  1.00  0.00    -0.342 N 
ATOM     10  H   UNL     1      57.195  22.024  51.934  1.00  0.00     0.164 HD
ATOM     11  O   UNL     1      57.001  22.741  55.115  1.00  0.00    -0.273 OA
BRANCH   9  12
ATOM     12  C   UNL     1      57.402  20.457  53.415  1.00  0.00     0.174 CG0
ATOM     13  G   UNL     1      58.589  19.826  52.713  1.00  0.00     0.000 G0
BRANCH  12  14
ATOM     14  C   UNL     1      56.089  19.651  53.200  1.00  0.00     0.018 C 
ATOM     15  C   UNL     1      54.889  20.597  53.012  1.00  0.00     0.010 C 
BRANCH  14  16
ATOM     16  C   UNL     1      55.834  18.693  54.394  1.00  0.00     0.002 C 
ATOM     17  C   UNL     1      56.368  19.237  55.723  1.00  0.00     0.004 C 
ENDBRANCH  14  16
ENDBRANCH  12  14
ENDBRANCH   9  12
ENDBRANCH   7   8
BRANCH   7  18
ATOM     18  C   UNL     1      55.438  24.620  52.926  1.00  0.00     0.073 C 
BRANCH  18  19
ATOM     19  C   UNL     1      55.085  26.079  53.007  1.00  0.00    -0.016 A 
ATOM     20  C   UNL     1      55.168  26.892  54.134  1.00  0.00     0.134 A 
ATOM     21  C   UNL     1      54.650  26.901  51.980  1.00  0.00     0.006 A 
ATOM     22  N   UNL     1      54.807  28.158  53.815  1.00  0.00    -0.191 N 
ATOM     23  C   UNL     1      54.493  28.157  52.509  1.00  0.00     0.087 A 
ATOM     24  C   UNL     1      54.382  26.633  50.637  1.00  0.00     0.011 A 
ATOM     25  C   UNL     1      54.062  29.233  51.733  1.00  0.00     0.030 A 
ATOM     26  C   UNL     1      53.945  27.699  49.830  1.00  0.00     0.001 A 
ATOM     27  C   UNL     1      53.788  28.992  50.375  1.00  0.00     0.002 A 
BRANCH  22  28
ATOM     28  O   UNL     1      54.758  29.257  54.653  1.00  0.00    -0.417 OA
ATOM     29  C   UNL     1      54.851  29.138  56.068  1.00  0.00     0.313 C 
ENDBRANCH  22  28
ENDBRANCH  18  19
ENDBRANCH   7  18
ENDBRANCH   4   7
ENDBRANCH   2   3
BRANCH   2  30
ATOM     30  N   UNL     1      59.926  23.176  50.598  1.00  0.00    -0.343 N 
ATOM     31  C   UNL     1      60.120  21.927  51.287  1.00  0.00     0.243 C 
ATOM     32  H   UNL     1      59.569  23.153  49.617  1.00  0.00     0.164 HD
ATOM     33  O   UNL     1      60.582  21.912  52.461  1.00  0.00    -0.273 OA
BRANCH  31  34
ATOM     34  C   UNL     1      59.800  20.625  50.589  1.00  0.00     0.174 C 
ATOM     35  N   UNL     1      58.742  19.841  51.258  1.00  0.00    -0.329 N 
ATOM     36  C   UNL     1      61.057  19.754  50.422  1.00  0.00     0.035 C 
ATOM     37  C   UNL     1      58.340  18.625  50.537  1.00  0.00     0.120 C 
ATOM     38  C   UNL     1      60.714  18.457  49.673  1.00  0.00     0.004 C 
ATOM     39  C   UNL     1      59.555  17.708  50.348  1.00  0.00     0.022 C 
BRANCH  35  40
ATOM     40  C   UNL     1      58.608  19.837  52.693  1.00  0.00     0.246 CG0
ATOM     41  O   UNL     1      59.487  19.263  53.394  1.00  0.00    -0.272 OA
ATOM     42  G   UNL     1      57.426  20.489  53.383  1.00  0.00     0.000 G0
ENDBRANCH  35  40
ENDBRANCH  31  34
ENDBRANCH   2  30
ENDBRANCH   1   2
BRANCH   1  43
ATOM     43  C   UNL     1      62.215  25.918  50.694  1.00  0.00     0.003 C 
BRANCH  43  44
ATOM     44  C   UNL     1      61.365  27.199  50.783  1.00  0.00     0.001 C 
BRANCH  44  45
ATOM     45  C   UNL     1      60.903  27.705  49.404  1.00  0.00     0.008 C 
BRANCH  45  46
ATOM     46  C   UNL     1      59.375  27.731  49.225  1.00  0.00     0.075 C 
BRANCH  46  47
ATOM     47  C   UNL     1      58.730  28.939  49.853  1.00  0.00     0.132 C 
ATOM     48  O   UNL     1      59.160  30.055  49.589  1.00  0.00    -0.300 OA
BRANCH  47  49
ATOM     49  C   UNL     1      57.633  28.768  50.877  1.00  0.00     0.072 C 
ATOM     50  C   UNL     1      58.170  28.403  52.261  1.00  0.00     0.012 C 
ENDBRANCH  47  49
ENDBRANCH  46  47
ENDBRANCH  45  46
ENDBRANCH  44  45
ENDBRANCH  43  44
ENDBRANCH   1  43
TORSDOF 12
ENDMDL
MODEL 2
REMARK VINA RESULT:    -3.870      8.866     12.891
REMARK INTER + INTRA:         -10.895
REMARK INTER:                  -8.298
REMARK INTRA:                  -2.597
REMARK UNBOUND:                -2.727
REMARK SMILES CCC(=O)CCCCC[C@H]1NC(=O)[C@H]2CCCCN2C(=O)[C@H]([C@H](C)CC)NC(=O)[C@H](Cc2cn(OC)c3ccccc23)NC1=O
REMARK SMILES IDX 9 1 10 2 44 3 43 4 45 6 30 7 28 8 27 9 29 11 22 12 23 14
REMARK SMILES IDX 24 15 25 16 26 17 31 18 32 19 33 20 42 21 34 22 37 23 41 24
REMARK SMILES IDX 38 25 40 26 39 27 35 28 36 29 11 30 12 31 13 33 14 34 19 35
REMARK SMILES IDX 15 36 18 37 16 38 17 39 20 40 21 41 8 43 7 44 6 45 5 46 3 47
REMARK SMILES IDX 4 48 2 49 1 50
REMARK H PARENT 43 5 27 10 11 32
REMARK Flexibility Score: 80.00
ROOT
ATOM      1  C   UNL     1      62.075  24.071  64.170  1.00  0.00     0.035 C 
ENDROOT
BRANCH   1   2
ATOM      2  C   UNL     1      60.719  24.815  64.127  1.00  0.00     0.171 C 
BRANCH   2   3
ATOM      3  C   UNL     1      59.666  24.128  63.294  1.00  0.00     0.243 C 
ATOM      4  N   UNL     1      58.284  24.396  63.561  1.00  0.00    -0.342 N 
ATOM      5  H   UNL     1      58.041  24.943  64.419  1.00  0.00     0.164 HD
ATOM      6  O   UNL     1      59.992  23.394  62.320  1.00  0.00    -0.273 OA
BRANCH   4   7
ATOM      7  C   UNL     1      57.233  24.065  62.597  1.00  0.00     0.175 C 
BRANCH   7   8
ATOM      8  C   UNL     1      57.365  24.933  61.368  1.00  0.00     0.243 C 
ATOM      9  N   UNL     1      58.200  26.107  61.376  1.00  0.00    -0.342 N 
ATOM     10  H   UNL     1      58.653  26.400  62.272  1.00  0.00     0.164 HD
ATOM     11  O   UNL     1      56.711  24.625  60.335  1.00  0.00    -0.273 OA
BRANCH   9  12
ATOM     12  C   UNL     1      58.345  26.987  60.210  1.00  0.00     0.174 CG0
ATOM     13  G   UNL     1      59.779  27.473  60.123  1.00  0.00     0.000 G0
BRANCH  12  14
ATOM     14  C   UNL     1      57.324  28.159  60.259  1.00  0.00     0.018 C 
ATOM     15  C   UNL     1      56.530  28.141  61.579  1.00  0.00     0.010 C 
BRANCH  14  16
ATOM     16  C   UNL     1      56.353  28.090  59.051  1.00  0.00     0.002 C 
ATOM     17  C   UNL     1      56.348  29.372  58.212  1.00  0.00     0.004 C 
ENDBRANCH  14  16
ENDBRANCH  12  14
ENDBRANCH   9  12
ENDBRANCH   7   8
BRANCH   7  18
ATOM     18  C   UNL     1      55.845  24.231  63.244  1.00  0.00     0.073 C 
BRANCH  18  19
ATOM     19  C   UNL     1      54.982  23.018  63.035  1.00  0.00    -0.016 A 
ATOM     20  C   UNL     1      54.584  22.482  61.813  1.00  0.00     0.134 A 
ATOM     21  C   UNL     1      54.451  22.182  64.004  1.00  0.00     0.006 A 
ATOM     22  N   UNL     1      53.848  21.364  62.019  1.00  0.00    -0.191 N 
ATOM     23  C   UNL     1      53.769  21.188  63.349  1.00  0.00     0.087 A 
ATOM     24  C   UNL     1      54.517  22.229  65.398  1.00  0.00     0.011 A 
ATOM     25  C   UNL     1      53.111  20.170  64.039  1.00  0.00     0.030 A 
ATOM     26  C   UNL     1      53.862  21.216  66.120  1.00  0.00     0.001 A 
ATOM     27  C   UNL     1      53.164  20.191  65.443  1.00  0.00     0.002 A 
BRANCH  22  28
ATOM     28  O   UNL     1      53.273  20.546  61.064  1.00  0.00    -0.417 OA
ATOM     29  C   UNL     1      54.037  19.919  60.041  1.00  0.00     0.313 C 
ENDBRANCH  22  28
ENDBRANCH  18  19
ENDBRANCH   7  18
ENDBRANCH   4   7
ENDBRANCH   2   3
BRANCH   2  30
ATOM     30  N   UNL     1      60.898  26.190  63.650  1.00  0.00    -0.343 N 
ATOM     31  C   UNL     1      61.472  26.538  62.376  1.00  0.00     0.243 C 
ATOM     32  H   UNL     1      60.530  26.957  64.256  1.00  0.00     0.164 HD
ATOM     33  O   UNL     1      61.957  25.643  61.631  1.00  0.00    -0.273 OA
BRANCH  31  34
ATOM     34  C   UNL     1      61.522  27.985  61.943  1.00  0.00     0.174 C 
ATOM     35  N   UNL     1      60.395  28.381  61.074  1.00  0.00    -0.329 N 
ATOM     36  C   UNL     1      62.852  28.315  61.242  1.00  0.00     0.035 C 
ATOM     37  C   UNL     1      60.366  29.809  60.732  1.00  0.00     0.120 C 
ATOM     38  C   UNL     1      62.895  29.799  60.850  1.00  0.00     0.004 C 
ATOM     39  C   UNL     1      61.668  30.199  60.018  1.00  0.00     0.022 C 
BRANCH  35  40
ATOM     40  C   UNL     1      59.821  27.459  60.127  1.00  0.00     0.246 CG0
ATOM     41  O   UNL     1      60.524  27.043  59.166  1.00  0.00    -0.272 OA
ATOM     42  G   UNL     1      58.384  26.989  60.246  1.00  0.00     0.000 G0
ENDBRANCH  35  40
ENDBRANCH  31  34
ENDBRANCH   2  30
ENDBRANCH   1   2
BRANCH   1  43
ATOM     43  C   UNL     1      62.337  23.340  65.502  1.00  0.00     0.003 C 
BRANCH  43  44
ATOM     44  C   UNL     1      62.855  21.904  65.303  1.00  0.00     0.001 C 
BRANCH  44  45
ATOM     45  C   UNL     1      61.830  20.836  65.727  1.00  0.00     0.008 C 
BRANCH  45  46
ATOM     46  C   UNL     1      60.374  21.334  65.741  1.00  0.00     0.075 C 
BRANCH  46  47
ATOM     47  C   UNL     1      59.539  20.740  64.637  1.00  0.00     0.132 C 
ATOM     48  O   UNL     1      60.089  20.123  63.733  1.00  0.00    -0.300 OA
BRANCH  47  49
ATOM     49  C   UNL     1      58.051  20.994  64.590  1.00  0.00     0.072 C 
ATOM     50  C   UNL     1      57.287  19.889  63.860  1.00  0.00     0.012 C 
ENDBRANCH  47  49
ENDBRANCH  46  47
ENDBRANCH  45  46
ENDBRANCH  44  45
ENDBRANCH  43  44
ENDBRANCH   1  43
TORSDOF 12
ENDMDL
MODEL 3
REMARK VINA RESULT:    -3.847      5.907     10.908
REMARK INTER + INTRA:         -10.848
REMARK INTER:                  -8.419
REMARK INTRA:                  -2.429
REMARK UNBOUND:                -2.727
REMARK SMILES CCC(=O)CCCCC[C@H]1NC(=O)[C@H]2CCCCN2C(=O)[C@H]([C@H](C)CC)NC(=O)[C@H](Cc2cn(OC)c3ccccc23)NC1=O
REMARK SMILES IDX 9 1 10 2 44 3 43 4 45 6 30 7 28 8 27 9 29 11 22 12 23 14
REMARK SMILES IDX 24 15 25 16 26 17 31 18 32 19 33 20 42 21 34 22 37 23 41 24
REMARK SMILES IDX 38 25 40 26 39 27 35 28 36 29 11 30 12 31 13 33 14 34 19 35
REMARK SMILES IDX 15 36 18 37 16 38 17 39 20 40 21 41 8 43 7 44 6 45 5 46 3 47
REMARK SMILES IDX 4 48 2 49 1 50
REMARK H PARENT 43 5 27 10 11 32
REMARK Flexibility Score: 80.00
ROOT
ATOM      1  C   UNL     1      59.263  27.061  50.459  1.00  0.00     0.035 C 
ENDROOT
BRANCH   1   2
ATOM      2  C   UNL     1      59.322  28.519  49.943  1.00  0.00     0.171 C 
BRANCH   2   3
ATOM      3  C   UNL     1      60.664  29.183  50.125  1.00  0.00     0.243 C 
ATOM      4  N   UNL     1      60.855  30.512  49.625  1.00  0.00    -0.342 N 
ATOM      5  H   UNL     1      60.110  30.927  49.020  1.00  0.00     0.164 HD
ATOM      6  O   UNL     1      61.580  28.614  50.782  1.00  0.00    -0.273 OA
BRANCH   4   7
ATOM      7  C   UNL     1      61.975  31.347  50.063  1.00  0.00     0.175 C 
BRANCH   7   8
ATOM      8  C   UNL     1      61.798  31.734  51.512  1.00  0.00     0.243 C 
ATOM      9  N   UNL     1      60.492  32.025  52.047  1.00  0.00    -0.342 N 
ATOM     10  H   UNL     1      59.672  32.044  51.399  1.00  0.00     0.164 HD
ATOM     11  O   UNL     1      62.820  31.822  52.245  1.00  0.00    -0.273 OA
BRANCH   9  12
ATOM     12  C   UNL     1      60.276  32.419  53.445  1.00  0.00     0.174 CG0
ATOM     13  G   UNL     1      58.988  31.797  53.949  1.00  0.00     0.000 G0
BRANCH  12  14
ATOM     14  C   UNL     1      60.288  33.967  53.600  1.00  0.00     0.018 C 
ATOM     15  C   UNL     1      60.363  34.656  52.226  1.00  0.00     0.010 C 
BRANCH  14  16
ATOM     16  C   UNL     1      61.477  34.418  54.490  1.00  0.00     0.002 C 
ATOM     17  C   UNL     1      62.043  33.286  55.352  1.00  0.00     0.004 C 
ENDBRANCH  14  16
ENDBRANCH  12  14
ENDBRANCH   9  12
ENDBRANCH   7   8
BRANCH   7  18
ATOM     18  C   UNL     1      62.090  32.596  49.168  1.00  0.00     0.073 C 
BRANCH  18  19
ATOM     19  C   UNL     1      63.327  33.393  49.477  1.00  0.00    -0.016 A 
ATOM     20  C   UNL     1      63.375  34.664  50.042  1.00  0.00     0.134 A 
ATOM     21  C   UNL     1      64.646  33.009  49.299  1.00  0.00     0.006 A 
ATOM     22  N   UNL     1      64.664  35.044  50.210  1.00  0.00    -0.191 N 
ATOM     23  C   UNL     1      65.430  34.037  49.757  1.00  0.00     0.087 A 
ATOM     24  C   UNL     1      65.202  31.843  48.770  1.00  0.00     0.011 A 
ATOM     25  C   UNL     1      66.823  33.972  49.723  1.00  0.00     0.030 A 
ATOM     26  C   UNL     1      66.605  31.749  48.722  1.00  0.00     0.001 A 
ATOM     27  C   UNL     1      67.410  32.807  49.198  1.00  0.00     0.002 A 
BRANCH  22  28
ATOM     28  O   UNL     1      65.130  36.233  50.740  1.00  0.00    -0.417 OA
ATOM     29  C   UNL     1      65.271  36.437  52.141  1.00  0.00     0.313 C 
ENDBRANCH  22  28
ENDBRANCH  18  19
ENDBRANCH   7  18
ENDBRANCH   4   7
ENDBRANCH   2   3
BRANCH   2  30
ATOM     30  N   UNL     1      58.283  29.335  50.579  1.00  0.00    -0.343 N 
ATOM     31  C   UNL     1      58.270  29.686  51.975  1.00  0.00     0.243 C 
ATOM     32  H   UNL     1      57.540  29.730  49.959  1.00  0.00     0.164 HD
ATOM     33  O   UNL     1      59.129  29.202  52.761  1.00  0.00    -0.273 OA
BRANCH  31  34
ATOM     34  C   UNL     1      57.202  30.613  52.508  1.00  0.00     0.174 C 
ATOM     35  N   UNL     1      57.742  31.816  53.174  1.00  0.00    -0.329 N 
ATOM     36  C   UNL     1      56.250  29.878  53.468  1.00  0.00     0.035 C 
ATOM     37  C   UNL     1      56.722  32.782  53.602  1.00  0.00     0.120 C 
ATOM     38  C   UNL     1      55.150  30.830  53.963  1.00  0.00     0.004 C 
ATOM     39  C   UNL     1      55.744  32.108  54.574  1.00  0.00     0.022 C 
BRANCH  35  40
ATOM     40  C   UNL     1      58.969  31.766  53.930  1.00  0.00     0.246 CG0
ATOM     41  O   UNL     1      58.979  31.189  55.052  1.00  0.00    -0.272 OA
ATOM     42  G   UNL     1      60.245  32.405  53.418  1.00  0.00     0.000 G0
ENDBRANCH  35  40
ENDBRANCH  31  34
ENDBRANCH   2  30
ENDBRANCH   1   2
BRANCH   1  43
ATOM     43  C   UNL     1      57.957  26.328  50.094  1.00  0.00     0.003 C 
BRANCH  43  44
ATOM     44  C   UNL     1      57.216  25.776  51.326  1.00  0.00     0.001 C 
BRANCH  44  45
ATOM     45  C   UNL     1      55.777  26.310  51.447  1.00  0.00     0.008 C 
BRANCH  45  46
ATOM     46  C   UNL     1      54.995  26.313  50.121  1.00  0.00     0.075 C 
BRANCH  46  47
ATOM     47  C   UNL     1      54.183  27.567  49.921  1.00  0.00     0.132 C 
ATOM     48  O   UNL     1      53.133  27.508  49.295  1.00  0.00    -0.300 OA
BRANCH  47  49
ATOM     49  C   UNL     1      54.713  28.898  50.397  1.00  0.00     0.072 C 
ATOM     50  C   UNL     1      53.614  29.949  50.555  1.00  0.00     0.012 C 
ENDBRANCH  47  49
ENDBRANCH  46  47
ENDBRANCH  45  46
ENDBRANCH  44  45
ENDBRANCH  43  44
ENDBRANCH   1  43
TORSDOF 12
ENDMDL
MODEL 4
REMARK VINA RESULT:    -3.672      4.183     10.121
REMARK INTER + INTRA:         -10.479
REMARK INTER:                  -9.557
REMARK INTRA:                  -0.922
REMARK UNBOUND:                -2.727
REMARK SMILES CCC(=O)CCCCC[C@H]1NC(=O)[C@H]2CCCCN2C(=O)[C@H]([C@H](C)CC)NC(=O)[C@H](Cc2cn(OC)c3ccccc23)NC1=O
REMARK SMILES IDX 9 1 10 2 44 3 43 4 45 6 30 7 28 8 27 9 29 11 22 12 23 14
REMARK SMILES IDX 24 15 25 16 26 17 31 18 32 19 33 20 42 21 34 22 37 23 41 24
REMARK SMILES IDX 38 25 40 26 39 27 35 28 36 29 11 30 12 31 13 33 14 34 19 35
REMARK SMILES IDX 15 36 18 37 16 38 17 39 20 40 21 41 8 43 7 44 6 45 5 46 3 47
REMARK SMILES IDX 4 48 2 49 1 50
REMARK H PARENT 43 5 27 10 11 32
REMARK Flexibility Score: 80.00
ROOT
ATOM      1  C   UNL     1      60.349  22.850  50.588  1.00  0.00     0.035 C 
ENDROOT
BRANCH   1   2
ATOM      2  C   UNL     1      60.888  24.129  49.904  1.00  0.00     0.171 C 
BRANCH   2   3
ATOM      3  C   UNL     1      61.978  24.828  50.677  1.00  0.00     0.243 C 
ATOM      4  N   UNL     1      62.709  25.886  50.046  1.00  0.00    -0.342 N 
ATOM      5  H   UNL     1      62.569  26.044  49.022  1.00  0.00     0.164 HD
ATOM      6  O   UNL     1      62.189  24.547  51.890  1.00  0.00    -0.273 OA
BRANCH   4   7
ATOM      7  C   UNL     1      63.513  26.836  50.817  1.00  0.00     0.175 C 
BRANCH   7   8
ATOM      8  C   UNL     1      62.615  27.716  51.654  1.00  0.00     0.243 C 
ATOM      9  N   UNL     1      61.272  28.020  51.230  1.00  0.00    -0.342 N 
ATOM     10  H   UNL     1      60.950  27.689  50.292  1.00  0.00     0.164 HD
ATOM     11  O   UNL     1      63.070  28.203  52.724  1.00  0.00    -0.273 OA
BRANCH   9  12
ATOM     12  C   UNL     1      60.371  28.883  52.004  1.00  0.00     0.174 CG0
ATOM     13  G   UNL     1      58.973  28.295  51.984  1.00  0.00     0.000 G0
BRANCH  12  14
ATOM     14  C   UNL     1      60.406  30.347  51.479  1.00  0.00     0.018 C 
ATOM     15  C   UNL     1      61.421  30.494  50.331  1.00  0.00     0.010 C 
BRANCH  14  16
ATOM     16  C   UNL     1      60.750  31.332  52.627  1.00  0.00     0.002 C 
ATOM     17  C   UNL     1      59.538  31.695  53.489  1.00  0.00     0.004 C 
ENDBRANCH  14  16
ENDBRANCH  12  14
ENDBRANCH   9  12
ENDBRANCH   7   8
BRANCH   7  18
ATOM     18  C   UNL     1      64.391  27.680  49.874  1.00  0.00     0.073 C 
BRANCH  18  19
ATOM     19  C   UNL     1      65.613  26.928  49.426  1.00  0.00    -0.016 A 
ATOM     20  C   UNL     1      66.329  25.990  50.164  1.00  0.00     0.134 A 
ATOM     21  C   UNL     1      66.237  26.991  48.190  1.00  0.00     0.006 A 
ATOM     22  N   UNL     1      67.343  25.493  49.417  1.00  0.00    -0.191 N 
ATOM     23  C   UNL     1      67.283  26.104  48.222  1.00  0.00     0.087 A 
ATOM     24  C   UNL     1      65.962  27.759  47.057  1.00  0.00     0.011 A 
ATOM     25  C   UNL     1      68.124  25.920  47.124  1.00  0.00     0.030 A 
ATOM     26  C   UNL     1      66.794  27.595  45.936  1.00  0.00     0.001 A 
ATOM     27  C   UNL     1      67.868  26.678  45.969  1.00  0.00     0.002 A 
BRANCH  22  28
ATOM     28  O   UNL     1      68.277  24.543  49.788  1.00  0.00    -0.417 OA
ATOM     29  C   UNL     1      69.562  24.895  50.285  1.00  0.00     0.313 C 
ENDBRANCH  22  28
ENDBRANCH  18  19
ENDBRANCH   7  18
ENDBRANCH   4   7
ENDBRANCH   2   3
BRANCH   2  30
ATOM     30  N   UNL     1      59.797  25.071  49.636  1.00  0.00    -0.343 N 
ATOM     31  C   UNL     1      58.954  25.644  50.652  1.00  0.00     0.243 C 
ATOM     32  H   UNL     1      59.670  25.384  48.648  1.00  0.00     0.164 HD
ATOM     33  O   UNL     1      59.055  25.266  51.851  1.00  0.00    -0.273 OA
BRANCH  31  34
ATOM     34  C   UNL     1      57.920  26.680  50.276  1.00  0.00     0.174 C 
ATOM     35  N   UNL     1      58.263  28.046  50.722  1.00  0.00    -0.329 N 
ATOM     36  C   UNL     1      56.527  26.301  50.806  1.00  0.00     0.035 C 
ATOM     37  C   UNL     1      57.326  29.084  50.272  1.00  0.00     0.120 C 
ATOM     38  C   UNL     1      55.487  27.347  50.375  1.00  0.00     0.004 C 
ATOM     39  C   UNL     1      55.914  28.765  50.781  1.00  0.00     0.022 C 
BRANCH  35  40
ATOM     40  C   UNL     1      58.963  28.275  51.961  1.00  0.00     0.246 CG0
ATOM     41  O   UNL     1      58.400  27.980  53.052  1.00  0.00    -0.272 OA
ATOM     42  G   UNL     1      60.354  28.878  51.989  1.00  0.00     0.000 G0
ENDBRANCH  35  40
ENDBRANCH  31  34
ENDBRANCH   2  30
ENDBRANCH   1   2
BRANCH   1  43
ATOM     43  C   UNL     1      60.924  21.545  50.002  1.00  0.00     0.003 C 
BRANCH  43  44
ATOM     44  C   UNL     1      59.965  20.349  50.149  1.00  0.00     0.001 C 
BRANCH  44  45
ATOM     45  C   UNL     1      59.625  19.688  48.801  1.00  0.00     0.008 C 
BRANCH  45  46
ATOM     46  C   UNL     1      59.620  18.149  48.840  1.00  0.00     0.075 C 
BRANCH  46  47
ATOM     47  C   UNL     1      59.544  17.598  50.240  1.00  0.00     0.132 C 
ATOM     48  O   UNL     1      60.567  17.508  50.906  1.00  0.00    -0.300 OA
BRANCH  47  49
ATOM     49  C   UNL     1      58.237  17.064  50.775  1.00  0.00     0.072 C 
ATOM     50  C   UNL     1      57.116  18.104  50.739  1.00  0.00     0.012 C 
ENDBRANCH  47  49
ENDBRANCH  46  47
ENDBRANCH  45  46
ENDBRANCH  44  45
ENDBRANCH  43  44
ENDBRANCH   1  43
TORSDOF 12
ENDMDL
MODEL 5
REMARK VINA RESULT:    -3.671      6.415     11.660
REMARK INTER + INTRA:         -10.475
REMARK INTER:                  -8.560
REMARK INTRA:                  -1.915
REMARK UNBOUND:                -2.727
REMARK SMILES CCC(=O)CCCCC[C@H]1NC(=O)[C@H]2CCCCN2C(=O)[C@H]([C@H](C)CC)NC(=O)[C@H](Cc2cn(OC)c3ccccc23)NC1=O
REMARK SMILES IDX 9 1 10 2 44 3 43 4 45 6 30 7 28 8 27 9 29 11 22 12 23 14
REMARK SMILES IDX 24 15 25 16 26 17 31 18 32 19 33 20 42 21 34 22 37 23 41 24
REMARK SMILES IDX 38 25 40 26 39 27 35 28 36 29 11 30 12 31 13 33 14 34 19 35
REMARK SMILES IDX 15 36 18 37 16 38 17 39 20 40 21 41 8 43 7 44 6 45 5 46 3 47
REMARK SMILES IDX 4 48 2 49 1 50
REMARK H PARENT 43 5 27 10 11 32
REMARK Flexibility Score: 80.00
ROOT
ATOM      1  C   UNL     1      59.895  27.757  50.216  1.00  0.00     0.035 C 
ENDROOT
BRANCH   1   2
ATOM      2  C   UNL     1      60.047  29.247  49.825  1.00  0.00     0.171 C 
BRANCH   2   3
ATOM      3  C   UNL     1      61.393  29.838  50.163  1.00  0.00     0.243 C 
ATOM      4  N   UNL     1      61.743  31.121  49.629  1.00  0.00    -0.342 N 
ATOM      5  H   UNL     1      61.120  31.543  48.904  1.00  0.00     0.164 HD
ATOM      6  O   UNL     1      62.168  29.255  50.971  1.00  0.00    -0.273 OA
BRANCH   4   7
ATOM      7  C   UNL     1      62.846  31.911  50.179  1.00  0.00     0.175 C 
BRANCH   7   8
ATOM      8  C   UNL     1      62.508  32.369  51.578  1.00  0.00     0.243 C 
ATOM      9  N   UNL     1      61.160  32.735  51.933  1.00  0.00    -0.342 N 
ATOM     10  H   UNL     1      60.429  32.758  51.187  1.00  0.00     0.164 HD
ATOM     11  O   UNL     1      63.433  32.449  52.431  1.00  0.00    -0.273 OA
BRANCH   9  12
ATOM     12  C   UNL     1      60.790  33.199  53.276  1.00  0.00     0.174 CG0
ATOM     13  G   UNL     1      59.559  32.449  53.745  1.00  0.00     0.000 G0
BRANCH  12  14
ATOM     14  C   UNL     1      60.591  34.742  53.302  1.00  0.00     0.018 C 
ATOM     15  C   UNL     1      60.369  35.290  51.880  1.00  0.00     0.010 C 
BRANCH  14  16
ATOM     16  C   UNL     1      61.810  35.440  53.960  1.00  0.00     0.002 C 
ATOM     17  C   UNL     1      61.730  35.469  55.489  1.00  0.00     0.004 C 
ENDBRANCH  14  16
ENDBRANCH  12  14
ENDBRANCH   9  12
ENDBRANCH   7   8
BRANCH   7  18
ATOM     18  C   UNL     1      63.150  33.112  49.264  1.00  0.00     0.073 C 
BRANCH  18  19
ATOM     19  C   UNL     1      64.558  33.074  48.740  1.00  0.00    -0.016 A 
ATOM     20  C   UNL     1      65.490  32.059  48.939  1.00  0.00     0.134 A 
ATOM     21  C   UNL     1      65.186  34.010  47.934  1.00  0.00     0.006 A 
ATOM     22  N   UNL     1      66.637  32.354  48.281  1.00  0.00    -0.191 N 
ATOM     23  C   UNL     1      66.447  33.537  47.675  1.00  0.00     0.087 A 
ATOM     24  C   UNL     1      64.740  35.230  47.422  1.00  0.00     0.011 A 
ATOM     25  C   UNL     1      67.350  34.247  46.883  1.00  0.00     0.030 A 
ATOM     26  C   UNL     1      65.629  35.968  46.620  1.00  0.00     0.001 A 
ATOM     27  C   UNL     1      66.926  35.478  46.350  1.00  0.00     0.002 A 
BRANCH  22  28
ATOM     28  O   UNL     1      67.796  31.601  48.229  1.00  0.00    -0.417 OA
ATOM     29  C   UNL     1      67.788  30.216  47.902  1.00  0.00     0.313 C 
ENDBRANCH  22  28
ENDBRANCH  18  19
ENDBRANCH   7  18
ENDBRANCH   4   7
ENDBRANCH   2   3
BRANCH   2  30
ATOM     30  N   UNL     1      58.990  30.054  50.443  1.00  0.00    -0.343 N 
ATOM     31  C   UNL     1      58.850  30.257  51.861  1.00  0.00     0.243 C 
ATOM     32  H   UNL     1      58.338  30.557  49.801  1.00  0.00     0.164 HD
ATOM     33  O   UNL     1      59.598  29.641  52.669  1.00  0.00    -0.273 OA
BRANCH  31  34
ATOM     34  C   UNL     1      57.781  31.187  52.386  1.00  0.00     0.174 C 
ATOM     35  N   UNL     1      58.318  32.420  52.998  1.00  0.00    -0.329 N 
ATOM     36  C   UNL     1      56.861  30.473  53.392  1.00  0.00     0.035 C 
ATOM     37  C   UNL     1      57.293  33.386  53.416  1.00  0.00     0.120 C 
ATOM     38  C   UNL     1      55.758  31.426  53.878  1.00  0.00     0.004 C 
ATOM     39  C   UNL     1      56.347  32.732  54.432  1.00  0.00     0.022 C 
BRANCH  35  40
ATOM     40  C   UNL     1      59.561  32.412  53.727  1.00  0.00     0.246 CG0
ATOM     41  O   UNL     1      59.639  31.766  54.809  1.00  0.00    -0.272 OA
ATOM     42  G   UNL     1      60.775  33.177  53.237  1.00  0.00     0.000 G0
ENDBRANCH  35  40
ENDBRANCH  31  34
ENDBRANCH   2  30
ENDBRANCH   1   2
BRANCH   1  43
ATOM     43  C   UNL     1      58.888  26.987  49.339  1.00  0.00     0.003 C 
BRANCH  43  44
ATOM     44  C   UNL     1      58.014  26.011  50.148  1.00  0.00     0.001 C 
BRANCH  44  45
ATOM     45  C   UNL     1      56.987  26.730  51.042  1.00  0.00     0.008 C 
BRANCH  45  46
ATOM     46  C   UNL     1      56.335  27.960  50.386  1.00  0.00     0.075 C 
BRANCH  46  47
ATOM     47  C   UNL     1      54.926  28.202  50.863  1.00  0.00     0.132 C 
ATOM     48  O   UNL     1      54.236  27.251  51.205  1.00  0.00    -0.300 OA
BRANCH  47  49
ATOM     49  C   UNL     1      54.339  29.593  50.820  1.00  0.00     0.072 C 
ATOM     50  C   UNL     1      52.876  29.603  50.379  1.00  0.00     0.012 C 
ENDBRANCH  47  49
ENDBRANCH  46  47
ENDBRANCH  45  46
ENDBRANCH  44  45
ENDBRANCH  43  44
ENDBRANCH   1  43
TORSDOF 12
ENDMDL
MODEL 6
REMARK VINA RESULT:    -3.606      3.572      8.550
REMARK INTER + INTRA:         -10.338
REMARK INTER:                  -8.815
REMARK INTRA:                  -1.523
REMARK UNBOUND:                -2.727
REMARK SMILES CCC(=O)CCCCC[C@H]1NC(=O)[C@H]2CCCCN2C(=O)[C@H]([C@H](C)CC)NC(=O)[C@H](Cc2cn(OC)c3ccccc23)NC1=O
REMARK SMILES IDX 9 1 10 2 44 3 43 4 45 6 30 7 28 8 27 9 29 11 22 12 23 14
REMARK SMILES IDX 24 15 25 16 26 17 31 18 32 19 33 20 42 21 34 22 37 23 41 24
REMARK SMILES IDX 38 25 40 26 39 27 35 28 36 29 11 30 12 31 13 33 14 34 19 35
REMARK SMILES IDX 15 36 18 37 16 38 17 39 20 40 21 41 8 43 7 44 6 45 5 46 3 47
REMARK SMILES IDX 4 48 2 49 1 50
REMARK H PARENT 43 5 27 10 11 32
REMARK Flexibility Score: 80.00
ROOT
ATOM      1  C   UNL     1      58.421  27.217  50.760  1.00  0.00     0.035 C 
ENDROOT
BRANCH   1   2
ATOM      2  C   UNL     1      59.406  26.357  49.932  1.00  0.00     0.171 C 
BRANCH   2   3
ATOM      3  C   UNL     1      59.427  24.900  50.321  1.00  0.00     0.243 C 
ATOM      4  N   UNL     1      60.305  24.008  49.624  1.00  0.00    -0.342 N 
ATOM      5  H   UNL     1      60.796  24.359  48.770  1.00  0.00     0.164 HD
ATOM      6  O   UNL     1      58.747  24.484  51.300  1.00  0.00    -0.273 OA
BRANCH   4   7
ATOM      7  C   UNL     1      60.647  22.688  50.158  1.00  0.00     0.175 C 
BRANCH   7   8
ATOM      8  C   UNL     1      61.506  22.836  51.392  1.00  0.00     0.243 C 
ATOM      9  N   UNL     1      62.499  23.876  51.484  1.00  0.00    -0.342 N 
ATOM     10  H   UNL     1      62.676  24.482  50.651  1.00  0.00     0.164 HD
ATOM     11  O   UNL     1      61.357  22.015  52.337  1.00  0.00    -0.273 OA
BRANCH   9  12
ATOM     12  C   UNL     1      63.365  24.046  52.658  1.00  0.00     0.174 CG0
ATOM     13  G   UNL     1      63.709  25.514  52.819  1.00  0.00     0.000 G0
BRANCH  12  14
ATOM     14  C   UNL     1      64.631  23.148  52.557  1.00  0.00     0.018 C 
ATOM     15  C   UNL     1      64.735  22.501  51.164  1.00  0.00     0.010 C 
BRANCH  14  16
ATOM     16  C   UNL     1      64.614  22.053  53.656  1.00  0.00     0.002 C 
ATOM     17  C   UNL     1      63.703  22.404  54.836  1.00  0.00     0.004 C 
ENDBRANCH  14  16
ENDBRANCH  12  14
ENDBRANCH   9  12
ENDBRANCH   7   8
BRANCH   7  18
ATOM     18  C   UNL     1      61.364  21.848  49.084  1.00  0.00     0.073 C 
BRANCH  18  19
ATOM     19  C   UNL     1      61.024  20.388  49.198  1.00  0.00    -0.016 A 
ATOM     20  C   UNL     1      59.900  19.754  48.678  1.00  0.00     0.134 A 
ATOM     21  C   UNL     1      61.773  19.391  49.803  1.00  0.00     0.006 A 
ATOM     22  N   UNL     1      59.956  18.427  48.943  1.00  0.00    -0.191 N 
ATOM     23  C   UNL     1      61.092  18.213  49.626  1.00  0.00     0.087 A 
ATOM     24  C   UNL     1      62.988  19.439  50.489  1.00  0.00     0.011 A 
ATOM     25  C   UNL     1      61.579  17.002  50.119  1.00  0.00     0.030 A 
ATOM     26  C   UNL     1      63.502  18.234  50.998  1.00  0.00     0.001 A 
ATOM     27  C   UNL     1      62.802  17.021  50.811  1.00  0.00     0.002 A 
BRANCH  22  28
ATOM     28  O   UNL     1      59.033  17.458  48.594  1.00  0.00    -0.417 OA
ATOM     29  C   UNL     1      57.819  17.271  49.311  1.00  0.00     0.313 C 
ENDBRANCH  22  28
ENDBRANCH  18  19
ENDBRANCH   7  18
ENDBRANCH   4   7
ENDBRANCH   2   3
BRANCH   2  30
ATOM     30  N   UNL     1      60.764  26.904  50.014  1.00  0.00    -0.343 N 
ATOM     31  C   UNL     1      61.607  26.810  51.178  1.00  0.00     0.243 C 
ATOM     32  H   UNL     1      61.158  27.335  49.148  1.00  0.00     0.164 HD
ATOM     33  O   UNL     1      61.157  26.327  52.252  1.00  0.00    -0.273 OA
BRANCH  31  34
ATOM     34  C   UNL     1      63.027  27.325  51.122  1.00  0.00     0.174 C 
ATOM     35  N   UNL     1      64.019  26.383  51.681  1.00  0.00    -0.329 N 
ATOM     36  C   UNL     1      63.158  28.687  51.825  1.00  0.00     0.035 C 
ATOM     37  C   UNL     1      65.415  26.817  51.538  1.00  0.00     0.120 C 
ATOM     38  C   UNL     1      64.600  29.207  51.718  1.00  0.00     0.004 C 
ATOM     39  C   UNL     1      65.612  28.171  52.231  1.00  0.00     0.022 C 
BRANCH  35  40
ATOM     40  C   UNL     1      63.697  25.538  52.803  1.00  0.00     0.246 CG0
ATOM     41  O   UNL     1      63.716  26.024  53.968  1.00  0.00    -0.272 OA
ATOM     42  G   UNL     1      63.354  24.072  52.622  1.00  0.00     0.000 G0
ENDBRANCH  35  40
ENDBRANCH  31  34
ENDBRANCH   2  30
ENDBRANCH   1   2
BRANCH   1  43
ATOM     43  C   UNL     1      58.425  28.709  50.370  1.00  0.00     0.003 C 
BRANCH  43  44
ATOM     44  C   UNL     1      57.502  29.562  51.260  1.00  0.00     0.001 C 
BRANCH  44  45
ATOM     45  C   UNL     1      56.071  29.674  50.700  1.00  0.00     0.008 C 
BRANCH  45  46
ATOM     46  C   UNL     1      55.097  28.617  51.251  1.00  0.00     0.075 C 
BRANCH  46  47
ATOM     47  C   UNL     1      53.974  28.300  50.298  1.00  0.00     0.132 C 
ATOM     48  O   UNL     1      53.138  29.160  50.047  1.00  0.00    -0.300 OA
BRANCH  47  49
ATOM     49  C   UNL     1      53.824  26.905  49.739  1.00  0.00     0.072 C 
ATOM     50  C   UNL     1      55.158  26.168  49.624  1.00  0.00     0.012 C 
ENDBRANCH  47  49
ENDBRANCH  46  47
ENDBRANCH  45  46
ENDBRANCH  44  45
ENDBRANCH  43  44
ENDBRANCH   1  43
TORSDOF 12
ENDMDL
MODEL 7
REMARK VINA RESULT:    -3.463      2.809      7.809
REMARK INTER + INTRA:         -10.037
REMARK INTER:                  -8.396
REMARK INTRA:                  -1.640
REMARK UNBOUND:                -2.727
REMARK SMILES CCC(=O)CCCCC[C@H]1NC(=O)[C@H]2CCCCN2C(=O)[C@H]([C@H](C)CC)NC(=O)[C@H](Cc2cn(OC)c3ccccc23)NC1=O
REMARK SMILES IDX 9 1 10 2 44 3 43 4 45 6 30 7 28 8 27 9 29 11 22 12 23 14
REMARK SMILES IDX 24 15 25 16 26 17 31 18 32 19 33 20 42 21 34 22 37 23 41 24
REMARK SMILES IDX 38 25 40 26 39 27 35 28 36 29 11 30 12 31 13 33 14 34 19 35
REMARK SMILES IDX 15 36 18 37 16 38 17 39 20 40 21 41 8 43 7 44 6 45 5 46 3 47
REMARK SMILES IDX 4 48 2 49 1 50
REMARK H PARENT 43 5 27 10 11 32
REMARK Flexibility Score: 80.00
ROOT
ATOM      1  C   UNL     1      57.536  26.754  50.386  1.00  0.00     0.035 C 
ENDROOT
BRANCH   1   2
ATOM      2  C   UNL     1      58.492  25.558  50.162  1.00  0.00     0.171 C 
BRANCH   2   3
ATOM      3  C   UNL     1      58.740  24.728  51.397  1.00  0.00     0.243 C 
ATOM      4  N   UNL     1      59.504  23.522  51.281  1.00  0.00    -0.342 N 
ATOM      5  H   UNL     1      59.742  23.174  50.325  1.00  0.00     0.164 HD
ATOM      6  O   UNL     1      58.356  25.129  52.530  1.00  0.00    -0.273 OA
BRANCH   4   7
ATOM      7  C   UNL     1      60.085  22.861  52.452  1.00  0.00     0.175 C 
BRANCH   7   8
ATOM      8  C   UNL     1      61.206  23.700  53.018  1.00  0.00     0.243 C 
ATOM      9  N   UNL     1      62.001  24.547  52.164  1.00  0.00    -0.342 N 
ATOM     10  H   UNL     1      61.846  24.513  51.131  1.00  0.00     0.164 HD
ATOM     11  O   UNL     1      61.453  23.630  54.252  1.00  0.00    -0.273 OA
BRANCH   9  12
ATOM     12  C   UNL     1      63.110  25.367  52.669  1.00  0.00     0.174 CG0
ATOM     13  G   UNL     1      63.138  26.687  51.922  1.00  0.00     0.000 G0
BRANCH  12  14
ATOM     14  C   UNL     1      64.462  24.603  52.575  1.00  0.00     0.018 C 
ATOM     15  C   UNL     1      64.279  23.249  51.867  1.00  0.00     0.010 C 
BRANCH  14  16
ATOM     16  C   UNL     1      65.069  24.391  53.988  1.00  0.00     0.002 C 
ATOM     17  C   UNL     1      64.403  25.256  55.062  1.00  0.00     0.004 C 
ENDBRANCH  14  16
ENDBRANCH  12  14
ENDBRANCH   9  12
ENDBRANCH   7   8
BRANCH   7  18
ATOM     18  C   UNL     1      60.584  21.453  52.077  1.00  0.00     0.073 C 
BRANCH  18  19
ATOM     19  C   UNL     1      59.446  20.517  51.778  1.00  0.00    -0.016 A 
ATOM     20  C   UNL     1      58.218  20.470  52.429  1.00  0.00     0.134 A 
ATOM     21  C   UNL     1      59.382  19.556  50.782  1.00  0.00     0.006 A 
ATOM     22  N   UNL     1      57.430  19.528  51.858  1.00  0.00    -0.191 N 
ATOM     23  C   UNL     1      58.142  18.977  50.861  1.00  0.00     0.087 A 
ATOM     24  C   UNL     1      60.319  19.156  49.827  1.00  0.00     0.011 A 
ATOM     25  C   UNL     1      57.748  17.960  49.990  1.00  0.00     0.030 A 
ATOM     26  C   UNL     1      59.950  18.132  48.936  1.00  0.00     0.001 A 
ATOM     27  C   UNL     1      58.671  17.539  49.016  1.00  0.00     0.002 A 
BRANCH  22  28
ATOM     28  O   UNL     1      56.141  19.177  52.214  1.00  0.00    -0.417 OA
ATOM     29  C   UNL     1      55.019  19.468  51.389  1.00  0.00     0.313 C 
ENDBRANCH  22  28
ENDBRANCH  18  19
ENDBRANCH   7  18
ENDBRANCH   4   7
ENDBRANCH   2   3
BRANCH   2  30
ATOM     30  N   UNL     1      59.774  26.016  49.616  1.00  0.00    -0.343 N 
ATOM     31  C   UNL     1      60.670  26.914  50.297  1.00  0.00     0.243 C 
ATOM     32  H   UNL     1      60.073  25.614  48.700  1.00  0.00     0.164 HD
ATOM     33  O   UNL     1      60.329  27.446  51.389  1.00  0.00    -0.273 OA
BRANCH  31  34
ATOM     34  C   UNL     1      62.011  27.246  49.685  1.00  0.00     0.174 C 
ATOM     35  N   UNL     1      63.159  26.738  50.465  1.00  0.00    -0.329 N 
ATOM     36  C   UNL     1      62.168  28.762  49.468  1.00  0.00     0.035 C 
ATOM     37  C   UNL     1      64.466  26.956  49.831  1.00  0.00     0.120 C 
ATOM     38  C   UNL     1      63.521  29.069  48.807  1.00  0.00     0.004 C 
ATOM     39  C   UNL     1      64.686  28.456  49.597  1.00  0.00     0.022 C 
BRANCH  35  40
ATOM     40  C   UNL     1      63.118  26.682  51.904  1.00  0.00     0.246 CG0
ATOM     41  O   UNL     1      63.128  27.757  52.565  1.00  0.00    -0.272 OA
ATOM     42  G   UNL     1      63.083  25.361  52.648  1.00  0.00     0.000 G0
ENDBRANCH  35  40
ENDBRANCH  31  34
ENDBRANCH   2  30
ENDBRANCH   1   2
BRANCH   1  43
ATOM     43  C   UNL     1      56.070  26.338  50.621  1.00  0.00     0.003 C 
BRANCH  43  44
ATOM     44  C   UNL     1      55.071  27.181  49.807  1.00  0.00     0.001 C 
BRANCH  44  45
ATOM     45  C   UNL     1      54.108  27.989  50.697  1.00  0.00     0.008 C 
BRANCH  45  46
ATOM     46  C   UNL     1      54.645  28.267  52.112  1.00  0.00     0.075 C 
BRANCH  46  47
ATOM     47  C   UNL     1      55.260  29.636  52.249  1.00  0.00     0.132 C 
ATOM     48  O   UNL     1      54.654  30.612  51.825  1.00  0.00    -0.300 OA
BRANCH  47  49
ATOM     49  C   UNL     1      56.655  29.789  52.808  1.00  0.00     0.072 C 
ATOM     50  C   UNL     1      57.706  30.010  51.720  1.00  0.00     0.012 C 
ENDBRANCH  47  49
ENDBRANCH  46  47
ENDBRANCH  45  46
ENDBRANCH  44  45
ENDBRANCH  43  44
ENDBRANCH   1  43
TORSDOF 12
ENDMDL
MODEL 8
REMARK VINA RESULT:    -3.328      9.024     11.945
REMARK INTER + INTRA:          -9.751
REMARK INTER:                  -7.755
REMARK INTRA:                  -1.996
REMARK UNBOUND:                -2.727
REMARK SMILES CCC(=O)CCCCC[C@H]1NC(=O)[C@H]2CCCCN2C(=O)[C@H]([C@H](C)CC)NC(=O)[C@H](Cc2cn(OC)c3ccccc23)NC1=O
REMARK SMILES IDX 9 1 10 2 44 3 43 4 45 6 30 7 28 8 27 9 29 11 22 12 23 14
REMARK SMILES IDX 24 15 25 16 26 17 31 18 32 19 33 20 42 21 34 22 37 23 41 24
REMARK SMILES IDX 38 25 40 26 39 27 35 28 36 29 11 30 12 31 13 33 14 34 19 35
REMARK SMILES IDX 15 36 18 37 16 38 17 39 20 40 21 41 8 43 7 44 6 45 5 46 3 47
REMARK SMILES IDX 4 48 2 49 1 50
REMARK H PARENT 43 5 27 10 11 32
REMARK Flexibility Score: 80.00
ROOT
ATOM      1  C   UNL     1      63.359  29.831  59.671  1.00  0.00     0.035 C 
ENDROOT
BRANCH   1   2
ATOM      2  C   UNL     1      62.355  29.407  60.770  1.00  0.00     0.171 C 
BRANCH   2   3
ATOM      3  C   UNL     1      62.437  27.949  61.150  1.00  0.00     0.243 C 
ATOM      4  N   UNL     1      61.643  27.470  62.241  1.00  0.00    -0.342 N 
ATOM      5  H   UNL     1      61.143  28.169  62.837  1.00  0.00     0.164 HD
ATOM      6  O   UNL     1      63.127  27.143  60.466  1.00  0.00    -0.273 OA
BRANCH   4   7
ATOM      7  C   UNL     1      61.391  26.042  62.444  1.00  0.00     0.175 C 
BRANCH   7   8
ATOM      8  C   UNL     1      60.510  25.509  61.338  1.00  0.00     0.243 C 
ATOM      9  N   UNL     1      59.399  26.280  60.840  1.00  0.00    -0.342 N 
ATOM     10  H   UNL     1      59.159  27.183  61.308  1.00  0.00     0.164 HD
ATOM     11  O   UNL     1      60.747  24.362  60.872  1.00  0.00    -0.273 OA
BRANCH   9  12
ATOM     12  C   UNL     1      58.508  25.796  59.778  1.00  0.00     0.174 CG0
ATOM     13  G   UNL     1      58.294  26.898  58.760  1.00  0.00     0.000 G0
BRANCH  12  14
ATOM     14  C   UNL     1      57.170  25.264  60.367  1.00  0.00     0.018 C 
ATOM     15  C   UNL     1      56.911  25.857  61.764  1.00  0.00     0.010 C 
BRANCH  14  16
ATOM     16  C   UNL     1      57.181  23.714  60.437  1.00  0.00     0.002 C 
ATOM     17  C   UNL     1      57.909  23.066  59.256  1.00  0.00     0.004 C 
ENDBRANCH  14  16
ENDBRANCH  12  14
ENDBRANCH   9  12
ENDBRANCH   7   8
BRANCH   7  18
ATOM     18  C   UNL     1      60.750  25.804  63.824  1.00  0.00     0.073 C 
BRANCH  18  19
ATOM     19  C   UNL     1      60.948  24.390  64.296  1.00  0.00    -0.016 A 
ATOM     20  C   UNL     1      62.106  23.855  64.851  1.00  0.00     0.134 A 
ATOM     21  C   UNL     1      60.016  23.365  64.307  1.00  0.00     0.006 A 
ATOM     22  N   UNL     1      61.897  22.561  65.195  1.00  0.00    -0.191 N 
ATOM     23  C   UNL     1      60.628  22.270  64.862  1.00  0.00     0.087 A 
ATOM     24  C   UNL     1      58.691  23.321  63.871  1.00  0.00     0.011 A 
ATOM     25  C   UNL     1      59.960  21.056  65.023  1.00  0.00     0.030 A 
ATOM     26  C   UNL     1      57.991  22.110  64.020  1.00  0.00     0.001 A 
ATOM     27  C   UNL     1      58.622  20.985  64.595  1.00  0.00     0.002 A 
BRANCH  22  28
ATOM     28  O   UNL     1      62.797  21.686  65.774  1.00  0.00    -0.417 OA
ATOM     29  C   UNL     1      64.201  21.912  65.745  1.00  0.00     0.313 C 
ENDBRANCH  22  28
ENDBRANCH  18  19
ENDBRANCH   7  18
ENDBRANCH   4   7
ENDBRANCH   2   3
BRANCH   2  30
ATOM     30  N   UNL     1      60.983  29.731  60.369  1.00  0.00    -0.343 N 
ATOM     31  C   UNL     1      60.261  29.048  59.327  1.00  0.00     0.243 C 
ATOM     32  H   UNL     1      60.485  30.465  60.920  1.00  0.00     0.164 HD
ATOM     33  O   UNL     1      60.837  28.179  58.617  1.00  0.00    -0.273 OA
BRANCH  31  34
ATOM     34  C   UNL     1      58.816  29.399  59.058  1.00  0.00     0.174 C 
ATOM     35  N   UNL     1      57.899  28.245  59.163  1.00  0.00    -0.329 N 
ATOM     36  C   UNL     1      58.646  30.067  57.683  1.00  0.00     0.035 C 
ATOM     37  C   UNL     1      56.477  28.585  59.013  1.00  0.00     0.120 C 
ATOM     38  C   UNL     1      57.176  30.452  57.453  1.00  0.00     0.004 C 
ATOM     39  C   UNL     1      56.242  29.249  57.650  1.00  0.00     0.022 C 
BRANCH  35  40
ATOM     40  C   UNL     1      58.312  26.923  58.764  1.00  0.00     0.246 CG0
ATOM     41  O   UNL     1      58.494  26.677  57.540  1.00  0.00    -0.272 OA
ATOM     42  G   UNL     1      58.516  25.814  59.777  1.00  0.00     0.000 G0
ENDBRANCH  35  40
ENDBRANCH  31  34
ENDBRANCH   2  30
ENDBRANCH   1   2
BRANCH   1  43
ATOM     43  C   UNL     1      64.546  30.658  60.205  1.00  0.00     0.003 C 
BRANCH  43  44
ATOM     44  C   UNL     1      64.713  32.003  59.474  1.00  0.00     0.001 C 
BRANCH  44  45
ATOM     45  C   UNL     1      63.788  33.102  60.029  1.00  0.00     0.008 C 
BRANCH  45  46
ATOM     46  C   UNL     1      64.500  34.435  60.319  1.00  0.00     0.075 C 
BRANCH  46  47
ATOM     47  C   UNL     1      63.560  35.613  60.329  1.00  0.00     0.132 C 
ATOM     48  O   UNL     1      63.075  35.985  61.390  1.00  0.00    -0.300 OA
BRANCH  47  49
ATOM     49  C   UNL     1      63.141  36.261  59.031  1.00  0.00     0.072 C 
ATOM     50  C   UNL     1      64.318  36.507  58.087  1.00  0.00     0.012 C 
ENDBRANCH  47  49
ENDBRANCH  46  47
ENDBRANCH  45  46
ENDBRANCH  44  45
ENDBRANCH  43  44
ENDBRANCH   1  43
TORSDOF 12
ENDMDL
MODEL 9
REMARK VINA RESULT:    -3.295      3.599      9.083
REMARK INTER + INTRA:          -9.682
REMARK INTER:                  -8.156
REMARK INTRA:                  -1.527
REMARK UNBOUND:                -2.727
REMARK SMILES CCC(=O)CCCCC[C@H]1NC(=O)[C@H]2CCCCN2C(=O)[C@H]([C@H](C)CC)NC(=O)[C@H](Cc2cn(OC)c3ccccc23)NC1=O
REMARK SMILES IDX 9 1 10 2 44 3 43 4 45 6 30 7 28 8 27 9 29 11 22 12 23 14
REMARK SMILES IDX 24 15 25 16 26 17 31 18 32 19 33 20 42 21 34 22 37 23 41 24
REMARK SMILES IDX 38 25 40 26 39 27 35 28 36 29 11 30 12 31 13 33 14 34 19 35
REMARK SMILES IDX 15 36 18 37 16 38 17 39 20 40 21 41 8 43 7 44 6 45 5 46 3 47
REMARK SMILES IDX 4 48 2 49 1 50
REMARK H PARENT 43 5 27 10 11 32
REMARK Flexibility Score: 80.00
ROOT
ATOM      1  C   UNL     1      60.049  23.318  50.604  1.00  0.00     0.035 C 
ENDROOT
BRANCH   1   2
ATOM      2  C   UNL     1      60.418  24.781  50.258  1.00  0.00     0.171 C 
BRANCH   2   3
ATOM      3  C   UNL     1      61.113  25.520  51.374  1.00  0.00     0.243 C 
ATOM      4  N   UNL     1      61.608  26.842  51.129  1.00  0.00    -0.342 N 
ATOM      5  H   UNL     1      61.606  27.199  50.146  1.00  0.00     0.164 HD
ATOM      6  O   UNL     1      61.185  25.021  52.531  1.00  0.00    -0.273 OA
BRANCH   4   7
ATOM      7  C   UNL     1      61.963  27.749  52.223  1.00  0.00     0.175 C 
BRANCH   7   8
ATOM      8  C   UNL     1      60.718  28.191  52.954  1.00  0.00     0.243 C 
ATOM      9  N   UNL     1      59.469  28.359  52.256  1.00  0.00    -0.342 N 
ATOM     10  H   UNL     1      59.451  28.250  51.217  1.00  0.00     0.164 HD
ATOM     11  O   UNL     1      60.794  28.435  54.189  1.00  0.00    -0.273 OA
BRANCH   9  12
ATOM     12  C   UNL     1      58.239  28.802  52.925  1.00  0.00     0.174 CG0
ATOM     13  G   UNL     1      57.062  28.015  52.382  1.00  0.00     0.000 G0
BRANCH  12  14
ATOM     14  C   UNL     1      58.042  30.338  52.780  1.00  0.00     0.018 C 
ATOM     15  C   UNL     1      59.323  31.008  52.250  1.00  0.00     0.010 C 
BRANCH  14  16
ATOM     16  C   UNL     1      57.632  30.967  54.139  1.00  0.00     0.002 C 
ATOM     17  C   UNL     1      56.261  31.646  54.095  1.00  0.00     0.004 C 
ENDBRANCH  14  16
ENDBRANCH  12  14
ENDBRANCH   9  12
ENDBRANCH   7   8
BRANCH   7  18
ATOM     18  C   UNL     1      62.744  28.960  51.679  1.00  0.00     0.073 C 
BRANCH  18  19
ATOM     19  C   UNL     1      64.066  28.555  51.088  1.00  0.00    -0.016 A 
ATOM     20  C   UNL     1      65.162  28.045  51.778  1.00  0.00     0.134 A 
ATOM     21  C   UNL     1      64.435  28.572  49.753  1.00  0.00     0.006 A 
ATOM     22  N   UNL     1      66.158  27.755  50.908  1.00  0.00    -0.191 N 
ATOM     23  C   UNL     1      65.713  28.077  49.683  1.00  0.00     0.087 A 
ATOM     24  C   UNL     1      63.745  28.985  48.612  1.00  0.00     0.011 A 
ATOM     25  C   UNL     1      66.389  27.958  48.468  1.00  0.00     0.030 A 
ATOM     26  C   UNL     1      64.402  28.877  47.373  1.00  0.00     0.001 A 
ATOM     27  C   UNL     1      65.716  28.363  47.302  1.00  0.00     0.002 A 
BRANCH  22  28
ATOM     28  O   UNL     1      67.405  27.232  51.198  1.00  0.00    -0.417 OA
ATOM     29  C   UNL     1      67.770  25.902  50.849  1.00  0.00     0.313 C 
ENDBRANCH  22  28
ENDBRANCH  18  19
ENDBRANCH   7  18
ENDBRANCH   4   7
ENDBRANCH   2   3
BRANCH   2  30
ATOM     30  N   UNL     1      59.229  25.530  49.843  1.00  0.00    -0.343 N 
ATOM     31  C   UNL     1      58.106  25.808  50.700  1.00  0.00     0.243 C 
ATOM     32  H   UNL     1      59.231  25.933  48.879  1.00  0.00     0.164 HD
ATOM     33  O   UNL     1      58.050  25.310  51.858  1.00  0.00    -0.273 OA
BRANCH  31  34
ATOM     34  C   UNL     1      56.972  26.672  50.198  1.00  0.00     0.174 C 
ATOM     35  N   UNL     1      56.814  27.934  50.950  1.00  0.00    -0.329 N 
ATOM     36  C   UNL     1      55.639  25.904  50.197  1.00  0.00     0.035 C 
ATOM     37  C   UNL     1      55.789  28.837  50.410  1.00  0.00     0.120 C 
ATOM     38  C   UNL     1      54.512  26.790  49.644  1.00  0.00     0.004 C 
ATOM     39  C   UNL     1      54.428  28.128  50.393  1.00  0.00     0.022 C 
BRANCH  35  40
ATOM     40  C   UNL     1      57.079  27.999  52.365  1.00  0.00     0.246 CG0
ATOM     41  O   UNL     1      56.307  27.403  53.166  1.00  0.00    -0.272 OA
ATOM     42  G   UNL     1      58.252  28.784  52.919  1.00  0.00     0.000 G0
ENDBRANCH  35  40
ENDBRANCH  31  34
ENDBRANCH   2  30
ENDBRANCH   1   2
BRANCH   1  43
ATOM     43  C   UNL     1      61.101  22.289  50.143  1.00  0.00     0.003 C 
BRANCH  43  44
ATOM     44  C   UNL     1      60.662  21.506  48.892  1.00  0.00     0.001 C 
BRANCH  44  45
ATOM     45  C   UNL     1      61.011  20.008  48.973  1.00  0.00     0.008 C 
BRANCH  45  46
ATOM     46  C   UNL     1      61.495  19.551  50.360  1.00  0.00     0.075 C 
BRANCH  46  47
ATOM     47  C   UNL     1      60.497  18.674  51.071  1.00  0.00     0.132 C 
ATOM     48  O   UNL     1      60.741  17.484  51.221  1.00  0.00    -0.300 OA
BRANCH  47  49
ATOM     49  C   UNL     1      59.164  19.238  51.502  1.00  0.00     0.072 C 
ATOM     50  C   UNL     1      59.298  20.309  52.584  1.00  0.00     0.012 C 
ENDBRANCH  47  49
ENDBRANCH  46  47
ENDBRANCH  45  46
ENDBRANCH  44  45
ENDBRANCH  43  44
ENDBRANCH   1  43
TORSDOF 12
ENDMDL
