MODEL 1
REMARK VINA RESULT:    -5.430      0.000      0.000
REMARK INTER + INTRA:          -5.430
REMARK INTER:                  -5.430
REMARK INTRA:                   0.000
REMARK UNBOUND:                 0.000
REMARK SMILES O=c1ccc2ccccc2o1
REMARK SMILES IDX 7 1 8 2 9 3 10 4 5 5 6 6 4 7 3 8 2 9 1 10 11 11
REMARK H PARENT
REMARK Flexibility Score: inf
ROOT
ATOM      1  C   UNL     1     -40.482  -8.860 -14.114  1.00  0.00     0.001 A 
ATOM      2  C   UNL     1     -40.907  -7.579 -13.747  1.00  0.00     0.004 A 
ATOM      3  C   UNL     1     -39.973  -6.554 -13.564  1.00  0.00     0.048 A 
ATOM      4  C   UNL     1     -38.609  -6.807 -13.749  1.00  0.00     0.138 A 
ATOM      5  C   UNL     1     -38.180  -8.102 -14.120  1.00  0.00     0.018 A 
ATOM      6  C   UNL     1     -39.121  -9.125 -14.301  1.00  0.00     0.012 A 
ATOM      7  C   UNL     1     -36.811  -8.324 -14.297  1.00  0.00     0.019 A 
ATOM      8  C   UNL     1     -35.916  -7.273 -14.104  1.00  0.00     0.094 A 
ATOM      9  C   UNL     1     -36.414  -6.018 -13.737  1.00  0.00     0.336 A 
ATOM     10  O   UNL     1     -35.621  -5.056 -13.558  1.00  0.00    -0.246 OA
ATOM     11  O   UNL     1     -37.721  -5.832 -13.575  1.00  0.00    -0.423 OA
ENDROOT
TORSDOF 0
ENDMDL
MODEL 2
REMARK VINA RESULT:    -5.383      1.374      3.236
REMARK INTER + INTRA:          -5.383
REMARK INTER:                  -5.383
REMARK INTRA:                   0.000
REMARK UNBOUND:                 0.000
REMARK SMILES O=c1ccc2ccccc2o1
REMARK SMILES IDX 7 1 8 2 9 3 10 4 5 5 6 6 4 7 3 8 2 9 1 10 11 11
REMARK H PARENT
REMARK Flexibility Score: inf
ROOT
ATOM      1  C   UNL     1     -36.979  -8.758 -15.621  1.00  0.00     0.001 A 
ATOM      2  C   UNL     1     -36.173  -7.615 -15.587  1.00  0.00     0.004 A 
ATOM      3  C   UNL     1     -36.573  -6.493 -14.855  1.00  0.00     0.048 A 
ATOM      4  C   UNL     1     -37.782  -6.510 -14.151  1.00  0.00     0.138 A 
ATOM      5  C   UNL     1     -38.597  -7.665 -14.184  1.00  0.00     0.018 A 
ATOM      6  C   UNL     1     -38.190  -8.786 -14.921  1.00  0.00     0.012 A 
ATOM      7  C   UNL     1     -39.799  -7.652 -13.471  1.00  0.00     0.019 A 
ATOM      8  C   UNL     1     -40.159  -6.512 -12.754  1.00  0.00     0.094 A 
ATOM      9  C   UNL     1     -39.302  -5.406 -12.767  1.00  0.00     0.336 A 
ATOM     10  O   UNL     1     -39.609  -4.366 -12.126  1.00  0.00    -0.246 OA
ATOM     11  O   UNL     1     -38.162  -5.443 -13.453  1.00  0.00    -0.423 OA
ENDROOT
TORSDOF 0
ENDMDL
MODEL 3
REMARK VINA RESULT:    -5.211      1.820      3.122
REMARK INTER + INTRA:          -5.211
REMARK INTER:                  -5.211
REMARK INTRA:                   0.000
REMARK UNBOUND:                 0.000
REMARK SMILES O=c1ccc2ccccc2o1
REMARK SMILES IDX 7 1 8 2 9 3 10 4 5 5 6 6 4 7 3 8 2 9 1 10 11 11
REMARK H PARENT
REMARK Flexibility Score: inf
ROOT
ATOM      1  C   UNL     1     -39.751  -4.954 -12.351  1.00  0.00     0.001 A 
ATOM      2  C   UNL     1     -38.529  -4.399 -12.747  1.00  0.00     0.004 A 
ATOM      3  C   UNL     1     -37.609  -5.166 -13.470  1.00  0.00     0.048 A 
ATOM      4  C   UNL     1     -37.910  -6.492 -13.802  1.00  0.00     0.138 A 
ATOM      5  C   UNL     1     -39.144  -7.052 -13.402  1.00  0.00     0.018 A 
ATOM      6  C   UNL     1     -40.061  -6.279 -12.677  1.00  0.00     0.012 A 
ATOM      7  C   UNL     1     -39.416  -8.379 -13.748  1.00  0.00     0.019 A 
ATOM      8  C   UNL     1     -38.470  -9.106 -14.470  1.00  0.00     0.094 A 
ATOM      9  C   UNL     1     -37.270  -8.485 -14.831  1.00  0.00     0.336 A 
ATOM     10  O   UNL     1     -36.403  -9.125 -15.484  1.00  0.00    -0.246 OA
ATOM     11  O   UNL     1     -37.035  -7.220 -14.491  1.00  0.00    -0.423 OA
ENDROOT
TORSDOF 0
ENDMDL
MODEL 4
REMARK VINA RESULT:    -5.092      1.120      2.313
REMARK INTER + INTRA:          -5.092
REMARK INTER:                  -5.092
REMARK INTRA:                   0.000
REMARK UNBOUND:                 0.000
REMARK SMILES O=c1ccc2ccccc2o1
REMARK SMILES IDX 7 1 8 2 9 3 10 4 5 5 6 6 4 7 3 8 2 9 1 10 11 11
REMARK H PARENT
REMARK Flexibility Score: inf
ROOT
ATOM      1  C   UNL     1     -40.126  -8.536 -13.762  1.00  0.00     0.001 A 
ATOM      2  C   UNL     1     -38.918  -9.125 -14.150  1.00  0.00     0.004 A 
ATOM      3  C   UNL     1     -37.743  -8.366 -14.181  1.00  0.00     0.048 A 
ATOM      4  C   UNL     1     -37.773  -7.014 -13.823  1.00  0.00     0.138 A 
ATOM      5  C   UNL     1     -38.994  -6.418 -13.430  1.00  0.00     0.018 A 
ATOM      6  C   UNL     1     -40.168  -7.184 -13.402  1.00  0.00     0.012 A 
ATOM      7  C   UNL     1     -38.991  -5.065 -13.078  1.00  0.00     0.019 A 
ATOM      8  C   UNL     1     -37.797  -4.347 -13.124  1.00  0.00     0.094 A 
ATOM      9  C   UNL     1     -36.627  -5.004 -13.522  1.00  0.00     0.336 A 
ATOM     10  O   UNL     1     -35.539  -4.372 -13.570  1.00  0.00    -0.246 OA
ATOM     11  O   UNL     1     -36.656  -6.292 -13.852  1.00  0.00    -0.423 OA
ENDROOT
TORSDOF 0
ENDMDL
MODEL 5
REMARK VINA RESULT:    -5.067      2.018      3.675
REMARK INTER + INTRA:          -5.067
REMARK INTER:                  -5.067
REMARK INTRA:                   0.000
REMARK UNBOUND:                 0.000
REMARK SMILES O=c1ccc2ccccc2o1
REMARK SMILES IDX 7 1 8 2 9 3 10 4 5 5 6 6 4 7 3 8 2 9 1 10 11 11
REMARK H PARENT
REMARK Flexibility Score: inf
ROOT
ATOM      1  C   UNL     1     -36.058  -7.606 -15.989  1.00  0.00     0.001 A 
ATOM      2  C   UNL     1     -36.781  -8.752 -15.639  1.00  0.00     0.004 A 
ATOM      3  C   UNL     1     -37.844  -8.664 -14.735  1.00  0.00     0.048 A 
ATOM      4  C   UNL     1     -38.189  -7.428 -14.177  1.00  0.00     0.138 A 
ATOM      5  C   UNL     1     -37.459  -6.271 -14.530  1.00  0.00     0.018 A 
ATOM      6  C   UNL     1     -36.394  -6.365 -15.437  1.00  0.00     0.012 A 
ATOM      7  C   UNL     1     -37.828  -5.050 -13.956  1.00  0.00     0.019 A 
ATOM      8  C   UNL     1     -38.894  -5.009 -13.058  1.00  0.00     0.094 A 
ATOM      9  C   UNL     1     -39.571  -6.196 -12.756  1.00  0.00     0.336 A 
ATOM     10  O   UNL     1     -40.537  -6.179 -11.949  1.00  0.00    -0.246 OA
ATOM     11  O   UNL     1     -39.201  -7.345 -13.317  1.00  0.00    -0.423 OA
ENDROOT
TORSDOF 0
ENDMDL
MODEL 6
REMARK VINA RESULT:    -5.066      2.769      3.981
REMARK INTER + INTRA:          -5.066
REMARK INTER:                  -5.066
REMARK INTRA:                   0.000
REMARK UNBOUND:                 0.000
REMARK SMILES O=c1ccc2ccccc2o1
REMARK SMILES IDX 7 1 8 2 9 3 10 4 5 5 6 6 4 7 3 8 2 9 1 10 11 11
REMARK H PARENT
REMARK Flexibility Score: inf
ROOT
ATOM      1  C   UNL     1     -36.503  -5.201 -17.687  1.00  0.00     0.001 A 
ATOM      2  C   UNL     1     -37.823  -4.815 -17.431  1.00  0.00     0.004 A 
ATOM      3  C   UNL     1     -38.617  -5.561 -16.554  1.00  0.00     0.048 A 
ATOM      4  C   UNL     1     -38.092  -6.697 -15.928  1.00  0.00     0.138 A 
ATOM      5  C   UNL     1     -36.758  -7.088 -16.186  1.00  0.00     0.018 A 
ATOM      6  C   UNL     1     -35.968  -6.336 -17.067  1.00  0.00     0.012 A 
ATOM      7  C   UNL     1     -36.262  -8.227 -15.546  1.00  0.00     0.019 A 
ATOM      8  C   UNL     1     -37.089  -8.941 -14.679  1.00  0.00     0.094 A 
ATOM      9  C   UNL     1     -38.399  -8.494 -14.472  1.00  0.00     0.336 A 
ATOM     10  O   UNL     1     -39.161  -9.125 -13.693  1.00  0.00    -0.246 OA
ATOM     11  O   UNL     1     -38.847  -7.406 -15.093  1.00  0.00    -0.423 OA
ENDROOT
TORSDOF 0
ENDMDL
MODEL 7
REMARK VINA RESULT:    -5.009      2.484      2.985
REMARK INTER + INTRA:          -5.009
REMARK INTER:                  -5.009
REMARK INTRA:                   0.000
REMARK UNBOUND:                 0.000
REMARK SMILES O=c1ccc2ccccc2o1
REMARK SMILES IDX 7 1 8 2 9 3 10 4 5 5 6 6 4 7 3 8 2 9 1 10 11 11
REMARK H PARENT
REMARK Flexibility Score: inf
ROOT
ATOM      1  C   UNL     1     -38.746  -5.064 -16.428  1.00  0.00     0.001 A 
ATOM      2  C   UNL     1     -38.375  -4.325 -15.299  1.00  0.00     0.004 A 
ATOM      3  C   UNL     1     -37.498  -4.873 -14.357  1.00  0.00     0.048 A 
ATOM      4  C   UNL     1     -36.988  -6.163 -14.542  1.00  0.00     0.138 A 
ATOM      5  C   UNL     1     -37.363  -6.909 -15.682  1.00  0.00     0.018 A 
ATOM      6  C   UNL     1     -38.243  -6.355 -16.622  1.00  0.00     0.012 A 
ATOM      7  C   UNL     1     -36.836  -8.195 -15.839  1.00  0.00     0.019 A 
ATOM      8  C   UNL     1     -35.966  -8.701 -14.875  1.00  0.00     0.094 A 
ATOM      9  C   UNL     1     -35.639  -7.904 -13.772  1.00  0.00     0.336 A 
ATOM     10  O   UNL     1     -34.854  -8.343 -12.891  1.00  0.00    -0.246 OA
ATOM     11  O   UNL     1     -36.153  -6.683 -13.646  1.00  0.00    -0.423 OA
ENDROOT
TORSDOF 0
ENDMDL
MODEL 8
REMARK VINA RESULT:    -4.971      1.873      4.350
REMARK INTER + INTRA:          -4.971
REMARK INTER:                  -4.971
REMARK INTRA:                   0.000
REMARK UNBOUND:                 0.000
REMARK SMILES O=c1ccc2ccccc2o1
REMARK SMILES IDX 7 1 8 2 9 3 10 4 5 5 6 6 4 7 3 8 2 9 1 10 11 11
REMARK H PARENT
REMARK Flexibility Score: inf
ROOT
ATOM      1  C   UNL     1     -36.731  -3.774 -12.759  1.00  0.00     0.001 A 
ATOM      2  C   UNL     1     -35.766  -4.593 -13.354  1.00  0.00     0.004 A 
ATOM      3  C   UNL     1     -36.118  -5.856 -13.841  1.00  0.00     0.048 A 
ATOM      4  C   UNL     1     -37.439  -6.304 -13.736  1.00  0.00     0.138 A 
ATOM      5  C   UNL     1     -38.415  -5.476 -13.135  1.00  0.00     0.018 A 
ATOM      6  C   UNL     1     -38.055  -4.212 -12.648  1.00  0.00     0.012 A 
ATOM      7  C   UNL     1     -39.727  -5.951 -13.044  1.00  0.00     0.019 A 
ATOM      8  C   UNL     1     -40.033  -7.217 -13.543  1.00  0.00     0.094 A 
ATOM      9  C   UNL     1     -39.015  -7.980 -14.125  1.00  0.00     0.336 A 
ATOM     10  O   UNL     1     -39.272  -9.125 -14.582  1.00  0.00    -0.246 OA
ATOM     11  O   UNL     1     -37.775  -7.505 -14.200  1.00  0.00    -0.423 OA
ENDROOT
TORSDOF 0
ENDMDL
MODEL 9
REMARK VINA RESULT:    -3.254      1.041      1.427
REMARK INTER + INTRA:          -3.254
REMARK INTER:                  -3.254
REMARK INTRA:                   0.000
REMARK UNBOUND:                 0.000
REMARK SMILES O=c1ccc2ccccc2o1
REMARK SMILES IDX 7 1 8 2 9 3 10 4 5 5 6 6 4 7 3 8 2 9 1 10 11 11
REMARK H PARENT
REMARK Flexibility Score: inf
ROOT
ATOM      1  C   UNL     1     -39.004  -9.125 -14.330  1.00  0.00     0.001 A 
ATOM      2  C   UNL     1     -40.025  -8.356 -13.760  1.00  0.00     0.004 A 
ATOM      3  C   UNL     1     -39.776  -7.036 -13.369  1.00  0.00     0.048 A 
ATOM      4  C   UNL     1     -38.505  -6.480 -13.548  1.00  0.00     0.138 A 
ATOM      5  C   UNL     1     -37.474  -7.257 -14.124  1.00  0.00     0.018 A 
ATOM      6  C   UNL     1     -37.729  -8.579 -14.513  1.00  0.00     0.012 A 
ATOM      7  C   UNL     1     -36.214  -6.673 -14.290  1.00  0.00     0.019 A 
ATOM      8  C   UNL     1     -36.012  -5.354 -13.886  1.00  0.00     0.094 A 
ATOM      9  C   UNL     1     -37.080  -4.646 -13.324  1.00  0.00     0.336 A 
ATOM     10  O   UNL     1     -36.916  -3.454 -12.953  1.00  0.00    -0.246 OA
ATOM     11  O   UNL     1     -38.269  -5.224 -13.177  1.00  0.00    -0.423 OA
ENDROOT
TORSDOF 0
ENDMDL
