MODEL 1
REMARK VINA RESULT:    10.001      0.000      0.000
REMARK INTER + INTRA:          17.353
REMARK INTER:                  18.186
REMARK INTRA:                  -0.834
REMARK UNBOUND:                -0.834
REMARK SMILES CCCCCCCCCCCCCCCC(=O)[O-]
REMARK SMILES IDX 9 1 10 2 11 3 12 4 13 5 14 6 15 7 16 8 17 9 18 10 8 11 7 12
REMARK SMILES IDX 6 13 5 14 4 15 3 16 2 17 1 18
REMARK H PARENT
REMARK Flexibility Score: inf
ROOT
ATOM      1  C   UNL     1      11.378  12.931  29.271  1.00  0.00     0.000 C 
ENDROOT
BRANCH   1   2
ATOM      2  C   UNL     1      11.256  11.403  29.410  1.00  0.00     0.000 C 
BRANCH   2   3
ATOM      3  C   UNL     1      11.860  10.880  30.723  1.00  0.00     0.000 C 
BRANCH   3   4
ATOM      4  C   UNL     1      10.883  10.984  31.908  1.00  0.00     0.000 C 
BRANCH   4   5
ATOM      5  C   UNL     1       9.430  10.686  31.504  1.00  0.00     0.000 C 
BRANCH   5   6
ATOM      6  C   UNL     1       9.018   9.237  31.807  1.00  0.00     0.006 C 
BRANCH   6   7
ATOM      7  C   UNL     1       7.688   9.192  32.565  1.00  0.00     0.053 C 
BRANCH   7   8
ATOM      8  C   UNL     1       7.204   7.782  32.691  1.00  0.00     0.041 C 
ATOM      9  O   UNL     1       6.322   7.344  31.906  1.00  0.00    -0.550 OA
ATOM     10  O   UNL     1       7.761   6.938  33.642  1.00  0.00    -0.550 OA
ENDBRANCH   7   8
ENDBRANCH   6   7
ENDBRANCH   5   6
ENDBRANCH   4   5
ENDBRANCH   3   4
ENDBRANCH   2   3
ENDBRANCH   1   2
BRANCH   1  11
ATOM     11  C   UNL     1      12.614  13.491  29.992  1.00  0.00     0.000 C 
BRANCH  11  12
ATOM     12  C   UNL     1      13.838  13.606  29.071  1.00  0.00    -0.000 C 
BRANCH  12  13
ATOM     13  C   UNL     1      13.639  14.716  28.029  1.00  0.00    -0.000 C 
BRANCH  13  14
ATOM     14  C   UNL     1      13.195  14.177  26.657  1.00  0.00    -0.000 C 
BRANCH  14  15
ATOM     15  C   UNL     1      12.061  14.971  25.978  1.00  0.00    -0.000 C 
BRANCH  15  16
ATOM     16  C   UNL     1      10.936  14.113  25.371  1.00  0.00    -0.000 C 
BRANCH  16  17
ATOM     17  C   UNL     1       9.876  14.951  24.642  1.00  0.00    -0.003 C 
ATOM     18  C   UNL     1      10.499  16.187  24.001  1.00  0.00     0.004 C 
ENDBRANCH  16  17
ENDBRANCH  15  16
ENDBRANCH  14  15
ENDBRANCH  13  14
ENDBRANCH  12  13
ENDBRANCH  11  12
ENDBRANCH   1  11
TORSDOF 14
ENDMDL
MODEL 2
REMARK VINA RESULT:    10.064      3.866      8.425
REMARK INTER + INTRA:          17.468
REMARK INTER:                  18.295
REMARK INTRA:                  -0.827
REMARK UNBOUND:                -0.834
REMARK SMILES CCCCCCCCCCCCCCCC(=O)[O-]
REMARK SMILES IDX 9 1 10 2 11 3 12 4 13 5 14 6 15 7 16 8 17 9 18 10 8 11 7 12
REMARK SMILES IDX 6 13 5 14 4 15 3 16 2 17 1 18
REMARK H PARENT
REMARK Flexibility Score: inf
ROOT
ATOM      1  C   UNL     1      11.587  11.001  29.478  1.00  0.00     0.000 C 
ENDROOT
BRANCH   1   2
ATOM      2  C   UNL     1      12.888  11.805  29.650  1.00  0.00     0.000 C 
BRANCH   2   3
ATOM      3  C   UNL     1      12.669  13.319  29.506  1.00  0.00     0.000 C 
BRANCH   3   4
ATOM      4  C   UNL     1      13.795  14.009  28.716  1.00  0.00     0.000 C 
BRANCH   4   5
ATOM      5  C   UNL     1      13.266  14.834  27.531  1.00  0.00     0.000 C 
BRANCH   5   6
ATOM      6  C   UNL     1      12.053  14.182  26.852  1.00  0.00     0.006 C 
BRANCH   6   7
ATOM      7  C   UNL     1      12.009  14.523  25.360  1.00  0.00     0.053 C 
BRANCH   7   8
ATOM      8  C   UNL     1      10.608  14.829  24.933  1.00  0.00     0.041 C 
ATOM      9  O   UNL     1      10.356  15.892  24.306  1.00  0.00    -0.550 OA
ATOM     10  O   UNL     1       9.590  13.920  25.183  1.00  0.00    -0.550 OA
ENDBRANCH   7   8
ENDBRANCH   6   7
ENDBRANCH   5   6
ENDBRANCH   4   5
ENDBRANCH   3   4
ENDBRANCH   2   3
ENDBRANCH   1   2
BRANCH   1  11
ATOM     11  C   UNL     1      10.339  11.808  29.868  1.00  0.00     0.000 C 
BRANCH  11  12
ATOM     12  C   UNL     1       9.994  11.687  31.360  1.00  0.00    -0.000 C 
BRANCH  12  13
ATOM     13  C   UNL     1       9.883  10.214  31.779  1.00  0.00    -0.000 C 
BRANCH  13  14
ATOM     14  C   UNL     1       8.448   9.668  31.674  1.00  0.00    -0.000 C 
BRANCH  14  15
ATOM     15  C   UNL     1       8.135   8.468  32.590  1.00  0.00    -0.000 C 
BRANCH  15  16
ATOM     16  C   UNL     1       6.698   7.926  32.488  1.00  0.00    -0.000 C 
BRANCH  16  17
ATOM     17  C   UNL     1       6.303   7.555  31.051  1.00  0.00    -0.003 C 
ATOM     18  C   UNL     1       5.546   6.229  31.016  1.00  0.00     0.004 C 
ENDBRANCH  16  17
ENDBRANCH  15  16
ENDBRANCH  14  15
ENDBRANCH  13  14
ENDBRANCH  12  13
ENDBRANCH  11  12
ENDBRANCH   1  11
TORSDOF 14
ENDMDL
