MODEL 1
REMARK VINA RESULT:    -6.366      0.000      0.000
REMARK INTER + INTRA:          -9.643
REMARK INTER:                  -8.598
REMARK INTRA:                  -1.045
REMARK UNBOUND:                -1.045
REMARK SMILES CC(=O)CCC=C(C)CCC=C(C)C
REMARK SMILES IDX 7 1 6 2 8 3 9 4 10 5 11 6 13 7 12 8 14 9 5 10 4 11 2 12 3 13
REMARK SMILES IDX 1 14
REMARK H PARENT
REMARK Flexibility Score: inf
ROOT
ATOM      1  C   UNL     1      26.571  56.520 140.882  1.00  0.00    -0.077 C 
ATOM      2  C   UNL     1      26.962  57.263 141.943  1.00  0.00    -0.028 C 
ATOM      3  C   UNL     1      27.510  55.559 140.191  1.00  0.00     0.039 C 
ENDROOT
BRANCH   1   4
ATOM      4  C   UNL     1      25.147  56.639 140.388  1.00  0.00     0.034 C 
BRANCH   4   5
ATOM      5  C   UNL     1      25.092  57.417 139.068  1.00  0.00     0.032 C 
BRANCH   5   6
ATOM      6  C   UNL     1      26.009  58.613 139.113  1.00  0.00    -0.028 C 
ATOM      7  C   UNL     1      27.899  60.040 138.460  1.00  0.00     0.039 C 
ATOM      8  C   UNL     1      27.042  58.815 138.267  1.00  0.00    -0.080 C 
ATOM      9  C   UNL     1      27.347  57.864 137.133  1.00  0.00     0.039 C 
ENDBRANCH   5   6
ENDBRANCH   4   5
ENDBRANCH   1   4
BRANCH   2  10
ATOM     10  C   UNL     1      28.362  57.278 142.511  1.00  0.00     0.035 C 
BRANCH  10  11
ATOM     11  C   UNL     1      29.044  58.637 142.303  1.00  0.00     0.079 C 
BRANCH  11  12
ATOM     12  C   UNL     1      30.374  58.489 141.609  1.00  0.00     0.130 C 
ATOM     13  O   UNL     1      31.334  59.135 142.002  1.00  0.00    -0.300 OA
ATOM     14  C   UNL     1      30.546  57.561 140.444  1.00  0.00     0.087 C 
ENDBRANCH  11  12
ENDBRANCH  10  11
ENDBRANCH   2  10
TORSDOF 6
ENDMDL
MODEL 2
REMARK VINA RESULT:    -6.248      2.275      4.574
REMARK INTER + INTRA:          -9.484
REMARK INTER:                  -7.987
REMARK INTRA:                  -1.497
REMARK UNBOUND:                -1.045
REMARK SMILES CC(=O)CCC=C(C)CCC=C(C)C
REMARK SMILES IDX 7 1 6 2 8 3 9 4 10 5 11 6 13 7 12 8 14 9 5 10 4 11 2 12 3 13
REMARK SMILES IDX 1 14
REMARK H PARENT
REMARK Flexibility Score: inf
ROOT
ATOM      1  C   UNL     1      26.674  59.196 138.813  1.00  0.00    -0.077 C 
ATOM      2  C   UNL     1      25.648  58.500 139.354  1.00  0.00    -0.028 C 
ATOM      3  C   UNL     1      27.496  58.647 137.670  1.00  0.00     0.039 C 
ENDROOT
BRANCH   1   4
ATOM      4  C   UNL     1      26.993  60.572 139.354  1.00  0.00     0.034 C 
BRANCH   4   5
ATOM      5  C   UNL     1      27.080  60.549 140.885  1.00  0.00     0.032 C 
BRANCH   5   6
ATOM      6  C   UNL     1      28.317  59.816 141.339  1.00  0.00    -0.028 C 
ATOM      7  C   UNL     1      29.636  58.173 142.603  1.00  0.00     0.039 C 
ATOM      8  C   UNL     1      28.315  58.782 142.209  1.00  0.00    -0.080 C 
ATOM      9  C   UNL     1      27.035  58.217 142.779  1.00  0.00     0.039 C 
ENDBRANCH   5   6
ENDBRANCH   4   5
ENDBRANCH   1   4
BRANCH   2  10
ATOM     10  C   UNL     1      25.249  57.101 138.944  1.00  0.00     0.035 C 
BRANCH  10  11
ATOM     11  C   UNL     1      25.648  56.065 140.003  1.00  0.00     0.079 C 
BRANCH  11  12
ATOM     12  C   UNL     1      26.894  55.316 139.603  1.00  0.00     0.130 C 
ATOM     13  O   UNL     1      26.794  54.251 139.013  1.00  0.00    -0.300 OA
ATOM     14  C   UNL     1      28.260  55.854 139.913  1.00  0.00     0.087 C 
ENDBRANCH  11  12
ENDBRANCH  10  11
ENDBRANCH   2  10
TORSDOF 6
ENDMDL
MODEL 3
REMARK VINA RESULT:    -6.247      2.091      3.837
REMARK INTER + INTRA:          -9.483
REMARK INTER:                  -8.257
REMARK INTRA:                  -1.226
REMARK UNBOUND:                -1.045
REMARK SMILES CC(=O)CCC=C(C)CCC=C(C)C
REMARK SMILES IDX 7 1 6 2 8 3 9 4 10 5 11 6 13 7 12 8 14 9 5 10 4 11 2 12 3 13
REMARK SMILES IDX 1 14
REMARK H PARENT
REMARK Flexibility Score: inf
ROOT
ATOM      1  C   UNL     1      27.349  59.769 140.766  1.00  0.00    -0.077 C 
ATOM      2  C   UNL     1      28.160  58.735 141.087  1.00  0.00    -0.028 C 
ATOM      3  C   UNL     1      27.119  60.926 141.710  1.00  0.00     0.039 C 
ENDROOT
BRANCH   1   4
ATOM      4  C   UNL     1      26.669  59.777 139.415  1.00  0.00     0.034 C 
BRANCH   4   5
ATOM      5  C   UNL     1      26.597  58.360 138.833  1.00  0.00     0.032 C 
BRANCH   5   6
ATOM      6  C   UNL     1      25.230  57.761 139.052  1.00  0.00    -0.028 C 
ATOM      7  C   UNL     1      23.584  56.013 139.572  1.00  0.00     0.039 C 
ATOM      8  C   UNL     1      25.009  56.483 139.431  1.00  0.00    -0.080 C 
ATOM      9  C   UNL     1      26.141  55.529 139.731  1.00  0.00     0.039 C 
ENDBRANCH   5   6
ENDBRANCH   4   5
ENDBRANCH   1   4
BRANCH   2  10
ATOM     10  C   UNL     1      28.864  58.576 142.414  1.00  0.00     0.035 C 
BRANCH  10  11
ATOM     11  C   UNL     1      28.320  57.378 143.204  1.00  0.00     0.079 C 
BRANCH  11  12
ATOM     12  C   UNL     1      26.900  57.610 143.656  1.00  0.00     0.130 C 
ATOM     13  O   UNL     1      26.644  58.567 144.370  1.00  0.00    -0.300 OA
ATOM     14  C   UNL     1      25.791  56.687 143.243  1.00  0.00     0.087 C 
ENDBRANCH  11  12
ENDBRANCH  10  11
ENDBRANCH   2  10
TORSDOF 6
ENDMDL
MODEL 4
REMARK VINA RESULT:    -6.246      1.579      3.274
REMARK INTER + INTRA:          -9.482
REMARK INTER:                  -8.314
REMARK INTRA:                  -1.168
REMARK UNBOUND:                -1.045
REMARK SMILES CC(=O)CCC=C(C)CCC=C(C)C
REMARK SMILES IDX 7 1 6 2 8 3 9 4 10 5 11 6 13 7 12 8 14 9 5 10 4 11 2 12 3 13
REMARK SMILES IDX 1 14
REMARK H PARENT
REMARK Flexibility Score: inf
ROOT
ATOM      1  C   UNL     1      28.533  57.063 139.379  1.00  0.00    -0.077 C 
ATOM      2  C   UNL     1      29.298  58.009 139.972  1.00  0.00    -0.028 C 
ATOM      3  C   UNL     1      28.555  55.621 139.829  1.00  0.00     0.039 C 
ENDROOT
BRANCH   1   4
ATOM      4  C   UNL     1      27.616  57.466 138.246  1.00  0.00     0.034 C 
BRANCH   4   5
ATOM      5  C   UNL     1      26.414  58.258 138.773  1.00  0.00     0.032 C 
BRANCH   5   6
ATOM      6  C   UNL     1      25.157  57.427 138.711  1.00  0.00    -0.028 C 
ATOM      7  C   UNL     1      23.424  55.884 139.518  1.00  0.00     0.039 C 
ATOM      8  C   UNL     1      24.672  56.699 139.741  1.00  0.00    -0.080 C 
ATOM      9  C   UNL     1      25.331  56.695 141.100  1.00  0.00     0.039 C 
ENDBRANCH   5   6
ENDBRANCH   4   5
ENDBRANCH   1   4
BRANCH   2  10
ATOM     10  C   UNL     1      30.290  57.740 141.080  1.00  0.00     0.035 C 
BRANCH  10  11
ATOM     11  C   UNL     1      29.931  58.507 142.360  1.00  0.00     0.079 C 
BRANCH  11  12
ATOM     12  C   UNL     1      28.517  58.222 142.799  1.00  0.00     0.130 C 
ATOM     13  O   UNL     1      28.240  57.127 143.265  1.00  0.00    -0.300 OA
ATOM     14  C   UNL     1      27.440  59.259 142.678  1.00  0.00     0.087 C 
ENDBRANCH  11  12
ENDBRANCH  10  11
ENDBRANCH   2  10
TORSDOF 6
ENDMDL
MODEL 5
REMARK VINA RESULT:    -6.223      1.365      3.441
REMARK INTER + INTRA:          -9.450
REMARK INTER:                  -8.307
REMARK INTRA:                  -1.143
REMARK UNBOUND:                -1.045
REMARK SMILES CC(=O)CCC=C(C)CCC=C(C)C
REMARK SMILES IDX 7 1 6 2 8 3 9 4 10 5 11 6 13 7 12 8 14 9 5 10 4 11 2 12 3 13
REMARK SMILES IDX 1 14
REMARK H PARENT
REMARK Flexibility Score: inf
ROOT
ATOM      1  C   UNL     1      26.536  58.503 138.783  1.00  0.00    -0.077 C 
ATOM      2  C   UNL     1      26.830  59.564 139.569  1.00  0.00    -0.028 C 
ATOM      3  C   UNL     1      27.484  58.015 137.712  1.00  0.00     0.039 C 
ENDROOT
BRANCH   1   4
ATOM      4  C   UNL     1      25.230  57.772 138.996  1.00  0.00     0.034 C 
BRANCH   4   5
ATOM      5  C   UNL     1      25.461  56.445 139.730  1.00  0.00     0.032 C 
BRANCH   5   6
ATOM      6  C   UNL     1      25.267  56.616 141.216  1.00  0.00    -0.028 C 
ATOM      7  C   UNL     1      25.928  56.856 143.570  1.00  0.00     0.039 C 
ATOM      8  C   UNL     1      26.275  56.731 142.108  1.00  0.00    -0.080 C 
ATOM      9  C   UNL     1      27.724  56.755 141.682  1.00  0.00     0.039 C 
ENDBRANCH   5   6
ENDBRANCH   4   5
ENDBRANCH   1   4
BRANCH   2  10
ATOM     10  C   UNL     1      28.074  60.412 139.436  1.00  0.00     0.035 C 
BRANCH  10  11
ATOM     11  C   UNL     1      28.871  60.458 140.747  1.00  0.00     0.079 C 
BRANCH  11  12
ATOM     12  C   UNL     1      30.025  59.488 140.727  1.00  0.00     0.130 C 
ATOM     13  O   UNL     1      30.280  58.875 139.702  1.00  0.00    -0.300 OA
ATOM     14  C   UNL     1      30.872  59.262 141.945  1.00  0.00     0.087 C 
ENDBRANCH  11  12
ENDBRANCH  10  11
ENDBRANCH   2  10
TORSDOF 6
ENDMDL
MODEL 6
REMARK VINA RESULT:    -6.168      2.187      4.987
REMARK INTER + INTRA:          -9.377
REMARK INTER:                  -8.051
REMARK INTRA:                  -1.325
REMARK UNBOUND:                -1.045
REMARK SMILES CC(=O)CCC=C(C)CCC=C(C)C
REMARK SMILES IDX 7 1 6 2 8 3 9 4 10 5 11 6 13 7 12 8 14 9 5 10 4 11 2 12 3 13
REMARK SMILES IDX 1 14
REMARK H PARENT
REMARK Flexibility Score: inf
ROOT
ATOM      1  C   UNL     1      28.720  56.630 139.599  1.00  0.00    -0.077 C 
ATOM      2  C   UNL     1      28.073  57.569 138.870  1.00  0.00    -0.028 C 
ATOM      3  C   UNL     1      28.166  55.235 139.774  1.00  0.00     0.039 C 
ENDROOT
BRANCH   1   4
ATOM      4  C   UNL     1      30.044  56.980 140.238  1.00  0.00     0.034 C 
BRANCH   4   5
ATOM      5  C   UNL     1      29.866  58.079 141.293  1.00  0.00     0.032 C 
BRANCH   5   6
ATOM      6  C   UNL     1      28.968  57.609 142.409  1.00  0.00    -0.028 C 
ATOM      7  C   UNL     1      27.048  57.660 143.942  1.00  0.00     0.039 C 
ATOM      8  C   UNL     1      27.823  58.224 142.778  1.00  0.00    -0.080 C 
ATOM      9  C   UNL     1      27.296  59.440 142.052  1.00  0.00     0.039 C 
ENDBRANCH   5   6
ENDBRANCH   4   5
ENDBRANCH   1   4
BRANCH   2  10
ATOM     10  C   UNL     1      26.725  57.371 138.216  1.00  0.00     0.035 C 
BRANCH  10  11
ATOM     11  C   UNL     1      25.593  57.974 139.058  1.00  0.00     0.079 C 
BRANCH  11  12
ATOM     12  C   UNL     1      24.891  56.922 139.879  1.00  0.00     0.130 C 
ATOM     13  O   UNL     1      25.291  56.670 141.004  1.00  0.00    -0.300 OA
ATOM     14  C   UNL     1      23.704  56.178 139.341  1.00  0.00     0.087 C 
ENDBRANCH  11  12
ENDBRANCH  10  11
ENDBRANCH   2  10
TORSDOF 6
ENDMDL
MODEL 7
REMARK VINA RESULT:    -6.139      1.637      3.155
REMARK INTER + INTRA:          -9.337
REMARK INTER:                  -8.546
REMARK INTRA:                  -0.790
REMARK UNBOUND:                -1.045
REMARK SMILES CC(=O)CCC=C(C)CCC=C(C)C
REMARK SMILES IDX 7 1 6 2 8 3 9 4 10 5 11 6 13 7 12 8 14 9 5 10 4 11 2 12 3 13
REMARK SMILES IDX 1 14
REMARK H PARENT
REMARK Flexibility Score: inf
ROOT
ATOM      1  C   UNL     1      27.764  58.431 142.537  1.00  0.00    -0.077 C 
ATOM      2  C   UNL     1      29.082  58.137 142.625  1.00  0.00    -0.028 C 
ATOM      3  C   UNL     1      27.271  59.851 142.384  1.00  0.00     0.039 C 
ENDROOT
BRANCH   1   4
ATOM      4  C   UNL     1      26.758  57.303 142.572  1.00  0.00     0.034 C 
BRANCH   4   5
ATOM      5  C   UNL     1      26.896  56.409 141.334  1.00  0.00     0.032 C 
BRANCH   5   6
ATOM      6  C   UNL     1      25.541  56.044 140.783  1.00  0.00    -0.028 C 
ATOM      7  C   UNL     1      23.537  56.264 139.379  1.00  0.00     0.039 C 
ATOM      8  C   UNL     1      24.910  56.722 139.800  1.00  0.00    -0.080 C 
ATOM      9  C   UNL     1      25.544  57.906 139.107  1.00  0.00     0.039 C 
ENDBRANCH   5   6
ENDBRANCH   4   5
ENDBRANCH   1   4
BRANCH   2  10
ATOM     10  C   UNL     1      30.191  59.164 142.649  1.00  0.00     0.035 C 
BRANCH  10  11
ATOM     11  C   UNL     1      31.201  58.933 141.517  1.00  0.00     0.079 C 
BRANCH  11  12
ATOM     12  C   UNL     1      30.512  58.696 140.198  1.00  0.00     0.130 C 
ATOM     13  O   UNL     1      29.750  59.542 139.755  1.00  0.00    -0.300 OA
ATOM     14  C   UNL     1      30.743  57.438 139.414  1.00  0.00     0.087 C 
ENDBRANCH  11  12
ENDBRANCH  10  11
ENDBRANCH   2  10
TORSDOF 6
ENDMDL
MODEL 8
REMARK VINA RESULT:    -6.047      1.578      3.679
REMARK INTER + INTRA:          -9.212
REMARK INTER:                  -7.857
REMARK INTRA:                  -1.355
REMARK UNBOUND:                -1.045
REMARK SMILES CC(=O)CCC=C(C)CCC=C(C)C
REMARK SMILES IDX 7 1 6 2 8 3 9 4 10 5 11 6 13 7 12 8 14 9 5 10 4 11 2 12 3 13
REMARK SMILES IDX 1 14
REMARK H PARENT
REMARK Flexibility Score: inf
ROOT
ATOM      1  C   UNL     1      27.958  58.630 142.535  1.00  0.00    -0.077 C 
ATOM      2  C   UNL     1      27.500  59.697 141.840  1.00  0.00    -0.028 C 
ATOM      3  C   UNL     1      29.373  58.123 142.379  1.00  0.00     0.039 C 
ENDROOT
BRANCH   1   4
ATOM      4  C   UNL     1      27.033  57.938 143.510  1.00  0.00     0.034 C 
BRANCH   4   5
ATOM      5  C   UNL     1      26.506  56.623 142.923  1.00  0.00     0.032 C 
BRANCH   5   6
ATOM      6  C   UNL     1      25.629  56.886 141.725  1.00  0.00    -0.028 C 
ATOM      7  C   UNL     1      24.997  56.935 139.351  1.00  0.00     0.039 C 
ATOM      8  C   UNL     1      25.961  56.575 140.453  1.00  0.00    -0.080 C 
ATOM      9  C   UNL     1      27.252  55.867 140.112  1.00  0.00     0.039 C 
ENDBRANCH   5   6
ENDBRANCH   4   5
ENDBRANCH   1   4
BRANCH   2  10
ATOM     10  C   UNL     1      28.298  60.452 140.803  1.00  0.00     0.035 C 
BRANCH  10  11
ATOM     11  C   UNL     1      27.648  60.368 139.415  1.00  0.00     0.079 C 
BRANCH  11  12
ATOM     12  C   UNL     1      28.230  59.244 138.597  1.00  0.00     0.130 C 
ATOM     13  O   UNL     1      29.277  58.722 138.949  1.00  0.00    -0.300 OA
ATOM     14  C   UNL     1      27.548  58.749 137.356  1.00  0.00     0.087 C 
ENDBRANCH  11  12
ENDBRANCH  10  11
ENDBRANCH   2  10
TORSDOF 6
ENDMDL
MODEL 9
REMARK VINA RESULT:    -6.039      1.177      1.977
REMARK INTER + INTRA:          -9.201
REMARK INTER:                  -7.793
REMARK INTRA:                  -1.408
REMARK UNBOUND:                -1.045
REMARK SMILES CC(=O)CCC=C(C)CCC=C(C)C
REMARK SMILES IDX 7 1 6 2 8 3 9 4 10 5 11 6 13 7 12 8 14 9 5 10 4 11 2 12 3 13
REMARK SMILES IDX 1 14
REMARK H PARENT
REMARK Flexibility Score: inf
ROOT
ATOM      1  C   UNL     1      27.735  56.629 140.525  1.00  0.00    -0.077 C 
ATOM      2  C   UNL     1      28.888  56.654 139.817  1.00  0.00    -0.028 C 
ATOM      3  C   UNL     1      27.691  56.994 141.991  1.00  0.00     0.039 C 
ENDROOT
BRANCH   1   4
ATOM      4  C   UNL     1      26.452  56.243 139.825  1.00  0.00     0.034 C 
BRANCH   4   5
ATOM      5  C   UNL     1      26.083  57.278 138.755  1.00  0.00     0.032 C 
BRANCH   5   6
ATOM      6  C   UNL     1      25.960  58.653 139.361  1.00  0.00    -0.028 C 
ATOM      7  C   UNL     1      26.527  61.012 139.750  1.00  0.00     0.039 C 
ATOM      8  C   UNL     1      26.740  59.705 139.029  1.00  0.00    -0.080 C 
ATOM      9  C   UNL     1      27.797  59.612 137.954  1.00  0.00     0.039 C 
ENDBRANCH   5   6
ENDBRANCH   4   5
ENDBRANCH   1   4
BRANCH   2  10
ATOM     10  C   UNL     1      30.245  56.976 140.398  1.00  0.00     0.035 C 
BRANCH  10  11
ATOM     11  C   UNL     1      30.663  58.421 140.097  1.00  0.00     0.079 C 
BRANCH  11  12
ATOM     12  C   UNL     1      30.657  59.271 141.342  1.00  0.00     0.130 C 
ATOM     13  O   UNL     1      31.569  59.166 142.147  1.00  0.00    -0.300 OA
ATOM     14  C   UNL     1      29.551  60.248 141.613  1.00  0.00     0.087 C 
ENDBRANCH  11  12
ENDBRANCH  10  11
ENDBRANCH   2  10
TORSDOF 6
ENDMDL
