MODEL 1
REMARK VINA RESULT:    -2.683      0.000      0.000
REMARK INTER + INTRA:          -2.683
REMARK INTER:                  -2.683
REMARK INTRA:                   0.000
REMARK UNBOUND:                 0.000
REMARK SMILES CC(=O)[O-]
REMARK SMILES IDX 1 1 2 2 3 3 4 4
REMARK H PARENT
REMARK Flexibility Score: inf
ROOT
ATOM      1  C   UNL     1      28.984  56.411  -5.092  1.00  0.00     0.063 C 
ATOM      2  C   UNL     1      28.834  56.664  -6.554  1.00  0.00     0.038 C 
ATOM      3  O   UNL     1      28.315  55.789  -7.296  1.00  0.00    -0.550 OA
ATOM      4  O   UNL     1      29.216  57.885  -7.093  1.00  0.00    -0.550 OA
ENDROOT
TORSDOF 0
ENDMDL
MODEL 2
REMARK VINA RESULT:    -2.606     18.040     18.252
REMARK INTER + INTRA:          -2.606
REMARK INTER:                  -2.606
REMARK INTRA:                   0.000
REMARK UNBOUND:                 0.000
REMARK SMILES CC(=O)[O-]
REMARK SMILES IDX 1 1 2 2 3 3 4 4
REMARK H PARENT
REMARK Flexibility Score: inf
ROOT
ATOM      1  C   UNL     1      38.189  66.953   4.417  1.00  0.00     0.063 C 
ATOM      2  C   UNL     1      37.413  67.063   5.687  1.00  0.00     0.038 C 
ATOM      3  O   UNL     1      37.435  66.122   6.523  1.00  0.00    -0.550 OA
ATOM      4  O   UNL     1      36.709  68.224   5.975  1.00  0.00    -0.550 OA
ENDROOT
TORSDOF 0
ENDMDL
MODEL 3
REMARK VINA RESULT:    -2.604     18.019     18.293
REMARK INTER + INTRA:          -2.604
REMARK INTER:                  -2.604
REMARK INTRA:                   0.000
REMARK UNBOUND:                 0.000
REMARK SMILES CC(=O)[O-]
REMARK SMILES IDX 1 1 2 2 3 3 4 4
REMARK H PARENT
REMARK Flexibility Score: inf
ROOT
ATOM      1  C   UNL     1      38.160  66.988   4.380  1.00  0.00     0.063 C 
ATOM      2  C   UNL     1      37.410  67.142   5.660  1.00  0.00     0.038 C 
ATOM      3  O   UNL     1      36.788  68.209   5.903  1.00  0.00    -0.550 OA
ATOM      4  O   UNL     1      37.351  66.089   6.563  1.00  0.00    -0.550 OA
ENDROOT
TORSDOF 0
ENDMDL
MODEL 4
REMARK VINA RESULT:    -2.478      1.846      2.439
REMARK INTER + INTRA:          -2.478
REMARK INTER:                  -2.478
REMARK INTRA:                   0.000
REMARK UNBOUND:                 0.000
REMARK SMILES CC(=O)[O-]
REMARK SMILES IDX 1 1 2 2 3 3 4 4
REMARK H PARENT
REMARK Flexibility Score: inf
ROOT
ATOM      1  C   UNL     1      28.508  56.189  -6.808  1.00  0.00     0.063 C 
ATOM      2  C   UNL     1      29.165  56.613  -5.538  1.00  0.00     0.038 C 
ATOM      3  O   UNL     1      30.236  57.275  -5.572  1.00  0.00    -0.550 OA
ATOM      4  O   UNL     1      28.571  56.327  -4.317  1.00  0.00    -0.550 OA
ENDROOT
TORSDOF 0
ENDMDL
MODEL 5
REMARK VINA RESULT:    -2.465      1.809      2.110
REMARK INTER + INTRA:          -2.465
REMARK INTER:                  -2.465
REMARK INTRA:                   0.000
REMARK UNBOUND:                 0.000
REMARK SMILES CC(=O)[O-]
REMARK SMILES IDX 1 1 2 2 3 3 4 4
REMARK H PARENT
REMARK Flexibility Score: inf
ROOT
ATOM      1  C   UNL     1      30.345  57.374  -5.367  1.00  0.00     0.063 C 
ATOM      2  C   UNL     1      29.115  56.530  -5.357  1.00  0.00     0.038 C 
ATOM      3  O   UNL     1      28.535  56.271  -4.270  1.00  0.00    -0.550 OA
ATOM      4  O   UNL     1      28.576  56.072  -6.552  1.00  0.00    -0.550 OA
ENDROOT
TORSDOF 0
ENDMDL
MODEL 6
REMARK VINA RESULT:    -2.442     17.832     18.085
REMARK INTER + INTRA:          -2.442
REMARK INTER:                  -2.442
REMARK INTRA:                   0.000
REMARK UNBOUND:                 0.000
REMARK SMILES CC(=O)[O-]
REMARK SMILES IDX 1 1 2 2 3 3 4 4
REMARK H PARENT
REMARK Flexibility Score: inf
ROOT
ATOM      1  C   UNL     1      37.313  66.373   6.376  1.00  0.00     0.063 C 
ATOM      2  C   UNL     1      38.326  66.426   5.283  1.00  0.00     0.038 C 
ATOM      3  O   UNL     1      38.112  67.123   4.257  1.00  0.00    -0.550 OA
ATOM      4  O   UNL     1      39.532  65.751   5.418  1.00  0.00    -0.550 OA
ENDROOT
TORSDOF 0
ENDMDL
MODEL 7
REMARK VINA RESULT:    -2.432      1.479      1.855
REMARK INTER + INTRA:          -2.432
REMARK INTER:                  -2.432
REMARK INTRA:                   0.000
REMARK UNBOUND:                 0.000
REMARK SMILES CC(=O)[O-]
REMARK SMILES IDX 1 1 2 2 3 3 4 4
REMARK H PARENT
REMARK Flexibility Score: inf
ROOT
ATOM      1  C   UNL     1      28.860  56.418  -6.058  1.00  0.00     0.063 C 
ATOM      2  C   UNL     1      29.610  57.638  -6.475  1.00  0.00     0.038 C 
ATOM      3  O   UNL     1      29.233  58.298  -7.480  1.00  0.00    -0.550 OA
ATOM      4  O   UNL     1      30.691  58.082  -5.726  1.00  0.00    -0.550 OA
ENDROOT
TORSDOF 0
ENDMDL
MODEL 8
REMARK VINA RESULT:    -2.336      2.991      3.375
REMARK INTER + INTRA:          -2.336
REMARK INTER:                  -2.336
REMARK INTRA:                   0.000
REMARK UNBOUND:                 0.000
REMARK SMILES CC(=O)[O-]
REMARK SMILES IDX 1 1 2 2 3 3 4 4
REMARK H PARENT
REMARK Flexibility Score: inf
ROOT
ATOM      1  C   UNL     1      28.131  57.351  -9.257  1.00  0.00     0.063 C 
ATOM      2  C   UNL     1      28.602  58.626  -8.643  1.00  0.00     0.038 C 
ATOM      3  O   UNL     1      29.332  58.602  -7.618  1.00  0.00    -0.550 OA
ATOM      4  O   UNL     1      28.281  59.842  -9.232  1.00  0.00    -0.550 OA
ENDROOT
TORSDOF 0
ENDMDL
MODEL 9
REMARK VINA RESULT:    -2.278     18.440     18.879
REMARK INTER + INTRA:          -2.278
REMARK INTER:                  -2.278
REMARK INTRA:                   0.000
REMARK UNBOUND:                 0.000
REMARK SMILES CC(=O)[O-]
REMARK SMILES IDX 1 1 2 2 3 3 4 4
REMARK H PARENT
REMARK Flexibility Score: inf
ROOT
ATOM      1  C   UNL     1      37.456  66.202   6.402  1.00  0.00     0.063 C 
ATOM      2  C   UNL     1      38.615  65.423   6.927  1.00  0.00     0.038 C 
ATOM      3  O   UNL     1      39.547  65.079   6.153  1.00  0.00    -0.550 OA
ATOM      4  O   UNL     1      38.696  65.122   8.279  1.00  0.00    -0.550 OA
ENDROOT
TORSDOF 0
ENDMDL
