MODEL 1
REMARK VINA RESULT:    -0.367      0.000      0.000
REMARK INTER + INTRA:          -0.462
REMARK INTER:                  -0.496
REMARK INTRA:                   0.034
REMARK UNBOUND:                 0.034
REMARK SMILES C=CC(C)=CCC=C(C)CCC=C(C)C
REMARK SMILES IDX 8 1 7 2 9 3 10 4 11 5 12 6 14 7 13 8 15 9 6 10 5 11 3 12
REMARK SMILES IDX 4 13 2 14 1 15
REMARK H PARENT
REMARK Flexibility Score: inf
ROOT
ATOM      1  C   UNL     1       7.903   7.732  13.191  1.00  0.00    -0.077 C 
ATOM      2  C   UNL     1       8.819   8.260  14.036  1.00  0.00    -0.024 C 
ATOM      3  C   UNL     1       8.306   7.089  11.884  1.00  0.00     0.039 C 
ENDROOT
BRANCH   1   4
ATOM      4  C   UNL     1       6.437   7.793  13.562  1.00  0.00     0.034 C 
BRANCH   4   5
ATOM      5  C   UNL     1       5.565   7.933  12.310  1.00  0.00     0.032 C 
BRANCH   5   6
ATOM      6  C   UNL     1       4.378   7.003  12.378  1.00  0.00    -0.028 C 
ATOM      7  C   UNL     1       3.186   4.875  12.679  1.00  0.00     0.039 C 
ATOM      8  C   UNL     1       4.463   5.672  12.596  1.00  0.00    -0.080 C 
ATOM      9  C   UNL     1       5.791   4.967  12.740  1.00  0.00     0.039 C 
ENDBRANCH   5   6
ENDBRANCH   4   5
ENDBRANCH   1   4
BRANCH   2  10
ATOM     10  C   UNL     1      10.305   8.255  13.782  1.00  0.00     0.055 C 
BRANCH  10  11
ATOM     11  C   UNL     1      11.073   8.645  15.018  1.00  0.00    -0.020 C 
ATOM     12  C   UNL     1      12.365   8.323  15.227  1.00  0.00    -0.055 C 
ATOM     13  C   UNL     1      13.157   7.527  14.215  1.00  0.00     0.044 C 
BRANCH  12  14
ATOM     14  C   UNL     1      12.979   8.714  16.523  1.00  0.00    -0.005 C 
ATOM     15  C   UNL     1      14.087   9.449  16.622  1.00  0.00     0.009 C 
ENDBRANCH  12  14
ENDBRANCH  10  11
ENDBRANCH   2  10
TORSDOF 6
ENDMDL
MODEL 2
REMARK VINA RESULT:     0.859      1.067      7.370
REMARK INTER + INTRA:           1.195
REMARK INTER:                   0.397
REMARK INTRA:                   0.798
REMARK UNBOUND:                 0.034
REMARK SMILES C=CC(C)=CCC=C(C)CCC=C(C)C
REMARK SMILES IDX 8 1 7 2 9 3 10 4 11 5 12 6 14 7 13 8 15 9 6 10 5 11 3 12
REMARK SMILES IDX 4 13 2 14 1 15
REMARK H PARENT
REMARK Flexibility Score: inf
ROOT
ATOM      1  C   UNL     1       8.054   7.780  13.823  1.00  0.00    -0.077 C 
ATOM      2  C   UNL     1       8.123   7.280  12.567  1.00  0.00    -0.024 C 
ATOM      3  C   UNL     1       6.979   7.345  14.792  1.00  0.00     0.039 C 
ENDROOT
BRANCH   1   4
ATOM      4  C   UNL     1       9.075   8.805  14.266  1.00  0.00     0.034 C 
BRANCH   4   5
ATOM      5  C   UNL     1      10.494   8.235  14.175  1.00  0.00     0.032 C 
BRANCH   5   6
ATOM      6  C   UNL     1      11.347   8.741  15.312  1.00  0.00    -0.028 C 
ATOM      7  C   UNL     1      13.384   9.028  16.658  1.00  0.00     0.039 C 
ATOM      8  C   UNL     1      12.644   8.411  15.498  1.00  0.00    -0.080 C 
ATOM      9  C   UNL     1      13.361   7.436  14.593  1.00  0.00     0.039 C 
ENDBRANCH   5   6
ENDBRANCH   4   5
ENDBRANCH   1   4
BRANCH   2  10
ATOM     10  C   UNL     1       7.170   6.252  12.012  1.00  0.00     0.055 C 
BRANCH  10  11
ATOM     11  C   UNL     1       5.810   6.365  12.651  1.00  0.00    -0.020 C 
ATOM     12  C   UNL     1       4.924   7.336  12.354  1.00  0.00    -0.055 C 
ATOM     13  C   UNL     1       5.237   8.410  11.336  1.00  0.00     0.044 C 
BRANCH  12  14
ATOM     14  C   UNL     1       3.646   7.367  13.110  1.00  0.00    -0.005 C 
ATOM     15  C   UNL     1       3.303   8.353  13.939  1.00  0.00     0.009 C 
ENDBRANCH  12  14
ENDBRANCH  10  11
ENDBRANCH   2  10
TORSDOF 6
ENDMDL
MODEL 3
REMARK VINA RESULT:     0.955      1.139      2.271
REMARK INTER + INTRA:           1.325
REMARK INTER:                   1.607
REMARK INTRA:                  -0.282
REMARK UNBOUND:                 0.034
REMARK SMILES C=CC(C)=CCC=C(C)CCC=C(C)C
REMARK SMILES IDX 8 1 7 2 9 3 10 4 11 5 12 6 14 7 13 8 15 9 6 10 5 11 3 12
REMARK SMILES IDX 4 13 2 14 1 15
REMARK H PARENT
REMARK Flexibility Score: inf
ROOT
ATOM      1  C   UNL     1       7.331   6.155  13.252  1.00  0.00    -0.077 C 
ATOM      2  C   UNL     1       7.496   7.265  14.009  1.00  0.00    -0.024 C 
ATOM      3  C   UNL     1       8.087   5.956  11.958  1.00  0.00     0.039 C 
ENDROOT
BRANCH   1   4
ATOM      4  C   UNL     1       6.361   5.088  13.709  1.00  0.00     0.034 C 
BRANCH   4   5
ATOM      5  C   UNL     1       5.040   5.187  12.938  1.00  0.00     0.032 C 
BRANCH   5   6
ATOM      6  C   UNL     1       5.066   6.352  11.980  1.00  0.00    -0.028 C 
ATOM      7  C   UNL     1       4.703   8.658  11.213  1.00  0.00     0.039 C 
ATOM      8  C   UNL     1       4.570   7.578  12.256  1.00  0.00    -0.080 C 
ATOM      9  C   UNL     1       3.878   7.887  13.563  1.00  0.00     0.039 C 
ENDBRANCH   5   6
ENDBRANCH   4   5
ENDBRANCH   1   4
BRANCH   2  10
ATOM     10  C   UNL     1       8.436   8.392  13.663  1.00  0.00     0.055 C 
BRANCH  10  11
ATOM     11  C   UNL     1       9.445   8.619  14.759  1.00  0.00    -0.020 C 
ATOM     12  C   UNL     1      10.770   8.427  14.607  1.00  0.00    -0.055 C 
ATOM     13  C   UNL     1      11.356   7.956  13.295  1.00  0.00     0.044 C 
BRANCH  12  14
ATOM     14  C   UNL     1      11.642   8.624  15.793  1.00  0.00    -0.005 C 
ATOM     15  C   UNL     1      12.974   8.628  15.736  1.00  0.00     0.009 C 
ENDBRANCH  12  14
ENDBRANCH  10  11
ENDBRANCH   2  10
TORSDOF 6
ENDMDL
MODEL 4
REMARK VINA RESULT:     2.292      2.624      4.408
REMARK INTER + INTRA:           3.130
REMARK INTER:                   2.912
REMARK INTRA:                   0.218
REMARK UNBOUND:                 0.034
REMARK SMILES C=CC(C)=CCC=C(C)CCC=C(C)C
REMARK SMILES IDX 8 1 7 2 9 3 10 4 11 5 12 6 14 7 13 8 15 9 6 10 5 11 3 12
REMARK SMILES IDX 4 13 2 14 1 15
REMARK H PARENT
REMARK Flexibility Score: inf
ROOT
ATOM      1  C   UNL     1       5.534   4.881  13.287  1.00  0.00    -0.077 C 
ATOM      2  C   UNL     1       6.295   4.876  12.168  1.00  0.00    -0.024 C 
ATOM      3  C   UNL     1       6.151   4.885  14.667  1.00  0.00     0.039 C 
ENDROOT
BRANCH   1   4
ATOM      4  C   UNL     1       4.027   4.875  13.154  1.00  0.00     0.034 C 
BRANCH   4   5
ATOM      5  C   UNL     1       3.580   5.760  11.987  1.00  0.00     0.032 C 
BRANCH   5   6
ATOM      6  C   UNL     1       4.420   7.011  11.912  1.00  0.00    -0.028 C 
ATOM      7  C   UNL     1       5.250   9.223  12.590  1.00  0.00     0.039 C 
ATOM      8  C   UNL     1       4.313   8.055  12.764  1.00  0.00    -0.080 C 
ATOM      9  C   UNL     1       3.279   8.087  13.865  1.00  0.00     0.039 C 
ENDBRANCH   5   6
ENDBRANCH   4   5
ENDBRANCH   1   4
BRANCH   2  10
ATOM     10  C   UNL     1       7.803   4.887  12.170  1.00  0.00     0.055 C 
BRANCH  10  11
ATOM     11  C   UNL     1       8.340   6.130  12.832  1.00  0.00    -0.020 C 
ATOM     12  C   UNL     1       8.215   7.366  12.311  1.00  0.00    -0.055 C 
ATOM     13  C   UNL     1       7.513   7.604  10.993  1.00  0.00     0.044 C 
BRANCH  12  14
ATOM     14  C   UNL     1       8.853   8.495  13.037  1.00  0.00    -0.005 C 
ATOM     15  C   UNL     1       8.919   8.573  14.366  1.00  0.00     0.009 C 
ENDBRANCH  12  14
ENDBRANCH  10  11
ENDBRANCH   2  10
TORSDOF 6
ENDMDL
