MODEL 1
REMARK VINA RESULT:    -3.471      0.000      0.000
REMARK INTER + INTRA:          -3.888
REMARK INTER:                  -3.877
REMARK INTRA:                  -0.012
REMARK UNBOUND:                -0.012
REMARK SMILES CCCC(=O)[O-]
REMARK SMILES IDX 3 1 4 2 5 3 6 4 2 5 1 6
REMARK H PARENT
REMARK Flexibility Score: inf
ROOT
ATOM      1  C   UNL     1     117.681 164.352 120.744  1.00  0.00     0.052 C 
ENDROOT
BRANCH   1   2
ATOM      2  C   UNL     1     117.045 165.051 119.581  1.00  0.00     0.041 C 
ATOM      3  O   UNL     1     117.542 164.948 118.430  1.00  0.00    -0.550 OA
ATOM      4  O   UNL     1     115.882 165.789 119.767  1.00  0.00    -0.550 OA
ENDBRANCH   1   2
BRANCH   1   5
ATOM      5  C   UNL     1     117.619 162.827 120.593  1.00  0.00     0.003 C 
ATOM      6  C   UNL     1     118.769 162.123 121.313  1.00  0.00     0.004 C 
ENDBRANCH   1   5
TORSDOF 2
ENDMDL
MODEL 2
REMARK VINA RESULT:    -3.453      2.261      3.455
REMARK INTER + INTRA:          -3.869
REMARK INTER:                  -3.861
REMARK INTRA:                  -0.007
REMARK UNBOUND:                -0.012
REMARK SMILES CCCC(=O)[O-]
REMARK SMILES IDX 3 1 4 2 5 3 6 4 2 5 1 6
REMARK H PARENT
REMARK Flexibility Score: inf
ROOT
ATOM      1  C   UNL     1     117.384 164.693 118.537  1.00  0.00     0.052 C 
ENDROOT
BRANCH   1   2
ATOM      2  C   UNL     1     116.807 165.185 119.829  1.00  0.00     0.041 C 
ATOM      3  O   UNL     1     115.770 165.897 119.830  1.00  0.00    -0.550 OA
ATOM      4  O   UNL     1     117.398 164.826 121.034  1.00  0.00    -0.550 OA
ENDBRANCH   1   2
BRANCH   1   5
ATOM      5  C   UNL     1     117.457 165.807 117.486  1.00  0.00     0.003 C 
ATOM      6  C   UNL     1     118.122 165.343 116.190  1.00  0.00     0.004 C 
ENDBRANCH   1   5
TORSDOF 2
ENDMDL
MODEL 3
REMARK VINA RESULT:    -3.429     14.413     15.936
REMARK INTER + INTRA:          -3.842
REMARK INTER:                  -3.835
REMARK INTRA:                  -0.007
REMARK UNBOUND:                -0.012
REMARK SMILES CCCC(=O)[O-]
REMARK SMILES IDX 3 1 4 2 5 3 6 4 2 5 1 6
REMARK H PARENT
REMARK Flexibility Score: inf
ROOT
ATOM      1  C   UNL     1     113.607 178.607 114.621  1.00  0.00     0.052 C 
ENDROOT
BRANCH   1   2
ATOM      2  C   UNL     1     114.162 177.704 115.680  1.00  0.00     0.041 C 
ATOM      3  O   UNL     1     113.636 176.580 115.894  1.00  0.00    -0.550 OA
ATOM      4  O   UNL     1     115.281 178.091 116.406  1.00  0.00    -0.550 OA
ENDBRANCH   1   2
BRANCH   1   5
ATOM      5  C   UNL     1     112.739 179.720 115.221  1.00  0.00     0.003 C 
ATOM      6  C   UNL     1     111.591 180.125 114.296  1.00  0.00     0.004 C 
ENDBRANCH   1   5
TORSDOF 2
ENDMDL
MODEL 4
REMARK VINA RESULT:    -3.313      2.150      3.138
REMARK INTER + INTRA:          -3.712
REMARK INTER:                  -3.705
REMARK INTRA:                  -0.007
REMARK UNBOUND:                -0.012
REMARK SMILES CCCC(=O)[O-]
REMARK SMILES IDX 3 1 4 2 5 3 6 4 2 5 1 6
REMARK H PARENT
REMARK Flexibility Score: inf
ROOT
ATOM      1  C   UNL     1     117.421 164.328 119.549  1.00  0.00     0.052 C 
ENDROOT
BRANCH   1   2
ATOM      2  C   UNL     1     117.545 164.756 120.980  1.00  0.00     0.041 C 
ATOM      3  O   UNL     1     118.570 164.455 121.645  1.00  0.00    -0.550 OA
ATOM      4  O   UNL     1     116.542 165.518 121.566  1.00  0.00    -0.550 OA
ENDBRANCH   1   2
BRANCH   1   5
ATOM      5  C   UNL     1     116.957 165.480 118.650  1.00  0.00     0.003 C 
ATOM      6  C   UNL     1     117.655 165.473 117.289  1.00  0.00     0.004 C 
ENDBRANCH   1   5
TORSDOF 2
ENDMDL
MODEL 5
REMARK VINA RESULT:    -3.268      1.838      2.260
REMARK INTER + INTRA:          -3.661
REMARK INTER:                  -3.639
REMARK INTRA:                  -0.022
REMARK UNBOUND:                -0.012
REMARK SMILES CCCC(=O)[O-]
REMARK SMILES IDX 3 1 4 2 5 3 6 4 2 5 1 6
REMARK H PARENT
REMARK Flexibility Score: inf
ROOT
ATOM      1  C   UNL     1     117.659 163.847 120.287  1.00  0.00     0.052 C 
ENDROOT
BRANCH   1   2
ATOM      2  C   UNL     1     117.730 164.913 121.337  1.00  0.00     0.041 C 
ATOM      3  O   UNL     1     116.674 165.426 121.793  1.00  0.00    -0.550 OA
ATOM      4  O   UNL     1     118.962 165.316 121.836  1.00  0.00    -0.550 OA
ENDBRANCH   1   2
BRANCH   1   5
ATOM      5  C   UNL     1     117.593 162.445 120.904  1.00  0.00     0.003 C 
ATOM      6  C   UNL     1     118.974 161.910 121.285  1.00  0.00     0.004 C 
ENDBRANCH   1   5
TORSDOF 2
ENDMDL
MODEL 6
REMARK VINA RESULT:    -3.159      2.823      3.748
REMARK INTER + INTRA:          -3.540
REMARK INTER:                  -3.529
REMARK INTRA:                  -0.011
REMARK UNBOUND:                -0.012
REMARK SMILES CCCC(=O)[O-]
REMARK SMILES IDX 3 1 4 2 5 3 6 4 2 5 1 6
REMARK H PARENT
REMARK Flexibility Score: inf
ROOT
ATOM      1  C   UNL     1     117.689 162.873 120.647  1.00  0.00     0.052 C 
ENDROOT
BRANCH   1   2
ATOM      2  C   UNL     1     118.869 162.417 121.450  1.00  0.00     0.041 C 
ATOM      3  O   UNL     1     119.310 161.245 121.320  1.00  0.00    -0.550 OA
ATOM      4  O   UNL     1     119.502 163.299 122.317  1.00  0.00    -0.550 OA
ENDBRANCH   1   2
BRANCH   1   5
ATOM      5  C   UNL     1     117.621 164.402 120.557  1.00  0.00     0.003 C 
ATOM      6  C   UNL     1     117.119 164.883 119.195  1.00  0.00     0.004 C 
ENDBRANCH   1   5
TORSDOF 2
ENDMDL
MODEL 7
REMARK VINA RESULT:    -3.149      1.987      2.590
REMARK INTER + INTRA:          -3.529
REMARK INTER:                  -3.513
REMARK INTRA:                  -0.015
REMARK UNBOUND:                -0.012
REMARK SMILES CCCC(=O)[O-]
REMARK SMILES IDX 3 1 4 2 5 3 6 4 2 5 1 6
REMARK H PARENT
REMARK Flexibility Score: inf
ROOT
ATOM      1  C   UNL     1     117.547 165.173 121.766  1.00  0.00     0.052 C 
ENDROOT
BRANCH   1   2
ATOM      2  C   UNL     1     116.240 165.828 122.095  1.00  0.00     0.041 C 
ATOM      3  O   UNL     1     115.508 166.279 121.176  1.00  0.00    -0.550 OA
ATOM      4  O   UNL     1     115.817 165.908 123.415  1.00  0.00    -0.550 OA
ENDBRANCH   1   2
BRANCH   1   5
ATOM      5  C   UNL     1     117.458 164.342 120.480  1.00  0.00     0.003 C 
ATOM      6  C   UNL     1     117.813 162.872 120.711  1.00  0.00     0.004 C 
ENDBRANCH   1   5
TORSDOF 2
ENDMDL
MODEL 8
REMARK VINA RESULT:    -3.147      1.346      2.021
REMARK INTER + INTRA:          -3.527
REMARK INTER:                  -3.486
REMARK INTRA:                  -0.041
REMARK UNBOUND:                -0.012
REMARK SMILES CCCC(=O)[O-]
REMARK SMILES IDX 3 1 4 2 5 3 6 4 2 5 1 6
REMARK H PARENT
REMARK Flexibility Score: inf
ROOT
ATOM      1  C   UNL     1     117.472 164.106 119.884  1.00  0.00     0.052 C 
ENDROOT
BRANCH   1   2
ATOM      2  C   UNL     1     116.913 165.224 119.059  1.00  0.00     0.041 C 
ATOM      3  O   UNL     1     115.942 165.903 119.484  1.00  0.00    -0.550 OA
ATOM      4  O   UNL     1     117.489 165.538 117.834  1.00  0.00    -0.550 OA
ENDBRANCH   1   2
BRANCH   1   5
ATOM      5  C   UNL     1     117.431 164.430 121.383  1.00  0.00     0.003 C 
ATOM      6  C   UNL     1     118.718 165.097 121.869  1.00  0.00     0.004 C 
ENDBRANCH   1   5
TORSDOF 2
ENDMDL
MODEL 9
REMARK VINA RESULT:    -3.135      2.197      3.154
REMARK INTER + INTRA:          -3.513
REMARK INTER:                  -3.498
REMARK INTRA:                  -0.015
REMARK UNBOUND:                -0.012
REMARK SMILES CCCC(=O)[O-]
REMARK SMILES IDX 3 1 4 2 5 3 6 4 2 5 1 6
REMARK H PARENT
REMARK Flexibility Score: inf
ROOT
ATOM      1  C   UNL     1     117.671 164.710 118.127  1.00  0.00     0.052 C 
ENDROOT
BRANCH   1   2
ATOM      2  C   UNL     1     117.637 165.640 116.953  1.00  0.00     0.041 C 
ATOM      3  O   UNL     1     116.981 166.712 117.013  1.00  0.00    -0.550 OA
ATOM      4  O   UNL     1     118.360 165.337 115.807  1.00  0.00    -0.550 OA
ENDBRANCH   1   2
BRANCH   1   5
ATOM      5  C   UNL     1     116.795 165.217 119.280  1.00  0.00     0.003 C 
ATOM      6  C   UNL     1     117.309 164.762 120.646  1.00  0.00     0.004 C 
ENDBRANCH   1   5
TORSDOF 2
ENDMDL
