MODEL 1
REMARK VINA RESULT:    -3.963      0.000      0.000
REMARK INTER + INTRA:          -5.178
REMARK INTER:                  -5.816
REMARK INTRA:                   0.638
REMARK UNBOUND:                 0.638
REMARK SMILES C=C1CC=CC(C)(C)CC=C(C)CCC1
REMARK SMILES IDX 2 1 1 2 15 3 14 4 13 5 11 6 12 7 10 8 3 10 4 11 5 12 6 13
REMARK SMILES IDX 7 14 8 15 9 16
REMARK H PARENT
REMARK Flexibility Score: 60.00
ROOT
ATOM      1  C   UNL     1       4.722  -3.100  19.014  1.00  0.00    -0.074 C 
ATOM      2  C   UNL     1       5.789  -2.981  19.823  1.00  0.00     0.008 C 
ENDROOT
BRANCH   1   3
ATOM      3  C   UNL     1       3.865  -4.352  19.059  1.00  0.00     0.031 C 
BRANCH   3   4
ATOM      4  C   UNL     1       2.483  -4.089  19.696  1.00  0.00     0.009 C 
BRANCH   4   5
ATOM      5  C   UNL     1       1.318  -4.232  18.693  1.00  0.00     0.030 C 
BRANCH   5   6
ATOM      6  C   UNL     1       0.824  -2.877  18.214  1.00  0.00    -0.077 C 
ATOM      7  C   UNL     1      -0.030  -2.071  19.160  1.00  0.00     0.039 C 
ATOM      8  C   UNL     1       1.075  -2.349  16.989  1.00  0.00    -0.027 CG0
ATOM      9  G   UNL     1       1.899  -2.970  15.874  1.00  0.00     0.000 G0
ENDBRANCH   5   6
ENDBRANCH   4   5
ENDBRANCH   3   4
ENDBRANCH   1   3
BRANCH   1  10
ATOM     10  C   UNL     1       4.396  -1.985  18.046  1.00  0.00     0.057 C 
BRANCH  10  11
ATOM     11  C   UNL     1       4.994  -2.287  16.696  1.00  0.00    -0.026 C 
ATOM     12  C   UNL     1       4.366  -2.255  15.500  1.00  0.00    -0.024 C 
BRANCH  12  13
ATOM     13  C   UNL     1       2.896  -1.936  15.199  1.00  0.00    -0.014 C 
ATOM     14  C   UNL     1       2.706  -2.006  13.663  1.00  0.00     0.016 C 
ATOM     15  C   UNL     1       2.553  -0.492  15.629  1.00  0.00     0.016 C 
BRANCH  13  16
ATOM     16  C   UNL     1       1.913  -2.944  15.871  1.00  0.00     0.038 CG0
ATOM     17  G   UNL     1       1.098  -2.335  16.998  1.00  0.00     0.000 G0
ENDBRANCH  13  16
ENDBRANCH  12  13
ENDBRANCH  10  11
ENDBRANCH   1  10
TORSDOF 0
ENDMDL
MODEL 2
REMARK VINA RESULT:    -3.766      1.718      4.180
REMARK INTER + INTRA:          -4.889
REMARK INTER:                  -5.504
REMARK INTRA:                   0.615
REMARK UNBOUND:                 0.638
REMARK SMILES C=C1CC=CC(C)(C)CC=C(C)CCC1
REMARK SMILES IDX 2 1 1 2 15 3 14 4 13 5 11 6 12 7 10 8 3 10 4 11 5 12 6 13
REMARK SMILES IDX 7 14 8 15 9 16
REMARK H PARENT
REMARK Flexibility Score: 60.00
ROOT
ATOM      1  C   UNL     1       7.256  -2.312  16.554  1.00  0.00    -0.074 C 
ATOM      2  C   UNL     1       8.386  -1.605  16.723  1.00  0.00     0.008 C 
ENDROOT
BRANCH   1   3
ATOM      3  C   UNL     1       6.507  -2.252  15.235  1.00  0.00     0.031 C 
BRANCH   3   4
ATOM      4  C   UNL     1       5.191  -1.452  15.348  1.00  0.00     0.009 C 
BRANCH   4   5
ATOM      5  C   UNL     1       3.933  -2.328  15.156  1.00  0.00     0.030 C 
BRANCH   5   6
ATOM      6  C   UNL     1       2.860  -1.997  16.179  1.00  0.00    -0.077 C 
ATOM      7  C   UNL     1       1.925  -0.856  15.866  1.00  0.00     0.039 C 
ATOM      8  C   UNL     1       2.696  -2.637  17.365  1.00  0.00    -0.027 CG0
ATOM      9  G   UNL     1       3.510  -3.804  17.898  1.00  0.00     0.000 G0
ENDBRANCH   5   6
ENDBRANCH   4   5
ENDBRANCH   3   4
ENDBRANCH   1   3
BRANCH   1  10
ATOM     10  C   UNL     1       6.725  -3.149  17.695  1.00  0.00     0.057 C 
BRANCH  10  11
ATOM     11  C   UNL     1       6.151  -2.255  18.765  1.00  0.00    -0.026 C 
ATOM     12  C   UNL     1       5.019  -2.456  19.474  1.00  0.00    -0.024 C 
BRANCH  12  13
ATOM     13  C   UNL     1       4.014  -3.611  19.367  1.00  0.00    -0.014 C 
ATOM     14  C   UNL     1       2.808  -3.268  20.277  1.00  0.00     0.016 C 
ATOM     15  C   UNL     1       4.630  -4.920  19.911  1.00  0.00     0.016 C 
BRANCH  13  16
ATOM     16  C   UNL     1       3.497  -3.824  17.911  1.00  0.00     0.038 CG0
ATOM     17  G   UNL     1       2.701  -2.648  17.372  1.00  0.00     0.000 G0
ENDBRANCH  13  16
ENDBRANCH  12  13
ENDBRANCH  10  11
ENDBRANCH   1  10
TORSDOF 0
ENDMDL
MODEL 3
REMARK VINA RESULT:    -3.729      2.152      5.072
REMARK INTER + INTRA:          -4.835
REMARK INTER:                  -5.357
REMARK INTRA:                   0.523
REMARK UNBOUND:                 0.638
REMARK SMILES C=C1CC=CC(C)(C)CC=C(C)CCC1
REMARK SMILES IDX 2 1 1 2 15 3 14 4 13 5 11 6 12 7 10 8 3 10 4 11 5 12 6 13
REMARK SMILES IDX 7 14 8 15 9 16
REMARK H PARENT
REMARK Flexibility Score: 60.00
ROOT
ATOM      1  C   UNL     1       3.139  -2.609  17.015  1.00  0.00    -0.074 C 
ATOM      2  C   UNL     1       3.377  -2.633  15.693  1.00  0.00     0.008 C 
ENDROOT
BRANCH   1   3
ATOM      3  C   UNL     1       4.053  -1.829  17.943  1.00  0.00     0.031 C 
BRANCH   3   4
ATOM      4  C   UNL     1       5.412  -2.532  18.148  1.00  0.00     0.009 C 
BRANCH   4   5
ATOM      5  C   UNL     1       5.295  -3.853  18.940  1.00  0.00     0.030 C 
BRANCH   5   6
ATOM      6  C   UNL     1       4.903  -3.605  20.387  1.00  0.00    -0.077 C 
ATOM      7  C   UNL     1       5.867  -2.830  21.249  1.00  0.00     0.039 C 
ATOM      8  C   UNL     1       3.759  -4.050  20.967  1.00  0.00    -0.027 CG0
ATOM      9  G   UNL     1       2.647  -4.848  20.308  1.00  0.00     0.000 G0
ENDBRANCH   5   6
ENDBRANCH   4   5
ENDBRANCH   3   4
ENDBRANCH   1   3
BRANCH   1  10
ATOM     10  C   UNL     1       1.966  -3.383  17.573  1.00  0.00     0.057 C 
BRANCH  10  11
ATOM     11  C   UNL     1       1.271  -2.568  18.635  1.00  0.00    -0.026 C 
ATOM     12  C   UNL     1       0.970  -2.955  19.893  1.00  0.00    -0.024 C 
BRANCH  12  13
ATOM     13  C   UNL     1       1.220  -4.313  20.562  1.00  0.00    -0.014 C 
ATOM     14  C   UNL     1       0.187  -5.315  19.990  1.00  0.00     0.016 C 
ATOM     15  C   UNL     1       0.965  -4.225  22.084  1.00  0.00     0.016 C 
BRANCH  13  16
ATOM     16  C   UNL     1       2.655  -4.862  20.289  1.00  0.00     0.038 CG0
ATOM     17  G   UNL     1       3.751  -4.054  20.962  1.00  0.00     0.000 G0
ENDBRANCH  13  16
ENDBRANCH  12  13
ENDBRANCH  10  11
ENDBRANCH   1  10
TORSDOF 0
ENDMDL
MODEL 4
REMARK VINA RESULT:    -3.694      2.494      5.093
REMARK INTER + INTRA:          -4.784
REMARK INTER:                  -5.209
REMARK INTRA:                   0.425
REMARK UNBOUND:                 0.638
REMARK SMILES C=C1CC=CC(C)(C)CC=C(C)CCC1
REMARK SMILES IDX 2 1 1 2 15 3 14 4 13 5 11 6 12 7 10 8 3 10 4 11 5 12 6 13
REMARK SMILES IDX 7 14 8 15 9 16
REMARK H PARENT
REMARK Flexibility Score: 60.00
ROOT
ATOM      1  C   UNL     1       5.876  -2.665  18.768  1.00  0.00    -0.074 C 
ATOM      2  C   UNL     1       6.822  -2.729  17.817  1.00  0.00     0.008 C 
ENDROOT
BRANCH   1   3
ATOM      3  C   UNL     1       4.600  -1.878  18.524  1.00  0.00     0.031 C 
BRANCH   3   4
ATOM      4  C   UNL     1       3.666  -2.582  17.516  1.00  0.00     0.009 C 
BRANCH   4   5
ATOM      5  C   UNL     1       3.119  -3.929  18.036  1.00  0.00     0.030 C 
BRANCH   5   6
ATOM      6  C   UNL     1       2.114  -3.729  19.157  1.00  0.00    -0.077 C 
ATOM      7  C   UNL     1       0.967  -2.784  18.907  1.00  0.00     0.039 C 
ATOM      8  C   UNL     1       2.186  -4.321  20.377  1.00  0.00    -0.027 CG0
ATOM      9  G   UNL     1       3.243  -5.300  20.861  1.00  0.00     0.000 G0
ENDBRANCH   5   6
ENDBRANCH   4   5
ENDBRANCH   3   4
ENDBRANCH   1   3
BRANCH   1  10
ATOM     10  C   UNL     1       6.101  -3.363  20.090  1.00  0.00     0.057 C 
BRANCH  10  11
ATOM     11  C   UNL     1       5.271  -2.708  21.164  1.00  0.00    -0.026 C 
ATOM     12  C   UNL     1       4.419  -3.314  22.020  1.00  0.00    -0.024 C 
BRANCH  12  13
ATOM     13  C   UNL     1       4.050  -4.801  22.111  1.00  0.00    -0.014 C 
ATOM     14  C   UNL     1       3.169  -4.988  23.371  1.00  0.00     0.016 C 
ATOM     15  C   UNL     1       5.316  -5.664  22.316  1.00  0.00     0.016 C 
BRANCH  13  16
ATOM     16  C   UNL     1       3.255  -5.300  20.865  1.00  0.00     0.038 CG0
ATOM     17  G   UNL     1       2.202  -4.316  20.386  1.00  0.00     0.000 G0
ENDBRANCH  13  16
ENDBRANCH  12  13
ENDBRANCH  10  11
ENDBRANCH   1  10
TORSDOF 0
ENDMDL
MODEL 5
REMARK VINA RESULT:    -3.660      1.431      4.134
REMARK INTER + INTRA:          -4.733
REMARK INTER:                  -5.326
REMARK INTRA:                   0.594
REMARK UNBOUND:                 0.638
REMARK SMILES C=C1CC=CC(C)(C)CC=C(C)CCC1
REMARK SMILES IDX 2 1 1 2 15 3 14 4 13 5 11 6 12 7 10 8 3 10 4 11 5 12 6 13
REMARK SMILES IDX 7 14 8 15 9 16
REMARK H PARENT
REMARK Flexibility Score: 60.00
ROOT
ATOM      1  C   UNL     1       1.397  -3.633  19.581  1.00  0.00    -0.074 C 
ATOM      2  C   UNL     1       0.898  -4.850  19.303  1.00  0.00     0.008 C 
ENDROOT
BRANCH   1   3
ATOM      3  C   UNL     1       0.687  -2.385  19.088  1.00  0.00     0.031 C 
BRANCH   3   4
ATOM      4  C   UNL     1       0.579  -2.347  17.548  1.00  0.00     0.009 C 
BRANCH   4   5
ATOM      5  C   UNL     1       1.635  -1.432  16.890  1.00  0.00     0.030 C 
BRANCH   5   6
ATOM      6  C   UNL     1       2.779  -2.236  16.294  1.00  0.00    -0.077 C 
ATOM      7  C   UNL     1       2.545  -2.901  14.962  1.00  0.00     0.039 C 
ATOM      8  C   UNL     1       3.987  -2.418  16.885  1.00  0.00    -0.027 CG0
ATOM      9  G   UNL     1       4.452  -1.855  18.217  1.00  0.00     0.000 G0
ENDBRANCH   5   6
ENDBRANCH   4   5
ENDBRANCH   3   4
ENDBRANCH   1   3
BRANCH   1  10
ATOM     10  C   UNL     1       2.682  -3.519  20.369  1.00  0.00     0.057 C 
BRANCH  10  11
ATOM     11  C   UNL     1       3.704  -4.487  19.829  1.00  0.00    -0.026 C 
ATOM     12  C   UNL     1       4.883  -4.186  19.244  1.00  0.00    -0.024 C 
BRANCH  12  13
ATOM     13  C   UNL     1       5.480  -2.803  18.950  1.00  0.00    -0.014 C 
ATOM     14  C   UNL     1       6.715  -3.011  18.038  1.00  0.00     0.016 C 
ATOM     15  C   UNL     1       5.988  -2.141  20.250  1.00  0.00     0.016 C 
BRANCH  13  16
ATOM     16  C   UNL     1       4.474  -1.857  18.223  1.00  0.00     0.038 CG0
ATOM     17  G   UNL     1       3.980  -2.404  16.894  1.00  0.00     0.000 G0
ENDBRANCH  13  16
ENDBRANCH  12  13
ENDBRANCH  10  11
ENDBRANCH   1  10
TORSDOF 0
ENDMDL
MODEL 6
REMARK VINA RESULT:    -3.656      2.565      4.361
REMARK INTER + INTRA:          -4.727
REMARK INTER:                  -5.422
REMARK INTRA:                   0.695
REMARK UNBOUND:                 0.638
REMARK SMILES C=C1CC=CC(C)(C)CC=C(C)CCC1
REMARK SMILES IDX 2 1 1 2 15 3 14 4 13 5 11 6 12 7 10 8 3 10 4 11 5 12 6 13
REMARK SMILES IDX 7 14 8 15 9 16
REMARK H PARENT
REMARK Flexibility Score: 60.00
ROOT
ATOM      1  C   UNL     1       5.538  -2.354  18.922  1.00  0.00    -0.074 C 
ATOM      2  C   UNL     1       6.375  -2.659  17.916  1.00  0.00     0.008 C 
ENDROOT
BRANCH   1   3
ATOM      3  C   UNL     1       6.072  -2.166  20.331  1.00  0.00     0.031 C 
BRANCH   3   4
ATOM      4  C   UNL     1       5.916  -3.440  21.188  1.00  0.00     0.009 C 
BRANCH   4   5
ATOM      5  C   UNL     1       4.633  -3.438  22.047  1.00  0.00     0.030 C 
BRANCH   5   6
ATOM      6  C   UNL     1       3.800  -4.687  21.811  1.00  0.00    -0.077 C 
ATOM      7  C   UNL     1       4.350  -5.998  22.314  1.00  0.00     0.039 C 
ATOM      8  C   UNL     1       2.609  -4.713  21.161  1.00  0.00    -0.027 CG0
ATOM      9  G   UNL     1       1.862  -3.530  20.567  1.00  0.00     0.000 G0
ENDBRANCH   5   6
ENDBRANCH   4   5
ENDBRANCH   3   4
ENDBRANCH   1   3
BRANCH   1  10
ATOM     10  C   UNL     1       4.058  -2.222  18.644  1.00  0.00     0.057 C 
BRANCH  10  11
ATOM     11  C   UNL     1       3.561  -3.445  17.917  1.00  0.00    -0.026 C 
ATOM     12  C   UNL     1       2.394  -4.096  18.118  1.00  0.00    -0.024 C 
BRANCH  12  13
ATOM     13  C   UNL     1       1.292  -3.790  19.140  1.00  0.00    -0.014 C 
ATOM     14  C   UNL     1       0.351  -5.019  19.196  1.00  0.00     0.016 C 
ATOM     15  C   UNL     1       0.436  -2.590  18.675  1.00  0.00     0.016 C 
BRANCH  13  16
ATOM     16  C   UNL     1       1.855  -3.526  20.571  1.00  0.00     0.038 CG0
ATOM     17  G   UNL     1       2.599  -4.714  21.157  1.00  0.00     0.000 G0
ENDBRANCH  13  16
ENDBRANCH  12  13
ENDBRANCH  10  11
ENDBRANCH   1  10
TORSDOF 0
ENDMDL
MODEL 7
REMARK VINA RESULT:    -3.591      1.611      3.816
REMARK INTER + INTRA:          -4.633
REMARK INTER:                  -5.406
REMARK INTRA:                   0.773
REMARK UNBOUND:                 0.638
REMARK SMILES C=C1CC=CC(C)(C)CC=C(C)CCC1
REMARK SMILES IDX 2 1 1 2 15 3 14 4 13 5 11 6 12 7 10 8 3 10 4 11 5 12 6 13
REMARK SMILES IDX 7 14 8 15 9 16
REMARK H PARENT
REMARK Flexibility Score: 60.00
ROOT
ATOM      1  C   UNL     1       3.990  -3.922  20.506  1.00  0.00    -0.074 C 
ATOM      2  C   UNL     1       4.209  -5.247  20.546  1.00  0.00     0.008 C 
ENDROOT
BRANCH   1   3
ATOM      3  C   UNL     1       4.979  -2.964  21.146  1.00  0.00     0.031 C 
BRANCH   3   4
ATOM      4  C   UNL     1       6.243  -2.769  20.280  1.00  0.00     0.009 C 
BRANCH   4   5
ATOM      5  C   UNL     1       6.061  -1.706  19.175  1.00  0.00     0.030 C 
BRANCH   5   6
ATOM      6  C   UNL     1       5.997  -2.338  17.796  1.00  0.00    -0.077 C 
ATOM      7  C   UNL     1       7.265  -2.937  17.242  1.00  0.00     0.039 C 
ATOM      8  C   UNL     1       4.887  -2.383  17.015  1.00  0.00    -0.027 CG0
ATOM      9  G   UNL     1       3.506  -1.848  17.352  1.00  0.00     0.000 G0
ENDBRANCH   5   6
ENDBRANCH   4   5
ENDBRANCH   3   4
ENDBRANCH   1   3
BRANCH   1  10
ATOM     10  C   UNL     1       2.740  -3.394  19.839  1.00  0.00     0.057 C 
BRANCH  10  11
ATOM     11  C   UNL     1       2.314  -4.329  18.735  1.00  0.00    -0.026 C 
ATOM     12  C   UNL     1       2.165  -4.030  17.426  1.00  0.00    -0.024 C 
BRANCH  12  13
ATOM     13  C   UNL     1       2.355  -2.679  16.725  1.00  0.00    -0.014 C 
ATOM     14  C   UNL     1       1.033  -1.884  16.873  1.00  0.00     0.016 C 
ATOM     15  C   UNL     1       2.592  -2.879  15.211  1.00  0.00     0.016 C 
BRANCH  13  16
ATOM     16  C   UNL     1       3.515  -1.839  17.344  1.00  0.00     0.038 CG0
ATOM     17  G   UNL     1       4.896  -2.380  17.015  1.00  0.00     0.000 G0
ENDBRANCH  13  16
ENDBRANCH  12  13
ENDBRANCH  10  11
ENDBRANCH   1  10
TORSDOF 0
ENDMDL
MODEL 8
REMARK VINA RESULT:    -3.587      2.631      5.101
REMARK INTER + INTRA:          -4.626
REMARK INTER:                  -5.258
REMARK INTRA:                   0.632
REMARK UNBOUND:                 0.638
REMARK SMILES C=C1CC=CC(C)(C)CC=C(C)CCC1
REMARK SMILES IDX 2 1 1 2 15 3 14 4 13 5 11 6 12 7 10 8 3 10 4 11 5 12 6 13
REMARK SMILES IDX 7 14 8 15 9 16
REMARK H PARENT
REMARK Flexibility Score: 60.00
ROOT
ATOM      1  C   UNL     1       3.518  -2.575  17.785  1.00  0.00    -0.074 C 
ATOM      2  C   UNL     1       3.863  -2.480  16.490  1.00  0.00     0.008 C 
ENDROOT
BRANCH   1   3
ATOM      3  C   UNL     1       2.089  -2.301  18.217  1.00  0.00     0.031 C 
BRANCH   3   4
ATOM      4  C   UNL     1       1.320  -3.600  18.544  1.00  0.00     0.009 C 
BRANCH   4   5
ATOM      5  C   UNL     1       0.737  -3.614  19.974  1.00  0.00     0.030 C 
BRANCH   5   6
ATOM      6  C   UNL     1       1.011  -4.933  20.677  1.00  0.00    -0.077 C 
ATOM      7  C   UNL     1       0.003  -6.041  20.501  1.00  0.00     0.039 C 
ATOM      8  C   UNL     1       2.085  -5.180  21.469  1.00  0.00    -0.027 CG0
ATOM      9  G   UNL     1       3.223  -4.227  21.795  1.00  0.00     0.000 G0
ENDBRANCH   5   6
ENDBRANCH   4   5
ENDBRANCH   3   4
ENDBRANCH   1   3
BRANCH   1  10
ATOM     10  C   UNL     1       4.569  -2.936  18.811  1.00  0.00     0.057 C 
BRANCH  10  11
ATOM     11  C   UNL     1       4.739  -4.433  18.866  1.00  0.00    -0.026 C 
ATOM     12  C   UNL     1       4.761  -5.211  19.970  1.00  0.00    -0.024 C 
BRANCH  12  13
ATOM     13  C   UNL     1       4.650  -4.789  21.441  1.00  0.00    -0.014 C 
ATOM     14  C   UNL     1       5.701  -3.678  21.690  1.00  0.00     0.016 C 
ATOM     15  C   UNL     1       5.012  -5.966  22.375  1.00  0.00     0.016 C 
BRANCH  13  16
ATOM     16  C   UNL     1       3.238  -4.231  21.802  1.00  0.00     0.038 CG0
ATOM     17  G   UNL     1       2.106  -5.188  21.469  1.00  0.00     0.000 G0
ENDBRANCH  13  16
ENDBRANCH  12  13
ENDBRANCH  10  11
ENDBRANCH   1  10
TORSDOF 0
ENDMDL
MODEL 9
REMARK VINA RESULT:    -3.518      1.246      3.382
REMARK INTER + INTRA:          -4.524
REMARK INTER:                  -5.100
REMARK INTRA:                   0.575
REMARK UNBOUND:                 0.638
REMARK SMILES C=C1CC=CC(C)(C)CC=C(C)CCC1
REMARK SMILES IDX 2 1 1 2 15 3 14 4 13 5 11 6 12 7 10 8 3 10 4 11 5 12 6 13
REMARK SMILES IDX 7 14 8 15 9 16
REMARK H PARENT
REMARK Flexibility Score: 60.00
ROOT
ATOM      1  C   UNL     1       1.296  -4.116  19.154  1.00  0.00    -0.074 C 
ATOM      2  C   UNL     1       0.733  -5.153  19.796  1.00  0.00     0.008 C 
ENDROOT
BRANCH   1   3
ATOM      3  C   UNL     1       2.267  -3.203  19.882  1.00  0.00     0.031 C 
BRANCH   3   4
ATOM      4  C   UNL     1       3.607  -3.906  20.190  1.00  0.00     0.009 C 
BRANCH   4   5
ATOM      5  C   UNL     1       4.486  -4.108  18.936  1.00  0.00     0.030 C 
BRANCH   5   6
ATOM      6  C   UNL     1       4.908  -2.781  18.329  1.00  0.00    -0.077 C 
ATOM      7  C   UNL     1       5.852  -1.917  19.126  1.00  0.00     0.039 C 
ATOM      8  C   UNL     1       4.480  -2.306  17.131  1.00  0.00    -0.027 CG0
ATOM      9  G   UNL     1       3.533  -2.989  16.159  1.00  0.00     0.000 G0
ENDBRANCH   5   6
ENDBRANCH   4   5
ENDBRANCH   3   4
ENDBRANCH   1   3
BRANCH   1  10
ATOM     10  C   UNL     1       0.940  -3.853  17.709  1.00  0.00     0.057 C 
BRANCH  10  11
ATOM     11  C   UNL     1       0.773  -2.372  17.482  1.00  0.00    -0.026 C 
ATOM     12  C   UNL     1       1.405  -1.612  16.562  1.00  0.00    -0.024 C 
BRANCH  12  13
ATOM     13  C   UNL     1       2.465  -2.034  15.537  1.00  0.00    -0.014 C 
ATOM     14  C   UNL     1       3.167  -0.748  15.032  1.00  0.00     0.016 C 
ATOM     15  C   UNL     1       1.801  -2.695  14.307  1.00  0.00     0.016 C 
BRANCH  13  16
ATOM     16  C   UNL     1       3.542  -2.986  16.143  1.00  0.00     0.038 CG0
ATOM     17  G   UNL     1       4.465  -2.302  17.137  1.00  0.00     0.000 G0
ENDBRANCH  13  16
ENDBRANCH  12  13
ENDBRANCH  10  11
ENDBRANCH   1  10
TORSDOF 0
ENDMDL
