MODEL 1
REMARK VINA RESULT:    -4.596      0.000      0.000
REMARK INTER + INTRA:          -5.064
REMARK INTER:                  -4.999
REMARK INTRA:                  -0.065
REMARK UNBOUND:                -0.065
REMARK SMILES COc1cc2ccc(=O)oc2cc1O
REMARK SMILES IDX 3 1 13 2 12 3 11 4 5 5 4 6 6 7 7 8 8 9 9 10 10 11 2 12 1 13
REMARK SMILES IDX 14 14
REMARK H PARENT 14 15
REMARK Flexibility Score: inf
ROOT
ATOM      1  C   UNL     1      11.563  13.387  19.728  1.00  0.00     0.161 A 
ATOM      2  C   UNL     1      12.393  14.361  19.153  1.00  0.00     0.161 A 
ATOM      3  C   UNL     1      13.109  15.252  19.966  1.00  0.00     0.098 A 
ATOM      4  C   UNL     1      13.002  15.177  21.357  1.00  0.00     0.142 A 
ATOM      5  C   UNL     1      12.170  14.200  21.944  1.00  0.00     0.022 A 
ATOM      6  C   UNL     1      11.453  13.309  21.132  1.00  0.00     0.062 A 
ATOM      7  C   UNL     1      12.084  14.150  23.339  1.00  0.00     0.019 A 
ATOM      8  C   UNL     1      12.816  15.057  24.104  1.00  0.00     0.094 A 
ATOM      9  C   UNL     1      13.621  15.998  23.452  1.00  0.00     0.336 A 
ATOM     10  O   UNL     1      14.289  16.826  24.125  1.00  0.00    -0.246 OA
ATOM     11  O   UNL     1      13.684  16.024  22.123  1.00  0.00    -0.423 OA
ENDROOT
BRANCH   1  12
ATOM     12  O   UNL     1      10.864  12.516  18.876  1.00  0.00    -0.493 OA
ATOM     13  C   UNL     1       9.478  12.625  18.573  1.00  0.00     0.278 C 
ENDBRANCH   1  12
BRANCH   2  14
ATOM     14  O   UNL     1      12.502  14.439  17.765  1.00  0.00    -0.504 OA
ATOM     15  H   UNL     1      13.402  14.409  17.301  1.00  0.00     0.293 HD
ENDBRANCH   2  14
TORSDOF 2
ENDMDL
MODEL 2
REMARK VINA RESULT:    -4.554      1.464      2.638
REMARK INTER + INTRA:          -5.018
REMARK INTER:                  -4.978
REMARK INTRA:                  -0.040
REMARK UNBOUND:                -0.065
REMARK SMILES COc1cc2ccc(=O)oc2cc1O
REMARK SMILES IDX 3 1 13 2 12 3 11 4 5 5 4 6 6 7 7 8 8 9 9 10 10 11 2 12 1 13
REMARK SMILES IDX 14 14
REMARK H PARENT 14 15
REMARK Flexibility Score: inf
ROOT
ATOM      1  C   UNL     1      11.117  12.955  19.885  1.00  0.00     0.161 A 
ATOM      2  C   UNL     1      10.874  12.999  21.267  1.00  0.00     0.161 A 
ATOM      3  C   UNL     1      11.607  13.869  22.088  1.00  0.00     0.098 A 
ATOM      4  C   UNL     1      12.587  14.699  21.537  1.00  0.00     0.142 A 
ATOM      5  C   UNL     1      12.837  14.661  20.149  1.00  0.00     0.022 A 
ATOM      6  C   UNL     1      12.105  13.792  19.327  1.00  0.00     0.062 A 
ATOM      7  C   UNL     1      13.824  15.504  19.627  1.00  0.00     0.019 A 
ATOM      8  C   UNL     1      14.525  16.351  20.485  1.00  0.00     0.094 A 
ATOM      9  C   UNL     1      14.222  16.334  21.851  1.00  0.00     0.336 A 
ATOM     10  O   UNL     1      14.844  17.091  22.641  1.00  0.00    -0.246 OA
ATOM     11  O   UNL     1      13.279  15.522  22.321  1.00  0.00    -0.423 OA
ENDROOT
BRANCH   1  12
ATOM     12  O   UNL     1      10.360  12.069  19.102  1.00  0.00    -0.493 OA
ATOM     13  C   UNL     1       9.125  12.401  18.476  1.00  0.00     0.278 C 
ENDBRANCH   1  12
BRANCH   2  14
ATOM     14  O   UNL     1       9.897  12.172  21.820  1.00  0.00    -0.504 OA
ATOM     15  H   UNL     1      10.038  11.173  21.910  1.00  0.00     0.293 HD
ENDBRANCH   2  14
TORSDOF 2
ENDMDL
MODEL 3
REMARK VINA RESULT:    -4.505      2.077      3.715
REMARK INTER + INTRA:          -4.965
REMARK INTER:                  -4.918
REMARK INTRA:                  -0.047
REMARK UNBOUND:                -0.065
REMARK SMILES COc1cc2ccc(=O)oc2cc1O
REMARK SMILES IDX 3 1 13 2 12 3 11 4 5 5 4 6 6 7 7 8 8 9 9 10 10 11 2 12 1 13
REMARK SMILES IDX 14 14
REMARK H PARENT 14 15
REMARK Flexibility Score: inf
ROOT
ATOM      1  C   UNL     1      13.333  14.862  20.111  1.00  0.00     0.161 A 
ATOM      2  C   UNL     1      12.389  14.150  19.355  1.00  0.00     0.161 A 
ATOM      3  C   UNL     1      11.319  13.499  19.987  1.00  0.00     0.098 A 
ATOM      4  C   UNL     1      11.185  13.553  21.377  1.00  0.00     0.142 A 
ATOM      5  C   UNL     1      12.129  14.267  22.144  1.00  0.00     0.022 A 
ATOM      6  C   UNL     1      13.199  14.918  21.513  1.00  0.00     0.062 A 
ATOM      7  C   UNL     1      11.968  14.303  23.534  1.00  0.00     0.019 A 
ATOM      8  C   UNL     1      10.888  13.639  24.115  1.00  0.00     0.094 A 
ATOM      9  C   UNL     1       9.991  12.952  23.290  1.00  0.00     0.336 A 
ATOM     10  O   UNL     1       9.010  12.347  23.796  1.00  0.00    -0.246 OA
ATOM     11  O   UNL     1      10.168  12.934  21.971  1.00  0.00    -0.423 OA
ENDROOT
BRANCH   1  12
ATOM     12  O   UNL     1      14.387  15.498  19.436  1.00  0.00    -0.493 OA
ATOM     13  C   UNL     1      15.125  16.601  19.950  1.00  0.00     0.278 C 
ENDBRANCH   1  12
BRANCH   2  14
ATOM     14  O   UNL     1      12.520  14.094  17.968  1.00  0.00    -0.504 OA
ATOM     15  H   UNL     1      11.753  14.336  17.352  1.00  0.00     0.293 HD
ENDBRANCH   2  14
TORSDOF 2
ENDMDL
MODEL 4
REMARK VINA RESULT:    -4.490      2.076      3.211
REMARK INTER + INTRA:          -4.949
REMARK INTER:                  -4.891
REMARK INTRA:                  -0.057
REMARK UNBOUND:                -0.065
REMARK SMILES COc1cc2ccc(=O)oc2cc1O
REMARK SMILES IDX 3 1 13 2 12 3 11 4 5 5 4 6 6 7 7 8 8 9 9 10 10 11 2 12 1 13
REMARK SMILES IDX 14 14
REMARK H PARENT 14 15
REMARK Flexibility Score: inf
ROOT
ATOM      1  C   UNL     1      10.630  13.012  22.295  1.00  0.00     0.161 A 
ATOM      2  C   UNL     1      10.492  13.010  20.898  1.00  0.00     0.161 A 
ATOM      3  C   UNL     1      11.353  13.777  20.100  1.00  0.00     0.098 A 
ATOM      4  C   UNL     1      12.356  14.551  20.688  1.00  0.00     0.142 A 
ATOM      5  C   UNL     1      12.502  14.558  22.091  1.00  0.00     0.022 A 
ATOM      6  C   UNL     1      11.642  13.792  22.891  1.00  0.00     0.062 A 
ATOM      7  C   UNL     1      13.516  15.343  22.651  1.00  0.00     0.019 A 
ATOM      8  C   UNL     1      14.346  16.088  21.815  1.00  0.00     0.094 A 
ATOM      9  C   UNL     1      14.142  16.031  20.431  1.00  0.00     0.336 A 
ATOM     10  O   UNL     1      14.881  16.696  19.660  1.00  0.00    -0.246 OA
ATOM     11  O   UNL     1      13.170  15.276  19.926  1.00  0.00    -0.423 OA
ENDROOT
BRANCH   1  12
ATOM     12  O   UNL     1       9.746  12.229  23.054  1.00  0.00    -0.493 OA
ATOM     13  C   UNL     1       8.940  12.725  24.117  1.00  0.00     0.278 C 
ENDBRANCH   1  12
BRANCH   2  14
ATOM     14  O   UNL     1       9.491  12.239  20.308  1.00  0.00    -0.504 OA
ATOM     15  H   UNL     1       9.436  12.120  19.303  1.00  0.00     0.293 HD
ENDBRANCH   2  14
TORSDOF 2
ENDMDL
MODEL 5
REMARK VINA RESULT:    -4.383      1.383      4.782
REMARK INTER + INTRA:          -4.832
REMARK INTER:                  -4.768
REMARK INTRA:                  -0.064
REMARK UNBOUND:                -0.065
REMARK SMILES COc1cc2ccc(=O)oc2cc1O
REMARK SMILES IDX 3 1 13 2 12 3 11 4 5 5 4 6 6 7 7 8 8 9 9 10 10 11 2 12 1 13
REMARK SMILES IDX 14 14
REMARK H PARENT 14 15
REMARK Flexibility Score: inf
ROOT
ATOM      1  C   UNL     1      14.058  15.569  21.453  1.00  0.00     0.161 A 
ATOM      2  C   UNL     1      14.128  15.857  20.081  1.00  0.00     0.161 A 
ATOM      3  C   UNL     1      13.213  15.279  19.188  1.00  0.00     0.098 A 
ATOM      4  C   UNL     1      12.224  14.411  19.657  1.00  0.00     0.142 A 
ATOM      5  C   UNL     1      12.146  14.117  21.034  1.00  0.00     0.022 A 
ATOM      6  C   UNL     1      13.060  14.693  21.928  1.00  0.00     0.062 A 
ATOM      7  C   UNL     1      11.144  13.244  21.473  1.00  0.00     0.019 A 
ATOM      8  C   UNL     1      10.259  12.696  20.546  1.00  0.00     0.094 A 
ATOM      9  C   UNL     1      10.397  13.034  19.195  1.00  0.00     0.336 A 
ATOM     10  O   UNL     1       9.608  12.550  18.343  1.00  0.00    -0.246 OA
ATOM     11  O   UNL     1      11.359  13.867  18.805  1.00  0.00    -0.423 OA
ENDROOT
BRANCH   1  12
ATOM     12  O   UNL     1      14.994  16.169  22.310  1.00  0.00    -0.493 OA
ATOM     13  C   UNL     1      14.687  17.197  23.245  1.00  0.00     0.278 C 
ENDBRANCH   1  12
BRANCH   2  14
ATOM     14  O   UNL     1      15.114  16.722  19.610  1.00  0.00    -0.504 OA
ATOM     15  H   UNL     1      14.883  17.543  19.063  1.00  0.00     0.293 HD
ENDBRANCH   2  14
TORSDOF 2
ENDMDL
MODEL 6
REMARK VINA RESULT:    -3.732      1.619      5.276
REMARK INTER + INTRA:          -4.125
REMARK INTER:                  -4.089
REMARK INTRA:                  -0.036
REMARK UNBOUND:                -0.065
REMARK SMILES COc1cc2ccc(=O)oc2cc1O
REMARK SMILES IDX 3 1 13 2 12 3 11 4 5 5 4 6 6 7 7 8 8 9 9 10 10 11 2 12 1 13
REMARK SMILES IDX 14 14
REMARK H PARENT 14 15
REMARK Flexibility Score: inf
ROOT
ATOM      1  C   UNL     1      13.981  15.404  22.103  1.00  0.00     0.161 A 
ATOM      2  C   UNL     1      13.653  14.306  22.913  1.00  0.00     0.161 A 
ATOM      3  C   UNL     1      12.663  13.398  22.509  1.00  0.00     0.098 A 
ATOM      4  C   UNL     1      11.995  13.579  21.295  1.00  0.00     0.142 A 
ATOM      5  C   UNL     1      12.320  14.680  20.475  1.00  0.00     0.022 A 
ATOM      6  C   UNL     1      13.308  15.589  20.878  1.00  0.00     0.062 A 
ATOM      7  C   UNL     1      11.633  14.834  19.265  1.00  0.00     0.019 A 
ATOM      8  C   UNL     1      10.658  13.904  18.908  1.00  0.00     0.094 A 
ATOM      9  C   UNL     1      10.390  12.837  19.772  1.00  0.00     0.336 A 
ATOM     10  O   UNL     1       9.513  11.987  19.468  1.00  0.00    -0.246 OA
ATOM     11  O   UNL     1      11.057  12.714  20.917  1.00  0.00    -0.423 OA
ENDROOT
BRANCH   1  12
ATOM     12  O   UNL     1      14.978  16.288  22.547  1.00  0.00    -0.493 OA
ATOM     13  C   UNL     1      14.737  17.436  23.353  1.00  0.00     0.278 C 
ENDBRANCH   1  12
BRANCH   2  14
ATOM     14  O   UNL     1      14.317  14.123  24.125  1.00  0.00    -0.504 OA
ATOM     15  H   UNL     1      15.303  13.889  24.160  1.00  0.00     0.293 HD
ENDBRANCH   2  14
TORSDOF 2
ENDMDL
MODEL 7
REMARK VINA RESULT:    -3.682      2.297      4.638
REMARK INTER + INTRA:          -4.071
REMARK INTER:                  -4.024
REMARK INTRA:                  -0.046
REMARK UNBOUND:                -0.065
REMARK SMILES COc1cc2ccc(=O)oc2cc1O
REMARK SMILES IDX 3 1 13 2 12 3 11 4 5 5 4 6 6 7 7 8 8 9 9 10 10 11 2 12 1 13
REMARK SMILES IDX 14 14
REMARK H PARENT 14 15
REMARK Flexibility Score: inf
ROOT
ATOM      1  C   UNL     1      14.031  15.675  21.859  1.00  0.00     0.161 A 
ATOM      2  C   UNL     1      13.853  15.941  23.226  1.00  0.00     0.161 A 
ATOM      3  C   UNL     1      12.823  15.314  23.941  1.00  0.00     0.098 A 
ATOM      4  C   UNL     1      11.962  14.420  23.299  1.00  0.00     0.142 A 
ATOM      5  C   UNL     1      12.134  14.147  21.926  1.00  0.00     0.022 A 
ATOM      6  C   UNL     1      13.163  14.773  21.209  1.00  0.00     0.062 A 
ATOM      7  C   UNL     1      11.256  13.247  21.311  1.00  0.00     0.019 A 
ATOM      8  C   UNL     1      10.247  12.651  22.066  1.00  0.00     0.094 A 
ATOM      9  C   UNL     1      10.138  12.969  23.424  1.00  0.00     0.336 A 
ATOM     10  O   UNL     1       9.234  12.441  24.122  1.00  0.00    -0.246 OA
ATOM     11  O   UNL     1      10.986  13.829  23.983  1.00  0.00    -0.423 OA
ENDROOT
BRANCH   1  12
ATOM     12  O   UNL     1      15.076  16.325  21.182  1.00  0.00    -0.493 OA
ATOM     13  C   UNL     1      15.125  16.521  19.773  1.00  0.00     0.278 C 
ENDBRANCH   1  12
BRANCH   2  14
ATOM     14  O   UNL     1      14.710  16.833  23.869  1.00  0.00    -0.504 OA
ATOM     15  H   UNL     1      14.364  17.519  24.529  1.00  0.00     0.293 HD
ENDBRANCH   2  14
TORSDOF 2
ENDMDL
MODEL 8
REMARK VINA RESULT:    -3.279      1.862      3.152
REMARK INTER + INTRA:          -3.632
REMARK INTER:                  -3.576
REMARK INTRA:                  -0.055
REMARK UNBOUND:                -0.065
REMARK SMILES COc1cc2ccc(=O)oc2cc1O
REMARK SMILES IDX 3 1 13 2 12 3 11 4 5 5 4 6 6 7 7 8 8 9 9 10 10 11 2 12 1 13
REMARK SMILES IDX 14 14
REMARK H PARENT 14 15
REMARK Flexibility Score: inf
ROOT
ATOM      1  C   UNL     1      11.741  13.384  21.962  1.00  0.00     0.161 A 
ATOM      2  C   UNL     1      11.713  13.415  23.365  1.00  0.00     0.161 A 
ATOM      3  C   UNL     1      12.412  14.409  24.066  1.00  0.00     0.098 A 
ATOM      4  C   UNL     1      13.144  15.376  23.373  1.00  0.00     0.142 A 
ATOM      5  C   UNL     1      13.177  15.353  21.963  1.00  0.00     0.022 A 
ATOM      6  C   UNL     1      12.479  14.361  21.261  1.00  0.00     0.062 A 
ATOM      7  C   UNL     1      13.918  16.336  21.298  1.00  0.00     0.019 A 
ATOM      8  C   UNL     1      14.596  17.302  22.041  1.00  0.00     0.094 A 
ATOM      9  C   UNL     1      14.517  17.263  23.437  1.00  0.00     0.336 A 
ATOM     10  O   UNL     1      15.122  18.126  24.125  1.00  0.00    -0.246 OA
ATOM     11  O   UNL     1      13.805  16.317  24.044  1.00  0.00    -0.423 OA
ENDROOT
BRANCH   1  12
ATOM     12  O   UNL     1      11.026  12.372  21.302  1.00  0.00    -0.493 OA
ATOM     13  C   UNL     1      10.104  12.597  20.241  1.00  0.00     0.278 C 
ENDBRANCH   1  12
BRANCH   2  14
ATOM     14  O   UNL     1      10.984  12.451  24.059  1.00  0.00    -0.504 OA
ATOM     15  H   UNL     1      10.474  11.721  23.575  1.00  0.00     0.293 HD
ENDBRANCH   2  14
TORSDOF 2
ENDMDL
MODEL 9
REMARK VINA RESULT:    -2.755     24.847     26.244
REMARK INTER + INTRA:          -3.062
REMARK INTER:                  -2.997
REMARK INTRA:                  -0.065
REMARK UNBOUND:                -0.065
REMARK SMILES COc1cc2ccc(=O)oc2cc1O
REMARK SMILES IDX 3 1 13 2 12 3 11 4 5 5 4 6 6 7 7 8 8 9 9 10 10 11 2 12 1 13
REMARK SMILES IDX 14 14
REMARK H PARENT 14 15
REMARK Flexibility Score: inf
ROOT
ATOM      1  C   UNL     1      -3.221  30.480   5.421  1.00  0.00     0.161 A 
ATOM      2  C   UNL     1      -3.963  31.540   5.965  1.00  0.00     0.161 A 
ATOM      3  C   UNL     1      -3.625  32.072   7.218  1.00  0.00     0.098 A 
ATOM      4  C   UNL     1      -2.546  31.551   7.936  1.00  0.00     0.142 A 
ATOM      5  C   UNL     1      -1.795  30.486   7.397  1.00  0.00     0.022 A 
ATOM      6  C   UNL     1      -2.131  29.953   6.145  1.00  0.00     0.062 A 
ATOM      7  C   UNL     1      -0.720  29.985   8.140  1.00  0.00     0.019 A 
ATOM      8  C   UNL     1      -0.425  30.548   9.381  1.00  0.00     0.094 A 
ATOM      9  C   UNL     1      -1.214  31.604   9.852  1.00  0.00     0.336 A 
ATOM     10  O   UNL     1      -0.963  32.125  10.970  1.00  0.00    -0.246 OA
ATOM     11  O   UNL     1      -2.230  32.060   9.125  1.00  0.00    -0.423 OA
ENDROOT
BRANCH   1  12
ATOM     12  O   UNL     1      -3.595  29.979   4.164  1.00  0.00    -0.493 OA
ATOM     13  C   UNL     1      -4.352  28.791   3.963  1.00  0.00     0.278 C 
ENDBRANCH   1  12
BRANCH   2  14
ATOM     14  O   UNL     1      -5.040  32.063   5.250  1.00  0.00    -0.504 OA
ATOM     15  H   UNL     1      -5.114  33.053   5.050  1.00  0.00     0.293 HD
ENDBRANCH   2  14
TORSDOF 2
ENDMDL
