MODEL 1
REMARK VINA RESULT:    -3.610      0.000      0.000
REMARK INTER + INTRA:          -5.292
REMARK INTER:                  -4.876
REMARK INTRA:                  -0.416
REMARK UNBOUND:                -0.416
REMARK SMILES O=C[C@H](O)[C@@H](O)[C@H](O)CO
REMARK SMILES IDX 7 1 9 2 10 3 5 5 3 6 2 7 1 8 4 9 6 11 8 13
REMARK H PARENT 10 4 4 10 6 12 8 14
REMARK Flexibility Score: inf
ROOT
ATOM      1  C   UNL     1      25.862 -12.205 -19.956  1.00  0.00     0.171 C 
ENDROOT
BRANCH   1   2
ATOM      2  C   UNL     1      27.289 -12.364 -20.506  1.00  0.00     0.190 C 
BRANCH   2   3
ATOM      3  O   UNL     1      27.927 -11.118 -20.592  1.00  0.00    -0.394 OA
ATOM      4  H   UNL     1      27.282 -10.444 -20.254  1.00  0.00     0.210 HD
ENDBRANCH   2   3
ENDBRANCH   1   2
BRANCH   1   5
ATOM      5  C   UNL     1      25.823 -12.007 -18.414  1.00  0.00     0.181 C 
BRANCH   5   6
ATOM      6  C   UNL     1      25.703 -10.519 -17.971  1.00  0.00     0.209 C 
BRANCH   6   7
ATOM      7  C   UNL     1      24.813  -9.726 -18.889  1.00  0.00     0.258 C 
ATOM      8  O   UNL     1      23.844  -9.125 -18.452  1.00  0.00    -0.300 OA
ENDBRANCH   6   7
BRANCH   6   9
ATOM      9  O   UNL     1      26.970  -9.909 -17.972  1.00  0.00    -0.383 OA
ATOM     10  H   UNL     1      26.868  -9.018 -17.546  1.00  0.00     0.211 HD
ENDBRANCH   6   9
ENDBRANCH   5   6
BRANCH   5  11
ATOM     11  O   UNL     1      24.756 -12.751 -17.875  1.00  0.00    -0.387 OA
ATOM     12  H   UNL     1      24.166 -12.118 -17.389  1.00  0.00     0.211 HD
ENDBRANCH   5  11
ENDBRANCH   1   5
BRANCH   1  13
ATOM     13  O   UNL     1      25.129 -13.357 -20.291  1.00  0.00    -0.388 OA
ATOM     14  H   UNL     1      24.358 -13.066 -20.845  1.00  0.00     0.211 HD
ENDBRANCH   1  13
TORSDOF 8
ENDMDL
MODEL 2
REMARK VINA RESULT:    -3.594     19.254     21.228
REMARK INTER + INTRA:          -5.270
REMARK INTER:                  -4.596
REMARK INTRA:                  -0.675
REMARK UNBOUND:                -0.416
REMARK SMILES O=C[C@H](O)[C@@H](O)[C@H](O)CO
REMARK SMILES IDX 7 1 9 2 10 3 5 5 3 6 2 7 1 8 4 9 6 11 8 13
REMARK H PARENT 10 4 4 10 6 12 8 14
REMARK Flexibility Score: inf
ROOT
ATOM      1  C   UNL     1      35.492  -4.884 -37.537  1.00  0.00     0.171 C 
ENDROOT
BRANCH   1   2
ATOM      2  C   UNL     1      34.595  -3.681 -37.873  1.00  0.00     0.190 C 
BRANCH   2   3
ATOM      3  O   UNL     1      35.357  -2.506 -37.960  1.00  0.00    -0.394 OA
ATOM      4  H   UNL     1      35.547  -2.360 -38.923  1.00  0.00     0.210 HD
ENDBRANCH   2   3
ENDBRANCH   1   2
BRANCH   1   5
ATOM      5  C   UNL     1      35.673  -5.098 -36.007  1.00  0.00     0.181 C 
BRANCH   5   6
ATOM      6  C   UNL     1      36.995  -5.829 -35.625  1.00  0.00     0.209 C 
BRANCH   6   7
ATOM      7  C   UNL     1      36.993  -6.286 -34.192  1.00  0.00     0.258 C 
ATOM      8  O   UNL     1      36.003  -6.138 -33.492  1.00  0.00    -0.300 OA
ENDBRANCH   6   7
BRANCH   6   9
ATOM      9  O   UNL     1      38.093  -4.968 -35.798  1.00  0.00    -0.383 OA
ATOM     10  H   UNL     1      37.736  -4.094 -36.104  1.00  0.00     0.211 HD
ENDBRANCH   6   9
ENDBRANCH   5   6
BRANCH   5  11
ATOM     11  O   UNL     1      35.610  -3.855 -35.351  1.00  0.00    -0.387 OA
ATOM     12  H   UNL     1      36.536  -3.503 -35.288  1.00  0.00     0.211 HD
ENDBRANCH   5  11
ENDBRANCH   1   5
BRANCH   1  13
ATOM     13  O   UNL     1      36.752  -4.672 -38.125  1.00  0.00    -0.388 OA
ATOM     14  H   UNL     1      36.671  -4.901 -39.087  1.00  0.00     0.211 HD
ENDBRANCH   1  13
TORSDOF 8
ENDMDL
MODEL 3
REMARK VINA RESULT:    -3.590     18.732     20.050
REMARK INTER + INTRA:          -5.265
REMARK INTER:                  -4.529
REMARK INTRA:                  -0.736
REMARK UNBOUND:                -0.416
REMARK SMILES O=C[C@H](O)[C@@H](O)[C@H](O)CO
REMARK SMILES IDX 7 1 9 2 10 3 5 5 3 6 2 7 1 8 4 9 6 11 8 13
REMARK H PARENT 10 4 4 10 6 12 8 14
REMARK Flexibility Score: inf
ROOT
ATOM      1  C   UNL     1      28.830   0.578 -34.978  1.00  0.00     0.171 C 
ENDROOT
BRANCH   1   2
ATOM      2  C   UNL     1      27.661   1.341 -34.332  1.00  0.00     0.190 C 
BRANCH   2   3
ATOM      3  O   UNL     1      27.207   2.358 -35.183  1.00  0.00    -0.394 OA
ATOM      4  H   UNL     1      27.979   2.624 -35.748  1.00  0.00     0.210 HD
ENDBRANCH   2   3
ENDBRANCH   1   2
BRANCH   1   5
ATOM      5  C   UNL     1      28.363  -0.504 -35.993  1.00  0.00     0.181 C 
BRANCH   5   6
ATOM      6  C   UNL     1      28.613  -1.966 -35.518  1.00  0.00     0.209 C 
BRANCH   6   7
ATOM      7  C   UNL     1      28.246  -2.974 -36.573  1.00  0.00     0.258 C 
ATOM      8  O   UNL     1      27.973  -2.616 -37.708  1.00  0.00    -0.300 OA
ENDBRANCH   6   7
BRANCH   6   9
ATOM      9  O   UNL     1      27.843  -2.243 -34.375  1.00  0.00    -0.383 OA
ATOM     10  H   UNL     1      28.202  -3.078 -33.974  1.00  0.00     0.211 HD
ENDBRANCH   6   9
ENDBRANCH   5   6
BRANCH   5  11
ATOM     11  O   UNL     1      26.995  -0.322 -36.273  1.00  0.00    -0.387 OA
ATOM     12  H   UNL     1      26.918  -0.076 -37.232  1.00  0.00     0.211 HD
ENDBRANCH   5  11
ENDBRANCH   1   5
BRANCH   1  13
ATOM     13  O   UNL     1      29.571  -0.041 -33.955  1.00  0.00    -0.388 OA
ATOM     14  H   UNL     1      30.147   0.656 -33.545  1.00  0.00     0.211 HD
ENDBRANCH   1  13
TORSDOF 8
ENDMDL
MODEL 4
REMARK VINA RESULT:    -3.540      3.129      4.875
REMARK INTER + INTRA:          -5.198
REMARK INTER:                  -4.266
REMARK INTRA:                  -0.932
REMARK UNBOUND:                -0.416
REMARK SMILES O=C[C@H](O)[C@@H](O)[C@H](O)CO
REMARK SMILES IDX 7 1 9 2 10 3 5 5 3 6 2 7 1 8 4 9 6 11 8 13
REMARK H PARENT 10 4 4 10 6 12 8 14
REMARK Flexibility Score: inf
ROOT
ATOM      1  C   UNL     1      24.367 -13.215 -22.990  1.00  0.00     0.171 C 
ENDROOT
BRANCH   1   2
ATOM      2  C   UNL     1      23.542 -12.730 -24.194  1.00  0.00     0.190 C 
BRANCH   2   3
ATOM      3  O   UNL     1      23.711 -11.351 -24.384  1.00  0.00    -0.394 OA
ATOM      4  H   UNL     1      23.090 -10.898 -23.756  1.00  0.00     0.210 HD
ENDBRANCH   2   3
ENDBRANCH   1   2
BRANCH   1   5
ATOM      5  C   UNL     1      25.375 -12.148 -22.475  1.00  0.00     0.181 C 
BRANCH   5   6
ATOM      6  C   UNL     1      25.925 -12.438 -21.046  1.00  0.00     0.209 C 
BRANCH   6   7
ATOM      7  C   UNL     1      27.360 -12.887 -21.074  1.00  0.00     0.258 C 
ATOM      8  O   UNL     1      27.683 -13.906 -21.666  1.00  0.00    -0.300 OA
ENDBRANCH   6   7
BRANCH   6   9
ATOM      9  O   UNL     1      25.170 -13.453 -20.433  1.00  0.00    -0.383 OA
ATOM     10  H   UNL     1      24.233 -13.354 -20.747  1.00  0.00     0.211 HD
ENDBRANCH   6   9
ENDBRANCH   5   6
BRANCH   5  11
ATOM     11  O   UNL     1      26.445 -12.039 -23.383  1.00  0.00    -0.387 OA
ATOM     12  H   UNL     1      27.193 -11.590 -22.910  1.00  0.00     0.211 HD
ENDBRANCH   5  11
ENDBRANCH   1   5
BRANCH   1  13
ATOM     13  O   UNL     1      25.075 -14.368 -23.376  1.00  0.00    -0.388 OA
ATOM     14  H   UNL     1      24.539 -14.822 -24.077  1.00  0.00     0.211 HD
ENDBRANCH   1  13
TORSDOF 8
ENDMDL
MODEL 5
REMARK VINA RESULT:    -3.524      3.256      4.906
REMARK INTER + INTRA:          -5.175
REMARK INTER:                  -4.520
REMARK INTRA:                  -0.655
REMARK UNBOUND:                -0.416
REMARK SMILES O=C[C@H](O)[C@@H](O)[C@H](O)CO
REMARK SMILES IDX 7 1 9 2 10 3 5 5 3 6 2 7 1 8 4 9 6 11 8 13
REMARK H PARENT 10 4 4 10 6 12 8 14
REMARK Flexibility Score: inf
ROOT
ATOM      1  C   UNL     1      26.624 -12.480 -21.680  1.00  0.00     0.171 C 
ENDROOT
BRANCH   1   2
ATOM      2  C   UNL     1      26.269 -12.694 -20.200  1.00  0.00     0.190 C 
BRANCH   2   3
ATOM      3  O   UNL     1      25.132 -13.506 -20.078  1.00  0.00    -0.394 OA
ATOM      4  H   UNL     1      25.418 -14.329 -19.602  1.00  0.00     0.210 HD
ENDBRANCH   2   3
ENDBRANCH   1   2
BRANCH   1   5
ATOM      5  C   UNL     1      25.388 -12.563 -22.621  1.00  0.00     0.181 C 
BRANCH   5   6
ATOM      6  C   UNL     1      25.459 -11.601 -23.843  1.00  0.00     0.209 C 
BRANCH   6   7
ATOM      7  C   UNL     1      24.229 -11.689 -24.704  1.00  0.00     0.258 C 
ATOM      8  O   UNL     1      23.208 -12.209 -24.281  1.00  0.00    -0.300 OA
ENDBRANCH   6   7
BRANCH   6   9
ATOM      9  O   UNL     1      26.568 -11.919 -24.647  1.00  0.00    -0.383 OA
ATOM     10  H   UNL     1      26.229 -12.073 -25.568  1.00  0.00     0.211 HD
ENDBRANCH   6   9
ENDBRANCH   5   6
BRANCH   5  11
ATOM     11  O   UNL     1      25.228 -13.888 -23.066  1.00  0.00    -0.387 OA
ATOM     12  H   UNL     1      25.808 -14.006 -23.864  1.00  0.00     0.211 HD
ENDBRANCH   5  11
ENDBRANCH   1   5
BRANCH   1  13
ATOM     13  O   UNL     1      27.555 -13.465 -22.058  1.00  0.00    -0.388 OA
ATOM     14  H   UNL     1      27.204 -13.904 -22.876  1.00  0.00     0.211 HD
ENDBRANCH   1  13
TORSDOF 8
ENDMDL
MODEL 6
REMARK VINA RESULT:    -3.492      1.289      2.008
REMARK INTER + INTRA:          -5.132
REMARK INTER:                  -4.481
REMARK INTRA:                  -0.651
REMARK UNBOUND:                -0.416
REMARK SMILES O=C[C@H](O)[C@@H](O)[C@H](O)CO
REMARK SMILES IDX 7 1 9 2 10 3 5 5 3 6 2 7 1 8 4 9 6 11 8 13
REMARK H PARENT 10 4 4 10 6 12 8 14
REMARK Flexibility Score: inf
ROOT
ATOM      1  C   UNL     1      25.685 -12.538 -20.960  1.00  0.00     0.171 C 
ENDROOT
BRANCH   1   2
ATOM      2  C   UNL     1      26.963 -13.128 -21.580  1.00  0.00     0.190 C 
BRANCH   2   3
ATOM      3  O   UNL     1      27.352 -12.388 -22.706  1.00  0.00    -0.394 OA
ATOM      4  H   UNL     1      27.172 -11.434 -22.496  1.00  0.00     0.210 HD
ENDBRANCH   2   3
ENDBRANCH   1   2
BRANCH   1   5
ATOM      5  C   UNL     1      25.958 -11.275 -20.093  1.00  0.00     0.181 C 
BRANCH   5   6
ATOM      6  C   UNL     1      25.405 -11.376 -18.640  1.00  0.00     0.209 C 
BRANCH   6   7
ATOM      7  C   UNL     1      25.590 -10.094 -17.875  1.00  0.00     0.258 C 
ATOM      8  O   UNL     1      25.583  -9.017 -18.453  1.00  0.00    -0.300 OA
ENDBRANCH   6   7
BRANCH   6   9
ATOM      9  O   UNL     1      26.074 -12.394 -17.936  1.00  0.00    -0.383 OA
ATOM     10  H   UNL     1      25.899 -13.246 -18.415  1.00  0.00     0.211 HD
ENDBRANCH   6   9
ENDBRANCH   5   6
BRANCH   5  11
ATOM     11  O   UNL     1      27.342 -11.021 -20.060  1.00  0.00    -0.387 OA
ATOM     12  H   UNL     1      27.463 -10.039 -19.980  1.00  0.00     0.211 HD
ENDBRANCH   5  11
ENDBRANCH   1   5
BRANCH   1  13
ATOM     13  O   UNL     1      25.087 -13.526 -20.157  1.00  0.00    -0.388 OA
ATOM     14  H   UNL     1      25.813 -13.969 -19.645  1.00  0.00     0.211 HD
ENDBRANCH   1  13
TORSDOF 8
ENDMDL
MODEL 7
REMARK VINA RESULT:    -3.487     14.236     15.744
REMARK INTER + INTRA:          -5.126
REMARK INTER:                  -4.216
REMARK INTRA:                  -0.910
REMARK UNBOUND:                -0.416
REMARK SMILES O=C[C@H](O)[C@@H](O)[C@H](O)CO
REMARK SMILES IDX 7 1 9 2 10 3 5 5 3 6 2 7 1 8 4 9 6 11 8 13
REMARK H PARENT 10 4 4 10 6 12 8 14
REMARK Flexibility Score: inf
ROOT
ATOM      1  C   UNL     1      27.441 -12.656 -34.101  1.00  0.00     0.171 C 
ENDROOT
BRANCH   1   2
ATOM      2  C   UNL     1      27.727 -11.338 -34.840  1.00  0.00     0.190 C 
BRANCH   2   3
ATOM      3  O   UNL     1      28.061 -11.586 -36.179  1.00  0.00    -0.394 OA
ATOM      4  H   UNL     1      28.176 -10.701 -36.613  1.00  0.00     0.210 HD
ENDBRANCH   2   3
ENDBRANCH   1   2
BRANCH   1   5
ATOM      5  C   UNL     1      28.704 -13.258 -33.420  1.00  0.00     0.181 C 
BRANCH   5   6
ATOM      6  C   UNL     1      28.447 -14.616 -32.702  1.00  0.00     0.209 C 
BRANCH   6   7
ATOM      7  C   UNL     1      28.957 -15.783 -33.503  1.00  0.00     0.258 C 
ATOM      8  O   UNL     1      28.435 -16.085 -34.565  1.00  0.00    -0.300 OA
ENDBRANCH   6   7
BRANCH   6   9
ATOM      9  O   UNL     1      27.069 -14.805 -32.500  1.00  0.00    -0.383 OA
ATOM     10  H   UNL     1      26.769 -14.116 -31.851  1.00  0.00     0.211 HD
ENDBRANCH   6   9
ENDBRANCH   5   6
BRANCH   5  11
ATOM     11  O   UNL     1      29.723 -13.410 -34.378  1.00  0.00    -0.387 OA
ATOM     12  H   UNL     1      29.578 -12.722 -35.080  1.00  0.00     0.211 HD
ENDBRANCH   5  11
ENDBRANCH   1   5
BRANCH   1  13
ATOM     13  O   UNL     1      26.936 -13.583 -35.031  1.00  0.00    -0.388 OA
ATOM     14  H   UNL     1      27.328 -14.467 -34.809  1.00  0.00     0.211 HD
ENDBRANCH   1  13
TORSDOF 8
ENDMDL
MODEL 8
REMARK VINA RESULT:    -3.475     18.317     19.730
REMARK INTER + INTRA:          -5.109
REMARK INTER:                  -4.389
REMARK INTRA:                  -0.720
REMARK UNBOUND:                -0.416
REMARK SMILES O=C[C@H](O)[C@@H](O)[C@H](O)CO
REMARK SMILES IDX 7 1 9 2 10 3 5 5 3 6 2 7 1 8 4 9 6 11 8 13
REMARK H PARENT 10 4 4 10 6 12 8 14
REMARK Flexibility Score: inf
ROOT
ATOM      1  C   UNL     1      27.841   0.678 -33.927  1.00  0.00     0.171 C 
ENDROOT
BRANCH   1   2
ATOM      2  C   UNL     1      27.733   1.041 -32.437  1.00  0.00     0.190 C 
BRANCH   2   3
ATOM      3  O   UNL     1      28.922   0.721 -31.765  1.00  0.00    -0.394 OA
ATOM      4  H   UNL     1      29.409   1.575 -31.624  1.00  0.00     0.210 HD
ENDBRANCH   2   3
ENDBRANCH   1   2
BRANCH   1   5
ATOM      5  C   UNL     1      28.858  -0.467 -34.203  1.00  0.00     0.181 C 
BRANCH   5   6
ATOM      6  C   UNL     1      28.589  -1.246 -35.524  1.00  0.00     0.209 C 
BRANCH   6   7
ATOM      7  C   UNL     1      29.779  -1.222 -36.446  1.00  0.00     0.258 C 
ATOM      8  O   UNL     1      30.741  -1.945 -36.240  1.00  0.00    -0.300 OA
ENDBRANCH   6   7
BRANCH   6   9
ATOM      9  O   UNL     1      27.504  -0.675 -36.212  1.00  0.00    -0.383 OA
ATOM     10  H   UNL     1      27.444   0.275 -35.930  1.00  0.00     0.211 HD
ENDBRANCH   6   9
ENDBRANCH   5   6
BRANCH   5  11
ATOM     11  O   UNL     1      30.163   0.062 -34.219  1.00  0.00    -0.387 OA
ATOM     12  H   UNL     1      30.695  -0.477 -34.861  1.00  0.00     0.211 HD
ENDBRANCH   5  11
ENDBRANCH   1   5
BRANCH   1  13
ATOM     13  O   UNL     1      28.239   1.827 -34.634  1.00  0.00    -0.388 OA
ATOM     14  H   UNL     1      27.413   2.296 -34.924  1.00  0.00     0.211 HD
ENDBRANCH   1  13
TORSDOF 8
ENDMDL
MODEL 9
REMARK VINA RESULT:    -2.289     20.582     21.623
REMARK INTER + INTRA:          -3.507
REMARK INTER:                  -2.567
REMARK INTRA:                  -0.940
REMARK UNBOUND:                -0.416
REMARK SMILES O=C[C@H](O)[C@@H](O)[C@H](O)CO
REMARK SMILES IDX 7 1 9 2 10 3 5 5 3 6 2 7 1 8 4 9 6 11 8 13
REMARK H PARENT 10 4 4 10 6 12 8 14
REMARK Flexibility Score: inf
ROOT
ATOM      1  C   UNL     1      35.063  -4.829 -36.291  1.00  0.00     0.171 C 
ENDROOT
BRANCH   1   2
ATOM      2  C   UNL     1      36.217  -5.832 -36.138  1.00  0.00     0.190 C 
BRANCH   2   3
ATOM      3  O   UNL     1      37.455  -5.181 -36.251  1.00  0.00    -0.394 OA
ATOM      4  H   UNL     1      38.100  -5.853 -36.595  1.00  0.00     0.210 HD
ENDBRANCH   2   3
ENDBRANCH   1   2
BRANCH   1   5
ATOM      5  C   UNL     1      34.889  -4.318 -37.750  1.00  0.00     0.181 C 
BRANCH   5   6
ATOM      6  C   UNL     1      33.610  -3.457 -37.969  1.00  0.00     0.209 C 
BRANCH   6   7
ATOM      7  C   UNL     1      33.921  -1.985 -38.011  1.00  0.00     0.258 C 
ATOM      8  O   UNL     1      34.432  -1.429 -37.051  1.00  0.00    -0.300 OA
ENDBRANCH   6   7
BRANCH   6   9
ATOM      9  O   UNL     1      32.695  -3.671 -36.923  1.00  0.00    -0.383 OA
ATOM     10  H   UNL     1      33.101  -3.300 -36.097  1.00  0.00     0.211 HD
ENDBRANCH   6   9
ENDBRANCH   5   6
BRANCH   5  11
ATOM     11  O   UNL     1      36.029  -3.582 -38.125  1.00  0.00    -0.387 OA
ATOM     12  H   UNL     1      36.498  -3.314 -37.292  1.00  0.00     0.211 HD
ENDBRANCH   5  11
ENDBRANCH   1   5
BRANCH   1  13
ATOM     13  O   UNL     1      35.317  -3.732 -35.447  1.00  0.00    -0.388 OA
ATOM     14  H   UNL     1      35.054  -2.913 -35.941  1.00  0.00     0.211 HD
ENDBRANCH   1  13
TORSDOF 8
ENDMDL
