MODEL 1
REMARK VINA RESULT:    -3.354      0.000      0.000
REMARK INTER + INTRA:          -5.437
REMARK INTER:                  -5.118
REMARK INTRA:                  -0.319
REMARK UNBOUND:                -0.319
REMARK SMILES CC1=CCC[C@@H](C)C(=O)C[C@@H](C(C)C)C(=O)C1
REMARK SMILES IDX 8 1 9 2 6 3 7 4 5 5 4 6 3 7 2 8 1 9 10 11 11 12 15 13 16 14
REMARK SMILES IDX 17 15 12 17 13 18 14 19
REMARK H PARENT
REMARK Flexibility Score: 70.00
ROOT
ATOM      1  C   UNL     1      44.479  56.431  26.540  1.00  0.00     0.136 C 
ATOM      2  O   UNL     1      43.744  57.064  25.794  1.00  0.00    -0.299 OA
ENDROOT
BRANCH   1   3
ATOM      3  C   UNL     1      44.622  56.877  27.998  1.00  0.00     0.053 C 
ATOM      4  C   UNL     1      43.270  56.896  28.730  1.00  0.00     0.016 C 
BRANCH   3   5
ATOM      5  C   UNL     1      45.309  58.267  28.128  1.00  0.00     0.015 C 
BRANCH   5   6
ATOM      6  C   UNL     1      46.782  58.344  27.672  1.00  0.00     0.028 C 
BRANCH   6   7
ATOM      7  C   UNL     1      47.096  59.037  26.360  1.00  0.00    -0.028 C 
ATOM      8  C   UNL     1      47.650  58.493  25.247  1.00  0.00    -0.070 CG0
ATOM      9  C   UNL     1      47.697  59.349  24.005  1.00  0.00     0.039 C 
ATOM     10  G   UNL     1      48.319  57.129  25.195  1.00  0.00     0.000 G0
ENDBRANCH   6   7
ENDBRANCH   5   6
ENDBRANCH   3   5
ENDBRANCH   1   3
BRANCH   1  11
ATOM     11  C   UNL     1      45.133  55.171  25.982  1.00  0.00     0.087 C 
BRANCH  11  12
ATOM     12  C   UNL     1      46.683  55.171  26.017  1.00  0.00     0.066 C 
BRANCH  12  13
ATOM     13  C   UNL     1      47.286  56.025  24.913  1.00  0.00     0.140 C 
ATOM     14  O   UNL     1      46.863  55.874  23.775  1.00  0.00    -0.299 OA
BRANCH  13  15
ATOM     15  C   UNL     1      48.304  57.120  25.188  1.00  0.00     0.106 CG0
ATOM     16  G   UNL     1      47.641  58.487  25.249  1.00  0.00     0.000 G0
ENDBRANCH  13  15
ENDBRANCH  12  13
BRANCH  12  17
ATOM     17  C   UNL     1      47.282  53.728  25.974  1.00  0.00    -0.006 C 
ATOM     18  C   UNL     1      46.201  52.638  26.086  1.00  0.00     0.008 C 
ATOM     19  C   UNL     1      48.316  53.516  27.097  1.00  0.00     0.008 C 
ENDBRANCH  12  17
ENDBRANCH  11  12
ENDBRANCH   1  11
TORSDOF 1
ENDMDL
MODEL 2
REMARK VINA RESULT:    -3.312      2.568      3.668
REMARK INTER + INTRA:          -5.373
REMARK INTER:                  -4.812
REMARK INTRA:                  -0.561
REMARK UNBOUND:                -0.319
REMARK SMILES CC1=CCC[C@@H](C)C(=O)C[C@@H](C(C)C)C(=O)C1
REMARK SMILES IDX 8 1 9 2 6 3 7 4 5 5 4 6 3 7 2 8 1 9 10 11 11 12 15 13 16 14
REMARK SMILES IDX 17 15 12 17 13 18 14 19
REMARK H PARENT
REMARK Flexibility Score: 70.00
ROOT
ATOM      1  C   UNL     1      41.886  56.112  26.356  1.00  0.00     0.136 C 
ATOM      2  O   UNL     1      40.709  56.190  26.682  1.00  0.00    -0.299 OA
ENDROOT
BRANCH   1   3
ATOM      3  C   UNL     1      42.859  55.347  27.259  1.00  0.00     0.053 C 
ATOM      4  C   UNL     1      42.436  53.882  27.451  1.00  0.00     0.016 C 
BRANCH   3   5
ATOM      5  C   UNL     1      43.041  56.028  28.646  1.00  0.00     0.015 C 
BRANCH   5   6
ATOM      6  C   UNL     1      43.943  57.280  28.677  1.00  0.00     0.028 C 
BRANCH   6   7
ATOM      7  C   UNL     1      45.315  57.197  28.035  1.00  0.00    -0.028 C 
ATOM      8  C   UNL     1      45.731  57.793  26.890  1.00  0.00    -0.070 CG0
ATOM      9  C   UNL     1      47.199  57.703  26.553  1.00  0.00     0.039 C 
ATOM     10  G   UNL     1      44.809  58.450  25.874  1.00  0.00     0.000 G0
ENDBRANCH   6   7
ENDBRANCH   5   6
ENDBRANCH   3   5
ENDBRANCH   1   3
BRANCH   1  11
ATOM     11  C   UNL     1      42.285  56.707  25.010  1.00  0.00     0.087 C 
BRANCH  11  12
ATOM     12  C   UNL     1      43.733  56.384  24.559  1.00  0.00     0.066 C 
BRANCH  12  13
ATOM     13  C   UNL     1      44.641  57.602  24.616  1.00  0.00     0.140 C 
ATOM     14  O   UNL     1      45.199  57.951  23.584  1.00  0.00    -0.299 OA
BRANCH  13  15
ATOM     15  C   UNL     1      44.793  58.454  25.866  1.00  0.00     0.106 CG0
ATOM     16  G   UNL     1      45.732  57.801  26.868  1.00  0.00     0.000 G0
ENDBRANCH  13  15
ENDBRANCH  12  13
BRANCH  12  17
ATOM     17  C   UNL     1      43.786  55.735  23.137  1.00  0.00    -0.006 C 
ATOM     18  C   UNL     1      42.526  56.037  22.305  1.00  0.00     0.008 C 
ATOM     19  C   UNL     1      43.968  54.208  23.225  1.00  0.00     0.008 C 
ENDBRANCH  12  17
ENDBRANCH  11  12
ENDBRANCH   1  11
TORSDOF 1
ENDMDL
MODEL 3
REMARK VINA RESULT:    -3.145      1.294      3.853
REMARK INTER + INTRA:          -5.118
REMARK INTER:                  -4.920
REMARK INTRA:                  -0.198
REMARK UNBOUND:                -0.319
REMARK SMILES CC1=CCC[C@@H](C)C(=O)C[C@@H](C(C)C)C(=O)C1
REMARK SMILES IDX 8 1 9 2 6 3 7 4 5 5 4 6 3 7 2 8 1 9 10 11 11 12 15 13 16 14
REMARK SMILES IDX 17 15 12 17 13 18 14 19
REMARK H PARENT
REMARK Flexibility Score: 70.00
ROOT
ATOM      1  C   UNL     1      45.556  54.921  25.634  1.00  0.00     0.136 C 
ATOM      2  O   UNL     1      44.634  54.981  24.833  1.00  0.00    -0.299 OA
ENDROOT
BRANCH   1   3
ATOM      3  C   UNL     1      46.788  54.078  25.290  1.00  0.00     0.053 C 
ATOM      4  C   UNL     1      47.514  53.577  26.550  1.00  0.00     0.016 C 
BRANCH   3   5
ATOM      5  C   UNL     1      47.789  54.839  24.374  1.00  0.00     0.015 C 
BRANCH   5   6
ATOM      6  C   UNL     1      48.365  56.155  24.939  1.00  0.00     0.028 C 
BRANCH   6   7
ATOM      7  C   UNL     1      47.832  57.467  24.396  1.00  0.00    -0.028 C 
ATOM      8  C   UNL     1      47.249  58.476  25.089  1.00  0.00    -0.070 CG0
ATOM      9  C   UNL     1      46.965  59.758  24.346  1.00  0.00     0.039 C 
ATOM     10  G   UNL     1      46.766  58.368  26.528  1.00  0.00     0.000 G0
ENDBRANCH   6   7
ENDBRANCH   5   6
ENDBRANCH   3   5
ENDBRANCH   1   3
BRANCH   1  11
ATOM     11  C   UNL     1      45.453  55.778  26.892  1.00  0.00     0.087 C 
BRANCH  11  12
ATOM     12  C   UNL     1      44.496  56.991  26.777  1.00  0.00     0.066 C 
BRANCH  12  13
ATOM     13  C   UNL     1      45.243  58.304  26.606  1.00  0.00     0.140 C 
ATOM     14  O   UNL     1      44.594  59.341  26.619  1.00  0.00    -0.299 OA
BRANCH  13  15
ATOM     15  C   UNL     1      46.760  58.380  26.531  1.00  0.00     0.106 CG0
ATOM     16  G   UNL     1      47.237  58.477  25.091  1.00  0.00     0.000 G0
ENDBRANCH  13  15
ENDBRANCH  12  13
BRANCH  12  17
ATOM     17  C   UNL     1      43.503  57.086  27.981  1.00  0.00    -0.006 C 
ATOM     18  C   UNL     1      44.227  57.242  29.330  1.00  0.00     0.008 C 
ATOM     19  C   UNL     1      42.587  55.850  28.051  1.00  0.00     0.008 C 
ENDBRANCH  12  17
ENDBRANCH  11  12
ENDBRANCH   1  11
TORSDOF 1
ENDMDL
MODEL 4
REMARK VINA RESULT:    -3.062      2.246      3.055
REMARK INTER + INTRA:          -4.992
REMARK INTER:                  -4.576
REMARK INTRA:                  -0.416
REMARK UNBOUND:                -0.319
REMARK SMILES CC1=CCC[C@@H](C)C(=O)C[C@@H](C(C)C)C(=O)C1
REMARK SMILES IDX 8 1 9 2 6 3 7 4 5 5 4 6 3 7 2 8 1 9 10 11 11 12 15 13 16 14
REMARK SMILES IDX 17 15 12 17 13 18 14 19
REMARK H PARENT
REMARK Flexibility Score: 70.00
ROOT
ATOM      1  C   UNL     1      43.723  56.187  26.972  1.00  0.00     0.136 C 
ATOM      2  O   UNL     1      43.128  55.118  26.953  1.00  0.00    -0.299 OA
ENDROOT
BRANCH   1   3
ATOM      3  C   UNL     1      44.699  56.475  28.116  1.00  0.00     0.053 C 
ATOM      4  C   UNL     1      44.220  57.637  29.003  1.00  0.00     0.016 C 
BRANCH   3   5
ATOM      5  C   UNL     1      46.140  56.763  27.607  1.00  0.00     0.015 C 
BRANCH   5   6
ATOM      6  C   UNL     1      46.531  58.249  27.471  1.00  0.00     0.028 C 
BRANCH   6   7
ATOM      7  C   UNL     1      47.321  58.679  26.249  1.00  0.00    -0.028 C 
ATOM      8  C   UNL     1      46.839  59.188  25.088  1.00  0.00    -0.070 CG0
ATOM      9  C   UNL     1      47.842  59.707  24.087  1.00  0.00     0.039 C 
ATOM     10  G   UNL     1      45.374  59.173  24.681  1.00  0.00     0.000 G0
ENDBRANCH   6   7
ENDBRANCH   5   6
ENDBRANCH   3   5
ENDBRANCH   1   3
BRANCH   1  11
ATOM     11  C   UNL     1      43.519  57.127  25.788  1.00  0.00     0.087 C 
BRANCH  11  12
ATOM     12  C   UNL     1      44.285  56.729  24.501  1.00  0.00     0.066 C 
BRANCH  12  13
ATOM     13  C   UNL     1      45.024  57.904  23.881  1.00  0.00     0.140 C 
ATOM     14  O   UNL     1      45.271  57.859  22.683  1.00  0.00    -0.299 OA
BRANCH  13  15
ATOM     15  C   UNL     1      45.366  59.162  24.663  1.00  0.00     0.106 CG0
ATOM     16  G   UNL     1      46.825  59.167  25.090  1.00  0.00     0.000 G0
ENDBRANCH  13  15
ENDBRANCH  12  13
BRANCH  12  17
ATOM     17  C   UNL     1      43.359  56.051  23.439  1.00  0.00    -0.006 C 
ATOM     18  C   UNL     1      41.868  56.353  23.680  1.00  0.00     0.008 C 
ATOM     19  C   UNL     1      43.556  54.523  23.416  1.00  0.00     0.008 C 
ENDBRANCH  12  17
ENDBRANCH  11  12
ENDBRANCH   1  11
TORSDOF 1
ENDMDL
MODEL 5
REMARK VINA RESULT:    -3.032      2.831      4.500
REMARK INTER + INTRA:          -4.945
REMARK INTER:                  -4.559
REMARK INTRA:                  -0.386
REMARK UNBOUND:                -0.319
REMARK SMILES CC1=CCC[C@@H](C)C(=O)C[C@@H](C(C)C)C(=O)C1
REMARK SMILES IDX 8 1 9 2 6 3 7 4 5 5 4 6 3 7 2 8 1 9 10 11 11 12 15 13 16 14
REMARK SMILES IDX 17 15 12 17 13 18 14 19
REMARK H PARENT
REMARK Flexibility Score: 70.00
ROOT
ATOM      1  C   UNL     1      46.250  56.975  27.047  1.00  0.00     0.136 C 
ATOM      2  O   UNL     1      47.204  57.440  27.657  1.00  0.00    -0.299 OA
ENDROOT
BRANCH   1   3
ATOM      3  C   UNL     1      44.884  57.656  27.174  1.00  0.00     0.053 C 
ATOM      4  C   UNL     1      44.958  59.159  26.861  1.00  0.00     0.016 C 
BRANCH   3   5
ATOM      5  C   UNL     1      44.242  57.441  28.574  1.00  0.00     0.015 C 
BRANCH   5   6
ATOM      6  C   UNL     1      43.128  56.377  28.658  1.00  0.00     0.028 C 
BRANCH   6   7
ATOM      7  C   UNL     1      42.348  56.048  27.399  1.00  0.00    -0.028 C 
ATOM      8  C   UNL     1      42.545  55.009  26.550  1.00  0.00    -0.070 CG0
ATOM      9  C   UNL     1      41.520  54.796  25.462  1.00  0.00     0.039 C 
ATOM     10  G   UNL     1      43.774  54.113  26.551  1.00  0.00     0.000 G0
ENDBRANCH   6   7
ENDBRANCH   5   6
ENDBRANCH   3   5
ENDBRANCH   1   3
BRANCH   1  11
ATOM     11  C   UNL     1      46.515  55.796  26.117  1.00  0.00     0.087 C 
BRANCH  11  12
ATOM     12  C   UNL     1      45.424  55.557  25.042  1.00  0.00     0.066 C 
BRANCH  12  13
ATOM     13  C   UNL     1      44.618  54.295  25.307  1.00  0.00     0.140 C 
ATOM     14  O   UNL     1      44.723  53.370  24.513  1.00  0.00    -0.299 OA
BRANCH  13  15
ATOM     15  C   UNL     1      43.783  54.105  26.562  1.00  0.00     0.106 CG0
ATOM     16  G   UNL     1      42.552  54.997  26.547  1.00  0.00     0.000 G0
ENDBRANCH  13  15
ENDBRANCH  12  13
BRANCH  12  17
ATOM     17  C   UNL     1      46.009  55.531  23.592  1.00  0.00    -0.006 C 
ATOM     18  C   UNL     1      47.390  56.206  23.503  1.00  0.00     0.008 C 
ATOM     19  C   UNL     1      45.058  56.215  22.592  1.00  0.00     0.008 C 
ENDBRANCH  12  17
ENDBRANCH  11  12
ENDBRANCH   1  11
TORSDOF 1
ENDMDL
MODEL 6
REMARK VINA RESULT:    -3.031      3.047      4.943
REMARK INTER + INTRA:          -4.945
REMARK INTER:                  -4.490
REMARK INTRA:                  -0.455
REMARK UNBOUND:                -0.319
REMARK SMILES CC1=CCC[C@@H](C)C(=O)C[C@@H](C(C)C)C(=O)C1
REMARK SMILES IDX 8 1 9 2 6 3 7 4 5 5 4 6 3 7 2 8 1 9 10 11 11 12 15 13 16 14
REMARK SMILES IDX 17 15 12 17 13 18 14 19
REMARK H PARENT
REMARK Flexibility Score: 70.00
ROOT
ATOM      1  C   UNL     1      45.694  56.936  26.972  1.00  0.00     0.136 C 
ATOM      2  O   UNL     1      46.806  56.777  27.457  1.00  0.00    -0.299 OA
ENDROOT
BRANCH   1   3
ATOM      3  C   UNL     1      44.701  57.865  27.677  1.00  0.00     0.053 C 
ATOM      4  C   UNL     1      45.397  59.085  28.303  1.00  0.00     0.016 C 
BRANCH   3   5
ATOM      5  C   UNL     1      43.863  57.125  28.760  1.00  0.00     0.015 C 
BRANCH   5   6
ATOM      6  C   UNL     1      43.083  55.881  28.285  1.00  0.00     0.028 C 
BRANCH   6   7
ATOM      7  C   UNL     1      41.820  56.088  27.470  1.00  0.00    -0.028 C 
ATOM      8  C   UNL     1      41.590  55.713  26.187  1.00  0.00    -0.070 CG0
ATOM      9  C   UNL     1      40.187  55.873  25.657  1.00  0.00     0.039 C 
ATOM     10  G   UNL     1      42.666  55.245  25.219  1.00  0.00     0.000 G0
ENDBRANCH   6   7
ENDBRANCH   5   6
ENDBRANCH   3   5
ENDBRANCH   1   3
BRANCH   1  11
ATOM     11  C   UNL     1      45.407  56.265  25.633  1.00  0.00     0.087 C 
BRANCH  11  12
ATOM     12  C   UNL     1      44.503  57.084  24.676  1.00  0.00     0.066 C 
BRANCH  12  13
ATOM     13  C   UNL     1      43.199  56.369  24.359  1.00  0.00     0.140 C 
ATOM     14  O   UNL     1      42.613  56.672  23.329  1.00  0.00    -0.299 OA
BRANCH  13  15
ATOM     15  C   UNL     1      42.661  55.230  25.210  1.00  0.00     0.106 CG0
ATOM     16  G   UNL     1      41.592  55.719  26.175  1.00  0.00     0.000 G0
ENDBRANCH  13  15
ENDBRANCH  12  13
BRANCH  12  17
ATOM     17  C   UNL     1      45.237  57.481  23.353  1.00  0.00    -0.006 C 
ATOM     18  C   UNL     1      46.338  56.476  22.967  1.00  0.00     0.008 C 
ATOM     19  C   UNL     1      45.863  58.884  23.460  1.00  0.00     0.008 C 
ENDBRANCH  12  17
ENDBRANCH  11  12
ENDBRANCH   1  11
TORSDOF 1
ENDMDL
MODEL 7
REMARK VINA RESULT:    -3.018      2.056      4.235
REMARK INTER + INTRA:          -4.924
REMARK INTER:                  -4.580
REMARK INTRA:                  -0.345
REMARK UNBOUND:                -0.319
REMARK SMILES CC1=CCC[C@@H](C)C(=O)C[C@@H](C(C)C)C(=O)C1
REMARK SMILES IDX 8 1 9 2 6 3 7 4 5 5 4 6 3 7 2 8 1 9 10 11 11 12 15 13 16 14
REMARK SMILES IDX 17 15 12 17 13 18 14 19
REMARK H PARENT
REMARK Flexibility Score: 70.00
ROOT
ATOM      1  C   UNL     1      44.782  58.614  25.692  1.00  0.00     0.136 C 
ATOM      2  O   UNL     1      44.359  59.496  26.427  1.00  0.00    -0.299 OA
ENDROOT
BRANCH   1   3
ATOM      3  C   UNL     1      46.082  58.851  24.917  1.00  0.00     0.053 C 
ATOM      4  C   UNL     1      45.890  58.672  23.401  1.00  0.00     0.016 C 
BRANCH   3   5
ATOM      5  C   UNL     1      47.241  57.939  25.410  1.00  0.00     0.015 C 
BRANCH   5   6
ATOM      6  C   UNL     1      47.745  56.876  24.411  1.00  0.00     0.028 C 
BRANCH   6   7
ATOM      7  C   UNL     1      47.901  55.447  24.894  1.00  0.00    -0.028 C 
ATOM      8  C   UNL     1      46.958  54.473  24.921  1.00  0.00    -0.070 CG0
ATOM      9  C   UNL     1      47.407  53.079  25.281  1.00  0.00     0.039 C 
ATOM     10  G   UNL     1      45.469  54.708  24.720  1.00  0.00     0.000 G0
ENDBRANCH   6   7
ENDBRANCH   5   6
ENDBRANCH   3   5
ENDBRANCH   1   3
BRANCH   1  11
ATOM     11  C   UNL     1      44.027  57.288  25.675  1.00  0.00     0.087 C 
BRANCH  11  12
ATOM     12  C   UNL     1      44.535  56.237  26.694  1.00  0.00     0.066 C 
BRANCH  12  13
ATOM     13  C   UNL     1      44.745  54.871  26.061  1.00  0.00     0.140 C 
ATOM     14  O   UNL     1      44.239  53.900  26.607  1.00  0.00    -0.299 OA
BRANCH  13  15
ATOM     15  C   UNL     1      45.460  54.685  24.732  1.00  0.00     0.106 CG0
ATOM     16  G   UNL     1      46.952  54.472  24.933  1.00  0.00     0.000 G0
ENDBRANCH  13  15
ENDBRANCH  12  13
BRANCH  12  17
ATOM     17  C   UNL     1      43.602  56.116  27.944  1.00  0.00    -0.006 C 
ATOM     18  C   UNL     1      42.113  56.274  27.584  1.00  0.00     0.008 C 
ATOM     19  C   UNL     1      43.965  57.160  29.017  1.00  0.00     0.008 C 
ENDBRANCH  12  17
ENDBRANCH  11  12
ENDBRANCH   1  11
TORSDOF 1
ENDMDL
MODEL 8
REMARK VINA RESULT:    -3.011      2.654      4.308
REMARK INTER + INTRA:          -4.914
REMARK INTER:                  -4.550
REMARK INTRA:                  -0.364
REMARK UNBOUND:                -0.319
REMARK SMILES CC1=CCC[C@@H](C)C(=O)C[C@@H](C(C)C)C(=O)C1
REMARK SMILES IDX 8 1 9 2 6 3 7 4 5 5 4 6 3 7 2 8 1 9 10 11 11 12 15 13 16 14
REMARK SMILES IDX 17 15 12 17 13 18 14 19
REMARK H PARENT
REMARK Flexibility Score: 70.00
ROOT
ATOM      1  C   UNL     1      41.862  55.605  26.614  1.00  0.00     0.136 C 
ATOM      2  O   UNL     1      41.108  56.309  27.272  1.00  0.00    -0.299 OA
ENDROOT
BRANCH   1   3
ATOM      3  C   UNL     1      41.423  55.142  25.221  1.00  0.00     0.053 C 
ATOM      4  C   UNL     1      42.036  53.783  24.846  1.00  0.00     0.016 C 
BRANCH   3   5
ATOM      5  C   UNL     1      41.749  56.189  24.118  1.00  0.00     0.015 C 
BRANCH   5   6
ATOM      6  C   UNL     1      42.747  55.741  23.029  1.00  0.00     0.028 C 
BRANCH   6   7
ATOM      7  C   UNL     1      44.095  56.433  22.957  1.00  0.00    -0.028 C 
ATOM      8  C   UNL     1      45.238  56.091  23.602  1.00  0.00    -0.070 CG0
ATOM      9  C   UNL     1      46.497  56.832  23.226  1.00  0.00     0.039 C 
ATOM     10  G   UNL     1      45.317  55.093  24.747  1.00  0.00     0.000 G0
ENDBRANCH   6   7
ENDBRANCH   5   6
ENDBRANCH   3   5
ENDBRANCH   1   3
BRANCH   1  11
ATOM     11  C   UNL     1      43.243  55.316  27.195  1.00  0.00     0.087 C 
BRANCH  11  12
ATOM     12  C   UNL     1      44.324  56.375  26.861  1.00  0.00     0.066 C 
BRANCH  12  13
ATOM     13  C   UNL     1      45.492  55.784  26.087  1.00  0.00     0.140 C 
ATOM     14  O   UNL     1      46.597  55.801  26.614  1.00  0.00    -0.299 OA
BRANCH  13  15
ATOM     15  C   UNL     1      45.319  55.086  24.748  1.00  0.00     0.106 CG0
ATOM     16  G   UNL     1      45.241  56.089  23.608  1.00  0.00     0.000 G0
ENDBRANCH  13  15
ENDBRANCH  12  13
BRANCH  12  17
ATOM     17  C   UNL     1      44.841  57.124  28.133  1.00  0.00    -0.006 C 
ATOM     18  C   UNL     1      43.855  57.030  29.311  1.00  0.00     0.008 C 
ATOM     19  C   UNL     1      45.116  58.610  27.834  1.00  0.00     0.008 C 
ENDBRANCH  12  17
ENDBRANCH  11  12
ENDBRANCH   1  11
TORSDOF 1
ENDMDL
MODEL 9
REMARK VINA RESULT:    -2.937      1.779      2.524
REMARK INTER + INTRA:          -4.801
REMARK INTER:                  -4.492
REMARK INTRA:                  -0.310
REMARK UNBOUND:                -0.319
REMARK SMILES CC1=CCC[C@@H](C)C(=O)C[C@@H](C(C)C)C(=O)C1
REMARK SMILES IDX 8 1 9 2 6 3 7 4 5 5 4 6 3 7 2 8 1 9 10 11 11 12 15 13 16 14
REMARK SMILES IDX 17 15 12 17 13 18 14 19
REMARK H PARENT
REMARK Flexibility Score: 70.00
ROOT
ATOM      1  C   UNL     1      44.331  57.794  26.477  1.00  0.00     0.136 C 
ATOM      2  O   UNL     1      44.251  59.013  26.410  1.00  0.00    -0.299 OA
ENDROOT
BRANCH   1   3
ATOM      3  C   UNL     1      44.985  57.157  27.707  1.00  0.00     0.053 C 
ATOM      4  C   UNL     1      44.182  57.427  28.990  1.00  0.00     0.016 C 
BRANCH   3   5
ATOM      5  C   UNL     1      46.458  57.618  27.901  1.00  0.00     0.015 C 
BRANCH   5   6
ATOM      6  C   UNL     1      47.521  56.872  27.067  1.00  0.00     0.028 C 
BRANCH   6   7
ATOM      7  C   UNL     1      48.026  57.522  25.793  1.00  0.00    -0.028 C 
ATOM      8  C   UNL     1      47.729  57.181  24.514  1.00  0.00    -0.070 CG0
ATOM      9  C   UNL     1      48.218  58.097  23.419  1.00  0.00     0.039 C 
ATOM     10  G   UNL     1      47.036  55.891  24.103  1.00  0.00     0.000 G0
ENDBRANCH   6   7
ENDBRANCH   5   6
ENDBRANCH   3   5
ENDBRANCH   1   3
BRANCH   1  11
ATOM     11  C   UNL     1      43.679  56.983  25.361  1.00  0.00     0.087 C 
BRANCH  11  12
ATOM     12  C   UNL     1      44.493  55.750  24.891  1.00  0.00     0.066 C 
BRANCH  12  13
ATOM     13  C   UNL     1      45.552  56.114  23.862  1.00  0.00     0.140 C 
ATOM     14  O   UNL     1      45.190  56.691  22.846  1.00  0.00    -0.299 OA
BRANCH  13  15
ATOM     15  C   UNL     1      47.036  55.886  24.098  1.00  0.00     0.106 CG0
ATOM     16  G   UNL     1      47.732  57.172  24.517  1.00  0.00     0.000 G0
ENDBRANCH  13  15
ENDBRANCH  12  13
BRANCH  12  17
ATOM     17  C   UNL     1      43.580  54.603  24.347  1.00  0.00    -0.006 C 
ATOM     18  C   UNL     1      42.119  55.052  24.162  1.00  0.00     0.008 C 
ATOM     19  C   UNL     1      43.607  53.376  25.277  1.00  0.00     0.008 C 
ENDBRANCH  12  17
ENDBRANCH  11  12
ENDBRANCH   1  11
TORSDOF 1
ENDMDL
