MODEL 1
REMARK VINA RESULT:    -6.434      0.000      0.000
REMARK INTER + INTRA:          -7.181
REMARK INTER:                  -6.998
REMARK INTRA:                  -0.183
REMARK UNBOUND:                -0.183
REMARK SMILES C[C@@H]1[C@H](C)CC[C@]2(C(=O)[O-])CC[C@]3(C)C(=CC[C@@H]4[C@@]5(C)CC[C@H](O)C(C)(C)[C@@H]5CC[C@@]43C)[C@H]12
REMARK SMILES IDX 7 1 6 2 11 3 33 4 5 5 12 6 15 7 2 8 3 9 13 10 16 11 1 12
REMARK SMILES IDX 4 13 14 14 31 15 17 16 18 17 30 18 32 19 19 20 29 21 28 22
REMARK SMILES IDX 21 23 20 24 25 25 22 26 23 27 26 28 27 29 8 30 9 31 10 32
REMARK SMILES IDX 24 33
REMARK H PARENT 24 34
REMARK Flexibility Score: inf
ROOT
ATOM      1  C   UNL     1      13.694  24.269  45.819  1.00  0.00     0.017 C 
ATOM      2  C   UNL     1      12.871  23.825  47.067  1.00  0.00     0.014 C 
ATOM      3  C   UNL     1      12.712  24.463  44.648  1.00  0.00     0.014 C 
ATOM      4  C   UNL     1      14.782  23.191  45.431  1.00  0.00     0.030 C 
ATOM      5  C   UNL     1      13.743  23.111  48.095  1.00  0.00     0.004 C 
ATOM      6  C   UNL     1      13.424  24.935  43.381  1.00  0.00     0.013 C 
ATOM      7  C   UNL     1      15.218  23.197  43.948  1.00  0.00    -0.063 C 
ATOM      8  C   UNL     1      14.484  21.753  45.987  1.00  0.00    -0.003 C 
ATOM      9  C   UNL     1      14.314  21.779  47.550  1.00  0.00    -0.011 C 
ATOM     10  C   UNL     1      14.479  23.924  42.814  1.00  0.00    -0.006 C 
ATOM     11  C   UNL     1      16.366  22.567  43.655  1.00  0.00    -0.027 C 
ATOM     12  C   UNL     1      13.368  21.014  45.220  1.00  0.00     0.008 C 
ATOM     13  C   UNL     1      13.545  20.575  48.119  1.00  0.00     0.008 C 
ATOM     14  C   UNL     1      13.688  22.839  42.020  1.00  0.00     0.017 C 
ATOM     15  C   UNL     1      15.551  24.678  41.866  1.00  0.00    -0.020 C 
ATOM     16  C   UNL     1      17.052  22.599  42.322  1.00  0.00     0.032 C 
ATOM     17  C   UNL     1      16.563  23.629  41.229  1.00  0.00     0.006 C 
ATOM     18  C   UNL     1      16.382  25.738  42.706  1.00  0.00     0.008 C 
ATOM     19  C   UNL     1      14.748  25.401  40.720  1.00  0.00     0.012 C 
ATOM     20  C   UNL     1      17.779  24.262  40.352  1.00  0.00    -0.025 C 
ATOM     21  C   UNL     1      17.892  25.864  42.344  1.00  0.00     0.005 C 
ATOM     22  C   UNL     1      18.075  25.732  40.825  1.00  0.00     0.003 C 
ATOM     23  C   UNL     1      17.411  24.365  38.840  1.00  0.00     0.010 C 
ATOM     24  C   UNL     1      19.034  23.325  40.428  1.00  0.00     0.012 C 
ATOM     25  C   UNL     1      19.245  26.496  40.098  1.00  0.00    -0.006 C 
ATOM     26  C   UNL     1      18.484  25.100  37.990  1.00  0.00     0.033 C 
ATOM     27  C   UNL     1      18.934  26.473  38.556  1.00  0.00     0.120 C 
ATOM     28  C   UNL     1      20.655  25.939  40.420  1.00  0.00     0.014 C 
ATOM     29  C   UNL     1      19.248  27.990  40.537  1.00  0.00     0.014 C 
ENDROOT
BRANCH   1  30
ATOM     30  C   UNL     1      14.335  25.621  46.160  1.00  0.00     0.048 C 
ATOM     31  O   UNL     1      13.668  26.494  46.779  1.00  0.00    -0.550 OA
ATOM     32  O   UNL     1      15.664  25.902  45.858  1.00  0.00    -0.550 OA
ENDBRANCH   1  30
BRANCH  27  33
ATOM     33  O   UNL     1      20.048  26.938  37.833  1.00  0.00    -0.393 OA
ATOM     34  H   UNL     1      20.808  26.990  38.471  1.00  0.00     0.210 HD
ENDBRANCH  27  33
TORSDOF 2
ENDMDL
MODEL 2
REMARK VINA RESULT:    -6.387      2.806      8.061
REMARK INTER + INTRA:          -7.129
REMARK INTER:                  -6.892
REMARK INTRA:                  -0.238
REMARK UNBOUND:                -0.183
REMARK SMILES C[C@@H]1[C@H](C)CC[C@]2(C(=O)[O-])CC[C@]3(C)C(=CC[C@@H]4[C@@]5(C)CC[C@H](O)C(C)(C)[C@@H]5CC[C@@]43C)[C@H]12
REMARK SMILES IDX 7 1 6 2 11 3 33 4 5 5 12 6 15 7 2 8 3 9 13 10 16 11 1 12
REMARK SMILES IDX 4 13 14 14 31 15 17 16 18 17 30 18 32 19 19 20 29 21 28 22
REMARK SMILES IDX 21 23 20 24 25 25 22 26 23 27 26 28 27 29 8 30 9 31 10 32
REMARK SMILES IDX 24 33
REMARK H PARENT 24 34
REMARK Flexibility Score: inf
ROOT
ATOM      1  C   UNL     1      14.672  24.788  41.010  1.00  0.00     0.017 C 
ATOM      2  C   UNL     1      14.930  25.769  39.825  1.00  0.00     0.014 C 
ATOM      3  C   UNL     1      14.547  25.623  42.299  1.00  0.00     0.014 C 
ATOM      4  C   UNL     1      15.848  23.744  41.162  1.00  0.00     0.030 C 
ATOM      5  C   UNL     1      15.579  25.064  38.638  1.00  0.00     0.004 C 
ATOM      6  C   UNL     1      14.257  24.748  43.517  1.00  0.00     0.013 C 
ATOM      7  C   UNL     1      16.027  23.153  42.579  1.00  0.00    -0.063 C 
ATOM      8  C   UNL     1      17.197  24.201  40.502  1.00  0.00    -0.003 C 
ATOM      9  C   UNL     1      16.994  24.534  38.979  1.00  0.00    -0.011 C 
ATOM     10  C   UNL     1      15.383  23.714  43.857  1.00  0.00    -0.006 C 
ATOM     11  C   UNL     1      16.752  22.028  42.676  1.00  0.00    -0.027 C 
ATOM     12  C   UNL     1      17.947  25.278  41.313  1.00  0.00     0.008 C 
ATOM     13  C   UNL     1      18.082  25.443  38.383  1.00  0.00     0.008 C 
ATOM     14  C   UNL     1      16.498  24.490  44.623  1.00  0.00     0.017 C 
ATOM     15  C   UNL     1      14.801  22.496  44.748  1.00  0.00    -0.020 C 
ATOM     16  C   UNL     1      16.904  21.203  43.919  1.00  0.00     0.032 C 
ATOM     17  C   UNL     1      15.970  21.499  45.157  1.00  0.00     0.006 C 
ATOM     18  C   UNL     1      13.707  21.686  43.930  1.00  0.00     0.008 C 
ATOM     19  C   UNL     1      14.159  23.118  46.044  1.00  0.00     0.012 C 
ATOM     20  C   UNL     1      15.508  20.154  45.950  1.00  0.00    -0.025 C 
ATOM     21  C   UNL     1      13.711  20.141  44.128  1.00  0.00     0.005 C 
ATOM     22  C   UNL     1      14.016  19.807  45.596  1.00  0.00     0.003 C 
ATOM     23  C   UNL     1      15.547  20.351  47.497  1.00  0.00     0.010 C 
ATOM     24  C   UNL     1      16.504  18.984  45.638  1.00  0.00     0.012 C 
ATOM     25  C   UNL     1      13.405  18.515  46.259  1.00  0.00    -0.006 C 
ATOM     26  C   UNL     1      14.972  19.144  48.289  1.00  0.00     0.033 C 
ATOM     27  C   UNL     1      13.575  18.660  47.816  1.00  0.00     0.120 C 
ATOM     28  C   UNL     1      14.007  17.190  45.725  1.00  0.00     0.014 C 
ATOM     29  C   UNL     1      11.875  18.453  45.974  1.00  0.00     0.014 C 
ENDROOT
BRANCH   1  30
ATOM     30  C   UNL     1      13.331  24.093  40.736  1.00  0.00     0.048 C 
ATOM     31  O   UNL     1      12.339  24.771  40.356  1.00  0.00    -0.550 OA
ATOM     32  O   UNL     1      13.185  22.713  40.836  1.00  0.00    -0.550 OA
ENDBRANCH   1  30
BRANCH  27  33
ATOM     33  O   UNL     1      13.258  17.446  48.451  1.00  0.00    -0.393 OA
ATOM     34  H   UNL     1      13.476  17.555  49.414  1.00  0.00     0.210 HD
ENDBRANCH  27  33
TORSDOF 2
ENDMDL
MODEL 3
REMARK VINA RESULT:    -5.956      2.165      7.957
REMARK INTER + INTRA:          -6.661
REMARK INTER:                  -6.423
REMARK INTRA:                  -0.237
REMARK UNBOUND:                -0.183
REMARK SMILES C[C@@H]1[C@H](C)CC[C@]2(C(=O)[O-])CC[C@]3(C)C(=CC[C@@H]4[C@@]5(C)CC[C@H](O)C(C)(C)[C@@H]5CC[C@@]43C)[C@H]12
REMARK SMILES IDX 7 1 6 2 11 3 33 4 5 5 12 6 15 7 2 8 3 9 13 10 16 11 1 12
REMARK SMILES IDX 4 13 14 14 31 15 17 16 18 17 30 18 32 19 19 20 29 21 28 22
REMARK SMILES IDX 21 23 20 24 25 25 22 26 23 27 26 28 27 29 8 30 9 31 10 32
REMARK SMILES IDX 24 33
REMARK H PARENT 24 34
REMARK Flexibility Score: inf
ROOT
ATOM      1  C   UNL     1      18.953  24.778  40.065  1.00  0.00     0.017 C 
ATOM      2  C   UNL     1      20.064  25.496  39.241  1.00  0.00     0.014 C 
ATOM      3  C   UNL     1      17.634  24.878  39.273  1.00  0.00     0.014 C 
ATOM      4  C   UNL     1      18.772  25.437  41.489  1.00  0.00     0.030 C 
ATOM      5  C   UNL     1      21.237  25.919  40.120  1.00  0.00     0.004 C 
ATOM      6  C   UNL     1      16.486  24.168  39.987  1.00  0.00     0.013 C 
ATOM      7  C   UNL     1      17.377  25.251  42.130  1.00  0.00    -0.063 C 
ATOM      8  C   UNL     1      19.310  26.909  41.585  1.00  0.00    -0.003 C 
ATOM      9  C   UNL     1      20.825  26.981  41.169  1.00  0.00    -0.011 C 
ATOM     10  C   UNL     1      16.121  24.770  41.387  1.00  0.00    -0.006 C 
ATOM     11  C   UNL     1      17.287  25.470  43.451  1.00  0.00    -0.027 C 
ATOM     12  C   UNL     1      18.394  27.947  40.903  1.00  0.00     0.008 C 
ATOM     13  C   UNL     1      21.294  28.384  40.747  1.00  0.00     0.008 C 
ATOM     14  C   UNL     1      15.239  26.030  41.125  1.00  0.00     0.017 C 
ATOM     15  C   UNL     1      15.337  23.686  42.297  1.00  0.00    -0.020 C 
ATOM     16  C   UNL     1      16.081  25.183  44.294  1.00  0.00     0.032 C 
ATOM     17  C   UNL     1      14.898  24.336  43.680  1.00  0.00     0.006 C 
ATOM     18  C   UNL     1      16.271  22.438  42.597  1.00  0.00     0.008 C 
ATOM     19  C   UNL     1      14.059  23.229  41.498  1.00  0.00     0.012 C 
ATOM     20  C   UNL     1      14.209  23.321  44.751  1.00  0.00    -0.025 C 
ATOM     21  C   UNL     1      16.152  21.823  44.023  1.00  0.00     0.005 C 
ATOM     22  C   UNL     1      14.685  21.848  44.479  1.00  0.00     0.003 C 
ATOM     23  C   UNL     1      12.656  23.302  44.615  1.00  0.00     0.010 C 
ATOM     24  C   UNL     1      14.509  23.807  46.212  1.00  0.00     0.012 C 
ATOM     25  C   UNL     1      14.135  20.729  45.441  1.00  0.00    -0.006 C 
ATOM     26  C   UNL     1      11.969  22.238  45.516  1.00  0.00     0.033 C 
ATOM     27  C   UNL     1      12.564  20.809  45.404  1.00  0.00     0.120 C 
ATOM     28  C   UNL     1      14.692  20.811  46.885  1.00  0.00     0.014 C 
ATOM     29  C   UNL     1      14.529  19.325  44.893  1.00  0.00     0.014 C 
ENDROOT
BRANCH   1  30
ATOM     30  C   UNL     1      19.356  23.300  40.173  1.00  0.00     0.048 C 
ATOM     31  O   UNL     1      19.773  22.687  39.154  1.00  0.00    -0.550 OA
ATOM     32  O   UNL     1      19.334  22.620  41.387  1.00  0.00    -0.550 OA
ENDBRANCH   1  30
BRANCH  27  33
ATOM     33  O   UNL     1      12.016  19.991  46.410  1.00  0.00    -0.393 OA
ATOM     34  H   UNL     1      11.557  20.592  47.055  1.00  0.00     0.210 HD
ENDBRANCH  27  33
TORSDOF 2
ENDMDL
MODEL 4
REMARK VINA RESULT:    -5.684      8.275     11.162
REMARK INTER + INTRA:          -6.365
REMARK INTER:                  -6.029
REMARK INTRA:                  -0.336
REMARK UNBOUND:                -0.183
REMARK SMILES C[C@@H]1[C@H](C)CC[C@]2(C(=O)[O-])CC[C@]3(C)C(=CC[C@@H]4[C@@]5(C)CC[C@H](O)C(C)(C)[C@@H]5CC[C@@]43C)[C@H]12
REMARK SMILES IDX 7 1 6 2 11 3 33 4 5 5 12 6 15 7 2 8 3 9 13 10 16 11 1 12
REMARK SMILES IDX 4 13 14 14 31 15 17 16 18 17 30 18 32 19 19 20 29 21 28 22
REMARK SMILES IDX 21 23 20 24 25 25 22 26 23 27 26 28 27 29 8 30 9 31 10 32
REMARK SMILES IDX 24 33
REMARK H PARENT 24 34
REMARK Flexibility Score: inf
ROOT
ATOM      1  C   UNL     1      16.037  21.632  52.274  1.00  0.00     0.017 C 
ATOM      2  C   UNL     1      15.799  20.192  51.728  1.00  0.00     0.014 C 
ATOM      3  C   UNL     1      15.089  21.849  53.470  1.00  0.00     0.014 C 
ATOM      4  C   UNL     1      15.757  22.723  51.167  1.00  0.00     0.030 C 
ATOM      5  C   UNL     1      16.263  20.051  50.281  1.00  0.00     0.004 C 
ATOM      6  C   UNL     1      15.274  23.229  54.099  1.00  0.00     0.013 C 
ATOM      7  C   UNL     1      15.366  24.121  51.700  1.00  0.00    -0.063 C 
ATOM      8  C   UNL     1      14.838  22.224  49.995  1.00  0.00    -0.003 C 
ATOM      9  C   UNL     1      15.441  20.940  49.317  1.00  0.00    -0.011 C 
ATOM     10  C   UNL     1      14.942  24.427  53.145  1.00  0.00    -0.006 C 
ATOM     11  C   UNL     1      15.471  25.146  50.840  1.00  0.00    -0.027 C 
ATOM     12  C   UNL     1      13.348  22.124  50.380  1.00  0.00     0.008 C 
ATOM     13  C   UNL     1      14.415  20.103  48.534  1.00  0.00     0.008 C 
ATOM     14  C   UNL     1      13.391  24.587  53.138  1.00  0.00     0.017 C 
ATOM     15  C   UNL     1      15.668  25.783  53.646  1.00  0.00    -0.020 C 
ATOM     16  C   UNL     1      15.308  26.593  51.197  1.00  0.00     0.032 C 
ATOM     17  C   UNL     1      15.256  27.008  52.720  1.00  0.00     0.006 C 
ATOM     18  C   UNL     1      17.246  25.616  53.594  1.00  0.00     0.008 C 
ATOM     19  C   UNL     1      15.199  26.056  55.125  1.00  0.00     0.012 C 
ATOM     20  C   UNL     1      16.013  28.415  53.030  1.00  0.00    -0.025 C 
ATOM     21  C   UNL     1      18.051  26.870  53.139  1.00  0.00     0.005 C 
ATOM     22  C   UNL     1      17.402  28.140  53.713  1.00  0.00     0.003 C 
ATOM     23  C   UNL     1      15.210  29.298  54.034  1.00  0.00     0.010 C 
ATOM     24  C   UNL     1      16.130  29.257  51.712  1.00  0.00     0.012 C 
ATOM     25  C   UNL     1      18.289  29.393  54.064  1.00  0.00    -0.006 C 
ATOM     26  C   UNL     1      15.967  30.582  54.472  1.00  0.00     0.033 C 
ATOM     27  C   UNL     1      17.419  30.346  54.964  1.00  0.00     0.120 C 
ATOM     28  C   UNL     1      18.864  30.124  52.823  1.00  0.00     0.014 C 
ATOM     29  C   UNL     1      19.510  28.949  54.922  1.00  0.00     0.014 C 
ENDROOT
BRANCH   1  30
ATOM     30  C   UNL     1      17.487  21.692  52.772  1.00  0.00     0.048 C 
ATOM     31  O   UNL     1      17.865  20.924  53.698  1.00  0.00    -0.550 OA
ATOM     32  O   UNL     1      18.430  22.534  52.191  1.00  0.00    -0.550 OA
ENDBRANCH   1  30
BRANCH  27  33
ATOM     33  O   UNL     1      18.069  31.583  55.125  1.00  0.00    -0.393 OA
ATOM     34  H   UNL     1      18.990  31.477  54.767  1.00  0.00     0.210 HD
ENDBRANCH  27  33
TORSDOF 2
ENDMDL
MODEL 5
REMARK VINA RESULT:    -5.586      7.758     11.086
REMARK INTER + INTRA:          -6.258
REMARK INTER:                  -5.964
REMARK INTRA:                  -0.295
REMARK UNBOUND:                -0.183
REMARK SMILES C[C@@H]1[C@H](C)CC[C@]2(C(=O)[O-])CC[C@]3(C)C(=CC[C@@H]4[C@@]5(C)CC[C@H](O)C(C)(C)[C@@H]5CC[C@@]43C)[C@H]12
REMARK SMILES IDX 7 1 6 2 11 3 33 4 5 5 12 6 15 7 2 8 3 9 13 10 16 11 1 12
REMARK SMILES IDX 4 13 14 14 31 15 17 16 18 17 30 18 32 19 19 20 29 21 28 22
REMARK SMILES IDX 21 23 20 24 25 25 22 26 23 27 26 28 27 29 8 30 9 31 10 32
REMARK SMILES IDX 24 33
REMARK H PARENT 24 34
REMARK Flexibility Score: inf
ROOT
ATOM      1  C   UNL     1      15.045  28.362  53.197  1.00  0.00     0.017 C 
ATOM      2  C   UNL     1      15.275  29.843  53.625  1.00  0.00     0.014 C 
ATOM      3  C   UNL     1      14.358  27.631  54.366  1.00  0.00     0.014 C 
ATOM      4  C   UNL     1      16.408  27.644  52.845  1.00  0.00     0.030 C 
ATOM      5  C   UNL     1      16.380  30.504  52.807  1.00  0.00     0.004 C 
ATOM      6  C   UNL     1      14.057  26.172  54.027  1.00  0.00     0.013 C 
ATOM      7  C   UNL     1      16.403  26.106  53.003  1.00  0.00    -0.063 C 
ATOM      8  C   UNL     1      17.673  28.331  53.473  1.00  0.00    -0.003 C 
ATOM      9  C   UNL     1      17.759  29.843  53.049  1.00  0.00    -0.011 C 
ATOM     10  C   UNL     1      15.325  25.297  53.741  1.00  0.00    -0.006 C 
ATOM     11  C   UNL     1      17.390  25.435  52.388  1.00  0.00    -0.027 C 
ATOM     12  C   UNL     1      17.834  28.065  54.983  1.00  0.00     0.008 C 
ATOM     13  C   UNL     1      18.630  30.707  53.977  1.00  0.00     0.008 C 
ATOM     14  C   UNL     1      15.926  24.900  55.125  1.00  0.00     0.017 C 
ATOM     15  C   UNL     1      14.942  23.988  52.872  1.00  0.00    -0.020 C 
ATOM     16  C   UNL     1      17.475  23.942  52.270  1.00  0.00     0.032 C 
ATOM     17  C   UNL     1      16.220  23.067  52.661  1.00  0.00     0.006 C 
ATOM     18  C   UNL     1      14.384  24.414  51.448  1.00  0.00     0.008 C 
ATOM     19  C   UNL     1      13.842  23.192  53.670  1.00  0.00     0.012 C 
ATOM     20  C   UNL     1      16.010  21.775  51.694  1.00  0.00    -0.025 C 
ATOM     21  C   UNL     1      14.809  23.514  50.250  1.00  0.00     0.005 C 
ATOM     22  C   UNL     1      14.830  22.042  50.689  1.00  0.00     0.003 C 
ATOM     23  C   UNL     1      15.604  20.504  52.502  1.00  0.00     0.010 C 
ATOM     24  C   UNL     1      17.360  21.420  50.980  1.00  0.00     0.012 C 
ATOM     25  C   UNL     1      14.500  20.901  49.655  1.00  0.00    -0.006 C 
ATOM     26  C   UNL     1      15.249  19.287  51.605  1.00  0.00     0.033 C 
ATOM     27  C   UNL     1      14.228  19.587  50.475  1.00  0.00     0.120 C 
ATOM     28  C   UNL     1      15.589  20.700  48.570  1.00  0.00     0.014 C 
ATOM     29  C   UNL     1      13.181  21.244  48.900  1.00  0.00     0.014 C 
ENDROOT
BRANCH   1  30
ATOM     30  C   UNL     1      14.091  28.383  51.994  1.00  0.00     0.048 C 
ATOM     31  O   UNL     1      14.525  28.107  50.844  1.00  0.00    -0.550 OA
ATOM     32  O   UNL     1      12.732  28.642  52.139  1.00  0.00    -0.550 OA
ENDBRANCH   1  30
BRANCH  27  33
ATOM     33  O   UNL     1      14.150  18.484  49.606  1.00  0.00    -0.393 OA
ATOM     34  H   UNL     1      14.506  18.780  48.727  1.00  0.00     0.210 HD
ENDBRANCH  27  33
TORSDOF 2
ENDMDL
MODEL 6
REMARK VINA RESULT:    -5.245      4.556     10.911
REMARK INTER + INTRA:          -5.887
REMARK INTER:                  -5.654
REMARK INTRA:                  -0.234
REMARK UNBOUND:                -0.183
REMARK SMILES C[C@@H]1[C@H](C)CC[C@]2(C(=O)[O-])CC[C@]3(C)C(=CC[C@@H]4[C@@]5(C)CC[C@H](O)C(C)(C)[C@@H]5CC[C@@]43C)[C@H]12
REMARK SMILES IDX 7 1 6 2 11 3 33 4 5 5 12 6 15 7 2 8 3 9 13 10 16 11 1 12
REMARK SMILES IDX 4 13 14 14 31 15 17 16 18 17 30 18 32 19 19 20 29 21 28 22
REMARK SMILES IDX 21 23 20 24 25 25 22 26 23 27 26 28 27 29 8 30 9 31 10 32
REMARK SMILES IDX 24 33
REMARK H PARENT 24 34
REMARK Flexibility Score: inf
ROOT
ATOM      1  C   UNL     1      15.112  19.526  44.953  1.00  0.00     0.017 C 
ATOM      2  C   UNL     1      15.395  20.049  43.512  1.00  0.00     0.014 C 
ATOM      3  C   UNL     1      13.718  18.870  44.955  1.00  0.00     0.014 C 
ATOM      4  C   UNL     1      15.152  20.699  46.011  1.00  0.00     0.030 C 
ATOM      5  C   UNL     1      16.458  21.144  43.506  1.00  0.00     0.004 C 
ATOM      6  C   UNL     1      13.363  18.292  46.324  1.00  0.00     0.013 C 
ATOM      7  C   UNL     1      14.326  20.456  47.296  1.00  0.00    -0.063 C 
ATOM      8  C   UNL     1      14.937  22.126  45.393  1.00  0.00    -0.003 C 
ATOM      9  C   UNL     1      15.991  22.412  44.262  1.00  0.00    -0.011 C 
ATOM     10  C   UNL     1      13.271  19.354  47.472  1.00  0.00    -0.006 C 
ATOM     11  C   UNL     1      14.610  21.237  48.351  1.00  0.00    -0.027 C 
ATOM     12  C   UNL     1      13.471  22.418  45.010  1.00  0.00     0.008 C 
ATOM     13  C   UNL     1      15.573  23.519  43.279  1.00  0.00     0.008 C 
ATOM     14  C   UNL     1      11.875  20.039  47.348  1.00  0.00     0.017 C 
ATOM     15  C   UNL     1      13.454  18.656  48.921  1.00  0.00    -0.020 C 
ATOM     16  C   UNL     1      14.054  21.058  49.732  1.00  0.00     0.032 C 
ATOM     17  C   UNL     1      13.274  19.729  50.080  1.00  0.00     0.006 C 
ATOM     18  C   UNL     1      14.900  18.013  49.045  1.00  0.00     0.008 C 
ATOM     19  C   UNL     1      12.350  17.541  49.056  1.00  0.00     0.012 C 
ATOM     20  C   UNL     1      13.558  19.193  51.590  1.00  0.00    -0.025 C 
ATOM     21  C   UNL     1      15.585  18.137  50.439  1.00  0.00     0.005 C 
ATOM     22  C   UNL     1      14.538  17.964  51.549  1.00  0.00     0.003 C 
ATOM     23  C   UNL     1      12.256  18.680  52.279  1.00  0.00     0.010 C 
ATOM     24  C   UNL     1      14.083  20.371  52.483  1.00  0.00     0.012 C 
ATOM     25  C   UNL     1      14.946  17.328  52.931  1.00  0.00    -0.006 C 
ATOM     26  C   UNL     1      12.506  18.022  53.664  1.00  0.00     0.033 C 
ATOM     27  C   UNL     1      13.618  16.940  53.680  1.00  0.00     0.120 C 
ATOM     28  C   UNL     1      15.862  18.232  53.794  1.00  0.00     0.014 C 
ATOM     29  C   UNL     1      15.731  16.005  52.687  1.00  0.00     0.014 C 
ENDROOT
BRANCH   1  30
ATOM     30  C   UNL     1      16.167  18.454  45.259  1.00  0.00     0.048 C 
ATOM     31  O   UNL     1      16.823  18.508  46.333  1.00  0.00    -0.550 OA
ATOM     32  O   UNL     1      16.386  17.375  44.408  1.00  0.00    -0.550 OA
ENDBRANCH   1  30
BRANCH  27  33
ATOM     33  O   UNL     1      13.902  16.576  55.009  1.00  0.00    -0.393 OA
ATOM     34  H   UNL     1      13.117  16.069  55.346  1.00  0.00     0.210 HD
ENDBRANCH  27  33
TORSDOF 2
ENDMDL
MODEL 7
REMARK VINA RESULT:    -5.125      1.705      2.513
REMARK INTER + INTRA:          -5.757
REMARK INTER:                  -5.432
REMARK INTRA:                  -0.326
REMARK UNBOUND:                -0.183
REMARK SMILES C[C@@H]1[C@H](C)CC[C@]2(C(=O)[O-])CC[C@]3(C)C(=CC[C@@H]4[C@@]5(C)CC[C@H](O)C(C)(C)[C@@H]5CC[C@@]43C)[C@H]12
REMARK SMILES IDX 7 1 6 2 11 3 33 4 5 5 12 6 15 7 2 8 3 9 13 10 16 11 1 12
REMARK SMILES IDX 4 13 14 14 31 15 17 16 18 17 30 18 32 19 19 20 29 21 28 22
REMARK SMILES IDX 21 23 20 24 25 25 22 26 23 27 26 28 27 29 8 30 9 31 10 32
REMARK SMILES IDX 24 33
REMARK H PARENT 24 34
REMARK Flexibility Score: inf
ROOT
ATOM      1  C   UNL     1      12.782  21.679  46.760  1.00  0.00     0.017 C 
ATOM      2  C   UNL     1      12.041  20.853  47.855  1.00  0.00     0.014 C 
ATOM      3  C   UNL     1      11.875  21.739  45.515  1.00  0.00     0.014 C 
ATOM      4  C   UNL     1      14.168  21.024  46.381  1.00  0.00     0.030 C 
ATOM      5  C   UNL     1      13.009  20.290  48.891  1.00  0.00     0.004 C 
ATOM      6  C   UNL     1      12.504  22.562  44.393  1.00  0.00     0.013 C 
ATOM      7  C   UNL     1      14.689  21.355  44.963  1.00  0.00    -0.063 C 
ATOM      8  C   UNL     1      14.275  19.500  46.744  1.00  0.00    -0.003 C 
ATOM      9  C   UNL     1      13.991  19.265  48.272  1.00  0.00    -0.011 C 
ATOM     10  C   UNL     1      13.851  21.984  43.839  1.00  0.00    -0.006 C 
ATOM     11  C   UNL     1      15.991  21.129  44.732  1.00  0.00    -0.027 C 
ATOM     12  C   UNL     1      13.491  18.581  45.784  1.00  0.00     0.008 C 
ATOM     13  C   UNL     1      13.579  17.825  48.621  1.00  0.00     0.008 C 
ATOM     14  C   UNL     1      13.482  20.835  42.852  1.00  0.00     0.017 C 
ATOM     15  C   UNL     1      14.714  23.136  43.101  1.00  0.00    -0.020 C 
ATOM     16  C   UNL     1      16.732  21.536  43.493  1.00  0.00     0.032 C 
ATOM     17  C   UNL     1      16.038  22.519  42.471  1.00  0.00     0.006 C 
ATOM     18  C   UNL     1      15.125  24.267  44.136  1.00  0.00     0.008 C 
ATOM     19  C   UNL     1      13.818  23.744  41.958  1.00  0.00     0.012 C 
ATOM     20  C   UNL     1      17.068  23.588  41.805  1.00  0.00    -0.025 C 
ATOM     21  C   UNL     1      16.550  24.871  43.957  1.00  0.00     0.005 C 
ATOM     22  C   UNL     1      16.875  25.003  42.462  1.00  0.00     0.003 C 
ATOM     23  C   UNL     1      16.798  23.783  40.281  1.00  0.00     0.010 C 
ATOM     24  C   UNL     1      18.538  23.051  41.917  1.00  0.00     0.012 C 
ATOM     25  C   UNL     1      17.812  26.163  41.954  1.00  0.00    -0.006 C 
ATOM     26  C   UNL     1      17.660  24.904  39.638  1.00  0.00     0.033 C 
ATOM     27  C   UNL     1      17.636  26.259  40.394  1.00  0.00     0.120 C 
ATOM     28  C   UNL     1      19.297  25.998  42.367  1.00  0.00     0.014 C 
ATOM     29  C   UNL     1      17.335  27.521  42.548  1.00  0.00     0.014 C 
ENDROOT
BRANCH   1  30
ATOM     30  C   UNL     1      12.961  23.101  47.312  1.00  0.00     0.048 C 
ATOM     31  O   UNL     1      14.120  23.565  47.484  1.00  0.00    -0.550 OA
ATOM     32  O   UNL     1      11.875  23.929  47.577  1.00  0.00    -0.550 OA
ENDBRANCH   1  30
BRANCH  27  33
ATOM     33  O   UNL     1      18.609  27.118  39.851  1.00  0.00    -0.393 OA
ATOM     34  H   UNL     1      19.437  26.580  39.728  1.00  0.00     0.210 HD
ENDBRANCH  27  33
TORSDOF 2
ENDMDL
MODEL 8
REMARK VINA RESULT:    -4.993      7.368     10.268
REMARK INTER + INTRA:          -5.613
REMARK INTER:                  -5.276
REMARK INTRA:                  -0.338
REMARK UNBOUND:                -0.183
REMARK SMILES C[C@@H]1[C@H](C)CC[C@]2(C(=O)[O-])CC[C@]3(C)C(=CC[C@@H]4[C@@]5(C)CC[C@H](O)C(C)(C)[C@@H]5CC[C@@]43C)[C@H]12
REMARK SMILES IDX 7 1 6 2 11 3 33 4 5 5 12 6 15 7 2 8 3 9 13 10 16 11 1 12
REMARK SMILES IDX 4 13 14 14 31 15 17 16 18 17 30 18 32 19 19 20 29 21 28 22
REMARK SMILES IDX 21 23 20 24 25 25 22 26 23 27 26 28 27 29 8 30 9 31 10 32
REMARK SMILES IDX 24 33
REMARK H PARENT 24 34
REMARK Flexibility Score: inf
ROOT
ATOM      1  C   UNL     1      16.021  25.402  53.113  1.00  0.00     0.017 C 
ATOM      2  C   UNL     1      16.672  26.588  53.889  1.00  0.00     0.014 C 
ATOM      3  C   UNL     1      15.166  24.596  54.110  1.00  0.00     0.014 C 
ATOM      4  C   UNL     1      17.116  24.464  52.467  1.00  0.00     0.030 C 
ATOM      5  C   UNL     1      17.911  27.120  53.174  1.00  0.00     0.004 C 
ATOM      6  C   UNL     1      14.455  23.426  53.432  1.00  0.00     0.013 C 
ATOM      7  C   UNL     1      16.672  23.004  52.220  1.00  0.00    -0.063 C 
ATOM      8  C   UNL     1      18.532  24.580  53.136  1.00  0.00    -0.003 C 
ATOM      9  C   UNL     1      19.044  26.066  53.113  1.00  0.00    -0.011 C 
ATOM     10  C   UNL     1      15.415  22.351  52.817  1.00  0.00    -0.006 C 
ATOM     11  C   UNL     1      17.416  22.284  51.367  1.00  0.00    -0.027 C 
ATOM     12  C   UNL     1      18.627  23.876  54.505  1.00  0.00     0.008 C 
ATOM     13  C   UNL     1      20.137  26.370  54.151  1.00  0.00     0.008 C 
ATOM     14  C   UNL     1      15.892  21.441  53.991  1.00  0.00     0.017 C 
ATOM     15  C   UNL     1      14.661  21.487  51.676  1.00  0.00    -0.020 C 
ATOM     16  C   UNL     1      17.068  20.917  50.859  1.00  0.00     0.032 C 
ATOM     17  C   UNL     1      15.619  20.345  51.121  1.00  0.00     0.006 C 
ATOM     18  C   UNL     1      14.234  22.422  50.467  1.00  0.00     0.008 C 
ATOM     19  C   UNL     1      13.388  20.835  52.335  1.00  0.00     0.012 C 
ATOM     20  C   UNL     1      15.035  19.477  49.874  1.00  0.00    -0.025 C 
ATOM     21  C   UNL     1      14.368  21.804  49.044  1.00  0.00     0.005 C 
ATOM     22  C   UNL     1      13.970  20.321  49.082  1.00  0.00     0.003 C 
ATOM     23  C   UNL     1      14.291  18.194  50.358  1.00  0.00     0.010 C 
ATOM     24  C   UNL     1      16.218  18.976  48.975  1.00  0.00     0.012 C 
ATOM     25  C   UNL     1      13.314  19.643  47.821  1.00  0.00    -0.006 C 
ATOM     26  C   UNL     1      13.590  17.415  49.211  1.00  0.00     0.033 C 
ATOM     27  C   UNL     1      12.686  18.280  48.294  1.00  0.00     0.120 C 
ATOM     28  C   UNL     1      14.287  19.457  46.629  1.00  0.00     0.014 C 
ATOM     29  C   UNL     1      12.141  20.526  47.302  1.00  0.00     0.014 C 
ENDROOT
BRANCH   1  30
ATOM     30  C   UNL     1      15.100  26.012  52.048  1.00  0.00     0.048 C 
ATOM     31  O   UNL     1      14.156  26.772  52.395  1.00  0.00    -0.550 OA
ATOM     32  O   UNL     1      15.308  25.801  50.688  1.00  0.00    -0.550 OA
ENDBRANCH   1  30
BRANCH  27  33
ATOM     33  O   UNL     1      12.284  17.522  47.179  1.00  0.00    -0.393 OA
ATOM     34  H   UNL     1      12.850  17.808  46.413  1.00  0.00     0.210 HD
ENDBRANCH  27  33
TORSDOF 2
ENDMDL
MODEL 9
REMARK VINA RESULT:    -3.909      3.934      8.848
REMARK INTER + INTRA:          -4.435
REMARK INTER:                  -4.178
REMARK INTRA:                  -0.257
REMARK UNBOUND:                -0.183
REMARK SMILES C[C@@H]1[C@H](C)CC[C@]2(C(=O)[O-])CC[C@]3(C)C(=CC[C@@H]4[C@@]5(C)CC[C@H](O)C(C)(C)[C@@H]5CC[C@@]43C)[C@H]12
REMARK SMILES IDX 7 1 6 2 11 3 33 4 5 5 12 6 15 7 2 8 3 9 13 10 16 11 1 12
REMARK SMILES IDX 4 13 14 14 31 15 17 16 18 17 30 18 32 19 19 20 29 21 28 22
REMARK SMILES IDX 21 23 20 24 25 25 22 26 23 27 26 28 27 29 8 30 9 31 10 32
REMARK SMILES IDX 24 33
REMARK H PARENT 24 34
REMARK Flexibility Score: inf
ROOT
ATOM      1  C   UNL     1      13.275  22.722  45.673  1.00  0.00     0.017 C 
ATOM      2  C   UNL     1      13.143  21.914  44.347  1.00  0.00     0.014 C 
ATOM      3  C   UNL     1      11.875  23.242  46.054  1.00  0.00     0.014 C 
ATOM      4  C   UNL     1      14.270  23.937  45.512  1.00  0.00     0.030 C 
ATOM      5  C   UNL     1      14.476  21.809  43.613  1.00  0.00     0.004 C 
ATOM      6  C   UNL     1      11.895  24.022  47.367  1.00  0.00     0.013 C 
ATOM      7  C   UNL     1      14.036  25.117  46.485  1.00  0.00    -0.063 C 
ATOM      8  C   UNL     1      14.491  24.391  44.025  1.00  0.00    -0.003 C 
ATOM      9  C   UNL     1      14.990  23.191  43.140  1.00  0.00    -0.011 C 
ATOM     10  C   UNL     1      12.774  25.319  47.339  1.00  0.00    -0.006 C 
ATOM     11  C   UNL     1      15.046  25.988  46.631  1.00  0.00    -0.027 C 
ATOM     12  C   UNL     1      13.305  25.186  43.441  1.00  0.00     0.008 C 
ATOM     13  C   UNL     1      14.755  23.382  41.632  1.00  0.00     0.008 C 
ATOM     14  C   UNL     1      11.928  26.427  46.640  1.00  0.00     0.017 C 
ATOM     15  C   UNL     1      13.200  25.762  48.835  1.00  0.00    -0.020 C 
ATOM     16  C   UNL     1      15.093  27.094  47.641  1.00  0.00     0.032 C 
ATOM     17  C   UNL     1      14.018  27.125  48.798  1.00  0.00     0.006 C 
ATOM     18  C   UNL     1      14.105  24.645  49.506  1.00  0.00     0.008 C 
ATOM     19  C   UNL     1      11.877  25.962  49.667  1.00  0.00     0.012 C 
ATOM     20  C   UNL     1      14.622  27.626  50.224  1.00  0.00    -0.025 C 
ATOM     21  C   UNL     1      15.277  25.158  50.396  1.00  0.00     0.005 C 
ATOM     22  C   UNL     1      14.826  26.397  51.184  1.00  0.00     0.003 C 
ATOM     23  C   UNL     1      13.642  28.589  50.963  1.00  0.00     0.010 C 
ATOM     24  C   UNL     1      15.937  28.447  49.986  1.00  0.00     0.012 C 
ATOM     25  C   UNL     1      15.429  26.694  52.608  1.00  0.00    -0.006 C 
ATOM     26  C   UNL     1      14.113  28.972  52.394  1.00  0.00     0.033 C 
ATOM     27  C   UNL     1      14.510  27.771  53.292  1.00  0.00     0.120 C 
ATOM     28  C   UNL     1      16.918  27.124  52.583  1.00  0.00     0.014 C 
ATOM     29  C   UNL     1      15.353  25.410  53.487  1.00  0.00     0.014 C 
ENDROOT
BRANCH   1  30
ATOM     30  C   UNL     1      13.751  21.741  46.754  1.00  0.00     0.048 C 
ATOM     31  O   UNL     1      14.952  21.761  47.133  1.00  0.00    -0.550 OA
ATOM     32  O   UNL     1      12.878  20.858  47.381  1.00  0.00    -0.550 OA
ENDBRANCH   1  30
BRANCH  27  33
ATOM     33  O   UNL     1      15.117  28.245  54.470  1.00  0.00    -0.393 OA
ATOM     34  H   UNL     1      15.383  27.448  55.001  1.00  0.00     0.210 HD
ENDBRANCH  27  33
TORSDOF 2
ENDMDL
