MODEL 1
REMARK VINA RESULT:    -5.477      0.000      0.000
REMARK INTER + INTRA:         -12.273
REMARK INTER:                 -10.280
REMARK INTRA:                  -1.993
REMARK UNBOUND:                -1.993
REMARK SMILES O=C([O-])CCCCCCCCCCCCCCC(=O)[O-]
REMARK SMILES IDX 10 1 9 2 8 3 7 4 6 5 5 6 4 7 2 8 1 9 3 10 11 11 12 12 13 13
REMARK SMILES IDX 14 14 15 15 16 16 17 17 18 18 19 19 20 20
REMARK H PARENT
REMARK Flexibility Score: inf
ROOT
ATOM      1  C   UNL     1       7.385   4.422   7.910  1.00  0.00     0.000 C 
ENDROOT
BRANCH   1   2
ATOM      2  C   UNL     1       6.030   3.733   8.105  1.00  0.00     0.000 C 
BRANCH   2   3
ATOM      3  C   UNL     1       4.895   4.764   8.183  1.00  0.00     0.000 C 
BRANCH   3   4
ATOM      4  C   UNL     1       3.652   4.341   7.382  1.00  0.00     0.000 C 
BRANCH   4   5
ATOM      5  C   UNL     1       2.364   4.381   8.225  1.00  0.00     0.000 C 
BRANCH   5   6
ATOM      6  C   UNL     1       2.523   5.223   9.507  1.00  0.00     0.006 C 
BRANCH   6   7
ATOM      7  C   UNL     1       1.398   6.249   9.713  1.00  0.00     0.053 C 
BRANCH   7   8
ATOM      8  C   UNL     1       0.053   5.701   9.346  1.00  0.00     0.041 C 
ATOM      9  O   UNL     1      -0.550   6.131   8.327  1.00  0.00    -0.550 OA
ATOM     10  O   UNL     1      -0.526   4.701  10.118  1.00  0.00    -0.550 OA
ENDBRANCH   7   8
ENDBRANCH   6   7
ENDBRANCH   5   6
ENDBRANCH   4   5
ENDBRANCH   3   4
ENDBRANCH   2   3
ENDBRANCH   1   2
BRANCH   1  11
ATOM     11  C   UNL     1       7.242   5.950   7.996  1.00  0.00     0.000 C 
BRANCH  11  12
ATOM     12  C   UNL     1       8.448   6.691   7.398  1.00  0.00     0.000 C 
BRANCH  12  13
ATOM     13  C   UNL     1       8.046   7.678   6.287  1.00  0.00     0.000 C 
BRANCH  13  14
ATOM     14  C   UNL     1       6.668   7.362   5.686  1.00  0.00     0.000 C 
BRANCH  14  15
ATOM     15  C   UNL     1       5.760   8.598   5.603  1.00  0.00     0.000 C 
BRANCH  15  16
ATOM     16  C   UNL     1       5.325   9.056   7.003  1.00  0.00     0.006 C 
BRANCH  16  17
ATOM     17  C   UNL     1       4.266   8.128   7.616  1.00  0.00     0.053 C 
BRANCH  17  18
ATOM     18  C   UNL     1       2.913   8.357   7.016  1.00  0.00     0.041 C 
ATOM     19  O   UNL     1       2.335   9.467   7.164  1.00  0.00    -0.550 OA
ATOM     20  O   UNL     1       2.304   7.359   6.265  1.00  0.00    -0.550 OA
ENDBRANCH  17  18
ENDBRANCH  16  17
ENDBRANCH  15  16
ENDBRANCH  14  15
ENDBRANCH  13  14
ENDBRANCH  12  13
ENDBRANCH  11  12
ENDBRANCH   1  11
TORSDOF 15
ENDMDL
MODEL 2
REMARK VINA RESULT:    -5.457      2.346      5.945
REMARK INTER + INTRA:         -12.234
REMARK INTER:                 -10.101
REMARK INTRA:                  -2.134
REMARK UNBOUND:                -1.993
REMARK SMILES O=C([O-])CCCCCCCCCCCCCCC(=O)[O-]
REMARK SMILES IDX 10 1 9 2 8 3 7 4 6 5 5 6 4 7 2 8 1 9 3 10 11 11 12 12 13 13
REMARK SMILES IDX 14 14 15 15 16 16 17 17 18 18 19 19 20 20
REMARK H PARENT
REMARK Flexibility Score: inf
ROOT
ATOM      1  C   UNL     1       2.072   6.034   7.118  1.00  0.00     0.000 C 
ENDROOT
BRANCH   1   2
ATOM      2  C   UNL     1       2.770   4.711   7.455  1.00  0.00     0.000 C 
BRANCH   2   3
ATOM      3  C   UNL     1       3.992   4.947   8.354  1.00  0.00     0.000 C 
BRANCH   3   4
ATOM      4  C   UNL     1       5.227   4.154   7.898  1.00  0.00     0.000 C 
BRANCH   4   5
ATOM      5  C   UNL     1       6.072   4.918   6.862  1.00  0.00     0.000 C 
BRANCH   5   6
ATOM      6  C   UNL     1       7.047   5.917   7.516  1.00  0.00     0.006 C 
BRANCH   6   7
ATOM      7  C   UNL     1       6.637   7.387   7.332  1.00  0.00     0.053 C 
BRANCH   7   8
ATOM      8  C   UNL     1       7.065   7.937   6.006  1.00  0.00     0.041 C 
ATOM      9  O   UNL     1       8.276   7.890   5.662  1.00  0.00    -0.550 OA
ATOM     10  O   UNL     1       6.124   8.482   5.142  1.00  0.00    -0.550 OA
ENDBRANCH   7   8
ENDBRANCH   6   7
ENDBRANCH   5   6
ENDBRANCH   4   5
ENDBRANCH   3   4
ENDBRANCH   2   3
ENDBRANCH   1   2
BRANCH   1  11
ATOM     11  C   UNL     1       3.059   7.030   6.488  1.00  0.00     0.000 C 
BRANCH  11  12
ATOM     12  C   UNL     1       2.929   8.443   7.078  1.00  0.00     0.000 C 
BRANCH  12  13
ATOM     13  C   UNL     1       3.185   8.478   8.596  1.00  0.00     0.000 C 
BRANCH  13  14
ATOM     14  C   UNL     1       2.277   9.480   9.325  1.00  0.00     0.000 C 
BRANCH  14  15
ATOM     15  C   UNL     1       1.401   8.814  10.397  1.00  0.00     0.000 C 
BRANCH  15  16
ATOM     16  C   UNL     1       1.863   7.375  10.669  1.00  0.00     0.006 C 
BRANCH  16  17
ATOM     17  C   UNL     1       0.734   6.354  10.469  1.00  0.00     0.053 C 
BRANCH  17  18
ATOM     18  C   UNL     1      -0.061   6.153  11.723  1.00  0.00     0.041 C 
ATOM     19  O   UNL     1      -1.143   5.508  11.690  1.00  0.00    -0.550 OA
ATOM     20  O   UNL     1       0.409   6.647  12.934  1.00  0.00    -0.550 OA
ENDBRANCH  17  18
ENDBRANCH  16  17
ENDBRANCH  15  16
ENDBRANCH  14  15
ENDBRANCH  13  14
ENDBRANCH  12  13
ENDBRANCH  11  12
ENDBRANCH   1  11
TORSDOF 15
ENDMDL
MODEL 3
REMARK VINA RESULT:    -5.441      1.078      4.389
REMARK INTER + INTRA:         -12.206
REMARK INTER:                 -10.269
REMARK INTRA:                  -1.937
REMARK UNBOUND:                -1.993
REMARK SMILES O=C([O-])CCCCCCCCCCCCCCC(=O)[O-]
REMARK SMILES IDX 10 1 9 2 8 3 7 4 6 5 5 6 4 7 2 8 1 9 3 10 11 11 12 12 13 13
REMARK SMILES IDX 14 14 15 15 16 16 17 17 18 18 19 19 20 20
REMARK H PARENT
REMARK Flexibility Score: inf
ROOT
ATOM      1  C   UNL     1       7.815   7.008   7.562  1.00  0.00     0.000 C 
ENDROOT
BRANCH   1   2
ATOM      2  C   UNL     1       8.367   7.562   6.243  1.00  0.00     0.000 C 
BRANCH   2   3
ATOM      3  C   UNL     1       7.240   8.143   5.377  1.00  0.00     0.000 C 
BRANCH   3   4
ATOM      4  C   UNL     1       6.183   7.094   4.994  1.00  0.00     0.000 C 
BRANCH   4   5
ATOM      5  C   UNL     1       4.781   7.446   5.523  1.00  0.00     0.000 C 
BRANCH   5   6
ATOM      6  C   UNL     1       4.813   8.568   6.580  1.00  0.00     0.006 C 
BRANCH   6   7
ATOM      7  C   UNL     1       4.169   8.171   7.918  1.00  0.00     0.053 C 
BRANCH   7   8
ATOM      8  C   UNL     1       2.870   8.876   8.157  1.00  0.00     0.041 C 
ATOM      9  O   UNL     1       2.309   9.505   7.220  1.00  0.00    -0.550 OA
ATOM     10  O   UNL     1       2.267   8.822   9.407  1.00  0.00    -0.550 OA
ENDBRANCH   7   8
ENDBRANCH   6   7
ENDBRANCH   5   6
ENDBRANCH   4   5
ENDBRANCH   3   4
ENDBRANCH   2   3
ENDBRANCH   1   2
BRANCH   1  11
ATOM     11  C   UNL     1       8.570   5.737   7.982  1.00  0.00     0.000 C 
BRANCH  11  12
ATOM     12  C   UNL     1       7.625   4.583   8.351  1.00  0.00     0.000 C 
BRANCH  12  13
ATOM     13  C   UNL     1       6.519   4.364   7.304  1.00  0.00     0.000 C 
BRANCH  13  14
ATOM     14  C   UNL     1       5.228   3.800   7.917  1.00  0.00     0.000 C 
BRANCH  14  15
ATOM     15  C   UNL     1       3.974   4.564   7.463  1.00  0.00     0.000 C 
BRANCH  15  16
ATOM     16  C   UNL     1       2.777   4.245   8.371  1.00  0.00     0.006 C 
BRANCH  16  17
ATOM     17  C   UNL     1       1.683   5.319   8.290  1.00  0.00     0.053 C 
BRANCH  17  18
ATOM     18  C   UNL     1       0.774   5.277   9.480  1.00  0.00     0.041 C 
ATOM     19  O   UNL     1       1.137   5.793  10.571  1.00  0.00    -0.550 OA
ATOM     20  O   UNL     1      -0.486   4.699   9.377  1.00  0.00    -0.550 OA
ENDBRANCH  17  18
ENDBRANCH  16  17
ENDBRANCH  15  16
ENDBRANCH  14  15
ENDBRANCH  13  14
ENDBRANCH  12  13
ENDBRANCH  11  12
ENDBRANCH   1  11
TORSDOF 15
ENDMDL
MODEL 4
REMARK VINA RESULT:    -5.425      2.781      7.152
REMARK INTER + INTRA:         -12.176
REMARK INTER:                 -10.601
REMARK INTRA:                  -1.574
REMARK UNBOUND:                -1.993
REMARK SMILES O=C([O-])CCCCCCCCCCCCCCC(=O)[O-]
REMARK SMILES IDX 10 1 9 2 8 3 7 4 6 5 5 6 4 7 2 8 1 9 3 10 11 11 12 12 13 13
REMARK SMILES IDX 14 14 15 15 16 16 17 17 18 18 19 19 20 20
REMARK H PARENT
REMARK Flexibility Score: inf
ROOT
ATOM      1  C   UNL     1       2.027   9.471  10.693  1.00  0.00     0.000 C 
ENDROOT
BRANCH   1   2
ATOM      2  C   UNL     1       1.757   8.712   9.388  1.00  0.00     0.000 C 
BRANCH   2   3
ATOM      3  C   UNL     1       2.841   9.012   8.343  1.00  0.00     0.000 C 
BRANCH   3   4
ATOM      4  C   UNL     1       4.116   8.180   8.554  1.00  0.00     0.000 C 
BRANCH   4   5
ATOM      5  C   UNL     1       5.311   8.713   7.742  1.00  0.00     0.000 C 
BRANCH   5   6
ATOM      6  C   UNL     1       5.598   7.864   6.487  1.00  0.00     0.006 C 
BRANCH   6   7
ATOM      7  C   UNL     1       6.269   8.653   5.351  1.00  0.00     0.053 C 
BRANCH   7   8
ATOM      8  C   UNL     1       7.763   8.636   5.452  1.00  0.00     0.041 C 
ATOM      9  O   UNL     1       8.448   9.515   4.864  1.00  0.00    -0.550 OA
ATOM     10  O   UNL     1       8.399   7.661   6.211  1.00  0.00    -0.550 OA
ENDBRANCH   7   8
ENDBRANCH   6   7
ENDBRANCH   5   6
ENDBRANCH   4   5
ENDBRANCH   3   4
ENDBRANCH   2   3
ENDBRANCH   1   2
BRANCH   1  11
ATOM     11  C   UNL     1       1.241   8.854  11.861  1.00  0.00     0.000 C 
BRANCH  11  12
ATOM     12  C   UNL     1       1.306   7.320  11.871  1.00  0.00     0.000 C 
BRANCH  12  13
ATOM     13  C   UNL     1       0.005   6.674  12.381  1.00  0.00     0.000 C 
BRANCH  13  14
ATOM     14  C   UNL     1      -0.469   5.516  11.490  1.00  0.00     0.000 C 
BRANCH  14  15
ATOM     15  C   UNL     1      -0.149   5.742  10.005  1.00  0.00     0.000 C 
BRANCH  15  16
ATOM     16  C   UNL     1       0.685   4.583   9.439  1.00  0.00     0.006 C 
BRANCH  16  17
ATOM     17  C   UNL     1       2.090   5.031   9.014  1.00  0.00     0.053 C 
BRANCH  17  18
ATOM     18  C   UNL     1       2.249   5.021   7.524  1.00  0.00     0.041 C 
ATOM     19  O   UNL     1       1.798   5.973   6.833  1.00  0.00    -0.550 OA
ATOM     20  O   UNL     1       2.926   3.978   6.901  1.00  0.00    -0.550 OA
ENDBRANCH  17  18
ENDBRANCH  16  17
ENDBRANCH  15  16
ENDBRANCH  14  15
ENDBRANCH  13  14
ENDBRANCH  12  13
ENDBRANCH  11  12
ENDBRANCH   1  11
TORSDOF 15
ENDMDL
MODEL 5
REMARK VINA RESULT:    -5.396      2.543      6.784
REMARK INTER + INTRA:         -12.120
REMARK INTER:                 -10.236
REMARK INTRA:                  -1.885
REMARK UNBOUND:                -1.993
REMARK SMILES O=C([O-])CCCCCCCCCCCCCCC(=O)[O-]
REMARK SMILES IDX 10 1 9 2 8 3 7 4 6 5 5 6 4 7 2 8 1 9 3 10 11 11 12 12 13 13
REMARK SMILES IDX 14 14 15 15 16 16 17 17 18 18 19 19 20 20
REMARK H PARENT
REMARK Flexibility Score: inf
ROOT
ATOM      1  C   UNL     1       1.412   7.391  11.471  1.00  0.00     0.000 C 
ENDROOT
BRANCH   1   2
ATOM      2  C   UNL     1       1.431   8.907  11.704  1.00  0.00     0.000 C 
BRANCH   2   3
ATOM      3  C   UNL     1       1.991   9.644  10.479  1.00  0.00     0.000 C 
BRANCH   3   4
ATOM      4  C   UNL     1       2.011   8.767   9.216  1.00  0.00     0.000 C 
BRANCH   4   5
ATOM      5  C   UNL     1       2.969   9.305   8.138  1.00  0.00     0.000 C 
BRANCH   5   6
ATOM      6  C   UNL     1       4.343   8.605   8.166  1.00  0.00     0.006 C 
BRANCH   6   7
ATOM      7  C   UNL     1       5.280   9.043   7.030  1.00  0.00     0.053 C 
BRANCH   7   8
ATOM      8  C   UNL     1       5.316   8.052   5.906  1.00  0.00     0.041 C 
ATOM      9  O   UNL     1       6.283   8.044   5.100  1.00  0.00    -0.550 OA
ATOM     10  O   UNL     1       4.290   7.126   5.763  1.00  0.00    -0.550 OA
ENDBRANCH   7   8
ENDBRANCH   6   7
ENDBRANCH   5   6
ENDBRANCH   4   5
ENDBRANCH   3   4
ENDBRANCH   2   3
ENDBRANCH   1   2
BRANCH   1  11
ATOM     11  C   UNL     1       0.514   6.688  12.502  1.00  0.00     0.000 C 
BRANCH  11  12
ATOM     12  C   UNL     1      -0.593   5.848  11.846  1.00  0.00     0.000 C 
BRANCH  12  13
ATOM     13  C   UNL     1      -0.759   6.153  10.346  1.00  0.00     0.000 C 
BRANCH  13  14
ATOM     14  C   UNL     1      -0.588   4.905   9.467  1.00  0.00     0.000 C 
BRANCH  14  15
ATOM     15  C   UNL     1       0.866   4.413   9.414  1.00  0.00     0.000 C 
BRANCH  15  16
ATOM     16  C   UNL     1       1.676   5.203   8.375  1.00  0.00     0.006 C 
BRANCH  16  17
ATOM     17  C   UNL     1       3.188   5.115   8.627  1.00  0.00     0.053 C 
BRANCH  17  18
ATOM     18  C   UNL     1       3.842   4.108   7.731  1.00  0.00     0.041 C 
ATOM     19  O   UNL     1       3.143   3.260   7.115  1.00  0.00    -0.550 OA
ATOM     20  O   UNL     1       5.220   4.128   7.548  1.00  0.00    -0.550 OA
ENDBRANCH  17  18
ENDBRANCH  16  17
ENDBRANCH  15  16
ENDBRANCH  14  15
ENDBRANCH  13  14
ENDBRANCH  12  13
ENDBRANCH  11  12
ENDBRANCH   1  11
TORSDOF 15
ENDMDL
MODEL 6
REMARK VINA RESULT:    -5.384      2.214      4.425
REMARK INTER + INTRA:         -12.098
REMARK INTER:                 -10.181
REMARK INTRA:                  -1.917
REMARK UNBOUND:                -1.993
REMARK SMILES O=C([O-])CCCCCCCCCCCCCCC(=O)[O-]
REMARK SMILES IDX 10 1 9 2 8 3 7 4 6 5 5 6 4 7 2 8 1 9 3 10 11 11 12 12 13 13
REMARK SMILES IDX 14 14 15 15 16 16 17 17 18 18 19 19 20 20
REMARK H PARENT
REMARK Flexibility Score: inf
ROOT
ATOM      1  C   UNL     1       3.021   7.534   6.807  1.00  0.00     0.000 C 
ENDROOT
BRANCH   1   2
ATOM      2  C   UNL     1       2.715   8.786   7.637  1.00  0.00     0.000 C 
BRANCH   2   3
ATOM      3  C   UNL     1       3.066   8.565   9.116  1.00  0.00     0.000 C 
BRANCH   3   4
ATOM      4  C   UNL     1       1.949   9.025  10.066  1.00  0.00     0.000 C 
BRANCH   4   5
ATOM      5  C   UNL     1       0.733   8.080  10.052  1.00  0.00     0.000 C 
BRANCH   5   6
ATOM      6  C   UNL     1       1.069   6.679  10.602  1.00  0.00     0.006 C 
BRANCH   6   7
ATOM      7  C   UNL     1      -0.066   6.055  11.430  1.00  0.00     0.053 C 
BRANCH   7   8
ATOM      8  C   UNL     1      -0.788   4.975  10.685  1.00  0.00     0.041 C 
ATOM      9  O   UNL     1      -0.638   4.854   9.440  1.00  0.00    -0.550 OA
ATOM     10  O   UNL     1      -1.612   4.089  11.369  1.00  0.00    -0.550 OA
ENDBRANCH   7   8
ENDBRANCH   6   7
ENDBRANCH   5   6
ENDBRANCH   4   5
ENDBRANCH   3   4
ENDBRANCH   2   3
ENDBRANCH   1   2
BRANCH   1  11
ATOM     11  C   UNL     1       1.890   6.501   6.933  1.00  0.00     0.000 C 
BRANCH  11  12
ATOM     12  C   UNL     1       2.411   5.086   7.227  1.00  0.00     0.000 C 
BRANCH  12  13
ATOM     13  C   UNL     1       3.640   5.087   8.154  1.00  0.00     0.000 C 
BRANCH  13  14
ATOM     14  C   UNL     1       4.674   4.019   7.767  1.00  0.00     0.000 C 
BRANCH  14  15
ATOM     15  C   UNL     1       6.094   4.590   7.634  1.00  0.00     0.000 C 
BRANCH  15  16
ATOM     16  C   UNL     1       6.174   5.604   6.484  1.00  0.00     0.006 C 
BRANCH  16  17
ATOM     17  C   UNL     1       6.802   6.934   6.924  1.00  0.00     0.053 C 
BRANCH  17  18
ATOM     18  C   UNL     1       7.031   7.851   5.761  1.00  0.00     0.041 C 
ATOM     19  O   UNL     1       6.057   8.427   5.208  1.00  0.00    -0.550 OA
ATOM     20  O   UNL     1       8.323   8.097   5.310  1.00  0.00    -0.550 OA
ENDBRANCH  17  18
ENDBRANCH  16  17
ENDBRANCH  15  16
ENDBRANCH  14  15
ENDBRANCH  13  14
ENDBRANCH  12  13
ENDBRANCH  11  12
ENDBRANCH   1  11
TORSDOF 15
ENDMDL
MODEL 7
REMARK VINA RESULT:    -5.351      1.865      5.414
REMARK INTER + INTRA:         -12.036
REMARK INTER:                  -9.959
REMARK INTRA:                  -2.077
REMARK UNBOUND:                -1.993
REMARK SMILES O=C([O-])CCCCCCCCCCCCCCC(=O)[O-]
REMARK SMILES IDX 10 1 9 2 8 3 7 4 6 5 5 6 4 7 2 8 1 9 3 10 11 11 12 12 13 13
REMARK SMILES IDX 14 14 15 15 16 16 17 17 18 18 19 19 20 20
REMARK H PARENT
REMARK Flexibility Score: inf
ROOT
ATOM      1  C   UNL     1       4.494   5.550   8.733  1.00  0.00     0.000 C 
ENDROOT
BRANCH   1   2
ATOM      2  C   UNL     1       4.994   4.312   7.980  1.00  0.00     0.000 C 
BRANCH   2   3
ATOM      3  C   UNL     1       6.299   4.615   7.229  1.00  0.00     0.000 C 
BRANCH   3   4
ATOM      4  C   UNL     1       7.518   4.689   8.163  1.00  0.00     0.000 C 
BRANCH   4   5
ATOM      5  C   UNL     1       8.471   5.843   7.801  1.00  0.00     0.000 C 
BRANCH   5   6
ATOM      6  C   UNL     1       7.717   7.125   7.395  1.00  0.00     0.006 C 
BRANCH   6   7
ATOM      7  C   UNL     1       8.042   7.605   5.971  1.00  0.00     0.053 C 
BRANCH   7   8
ATOM      8  C   UNL     1       6.818   7.719   5.116  1.00  0.00     0.041 C 
ATOM      9  O   UNL     1       6.214   8.820   5.017  1.00  0.00    -0.550 OA
ATOM     10  O   UNL     1       6.356   6.614   4.411  1.00  0.00    -0.550 OA
ENDBRANCH   7   8
ENDBRANCH   6   7
ENDBRANCH   5   6
ENDBRANCH   4   5
ENDBRANCH   3   4
ENDBRANCH   2   3
ENDBRANCH   1   2
BRANCH   1  11
ATOM     11  C   UNL     1       4.138   6.681   7.756  1.00  0.00     0.000 C 
BRANCH  11  12
ATOM     12  C   UNL     1       4.493   8.071   8.305  1.00  0.00     0.000 C 
BRANCH  12  13
ATOM     13  C   UNL     1       3.795   9.209   7.539  1.00  0.00     0.000 C 
BRANCH  13  14
ATOM     14  C   UNL     1       2.435   9.583   8.148  1.00  0.00     0.000 C 
BRANCH  14  15
ATOM     15  C   UNL     1       2.375   9.332   9.663  1.00  0.00     0.000 C 
BRANCH  15  16
ATOM     16  C   UNL     1       1.119   8.534  10.039  1.00  0.00     0.006 C 
BRANCH  16  17
ATOM     17  C   UNL     1       1.448   7.095  10.459  1.00  0.00     0.053 C 
BRANCH  17  18
ATOM     18  C   UNL     1       0.818   6.091   9.543  1.00  0.00     0.041 C 
ATOM     19  O   UNL     1       0.648   6.365   8.325  1.00  0.00    -0.550 OA
ATOM     20  O   UNL     1       0.451   4.840  10.025  1.00  0.00    -0.550 OA
ENDBRANCH  17  18
ENDBRANCH  16  17
ENDBRANCH  15  16
ENDBRANCH  14  15
ENDBRANCH  13  14
ENDBRANCH  12  13
ENDBRANCH  11  12
ENDBRANCH   1  11
TORSDOF 15
ENDMDL
MODEL 8
REMARK VINA RESULT:    -5.326      1.665      3.802
REMARK INTER + INTRA:         -11.990
REMARK INTER:                  -9.649
REMARK INTRA:                  -2.341
REMARK UNBOUND:                -1.993
REMARK SMILES O=C([O-])CCCCCCCCCCCCCCC(=O)[O-]
REMARK SMILES IDX 10 1 9 2 8 3 7 4 6 5 5 6 4 7 2 8 1 9 3 10 11 11 12 12 13 13
REMARK SMILES IDX 14 14 15 15 16 16 17 17 18 18 19 19 20 20
REMARK H PARENT
REMARK Flexibility Score: inf
ROOT
ATOM      1  C   UNL     1       7.759   8.057   6.091  1.00  0.00     0.000 C 
ENDROOT
BRANCH   1   2
ATOM      2  C   UNL     1       6.872   7.438   5.004  1.00  0.00     0.000 C 
BRANCH   2   3
ATOM      3  C   UNL     1       5.386   7.693   5.295  1.00  0.00     0.000 C 
BRANCH   3   4
ATOM      4  C   UNL     1       5.166   8.540   6.559  1.00  0.00     0.000 C 
BRANCH   4   5
ATOM      5  C   UNL     1       3.705   8.511   7.044  1.00  0.00     0.000 C 
BRANCH   5   6
ATOM      6  C   UNL     1       3.593   8.336   8.572  1.00  0.00     0.006 C 
BRANCH   6   7
ATOM      7  C   UNL     1       2.494   9.200   9.211  1.00  0.00     0.053 C 
BRANCH   7   8
ATOM      8  C   UNL     1       1.583   8.402  10.093  1.00  0.00     0.041 C 
ATOM      9  O   UNL     1       0.437   8.073   9.688  1.00  0.00    -0.550 OA
ATOM     10  O   UNL     1       2.008   8.006  11.356  1.00  0.00    -0.550 OA
ENDBRANCH   7   8
ENDBRANCH   6   7
ENDBRANCH   5   6
ENDBRANCH   4   5
ENDBRANCH   3   4
ENDBRANCH   2   3
ENDBRANCH   1   2
BRANCH   1  11
ATOM     11  C   UNL     1       8.669   6.995   6.727  1.00  0.00     0.000 C 
BRANCH  11  12
ATOM     12  C   UNL     1       8.103   6.443   8.045  1.00  0.00     0.000 C 
BRANCH  12  13
ATOM     13  C   UNL     1       8.067   4.905   8.077  1.00  0.00     0.000 C 
BRANCH  13  14
ATOM     14  C   UNL     1       6.744   4.333   7.545  1.00  0.00     0.000 C 
BRANCH  14  15
ATOM     15  C   UNL     1       5.522   5.141   8.006  1.00  0.00     0.000 C 
BRANCH  15  16
ATOM     16  C   UNL     1       4.291   4.814   7.149  1.00  0.00     0.006 C 
BRANCH  16  17
ATOM     17  C   UNL     1       3.236   4.014   7.927  1.00  0.00     0.053 C 
BRANCH  17  18
ATOM     18  C   UNL     1       2.141   4.895   8.445  1.00  0.00     0.041 C 
ATOM     19  O   UNL     1       1.511   5.650   7.658  1.00  0.00    -0.550 OA
ATOM     20  O   UNL     1       1.792   4.857   9.790  1.00  0.00    -0.550 OA
ENDBRANCH  17  18
ENDBRANCH  16  17
ENDBRANCH  15  16
ENDBRANCH  14  15
ENDBRANCH  13  14
ENDBRANCH  12  13
ENDBRANCH  11  12
ENDBRANCH   1  11
TORSDOF 15
ENDMDL
MODEL 9
REMARK VINA RESULT:    -5.319      2.632      4.108
REMARK INTER + INTRA:         -11.977
REMARK INTER:                  -9.833
REMARK INTRA:                  -2.144
REMARK UNBOUND:                -1.993
REMARK SMILES O=C([O-])CCCCCCCCCCCCCCC(=O)[O-]
REMARK SMILES IDX 10 1 9 2 8 3 7 4 6 5 5 6 4 7 2 8 1 9 3 10 11 11 12 12 13 13
REMARK SMILES IDX 14 14 15 15 16 16 17 17 18 18 19 19 20 20
REMARK H PARENT
REMARK Flexibility Score: inf
ROOT
ATOM      1  C   UNL     1       3.117   7.816   8.013  1.00  0.00     0.000 C 
ENDROOT
BRANCH   1   2
ATOM      2  C   UNL     1       2.566   7.338   6.664  1.00  0.00     0.000 C 
BRANCH   2   3
ATOM      3  C   UNL     1       1.744   6.052   6.832  1.00  0.00     0.000 C 
BRANCH   3   4
ATOM      4  C   UNL     1       2.395   5.052   7.802  1.00  0.00     0.000 C 
BRANCH   4   5
ATOM      5  C   UNL     1       1.423   4.566   8.892  1.00  0.00     0.000 C 
BRANCH   5   6
ATOM      6  C   UNL     1       1.654   5.269  10.245  1.00  0.00     0.006 C 
BRANCH   6   7
ATOM      7  C   UNL     1       0.713   6.460  10.489  1.00  0.00     0.053 C 
BRANCH   7   8
ATOM      8  C   UNL     1      -0.716   6.126  10.191  1.00  0.00     0.041 C 
ATOM      9  O   UNL     1      -1.370   5.385  10.972  1.00  0.00    -0.550 OA
ATOM     10  O   UNL     1      -1.333   6.651   9.062  1.00  0.00    -0.550 OA
ENDBRANCH   7   8
ENDBRANCH   6   7
ENDBRANCH   5   6
ENDBRANCH   4   5
ENDBRANCH   3   4
ENDBRANCH   2   3
ENDBRANCH   1   2
BRANCH   1  11
ATOM     11  C   UNL     1       4.108   8.976   7.821  1.00  0.00     0.000 C 
BRANCH  11  12
ATOM     12  C   UNL     1       4.904   8.862   6.512  1.00  0.00     0.000 C 
BRANCH  12  13
ATOM     13  C   UNL     1       6.203   8.053   6.675  1.00  0.00     0.000 C 
BRANCH  13  14
ATOM     14  C   UNL     1       6.348   6.949   5.617  1.00  0.00     0.000 C 
BRANCH  14  15
ATOM     15  C   UNL     1       5.876   5.578   6.122  1.00  0.00     0.000 C 
BRANCH  15  16
ATOM     16  C   UNL     1       6.090   5.447   7.637  1.00  0.00     0.006 C 
BRANCH  16  17
ATOM     17  C   UNL     1       7.245   4.495   7.982  1.00  0.00     0.053 C 
BRANCH  17  18
ATOM     18  C   UNL     1       8.393   5.222   8.612  1.00  0.00     0.041 C 
ATOM     19  O   UNL     1       8.898   6.225   8.040  1.00  0.00    -0.550 OA
ATOM     20  O   UNL     1       8.884   4.815   9.847  1.00  0.00    -0.550 OA
ENDBRANCH  17  18
ENDBRANCH  16  17
ENDBRANCH  15  16
ENDBRANCH  14  15
ENDBRANCH  13  14
ENDBRANCH  12  13
ENDBRANCH  11  12
ENDBRANCH   1  11
TORSDOF 15
ENDMDL
