MODEL 1
REMARK VINA RESULT:    -4.649      0.000      0.000
REMARK INTER + INTRA:          -6.648
REMARK INTER:                  -6.280
REMARK INTRA:                  -0.368
REMARK UNBOUND:                -0.368
REMARK SMILES O=C[C@@H](O)[C@@H](O)[C@H](O)CO
REMARK SMILES IDX 7 1 9 2 10 3 5 5 3 6 2 7 1 8 4 9 6 11 8 13
REMARK H PARENT 10 4 4 10 6 12 8 14
REMARK Flexibility Score: inf
ROOT
ATOM      1  C   UNL     1       6.691   5.349   1.976  1.00  0.00     0.171 C 
ENDROOT
BRANCH   1   2
ATOM      2  C   UNL     1       6.059   4.154   1.237  1.00  0.00     0.190 C 
BRANCH   2   3
ATOM      3  O   UNL     1       6.681   3.951  -0.003  1.00  0.00    -0.394 OA
ATOM      4  H   UNL     1       7.277   4.732  -0.143  1.00  0.00     0.210 HD
ENDBRANCH   2   3
ENDBRANCH   1   2
BRANCH   1   5
ATOM      5  C   UNL     1       5.648   6.337   2.581  1.00  0.00     0.181 C 
BRANCH   5   6
ATOM      6  C   UNL     1       4.271   6.326   1.860  1.00  0.00     0.209 C 
BRANCH   6   7
ATOM      7  C   UNL     1       3.107   6.043   2.781  1.00  0.00     0.258 C 
ATOM      8  O   UNL     1       2.781   4.898   3.049  1.00  0.00    -0.300 OA
ENDBRANCH   6   7
BRANCH   6   9
ATOM      9  O   UNL     1       4.063   7.523   1.151  1.00  0.00    -0.383 OA
ATOM     10  H   UNL     1       3.214   7.436   0.643  1.00  0.00     0.211 HD
ENDBRANCH   6   9
ENDBRANCH   5   6
BRANCH   5  11
ATOM     11  O   UNL     1       5.495   6.111   3.962  1.00  0.00    -0.387 OA
ATOM     12  H   UNL     1       4.650   6.544   4.252  1.00  0.00     0.211 HD
ENDBRANCH   5  11
ENDBRANCH   1   5
BRANCH   1  13
ATOM     13  O   UNL     1       7.572   6.031   1.119  1.00  0.00    -0.388 OA
ATOM     14  H   UNL     1       7.323   6.993   1.134  1.00  0.00     0.211 HD
ENDBRANCH   1  13
TORSDOF 8
ENDMDL
MODEL 2
REMARK VINA RESULT:    -4.593      1.666      2.362
REMARK INTER + INTRA:          -6.572
REMARK INTER:                  -5.920
REMARK INTRA:                  -0.652
REMARK UNBOUND:                -0.368
REMARK SMILES O=C[C@@H](O)[C@@H](O)[C@H](O)CO
REMARK SMILES IDX 7 1 9 2 10 3 5 5 3 6 2 7 1 8 4 9 6 11 8 13
REMARK H PARENT 10 4 4 10 6 12 8 14
REMARK Flexibility Score: inf
ROOT
ATOM      1  C   UNL     1       5.166   5.673   2.552  1.00  0.00     0.171 C 
ENDROOT
BRANCH   1   2
ATOM      2  C   UNL     1       6.048   4.521   2.035  1.00  0.00     0.190 C 
BRANCH   2   3
ATOM      3  O   UNL     1       5.463   3.908   0.919  1.00  0.00    -0.394 OA
ATOM      4  H   UNL     1       6.131   3.257   0.581  1.00  0.00     0.210 HD
ENDBRANCH   2   3
ENDBRANCH   1   2
BRANCH   1   5
ATOM      5  C   UNL     1       3.979   5.204   3.448  1.00  0.00     0.181 C 
BRANCH   5   6
ATOM      6  C   UNL     1       2.916   6.304   3.720  1.00  0.00     0.209 C 
BRANCH   6   7
ATOM      7  C   UNL     1       1.871   5.899   4.732  1.00  0.00     0.258 C 
ATOM      8  O   UNL     1       2.128   5.099   5.617  1.00  0.00    -0.300 OA
ENDBRANCH   6   7
BRANCH   6   9
ATOM      9  O   UNL     1       3.527   7.514   4.095  1.00  0.00    -0.383 OA
ATOM     10  H   UNL     1       2.868   8.043   4.618  1.00  0.00     0.211 HD
ENDBRANCH   6   9
ENDBRANCH   5   6
BRANCH   5  11
ATOM     11  O   UNL     1       3.382   4.048   2.911  1.00  0.00    -0.387 OA
ATOM     12  H   UNL     1       2.986   3.531   3.661  1.00  0.00     0.211 HD
ENDBRANCH   5  11
ENDBRANCH   1   5
BRANCH   1  13
ATOM     13  O   UNL     1       4.691   6.435   1.469  1.00  0.00    -0.388 OA
ATOM     14  H   UNL     1       4.101   5.849   0.925  1.00  0.00     0.211 HD
ENDBRANCH   1  13
TORSDOF 8
ENDMDL
MODEL 3
REMARK VINA RESULT:    -4.582      1.376      2.740
REMARK INTER + INTRA:          -6.557
REMARK INTER:                  -6.204
REMARK INTRA:                  -0.353
REMARK UNBOUND:                -0.368
REMARK SMILES O=C[C@@H](O)[C@@H](O)[C@H](O)CO
REMARK SMILES IDX 7 1 9 2 10 3 5 5 3 6 2 7 1 8 4 9 6 11 8 13
REMARK H PARENT 10 4 4 10 6 12 8 14
REMARK Flexibility Score: inf
ROOT
ATOM      1  C   UNL     1       6.927   5.396   2.364  1.00  0.00     0.171 C 
ENDROOT
BRANCH   1   2
ATOM      2  C   UNL     1       7.952   4.799   3.347  1.00  0.00     0.190 C 
BRANCH   2   3
ATOM      3  O   UNL     1       7.953   5.507   4.556  1.00  0.00    -0.394 OA
ATOM      4  H   UNL     1       7.385   6.307   4.407  1.00  0.00     0.210 HD
ENDBRANCH   2   3
ENDBRANCH   1   2
BRANCH   1   5
ATOM      5  C   UNL     1       5.608   4.572   2.252  1.00  0.00     0.181 C 
BRANCH   5   6
ATOM      6  C   UNL     1       4.386   5.233   2.949  1.00  0.00     0.209 C 
BRANCH   6   7
ATOM      7  C   UNL     1       4.081   6.624   2.447  1.00  0.00     0.258 C 
ATOM      8  O   UNL     1       3.942   6.847   1.255  1.00  0.00    -0.300 OA
ENDBRANCH   6   7
BRANCH   6   9
ATOM      9  O   UNL     1       3.248   4.412   2.856  1.00  0.00    -0.383 OA
ATOM     10  H   UNL     1       3.232   3.817   3.652  1.00  0.00     0.211 HD
ENDBRANCH   6   9
ENDBRANCH   5   6
BRANCH   5  11
ATOM     11  O   UNL     1       5.322   4.278   0.906  1.00  0.00    -0.387 OA
ATOM     12  H   UNL     1       4.371   4.508   0.738  1.00  0.00     0.211 HD
ENDBRANCH   5  11
ENDBRANCH   1   5
BRANCH   1  13
ATOM     13  O   UNL     1       7.515   5.555   1.097  1.00  0.00    -0.388 OA
ATOM     14  H   UNL     1       6.939   5.085   0.437  1.00  0.00     0.211 HD
ENDBRANCH   1  13
TORSDOF 8
ENDMDL
MODEL 4
REMARK VINA RESULT:    -4.568      1.447      2.527
REMARK INTER + INTRA:          -6.539
REMARK INTER:                  -6.416
REMARK INTRA:                  -0.124
REMARK UNBOUND:                -0.368
REMARK SMILES O=C[C@@H](O)[C@@H](O)[C@H](O)CO
REMARK SMILES IDX 7 1 9 2 10 3 5 5 3 6 2 7 1 8 4 9 6 11 8 13
REMARK H PARENT 10 4 4 10 6 12 8 14
REMARK Flexibility Score: inf
ROOT
ATOM      1  C   UNL     1       5.446   4.839   1.812  1.00  0.00     0.171 C 
ENDROOT
BRANCH   1   2
ATOM      2  C   UNL     1       6.937   5.003   2.162  1.00  0.00     0.190 C 
BRANCH   2   3
ATOM      3  O   UNL     1       7.626   5.637   1.120  1.00  0.00    -0.394 OA
ATOM      4  H   UNL     1       7.759   4.947   0.418  1.00  0.00     0.210 HD
ENDBRANCH   2   3
ENDBRANCH   1   2
BRANCH   1   5
ATOM      5  C   UNL     1       4.486   5.076   3.018  1.00  0.00     0.181 C 
BRANCH   5   6
ATOM      6  C   UNL     1       3.995   6.544   3.158  1.00  0.00     0.209 C 
BRANCH   6   7
ATOM      7  C   UNL     1       4.022   7.318   1.862  1.00  0.00     0.258 C 
ATOM      8  O   UNL     1       4.083   8.538   1.858  1.00  0.00    -0.300 OA
ENDBRANCH   6   7
BRANCH   6   9
ATOM      9  O   UNL     1       2.715   6.593   3.740  1.00  0.00    -0.383 OA
ATOM     10  H   UNL     1       2.706   5.975   4.517  1.00  0.00     0.211 HD
ENDBRANCH   6   9
ENDBRANCH   5   6
BRANCH   5  11
ATOM     11  O   UNL     1       3.399   4.184   2.967  1.00  0.00    -0.387 OA
ATOM     12  H   UNL     1       3.648   3.430   2.371  1.00  0.00     0.211 HD
ENDBRANCH   5  11
ENDBRANCH   1   5
BRANCH   1  13
ATOM     13  O   UNL     1       5.222   3.569   1.250  1.00  0.00    -0.388 OA
ATOM     14  H   UNL     1       5.339   3.650   0.267  1.00  0.00     0.211 HD
ENDBRANCH   1  13
TORSDOF 8
ENDMDL
MODEL 5
REMARK VINA RESULT:    -4.525      0.970      3.627
REMARK INTER + INTRA:          -6.481
REMARK INTER:                  -6.346
REMARK INTRA:                  -0.135
REMARK UNBOUND:                -0.368
REMARK SMILES O=C[C@@H](O)[C@@H](O)[C@H](O)CO
REMARK SMILES IDX 7 1 9 2 10 3 5 5 3 6 2 7 1 8 4 9 6 11 8 13
REMARK H PARENT 10 4 4 10 6 12 8 14
REMARK Flexibility Score: inf
ROOT
ATOM      1  C   UNL     1       4.195   6.455   1.944  1.00  0.00     0.171 C 
ENDROOT
BRANCH   1   2
ATOM      2  C   UNL     1       3.200   6.238   3.101  1.00  0.00     0.190 C 
BRANCH   2   3
ATOM      3  O   UNL     1       2.194   5.335   2.729  1.00  0.00    -0.394 OA
ATOM      4  H   UNL     1       1.893   5.616   1.827  1.00  0.00     0.210 HD
ENDBRANCH   2   3
ENDBRANCH   1   2
BRANCH   1   5
ATOM      5  C   UNL     1       5.662   6.697   2.414  1.00  0.00     0.181 C 
BRANCH   5   6
ATOM      6  C   UNL     1       6.646   5.554   2.037  1.00  0.00     0.209 C 
BRANCH   6   7
ATOM      7  C   UNL     1       5.962   4.315   1.511  1.00  0.00     0.258 C 
ATOM      8  O   UNL     1       6.231   3.867   0.408  1.00  0.00    -0.300 OA
ENDBRANCH   6   7
BRANCH   6   9
ATOM      9  O   UNL     1       7.620   6.007   1.130  1.00  0.00    -0.383 OA
ATOM     10  H   UNL     1       8.488   5.591   1.377  1.00  0.00     0.211 HD
ENDBRANCH   6   9
ENDBRANCH   5   6
BRANCH   5  11
ATOM     11  O   UNL     1       6.131   7.940   1.947  1.00  0.00    -0.387 OA
ATOM     12  H   UNL     1       7.060   7.813   1.620  1.00  0.00     0.211 HD
ENDBRANCH   5  11
ENDBRANCH   1   5
BRANCH   1  13
ATOM     13  O   UNL     1       3.759   7.515   1.130  1.00  0.00    -0.388 OA
ATOM     14  H   UNL     1       3.303   7.120   0.340  1.00  0.00     0.211 HD
ENDBRANCH   1  13
TORSDOF 8
ENDMDL
MODEL 6
REMARK VINA RESULT:    -4.479      1.128      2.607
REMARK INTER + INTRA:          -6.418
REMARK INTER:                  -5.470
REMARK INTRA:                  -0.948
REMARK UNBOUND:                -0.368
REMARK SMILES O=C[C@@H](O)[C@@H](O)[C@H](O)CO
REMARK SMILES IDX 7 1 9 2 10 3 5 5 3 6 2 7 1 8 4 9 6 11 8 13
REMARK H PARENT 10 4 4 10 6 12 8 14
REMARK Flexibility Score: inf
ROOT
ATOM      1  C   UNL     1       6.447   5.330   3.123  1.00  0.00     0.171 C 
ENDROOT
BRANCH   1   2
ATOM      2  C   UNL     1       7.524   5.672   2.076  1.00  0.00     0.190 C 
BRANCH   2   3
ATOM      3  O   UNL     1       7.203   6.857   1.401  1.00  0.00    -0.394 OA
ATOM      4  H   UNL     1       6.216   6.949   1.459  1.00  0.00     0.210 HD
ENDBRANCH   2   3
ENDBRANCH   1   2
BRANCH   1   5
ATOM      5  C   UNL     1       5.116   4.801   2.508  1.00  0.00     0.181 C 
BRANCH   5   6
ATOM      6  C   UNL     1       3.867   5.653   2.869  1.00  0.00     0.209 C 
BRANCH   6   7
ATOM      7  C   UNL     1       3.577   6.754   1.877  1.00  0.00     0.258 C 
ATOM      8  O   UNL     1       4.446   7.541   1.537  1.00  0.00    -0.300 OA
ENDBRANCH   6   7
BRANCH   6   9
ATOM      9  O   UNL     1       2.736   4.837   3.051  1.00  0.00    -0.383 OA
ATOM     10  H   UNL     1       2.091   5.039   2.323  1.00  0.00     0.211 HD
ENDBRANCH   6   9
ENDBRANCH   5   6
BRANCH   5  11
ATOM     11  O   UNL     1       5.240   4.656   1.113  1.00  0.00    -0.387 OA
ATOM     12  H   UNL     1       6.169   4.367   0.916  1.00  0.00     0.211 HD
ENDBRANCH   5  11
ENDBRANCH   1   5
BRANCH   1  13
ATOM     13  O   UNL     1       6.199   6.449   3.938  1.00  0.00    -0.388 OA
ATOM     14  H   UNL     1       5.983   6.116   4.849  1.00  0.00     0.211 HD
ENDBRANCH   1  13
TORSDOF 8
ENDMDL
MODEL 7
REMARK VINA RESULT:    -4.413      1.709      4.213
REMARK INTER + INTRA:          -6.329
REMARK INTER:                  -5.818
REMARK INTRA:                  -0.511
REMARK UNBOUND:                -0.368
REMARK SMILES O=C[C@@H](O)[C@@H](O)[C@H](O)CO
REMARK SMILES IDX 7 1 9 2 10 3 5 5 3 6 2 7 1 8 4 9 6 11 8 13
REMARK H PARENT 10 4 4 10 6 12 8 14
REMARK Flexibility Score: inf
ROOT
ATOM      1  C   UNL     1       3.025   6.528   4.386  1.00  0.00     0.171 C 
ENDROOT
BRANCH   1   2
ATOM      2  C   UNL     1       1.808   5.875   5.068  1.00  0.00     0.190 C 
BRANCH   2   3
ATOM      3  O   UNL     1       2.213   4.851   5.935  1.00  0.00    -0.394 OA
ATOM      4  H   UNL     1       3.150   4.636   5.688  1.00  0.00     0.210 HD
ENDBRANCH   2   3
ENDBRANCH   1   2
BRANCH   1   5
ATOM      5  C   UNL     1       3.396   5.887   3.014  1.00  0.00     0.181 C 
BRANCH   5   6
ATOM      6  C   UNL     1       4.887   6.068   2.611  1.00  0.00     0.209 C 
BRANCH   6   7
ATOM      7  C   UNL     1       5.566   4.780   2.209  1.00  0.00     0.258 C 
ATOM      8  O   UNL     1       5.342   4.262   1.127  1.00  0.00    -0.300 OA
ENDBRANCH   6   7
BRANCH   6   9
ATOM      9  O   UNL     1       5.022   7.037   1.601  1.00  0.00    -0.383 OA
ATOM     10  H   UNL     1       4.524   7.849   1.885  1.00  0.00     0.211 HD
ENDBRANCH   6   9
ENDBRANCH   5   6
BRANCH   5  11
ATOM     11  O   UNL     1       3.029   4.529   2.987  1.00  0.00    -0.387 OA
ATOM     12  H   UNL     1       2.165   4.435   3.468  1.00  0.00     0.211 HD
ENDBRANCH   5  11
ENDBRANCH   1   5
BRANCH   1  13
ATOM     13  O   UNL     1       4.131   6.502   5.253  1.00  0.00    -0.388 OA
ATOM     14  H   UNL     1       4.482   7.429   5.321  1.00  0.00     0.211 HD
ENDBRANCH   1  13
TORSDOF 8
ENDMDL
MODEL 8
REMARK VINA RESULT:    -4.403      1.451      3.893
REMARK INTER + INTRA:          -6.316
REMARK INTER:                  -5.977
REMARK INTRA:                  -0.339
REMARK UNBOUND:                -0.368
REMARK SMILES O=C[C@@H](O)[C@@H](O)[C@H](O)CO
REMARK SMILES IDX 7 1 9 2 10 3 5 5 3 6 2 7 1 8 4 9 6 11 8 13
REMARK H PARENT 10 4 4 10 6 12 8 14
REMARK Flexibility Score: inf
ROOT
ATOM      1  C   UNL     1       4.305   5.298   3.006  1.00  0.00     0.171 C 
ENDROOT
BRANCH   1   2
ATOM      2  C   UNL     1       3.524   6.625   3.043  1.00  0.00     0.190 C 
BRANCH   2   3
ATOM      3  O   UNL     1       3.327   7.123   1.748  1.00  0.00    -0.394 OA
ATOM      4  H   UNL     1       3.997   6.668   1.174  1.00  0.00     0.210 HD
ENDBRANCH   2   3
ENDBRANCH   1   2
BRANCH   1   5
ATOM      5  C   UNL     1       5.331   5.205   1.835  1.00  0.00     0.181 C 
BRANCH   5   6
ATOM      6  C   UNL     1       6.699   5.880   2.135  1.00  0.00     0.209 C 
BRANCH   6   7
ATOM      7  C   UNL     1       7.382   5.342   3.370  1.00  0.00     0.258 C 
ATOM      8  O   UNL     1       7.911   4.242   3.368  1.00  0.00    -0.300 OA
ENDBRANCH   6   7
BRANCH   6   9
ATOM      9  O   UNL     1       7.554   5.803   1.021  1.00  0.00    -0.383 OA
ATOM     10  H   UNL     1       7.798   6.729   0.756  1.00  0.00     0.211 HD
ENDBRANCH   6   9
ENDBRANCH   5   6
BRANCH   5  11
ATOM     11  O   UNL     1       5.507   3.866   1.438  1.00  0.00    -0.387 OA
ATOM     12  H   UNL     1       5.727   3.333   2.246  1.00  0.00     0.211 HD
ENDBRANCH   5  11
ENDBRANCH   1   5
BRANCH   1  13
ATOM     13  O   UNL     1       3.409   4.215   2.959  1.00  0.00    -0.388 OA
ATOM     14  H   UNL     1       3.829   3.501   2.411  1.00  0.00     0.211 HD
ENDBRANCH   1  13
TORSDOF 8
ENDMDL
MODEL 9
REMARK VINA RESULT:    -4.389      1.840      2.969
REMARK INTER + INTRA:          -6.297
REMARK INTER:                  -5.776
REMARK INTRA:                  -0.521
REMARK UNBOUND:                -0.368
REMARK SMILES O=C[C@@H](O)[C@@H](O)[C@H](O)CO
REMARK SMILES IDX 7 1 9 2 10 3 5 5 3 6 2 7 1 8 4 9 6 11 8 13
REMARK H PARENT 10 4 4 10 6 12 8 14
REMARK Flexibility Score: inf
ROOT
ATOM      1  C   UNL     1       4.470   7.255   2.333  1.00  0.00     0.171 C 
ENDROOT
BRANCH   1   2
ATOM      2  C   UNL     1       5.856   7.928   2.313  1.00  0.00     0.190 C 
BRANCH   2   3
ATOM      3  O   UNL     1       6.798   7.109   1.677  1.00  0.00    -0.394 OA
ATOM      4  H   UNL     1       7.173   6.521   2.383  1.00  0.00     0.210 HD
ENDBRANCH   2   3
ENDBRANCH   1   2
BRANCH   1   5
ATOM      5  C   UNL     1       4.510   5.746   2.722  1.00  0.00     0.181 C 
BRANCH   5   6
ATOM      6  C   UNL     1       3.217   5.235   3.418  1.00  0.00     0.209 C 
BRANCH   6   7
ATOM      7  C   UNL     1       2.926   5.919   4.732  1.00  0.00     0.258 C 
ATOM      8  O   UNL     1       2.009   6.718   4.836  1.00  0.00    -0.300 OA
ENDBRANCH   6   7
BRANCH   6   9
ATOM      9  O   UNL     1       2.111   5.327   2.554  1.00  0.00    -0.383 OA
ATOM     10  H   UNL     1       2.152   4.565   1.919  1.00  0.00     0.211 HD
ENDBRANCH   6   9
ENDBRANCH   5   6
BRANCH   5  11
ATOM     11  O   UNL     1       4.825   4.954   1.602  1.00  0.00    -0.387 OA
ATOM     12  H   UNL     1       4.767   5.529   0.794  1.00  0.00     0.211 HD
ENDBRANCH   5  11
ENDBRANCH   1   5
BRANCH   1  13
ATOM     13  O   UNL     1       3.838   7.423   1.088  1.00  0.00    -0.388 OA
ATOM     14  H   UNL     1       2.874   7.593   1.261  1.00  0.00     0.211 HD
ENDBRANCH   1  13
TORSDOF 8
ENDMDL
