MODEL 1
REMARK VINA RESULT:    -4.105      0.000      0.000
REMARK INTER + INTRA:          -5.184
REMARK INTER:                  -5.785
REMARK INTRA:                   0.601
REMARK UNBOUND:                 0.601
REMARK SMILES CC1=CCC(=C(C)C)C(=O)CC(C)=CCC1
REMARK SMILES IDX 12 1 14 2 13 3 15 4 16 5 2 6 1 7 3 8 11 10 9 11 10 12 5 13
REMARK SMILES IDX 6 14 7 15 8 16 4 17
REMARK H PARENT
REMARK Flexibility Score: 60.00
ROOT
ATOM      1  C   UNL     1      15.535  23.013  26.830  1.00  0.00    -0.070 C 
ATOM      2  C   UNL     1      14.866  22.137  27.618  1.00  0.00    -0.027 C 
ATOM      3  C   UNL     1      15.475  22.791  25.339  1.00  0.00     0.039 C 
ENDROOT
BRANCH   2   4
ATOM      4  C   UNL     1      14.875  22.105  29.127  1.00  0.00     0.032 C 
BRANCH   4   5
ATOM      5  C   UNL     1      14.152  23.316  29.750  1.00  0.00     0.034 C 
BRANCH   5   6
ATOM      6  C   UNL     1      14.956  23.950  30.868  1.00  0.00    -0.077 C 
ATOM      7  C   UNL     1      15.467  23.062  31.974  1.00  0.00     0.039 C 
ATOM      8  C   UNL     1      15.264  25.266  30.917  1.00  0.00    -0.023 CG0
ATOM      9  G   UNL     1      14.876  26.302  29.890  1.00  0.00     0.000 G0
ENDBRANCH   5   6
ENDBRANCH   4   5
ENDBRANCH   2   4
BRANCH   1  10
ATOM     10  C   UNL     1      16.386  24.151  27.367  1.00  0.00     0.111 C 
BRANCH  10  11
ATOM     11  C   UNL     1      15.567  25.399  27.590  1.00  0.00     0.163 C 
ATOM     12  O   UNL     1      14.598  25.618  26.814  1.00  0.00    -0.294 OA
BRANCH  11  13
ATOM     13  C   UNL     1      15.845  26.335  28.723  1.00  0.00    -0.002 C 
ATOM     14  C   UNL     1      16.964  27.120  28.749  1.00  0.00    -0.069 C 
ATOM     15  C   UNL     1      18.020  27.030  27.669  1.00  0.00     0.039 C 
ATOM     16  C   UNL     1      17.219  28.093  29.880  1.00  0.00     0.039 C 
BRANCH  13  17
ATOM     17  C   UNL     1      14.867  26.323  29.883  1.00  0.00     0.066 CG0
ATOM     18  G   UNL     1      15.276  25.272  30.887  1.00  0.00     0.000 G0
ENDBRANCH  13  17
ENDBRANCH  11  13
ENDBRANCH  10  11
ENDBRANCH   1  10
TORSDOF 0
ENDMDL
MODEL 2
REMARK VINA RESULT:    -4.072      4.126      5.795
REMARK INTER + INTRA:          -5.137
REMARK INTER:                  -5.573
REMARK INTRA:                   0.436
REMARK UNBOUND:                 0.601
REMARK SMILES CC1=CCC(=C(C)C)C(=O)CC(C)=CCC1
REMARK SMILES IDX 12 1 14 2 13 3 15 4 16 5 2 6 1 7 3 8 11 10 9 11 10 12 5 13
REMARK SMILES IDX 6 14 7 15 8 16 4 17
REMARK H PARENT
REMARK Flexibility Score: 60.00
ROOT
ATOM      1  C   UNL     1      20.383  25.682  28.123  1.00  0.00    -0.070 C 
ATOM      2  C   UNL     1      19.134  25.440  27.658  1.00  0.00    -0.027 C 
ATOM      3  C   UNL     1      21.523  24.936  27.475  1.00  0.00     0.039 C 
ENDROOT
BRANCH   2   4
ATOM      4  C   UNL     1      17.847  25.989  28.224  1.00  0.00     0.032 C 
BRANCH   4   5
ATOM      5  C   UNL     1      17.627  27.472  27.865  1.00  0.00     0.034 C 
BRANCH   5   6
ATOM      6  C   UNL     1      17.444  28.337  29.096  1.00  0.00    -0.077 C 
ATOM      7  C   UNL     1      16.287  28.037  30.016  1.00  0.00     0.039 C 
ATOM      8  C   UNL     1      18.274  29.351  29.432  1.00  0.00    -0.023 CG0
ATOM      9  G   UNL     1      19.500  29.779  28.661  1.00  0.00     0.000 G0
ENDBRANCH   5   6
ENDBRANCH   4   5
ENDBRANCH   2   4
BRANCH   1  10
ATOM     10  C   UNL     1      20.683  26.602  29.294  1.00  0.00     0.111 C 
BRANCH  10  11
ATOM     11  C   UNL     1      21.277  27.911  28.832  1.00  0.00     0.163 C 
ATOM     12  O   UNL     1      22.207  27.873  27.982  1.00  0.00    -0.294 OA
BRANCH  11  13
ATOM     13  C   UNL     1      20.758  29.228  29.314  1.00  0.00    -0.002 C 
ATOM     14  C   UNL     1      21.349  29.898  30.350  1.00  0.00    -0.069 C 
ATOM     15  C   UNL     1      22.514  29.308  31.113  1.00  0.00     0.039 C 
ATOM     16  C   UNL     1      20.842  31.249  30.808  1.00  0.00     0.039 C 
BRANCH  13  17
ATOM     17  C   UNL     1      19.499  29.758  28.653  1.00  0.00     0.066 CG0
ATOM     18  G   UNL     1      18.287  29.340  29.451  1.00  0.00     0.000 G0
ENDBRANCH  13  17
ENDBRANCH  11  13
ENDBRANCH  10  11
ENDBRANCH   1  10
TORSDOF 0
ENDMDL
MODEL 3
REMARK VINA RESULT:    -3.987      6.315      9.077
REMARK INTER + INTRA:          -5.018
REMARK INTER:                  -5.441
REMARK INTRA:                   0.423
REMARK UNBOUND:                 0.601
REMARK SMILES CC1=CCC(=C(C)C)C(=O)CC(C)=CCC1
REMARK SMILES IDX 12 1 14 2 13 3 15 4 16 5 2 6 1 7 3 8 11 10 9 11 10 12 5 13
REMARK SMILES IDX 6 14 7 15 8 16 4 17
REMARK H PARENT
REMARK Flexibility Score: 60.00
ROOT
ATOM      1  C   UNL     1      25.528  28.828  28.829  1.00  0.00    -0.070 C 
ATOM      2  C   UNL     1      25.599  29.876  29.684  1.00  0.00    -0.027 C 
ATOM      3  C   UNL     1      26.467  28.830  27.647  1.00  0.00     0.039 C 
ENDROOT
BRANCH   2   4
ATOM      4  C   UNL     1      24.692  30.130  30.863  1.00  0.00     0.032 C 
BRANCH   4   5
ATOM      5  C   UNL     1      23.306  30.658  30.441  1.00  0.00     0.034 C 
BRANCH   5   6
ATOM      6  C   UNL     1      22.177  29.880  31.087  1.00  0.00    -0.077 C 
ATOM      7  C   UNL     1      22.048  29.920  32.588  1.00  0.00     0.039 C 
ATOM      8  C   UNL     1      21.260  29.171  30.390  1.00  0.00    -0.023 CG0
ATOM      9  G   UNL     1      21.201  29.040  28.887  1.00  0.00     0.000 G0
ENDBRANCH   5   6
ENDBRANCH   4   5
ENDBRANCH   2   4
BRANCH   1  10
ATOM     10  C   UNL     1      24.521  27.699  28.959  1.00  0.00     0.111 C 
BRANCH  10  11
ATOM     11  C   UNL     1      23.353  27.887  28.022  1.00  0.00     0.163 C 
ATOM     12  O   UNL     1      23.599  28.124  26.808  1.00  0.00    -0.294 OA
BRANCH  11  13
ATOM     13  C   UNL     1      21.937  27.747  28.484  1.00  0.00    -0.002 C 
ATOM     14  C   UNL     1      21.299  26.537  28.491  1.00  0.00    -0.069 C 
ATOM     15  C   UNL     1      21.967  25.287  27.962  1.00  0.00     0.039 C 
ATOM     16  C   UNL     1      19.880  26.396  28.996  1.00  0.00     0.039 C 
BRANCH  13  17
ATOM     17  C   UNL     1      21.210  29.020  28.876  1.00  0.00     0.066 CG0
ATOM     18  G   UNL     1      21.249  29.190  30.376  1.00  0.00     0.000 G0
ENDBRANCH  13  17
ENDBRANCH  11  13
ENDBRANCH  10  11
ENDBRANCH   1  10
TORSDOF 0
ENDMDL
MODEL 4
REMARK VINA RESULT:    -3.952      2.822      6.296
REMARK INTER + INTRA:          -4.968
REMARK INTER:                  -5.387
REMARK INTRA:                   0.419
REMARK UNBOUND:                 0.601
REMARK SMILES CC1=CCC(=C(C)C)C(=O)CC(C)=CCC1
REMARK SMILES IDX 12 1 14 2 13 3 15 4 16 5 2 6 1 7 3 8 11 10 9 11 10 12 5 13
REMARK SMILES IDX 6 14 7 15 8 16 4 17
REMARK H PARENT
REMARK Flexibility Score: 60.00
ROOT
ATOM      1  C   UNL     1      16.818  31.114  30.046  1.00  0.00    -0.070 C 
ATOM      2  C   UNL     1      18.032  31.395  29.516  1.00  0.00    -0.027 C 
ATOM      3  C   UNL     1      15.822  32.244  30.139  1.00  0.00     0.039 C 
ENDROOT
BRANCH   2   4
ATOM      4  C   UNL     1      19.207  30.453  29.423  1.00  0.00     0.032 C 
BRANCH   4   5
ATOM      5  C   UNL     1      19.110  29.501  28.214  1.00  0.00     0.034 C 
BRANCH   5   6
ATOM      6  C   UNL     1      19.340  28.054  28.605  1.00  0.00    -0.077 C 
ATOM      7  C   UNL     1      20.699  27.662  29.126  1.00  0.00     0.039 C 
ATOM      8  C   UNL     1      18.387  27.097  28.537  1.00  0.00    -0.023 CG0
ATOM      9  G   UNL     1      16.963  27.302  28.077  1.00  0.00     0.000 G0
ENDBRANCH   5   6
ENDBRANCH   4   5
ENDBRANCH   2   4
BRANCH   1  10
ATOM     10  C   UNL     1      16.436  29.755  30.605  1.00  0.00     0.111 C 
BRANCH  10  11
ATOM     11  C   UNL     1      15.673  28.933  29.594  1.00  0.00     0.163 C 
ATOM     12  O   UNL     1      14.717  29.483  28.983  1.00  0.00    -0.294 OA
BRANCH  11  13
ATOM     13  C   UNL     1      16.056  27.524  29.270  1.00  0.00    -0.002 C 
ATOM     14  C   UNL     1      15.661  26.474  30.053  1.00  0.00    -0.069 C 
ATOM     15  C   UNL     1      14.879  26.689  31.330  1.00  0.00     0.039 C 
ATOM     16  C   UNL     1      16.019  25.047  29.698  1.00  0.00     0.039 C 
BRANCH  13  17
ATOM     17  C   UNL     1      16.965  27.313  28.074  1.00  0.00     0.066 CG0
ATOM     18  G   UNL     1      18.386  27.105  28.542  1.00  0.00     0.000 G0
ENDBRANCH  13  17
ENDBRANCH  11  13
ENDBRANCH  10  11
ENDBRANCH   1  10
TORSDOF 0
ENDMDL
MODEL 5
REMARK VINA RESULT:    -3.908      3.695      5.986
REMARK INTER + INTRA:          -4.907
REMARK INTER:                  -5.617
REMARK INTRA:                   0.711
REMARK UNBOUND:                 0.601
REMARK SMILES CC1=CCC(=C(C)C)C(=O)CC(C)=CCC1
REMARK SMILES IDX 12 1 14 2 13 3 15 4 16 5 2 6 1 7 3 8 11 10 9 11 10 12 5 13
REMARK SMILES IDX 6 14 7 15 8 16 4 17
REMARK H PARENT
REMARK Flexibility Score: 60.00
ROOT
ATOM      1  C   UNL     1      18.253  26.462  27.881  1.00  0.00    -0.070 C 
ATOM      2  C   UNL     1      19.262  25.565  27.988  1.00  0.00    -0.027 C 
ATOM      3  C   UNL     1      16.843  25.927  27.903  1.00  0.00     0.039 C 
ENDROOT
BRANCH   2   4
ATOM      4  C   UNL     1      20.738  25.864  27.883  1.00  0.00     0.032 C 
BRANCH   4   5
ATOM      5  C   UNL     1      21.324  26.426  29.194  1.00  0.00     0.034 C 
BRANCH   5   6
ATOM      6  C   UNL     1      21.798  27.858  29.041  1.00  0.00    -0.077 C 
ATOM      7  C   UNL     1      23.028  28.118  28.209  1.00  0.00     0.039 C 
ATOM      8  C   UNL     1      21.166  28.920  29.589  1.00  0.00    -0.023 CG0
ATOM      9  G   UNL     1      19.908  28.866  30.421  1.00  0.00     0.000 G0
ENDBRANCH   5   6
ENDBRANCH   4   5
ENDBRANCH   2   4
BRANCH   1  10
ATOM     10  C   UNL     1      18.466  27.952  27.674  1.00  0.00     0.111 C 
BRANCH  10  11
ATOM     11  C   UNL     1      17.903  28.757  28.819  1.00  0.00     0.163 C 
ATOM     12  O   UNL     1      16.666  28.675  29.049  1.00  0.00    -0.294 OA
BRANCH  11  13
ATOM     13  C   UNL     1      18.773  29.594  29.702  1.00  0.00    -0.002 C 
ATOM     14  C   UNL     1      18.606  30.948  29.802  1.00  0.00    -0.069 C 
ATOM     15  C   UNL     1      17.578  31.682  28.970  1.00  0.00     0.039 C 
ATOM     16  C   UNL     1      19.465  31.783  30.727  1.00  0.00     0.039 C 
BRANCH  13  17
ATOM     17  C   UNL     1      19.903  28.887  30.427  1.00  0.00     0.066 CG0
ATOM     18  G   UNL     1      21.158  28.932  29.588  1.00  0.00     0.000 G0
ENDBRANCH  13  17
ENDBRANCH  11  13
ENDBRANCH  10  11
ENDBRANCH   1  10
TORSDOF 0
ENDMDL
MODEL 6
REMARK VINA RESULT:    -3.887      4.090      6.257
REMARK INTER + INTRA:          -4.877
REMARK INTER:                  -5.347
REMARK INTRA:                   0.470
REMARK UNBOUND:                 0.601
REMARK SMILES CC1=CCC(=C(C)C)C(=O)CC(C)=CCC1
REMARK SMILES IDX 12 1 14 2 13 3 15 4 16 5 2 6 1 7 3 8 11 10 9 11 10 12 5 13
REMARK SMILES IDX 6 14 7 15 8 16 4 17
REMARK H PARENT
REMARK Flexibility Score: 60.00
ROOT
ATOM      1  C   UNL     1      20.810  25.447  27.878  1.00  0.00    -0.070 C 
ATOM      2  C   UNL     1      22.091  25.874  27.975  1.00  0.00    -0.027 C 
ATOM      3  C   UNL     1      20.493  24.442  26.798  1.00  0.00     0.039 C 
ENDROOT
BRANCH   2   4
ATOM      4  C   UNL     1      22.608  26.946  28.904  1.00  0.00     0.032 C 
BRANCH   4   5
ATOM      5  C   UNL     1      22.170  28.361  28.478  1.00  0.00     0.034 C 
BRANCH   5   6
ATOM      6  C   UNL     1      21.659  29.179  29.648  1.00  0.00    -0.077 C 
ATOM      7  C   UNL     1      22.598  29.448  30.796  1.00  0.00     0.039 C 
ATOM      8  C   UNL     1      20.414  29.704  29.710  1.00  0.00    -0.023 CG0
ATOM      9  G   UNL     1      19.349  29.575  28.648  1.00  0.00     0.000 G0
ENDBRANCH   5   6
ENDBRANCH   4   5
ENDBRANCH   2   4
BRANCH   1  10
ATOM     10  C   UNL     1      19.678  25.969  28.745  1.00  0.00     0.111 C 
BRANCH  10  11
ATOM     11  C   UNL     1      18.962  27.124  28.087  1.00  0.00     0.163 C 
ATOM     12  O   UNL     1      18.685  27.028  26.861  1.00  0.00    -0.294 OA
BRANCH  11  13
ATOM     13  C   UNL     1      18.537  28.333  28.858  1.00  0.00    -0.002 C 
ATOM     14  C   UNL     1      17.431  28.322  29.662  1.00  0.00    -0.069 C 
ATOM     15  C   UNL     1      16.534  27.107  29.757  1.00  0.00     0.039 C 
ATOM     16  C   UNL     1      17.029  29.538  30.469  1.00  0.00     0.039 C 
BRANCH  13  17
ATOM     17  C   UNL     1      19.346  29.602  28.653  1.00  0.00     0.066 CG0
ATOM     18  G   UNL     1      20.421  29.699  29.708  1.00  0.00     0.000 G0
ENDBRANCH  13  17
ENDBRANCH  11  13
ENDBRANCH  10  11
ENDBRANCH   1  10
TORSDOF 0
ENDMDL
MODEL 7
REMARK VINA RESULT:    -3.825      3.570      6.928
REMARK INTER + INTRA:          -4.790
REMARK INTER:                  -5.437
REMARK INTRA:                   0.647
REMARK UNBOUND:                 0.601
REMARK SMILES CC1=CCC(=C(C)C)C(=O)CC(C)=CCC1
REMARK SMILES IDX 12 1 14 2 13 3 15 4 16 5 2 6 1 7 3 8 11 10 9 11 10 12 5 13
REMARK SMILES IDX 6 14 7 15 8 16 4 17
REMARK H PARENT
REMARK Flexibility Score: 60.00
ROOT
ATOM      1  C   UNL     1      19.168  31.411  29.385  1.00  0.00    -0.070 C 
ATOM      2  C   UNL     1      18.247  32.393  29.535  1.00  0.00    -0.027 C 
ATOM      3  C   UNL     1      20.545  31.658  29.948  1.00  0.00     0.039 C 
ENDROOT
BRANCH   2   4
ATOM      4  C   UNL     1      16.851  32.404  28.962  1.00  0.00     0.032 C 
BRANCH   4   5
ATOM      5  C   UNL     1      15.762  32.379  30.054  1.00  0.00     0.034 C 
BRANCH   5   6
ATOM      6  C   UNL     1      16.105  31.425  31.181  1.00  0.00    -0.077 C 
ATOM      7  C   UNL     1      16.374  32.001  32.548  1.00  0.00     0.039 C 
ATOM      8  C   UNL     1      16.159  30.081  31.038  1.00  0.00    -0.023 CG0
ATOM      9  G   UNL     1      15.887  29.319  29.763  1.00  0.00     0.000 G0
ENDBRANCH   5   6
ENDBRANCH   4   5
ENDBRANCH   2   4
BRANCH   1  10
ATOM     10  C   UNL     1      18.908  30.119  28.630  1.00  0.00     0.111 C 
BRANCH  10  11
ATOM     11  C   UNL     1      18.437  29.021  29.554  1.00  0.00     0.163 C 
ATOM     12  O   UNL     1      19.213  28.650  30.476  1.00  0.00    -0.294 OA
BRANCH  11  13
ATOM     13  C   UNL     1      17.076  28.414  29.431  1.00  0.00    -0.002 C 
ATOM     14  C   UNL     1      16.898  27.132  28.988  1.00  0.00    -0.069 C 
ATOM     15  C   UNL     1      18.063  26.284  28.527  1.00  0.00     0.039 C 
ATOM     16  C   UNL     1      15.520  26.511  28.904  1.00  0.00     0.039 C 
BRANCH  13  17
ATOM     17  C   UNL     1      15.891  29.307  29.750  1.00  0.00     0.066 CG0
ATOM     18  G   UNL     1      16.152  30.067  31.028  1.00  0.00     0.000 G0
ENDBRANCH  13  17
ENDBRANCH  11  13
ENDBRANCH  10  11
ENDBRANCH   1  10
TORSDOF 0
ENDMDL
MODEL 8
REMARK VINA RESULT:    -3.814      2.993      4.573
REMARK INTER + INTRA:          -4.774
REMARK INTER:                  -5.237
REMARK INTRA:                   0.463
REMARK UNBOUND:                 0.601
REMARK SMILES CC1=CCC(=C(C)C)C(=O)CC(C)=CCC1
REMARK SMILES IDX 12 1 14 2 13 3 15 4 16 5 2 6 1 7 3 8 11 10 9 11 10 12 5 13
REMARK SMILES IDX 6 14 7 15 8 16 4 17
REMARK H PARENT
REMARK Flexibility Score: 60.00
ROOT
ATOM      1  C   UNL     1      19.887  26.924  28.338  1.00  0.00    -0.070 C 
ATOM      2  C   UNL     1      19.343  25.702  28.121  1.00  0.00    -0.027 C 
ATOM      3  C   UNL     1      21.350  26.979  28.700  1.00  0.00     0.039 C 
ENDROOT
BRANCH   2   4
ATOM      4  C   UNL     1      17.888  25.406  27.853  1.00  0.00     0.032 C 
BRANCH   4   5
ATOM      5  C   UNL     1      17.012  25.551  29.114  1.00  0.00     0.034 C 
BRANCH   5   6
ATOM      6  C   UNL     1      15.727  26.304  28.834  1.00  0.00    -0.077 C 
ATOM      7  C   UNL     1      14.767  25.731  27.823  1.00  0.00     0.039 C 
ATOM      8  C   UNL     1      15.378  27.451  29.460  1.00  0.00    -0.023 CG0
ATOM      9  G   UNL     1      16.186  28.158  30.522  1.00  0.00     0.000 G0
ENDBRANCH   5   6
ENDBRANCH   4   5
ENDBRANCH   2   4
BRANCH   1  10
ATOM     10  C   UNL     1      19.093  28.218  28.302  1.00  0.00     0.111 C 
BRANCH  10  11
ATOM     11  C   UNL     1      18.581  28.593  29.672  1.00  0.00     0.163 C 
ATOM     12  O   UNL     1      19.376  28.505  30.646  1.00  0.00    -0.294 OA
BRANCH  11  13
ATOM     13  C   UNL     1      17.193  29.108  29.884  1.00  0.00    -0.002 C 
ATOM     14  C   UNL     1      16.847  30.393  29.570  1.00  0.00    -0.069 C 
ATOM     15  C   UNL     1      17.869  31.387  29.062  1.00  0.00     0.039 C 
ATOM     16  C   UNL     1      15.431  30.896  29.751  1.00  0.00     0.039 C 
BRANCH  13  17
ATOM     17  C   UNL     1      16.198  28.163  30.532  1.00  0.00     0.066 CG0
ATOM     18  G   UNL     1      15.393  27.458  29.467  1.00  0.00     0.000 G0
ENDBRANCH  13  17
ENDBRANCH  11  13
ENDBRANCH  10  11
ENDBRANCH   1  10
TORSDOF 0
ENDMDL
MODEL 9
REMARK VINA RESULT:    -3.608      3.236      5.741
REMARK INTER + INTRA:          -4.483
REMARK INTER:                  -4.970
REMARK INTRA:                   0.487
REMARK UNBOUND:                 0.601
REMARK SMILES CC1=CCC(=C(C)C)C(=O)CC(C)=CCC1
REMARK SMILES IDX 12 1 14 2 13 3 15 4 16 5 2 6 1 7 3 8 11 10 9 11 10 12 5 13
REMARK SMILES IDX 6 14 7 15 8 16 4 17
REMARK H PARENT
REMARK Flexibility Score: 60.00
ROOT
ATOM      1  C   UNL     1      17.036  26.579  28.703  1.00  0.00    -0.070 C 
ATOM      2  C   UNL     1      18.237  26.871  28.148  1.00  0.00    -0.027 C 
ATOM      3  C   UNL     1      16.122  25.655  27.936  1.00  0.00     0.039 C 
ENDROOT
BRANCH   2   4
ATOM      4  C   UNL     1      19.256  27.846  28.685  1.00  0.00     0.032 C 
BRANCH   4   5
ATOM      5  C   UNL     1      18.990  29.293  28.224  1.00  0.00     0.034 C 
BRANCH   5   6
ATOM      6  C   UNL     1      19.217  30.299  29.336  1.00  0.00    -0.077 C 
ATOM      7  C   UNL     1      20.635  30.591  29.758  1.00  0.00     0.039 C 
ATOM      8  C   UNL     1      18.220  30.970  29.956  1.00  0.00    -0.023 CG0
ATOM      9  G   UNL     1      16.747  30.841  29.651  1.00  0.00     0.000 G0
ENDBRANCH   5   6
ENDBRANCH   4   5
ENDBRANCH   2   4
BRANCH   1  10
ATOM     10  C   UNL     1      16.542  27.178  30.009  1.00  0.00     0.111 C 
BRANCH  10  11
ATOM     11  C   UNL     1      15.786  28.464  29.778  1.00  0.00     0.163 C 
ATOM     12  O   UNL     1      14.802  28.439  28.991  1.00  0.00    -0.294 OA
BRANCH  11  13
ATOM     13  C   UNL     1      16.142  29.729  30.492  1.00  0.00    -0.002 C 
ATOM     14  C   UNL     1      15.876  29.904  31.822  1.00  0.00    -0.069 C 
ATOM     15  C   UNL     1      15.140  28.856  32.627  1.00  0.00     0.039 C 
ATOM     16  C   UNL     1      16.274  31.172  32.546  1.00  0.00     0.039 C 
BRANCH  13  17
ATOM     17  C   UNL     1      16.746  30.844  29.659  1.00  0.00     0.066 CG0
ATOM     18  G   UNL     1      18.218  30.974  29.968  1.00  0.00     0.000 G0
ENDBRANCH  13  17
ENDBRANCH  11  13
ENDBRANCH  10  11
ENDBRANCH   1  10
TORSDOF 0
ENDMDL
