MODEL 1
REMARK VINA RESULT:    -3.938      0.000      0.000
REMARK INTER + INTRA:          -3.938
REMARK INTER:                  -3.938
REMARK INTRA:                   0.000
REMARK UNBOUND:                 0.000
REMARK SMILES CC1=CC=CC(C)(C)[C@@H]1C
REMARK SMILES IDX 10 1 9 2 2 3 3 4 4 5 5 6 6 7 7 8 8 9 1 10
REMARK H PARENT
REMARK Flexibility Score: inf
ROOT
ATOM      1  C   UNL     1       6.292  21.152  24.316  1.00  0.00     0.013 C 
ATOM      2  C   UNL     1       6.685  19.664  24.257  1.00  0.00     0.021 C 
ATOM      3  C   UNL     1       7.929  19.465  25.111  1.00  0.00    -0.070 C 
ATOM      4  C   UNL     1       9.147  19.594  24.560  1.00  0.00    -0.001 C 
ATOM      5  C   UNL     1       9.301  19.805  23.108  1.00  0.00    -0.004 C 
ATOM      6  C   UNL     1       8.264  19.640  22.280  1.00  0.00    -0.020 C 
ATOM      7  C   UNL     1       6.928  19.137  22.796  1.00  0.00    -0.011 C 
ATOM      8  C   UNL     1       6.965  17.592  22.809  1.00  0.00     0.016 C 
ATOM      9  C   UNL     1       5.806  19.577  21.830  1.00  0.00     0.016 C 
ATOM     10  C   UNL     1       7.805  19.211  26.586  1.00  0.00     0.040 C 
ENDROOT
TORSDOF 0
ENDMDL
MODEL 2
REMARK VINA RESULT:    -3.938     13.349     15.236
REMARK INTER + INTRA:          -3.938
REMARK INTER:                  -3.938
REMARK INTRA:                   0.000
REMARK UNBOUND:                 0.000
REMARK SMILES CC1=CC=CC(C)(C)[C@@H]1C
REMARK SMILES IDX 10 1 9 2 2 3 3 4 4 5 5 6 6 7 7 8 8 9 1 10
REMARK H PARENT
REMARK Flexibility Score: inf
ROOT
ATOM      1  C   UNL     1      13.274  13.975  36.873  1.00  0.00     0.013 C 
ATOM      2  C   UNL     1      13.885  15.266  37.450  1.00  0.00     0.021 C 
ATOM      3  C   UNL     1      12.797  16.329  37.499  1.00  0.00    -0.070 C 
ATOM      4  C   UNL     1      12.604  17.139  36.444  1.00  0.00    -0.001 C 
ATOM      5  C   UNL     1      13.512  17.097  35.283  1.00  0.00    -0.004 C 
ATOM      6  C   UNL     1      14.671  16.432  35.346  1.00  0.00    -0.020 C 
ATOM      7  C   UNL     1      15.129  15.786  36.641  1.00  0.00    -0.011 C 
ATOM      8  C   UNL     1      15.873  16.853  37.476  1.00  0.00     0.016 C 
ATOM      9  C   UNL     1      16.126  14.650  36.323  1.00  0.00     0.016 C 
ATOM     10  C   UNL     1      11.880  16.423  38.684  1.00  0.00     0.040 C 
ENDROOT
TORSDOF 0
ENDMDL
MODEL 3
REMARK VINA RESULT:    -3.849      1.137      3.459
REMARK INTER + INTRA:          -3.849
REMARK INTER:                  -3.849
REMARK INTRA:                   0.000
REMARK UNBOUND:                 0.000
REMARK SMILES CC1=CC=CC(C)(C)[C@@H]1C
REMARK SMILES IDX 10 1 9 2 2 3 3 4 4 5 5 6 6 7 7 8 8 9 1 10
REMARK H PARENT
REMARK Flexibility Score: inf
ROOT
ATOM      1  C   UNL     1       8.421  18.744  22.049  1.00  0.00     0.013 C 
ATOM      2  C   UNL     1       7.566  18.813  23.328  1.00  0.00     0.021 C 
ATOM      3  C   UNL     1       6.176  19.304  22.949  1.00  0.00    -0.070 C 
ATOM      4  C   UNL     1       5.908  20.620  22.947  1.00  0.00    -0.001 C 
ATOM      5  C   UNL     1       6.905  21.595  23.428  1.00  0.00    -0.004 C 
ATOM      6  C   UNL     1       7.994  21.188  24.089  1.00  0.00    -0.020 C 
ATOM      7  C   UNL     1       8.187  19.726  24.448  1.00  0.00    -0.011 C 
ATOM      8  C   UNL     1       7.463  19.458  25.787  1.00  0.00     0.016 C 
ATOM      9  C   UNL     1       9.691  19.443  24.655  1.00  0.00     0.016 C 
ATOM     10  C   UNL     1       5.127  18.332  22.491  1.00  0.00     0.040 C 
ENDROOT
TORSDOF 0
ENDMDL
MODEL 4
REMARK VINA RESULT:    -3.796     14.241     15.851
REMARK INTER + INTRA:          -3.796
REMARK INTER:                  -3.796
REMARK INTRA:                   0.000
REMARK UNBOUND:                 0.000
REMARK SMILES CC1=CC=CC(C)(C)[C@@H]1C
REMARK SMILES IDX 10 1 9 2 2 3 3 4 4 5 5 6 6 7 7 8 8 9 1 10
REMARK H PARENT
REMARK Flexibility Score: inf
ROOT
ATOM      1  C   UNL     1      12.623  16.180  36.491  1.00  0.00     0.013 C 
ATOM      2  C   UNL     1      12.822  15.224  37.682  1.00  0.00     0.021 C 
ATOM      3  C   UNL     1      13.190  13.851  37.136  1.00  0.00    -0.070 C 
ATOM      4  C   UNL     1      12.223  12.963  36.852  1.00  0.00    -0.001 C 
ATOM      5  C   UNL     1      10.813  13.250  37.178  1.00  0.00    -0.004 C 
ATOM      6  C   UNL     1      10.490  14.282  37.965  1.00  0.00    -0.020 C 
ATOM      7  C   UNL     1      11.567  15.125  38.624  1.00  0.00    -0.011 C 
ATOM      8  C   UNL     1      11.973  14.442  39.949  1.00  0.00     0.016 C 
ATOM      9  C   UNL     1      10.991  16.518  38.964  1.00  0.00     0.016 C 
ATOM     10  C   UNL     1      14.620  13.513  36.831  1.00  0.00     0.040 C 
ENDROOT
TORSDOF 0
ENDMDL
MODEL 5
REMARK VINA RESULT:    -3.773      1.137      2.975
REMARK INTER + INTRA:          -3.773
REMARK INTER:                  -3.773
REMARK INTRA:                   0.000
REMARK UNBOUND:                 0.000
REMARK SMILES CC1=CC=CC(C)(C)[C@@H]1C
REMARK SMILES IDX 10 1 9 2 2 3 3 4 4 5 5 6 6 7 7 8 8 9 1 10
REMARK H PARENT
REMARK Flexibility Score: inf
ROOT
ATOM      1  C   UNL     1       8.771  21.741  23.225  1.00  0.00     0.013 C 
ATOM      2  C   UNL     1       8.818  20.492  24.125  1.00  0.00     0.021 C 
ATOM      3  C   UNL     1       9.384  19.337  23.311  1.00  0.00    -0.070 C 
ATOM      4  C   UNL     1       8.557  18.545  22.609  1.00  0.00    -0.001 C 
ATOM      5  C   UNL     1       7.093  18.698  22.712  1.00  0.00    -0.004 C 
ATOM      6  C   UNL     1       6.553  19.460  23.670  1.00  0.00    -0.020 C 
ATOM      7  C   UNL     1       7.421  20.105  24.735  1.00  0.00    -0.011 C 
ATOM      8  C   UNL     1       7.625  19.085  25.876  1.00  0.00     0.016 C 
ATOM      9  C   UNL     1       6.688  21.333  25.319  1.00  0.00     0.016 C 
ATOM     10  C   UNL     1      10.868  19.129  23.217  1.00  0.00     0.040 C 
ENDROOT
TORSDOF 0
ENDMDL
MODEL 6
REMARK VINA RESULT:    -3.755     13.400     15.268
REMARK INTER + INTRA:          -3.755
REMARK INTER:                  -3.755
REMARK INTRA:                   0.000
REMARK UNBOUND:                 0.000
REMARK SMILES CC1=CC=CC(C)(C)[C@@H]1C
REMARK SMILES IDX 10 1 9 2 2 3 3 4 4 5 5 6 6 7 7 8 8 9 1 10
REMARK H PARENT
REMARK Flexibility Score: inf
ROOT
ATOM      1  C   UNL     1      13.195  15.001  37.553  1.00  0.00     0.013 C 
ATOM      2  C   UNL     1      13.908  15.871  36.501  1.00  0.00     0.021 C 
ATOM      3  C   UNL     1      15.410  15.729  36.702  1.00  0.00    -0.070 C 
ATOM      4  C   UNL     1      16.056  16.567  37.529  1.00  0.00    -0.001 C 
ATOM      5  C   UNL     1      15.355  17.705  38.153  1.00  0.00    -0.004 C 
ATOM      6  C   UNL     1      14.137  18.067  37.736  1.00  0.00    -0.020 C 
ATOM      7  C   UNL     1      13.485  17.385  36.547  1.00  0.00    -0.011 C 
ATOM      8  C   UNL     1      13.967  18.091  35.261  1.00  0.00     0.016 C 
ATOM      9  C   UNL     1      11.952  17.552  36.636  1.00  0.00     0.016 C 
ATOM     10  C   UNL     1      16.161  14.605  36.049  1.00  0.00     0.040 C 
ENDROOT
TORSDOF 0
ENDMDL
MODEL 7
REMARK VINA RESULT:    -3.696     13.411     15.360
REMARK INTER + INTRA:          -3.696
REMARK INTER:                  -3.696
REMARK INTRA:                   0.000
REMARK UNBOUND:                 0.000
REMARK SMILES CC1=CC=CC(C)(C)[C@@H]1C
REMARK SMILES IDX 10 1 9 2 2 3 3 4 4 5 5 6 6 7 7 8 8 9 1 10
REMARK H PARENT
REMARK Flexibility Score: inf
ROOT
ATOM      1  C   UNL     1      16.064  17.438  37.916  1.00  0.00     0.013 C 
ATOM      2  C   UNL     1      15.093  16.286  37.593  1.00  0.00     0.021 C 
ATOM      3  C   UNL     1      15.569  15.604  36.318  1.00  0.00    -0.070 C 
ATOM      4  C   UNL     1      15.128  16.034  35.125  1.00  0.00    -0.001 C 
ATOM      5  C   UNL     1      14.091  17.079  35.033  1.00  0.00    -0.004 C 
ATOM      6  C   UNL     1      13.403  17.455  36.117  1.00  0.00    -0.020 C 
ATOM      7  C   UNL     1      13.598  16.750  37.447  1.00  0.00    -0.011 C 
ATOM      8  C   UNL     1      12.673  15.512  37.478  1.00  0.00     0.016 C 
ATOM      9  C   UNL     1      13.171  17.691  38.594  1.00  0.00     0.016 C 
ATOM     10  C   UNL     1      16.595  14.510  36.380  1.00  0.00     0.040 C 
ENDROOT
TORSDOF 0
ENDMDL
MODEL 8
REMARK VINA RESULT:    -3.690      1.016      3.222
REMARK INTER + INTRA:          -3.690
REMARK INTER:                  -3.690
REMARK INTRA:                   0.000
REMARK UNBOUND:                 0.000
REMARK SMILES CC1=CC=CC(C)(C)[C@@H]1C
REMARK SMILES IDX 10 1 9 2 2 3 3 4 4 5 5 6 6 7 7 8 8 9 1 10
REMARK H PARENT
REMARK Flexibility Score: inf
ROOT
ATOM      1  C   UNL     1       7.724  19.211  25.625  1.00  0.00     0.013 C 
ATOM      2  C   UNL     1       7.982  20.185  24.461  1.00  0.00     0.021 C 
ATOM      3  C   UNL     1       6.815  20.089  23.489  1.00  0.00    -0.070 C 
ATOM      4  C   UNL     1       6.855  19.202  22.481  1.00  0.00    -0.001 C 
ATOM      5  C   UNL     1       8.067  18.402  22.225  1.00  0.00    -0.004 C 
ATOM      6  C   UNL     1       9.222  18.701  22.830  1.00  0.00    -0.020 C 
ATOM      7  C   UNL     1       9.343  19.927  23.717  1.00  0.00    -0.011 C 
ATOM      8  C   UNL     1       9.676  21.141  22.821  1.00  0.00     0.016 C 
ATOM      9  C   UNL     1      10.513  19.731  24.706  1.00  0.00     0.016 C 
ATOM     10  C   UNL     1       5.581  20.918  23.699  1.00  0.00     0.040 C 
ENDROOT
TORSDOF 0
ENDMDL
MODEL 9
REMARK VINA RESULT:    -3.676     13.249     15.246
REMARK INTER + INTRA:          -3.676
REMARK INTER:                  -3.676
REMARK INTRA:                   0.000
REMARK UNBOUND:                 0.000
REMARK SMILES CC1=CC=CC(C)(C)[C@@H]1C
REMARK SMILES IDX 10 1 9 2 2 3 3 4 4 5 5 6 6 7 7 8 8 9 1 10
REMARK H PARENT
REMARK Flexibility Score: inf
ROOT
ATOM      1  C   UNL     1      12.250  15.577  39.220  1.00  0.00     0.013 C 
ATOM      2  C   UNL     1      12.118  15.641  37.687  1.00  0.00     0.021 C 
ATOM      3  C   UNL     1      12.383  14.251  37.125  1.00  0.00    -0.070 C 
ATOM      4  C   UNL     1      13.634  13.891  36.794  1.00  0.00    -0.001 C 
ATOM      5  C   UNL     1      14.741  14.865  36.849  1.00  0.00    -0.004 C 
ATOM      6  C   UNL     1      14.494  16.171  36.999  1.00  0.00    -0.020 C 
ATOM      7  C   UNL     1      13.071  16.698  37.019  1.00  0.00    -0.011 C 
ATOM      8  C   UNL     1      12.626  16.940  35.559  1.00  0.00     0.016 C 
ATOM      9  C   UNL     1      13.036  18.054  37.757  1.00  0.00     0.016 C 
ATOM     10  C   UNL     1      11.270  13.249  37.020  1.00  0.00     0.040 C 
ENDROOT
TORSDOF 0
ENDMDL
