MODEL 1
REMARK VINA RESULT:    -4.989      0.000      0.000
REMARK INTER + INTRA:          -4.989
REMARK INTER:                  -4.989
REMARK INTRA:                   0.000
REMARK UNBOUND:                 0.000
REMARK SMILES CC1=CC(=O)[C@H]2C[C@@H]1C2(C)C
REMARK SMILES IDX 1 1 2 2 3 3 4 4 5 5 6 6 7 7 8 8 9 9 10 10 11 11
REMARK H PARENT
REMARK Flexibility Score: inf
ROOT
ATOM      1  C   UNL     1      14.622 -21.192 -20.763  1.00  0.00     0.040 C 
ATOM      2  C   UNL     1      14.474 -19.889 -20.044  1.00  0.00    -0.066 C 
ATOM      3  C   UNL     1      13.329 -19.152 -20.101  1.00  0.00     0.047 C 
ATOM      4  C   UNL     1      13.330 -17.865 -19.332  1.00  0.00     0.159 C 
ATOM      5  O   UNL     1      12.348 -17.077 -19.340  1.00  0.00    -0.295 OA
ATOM      6  C   UNL     1      14.604 -17.580 -18.537  1.00  0.00     0.067 C 
ATOM      7  C   UNL     1      14.920 -18.919 -17.836  1.00  0.00     0.021 C 
ATOM      8  C   UNL     1      15.609 -19.345 -19.152  1.00  0.00     0.022 C 
ATOM      9  C   UNL     1      15.830 -17.835 -19.458  1.00  0.00    -0.019 C 
ATOM     10  C   UNL     1      15.752 -17.367 -20.940  1.00  0.00     0.012 C 
ATOM     11  C   UNL     1      17.149 -17.296 -18.848  1.00  0.00     0.012 C 
ENDROOT
TORSDOF 0
ENDMDL
MODEL 2
REMARK VINA RESULT:    -4.877      1.773      3.629
REMARK INTER + INTRA:          -4.877
REMARK INTER:                  -4.877
REMARK INTRA:                   0.000
REMARK UNBOUND:                 0.000
REMARK SMILES CC1=CC(=O)[C@H]2C[C@@H]1C2(C)C
REMARK SMILES IDX 1 1 2 2 3 3 4 4 5 5 6 6 7 7 8 8 9 9 10 10 11 11
REMARK H PARENT
REMARK Flexibility Score: inf
ROOT
ATOM      1  C   UNL     1      14.887 -17.502 -18.513  1.00  0.00     0.040 C 
ATOM      2  C   UNL     1      13.806 -17.826 -19.495  1.00  0.00    -0.066 C 
ATOM      3  C   UNL     1      12.487 -17.815 -19.153  1.00  0.00     0.047 C 
ATOM      4  C   UNL     1      11.517 -18.163 -20.241  1.00  0.00     0.159 C 
ATOM      5  O   UNL     1      10.276 -18.230 -20.041  1.00  0.00    -0.295 OA
ATOM      6  C   UNL     1      12.141 -18.430 -21.612  1.00  0.00     0.067 C 
ATOM      7  C   UNL     1      13.155 -17.280 -21.796  1.00  0.00     0.021 C 
ATOM      8  C   UNL     1      14.141 -18.134 -20.968  1.00  0.00     0.022 C 
ATOM      9  C   UNL     1      13.349 -19.393 -21.427  1.00  0.00    -0.019 C 
ATOM     10  C   UNL     1      13.205 -20.575 -20.427  1.00  0.00     0.012 C 
ATOM     11  C   UNL     1      13.865 -19.957 -22.775  1.00  0.00     0.012 C 
ENDROOT
TORSDOF 0
ENDMDL
MODEL 3
REMARK VINA RESULT:    -4.853      1.589      3.369
REMARK INTER + INTRA:          -4.853
REMARK INTER:                  -4.853
REMARK INTRA:                   0.000
REMARK UNBOUND:                 0.000
REMARK SMILES CC1=CC(=O)[C@H]2C[C@@H]1C2(C)C
REMARK SMILES IDX 1 1 2 2 3 3 4 4 5 5 6 6 7 7 8 8 9 9 10 10 11 11
REMARK H PARENT
REMARK Flexibility Score: inf
ROOT
ATOM      1  C   UNL     1      16.838 -17.177 -20.802  1.00  0.00     0.040 C 
ATOM      2  C   UNL     1      15.792 -17.716 -19.879  1.00  0.00    -0.066 C 
ATOM      3  C   UNL     1      16.056 -18.009 -18.574  1.00  0.00     0.047 C 
ATOM      4  C   UNL     1      14.909 -18.544 -17.771  1.00  0.00     0.159 C 
ATOM      5  O   UNL     1      15.035 -18.892 -16.568  1.00  0.00    -0.295 OA
ATOM      6  C   UNL     1      13.576 -18.637 -18.515  1.00  0.00     0.067 C 
ATOM      7  C   UNL     1      13.461 -17.285 -19.252  1.00  0.00     0.021 C 
ATOM      8  C   UNL     1      14.340 -17.912 -20.358  1.00  0.00     0.022 C 
ATOM      9  C   UNL     1      13.826 -19.307 -19.896  1.00  0.00    -0.019 C 
ATOM     10  C   UNL     1      14.808 -20.511 -19.967  1.00  0.00     0.012 C 
ATOM     11  C   UNL     1      12.507 -19.713 -20.602  1.00  0.00     0.012 C 
ENDROOT
TORSDOF 0
ENDMDL
MODEL 4
REMARK VINA RESULT:    -4.765      1.889      3.301
REMARK INTER + INTRA:          -4.765
REMARK INTER:                  -4.765
REMARK INTRA:                   0.000
REMARK UNBOUND:                 0.000
REMARK SMILES CC1=CC(=O)[C@H]2C[C@@H]1C2(C)C
REMARK SMILES IDX 1 1 2 2 3 3 4 4 5 5 6 6 7 7 8 8 9 9 10 10 11 11
REMARK H PARENT
REMARK Flexibility Score: inf
ROOT
ATOM      1  C   UNL     1      13.513 -17.155 -21.867  1.00  0.00     0.040 C 
ATOM      2  C   UNL     1      13.874 -18.270 -20.938  1.00  0.00    -0.066 C 
ATOM      3  C   UNL     1      14.193 -18.052 -19.631  1.00  0.00     0.047 C 
ATOM      4  C   UNL     1      14.537 -19.266 -18.821  1.00  0.00     0.159 C 
ATOM      5  O   UNL     1      14.889 -19.193 -17.615  1.00  0.00    -0.295 OA
ATOM      6  C   UNL     1      14.429 -20.599 -19.563  1.00  0.00     0.067 C 
ATOM      7  C   UNL     1      13.082 -20.505 -20.313  1.00  0.00     0.021 C 
ATOM      8  C   UNL     1      13.847 -19.736 -21.413  1.00  0.00     0.022 C 
ATOM      9  C   UNL     1      15.142 -20.458 -20.939  1.00  0.00    -0.019 C 
ATOM     10  C   UNL     1      16.484 -19.676 -20.999  1.00  0.00     0.012 C 
ATOM     11  C   UNL     1      15.345 -21.826 -21.639  1.00  0.00     0.012 C 
ENDROOT
TORSDOF 0
ENDMDL
MODEL 5
REMARK VINA RESULT:    -4.734      1.395      3.114
REMARK INTER + INTRA:          -4.734
REMARK INTER:                  -4.734
REMARK INTRA:                   0.000
REMARK UNBOUND:                 0.000
REMARK SMILES CC1=CC(=O)[C@H]2C[C@@H]1C2(C)C
REMARK SMILES IDX 1 1 2 2 3 3 4 4 5 5 6 6 7 7 8 8 9 9 10 10 11 11
REMARK H PARENT
REMARK Flexibility Score: inf
ROOT
ATOM      1  C   UNL     1      14.652 -18.939 -17.147  1.00  0.00     0.040 C 
ATOM      2  C   UNL     1      14.516 -18.819 -18.632  1.00  0.00    -0.066 C 
ATOM      3  C   UNL     1      13.703 -17.894 -19.215  1.00  0.00     0.047 C 
ATOM      4  C   UNL     1      13.666 -17.894 -20.713  1.00  0.00     0.159 C 
ATOM      5  O   UNL     1      12.924 -17.117 -21.368  1.00  0.00    -0.295 OA
ATOM      6  C   UNL     1      14.594 -18.904 -21.390  1.00  0.00     0.067 C 
ATOM      7  C   UNL     1      15.932 -18.753 -20.633  1.00  0.00     0.021 C 
ATOM      8  C   UNL     1      15.342 -19.715 -19.577  1.00  0.00     0.022 C 
ATOM      9  C   UNL     1      14.417 -20.283 -20.692  1.00  0.00    -0.019 C 
ATOM     10  C   UNL     1      12.982 -20.733 -20.298  1.00  0.00     0.012 C 
ATOM     11  C   UNL     1      15.087 -21.435 -21.484  1.00  0.00     0.012 C 
ENDROOT
TORSDOF 0
ENDMDL
MODEL 6
REMARK VINA RESULT:    -4.656      1.821      3.061
REMARK INTER + INTRA:          -4.656
REMARK INTER:                  -4.656
REMARK INTRA:                   0.000
REMARK UNBOUND:                 0.000
REMARK SMILES CC1=CC(=O)[C@H]2C[C@@H]1C2(C)C
REMARK SMILES IDX 1 1 2 2 3 3 4 4 5 5 6 6 7 7 8 8 9 9 10 10 11 11
REMARK H PARENT
REMARK Flexibility Score: inf
ROOT
ATOM      1  C   UNL     1      11.295 -17.833 -19.380  1.00  0.00     0.040 C 
ATOM      2  C   UNL     1      12.628 -18.369 -19.795  1.00  0.00    -0.066 C 
ATOM      3  C   UNL     1      12.770 -19.594 -20.374  1.00  0.00     0.047 C 
ATOM      4  C   UNL     1      14.167 -20.000 -20.733  1.00  0.00     0.159 C 
ATOM      5  O   UNL     1      14.434 -21.123 -21.235  1.00  0.00    -0.295 OA
ATOM      6  C   UNL     1      15.245 -18.953 -20.449  1.00  0.00     0.067 C 
ATOM      7  C   UNL     1      14.643 -17.636 -20.985  1.00  0.00     0.021 C 
ATOM      8  C   UNL     1      13.907 -17.524 -19.631  1.00  0.00     0.022 C 
ATOM      9  C   UNL     1      15.032 -18.401 -19.010  1.00  0.00    -0.019 C 
ATOM     10  C   UNL     1      14.647 -19.403 -17.884  1.00  0.00     0.012 C 
ATOM     11  C   UNL     1      16.236 -17.557 -18.518  1.00  0.00     0.012 C 
ENDROOT
TORSDOF 0
ENDMDL
MODEL 7
REMARK VINA RESULT:    -4.632      1.849      3.312
REMARK INTER + INTRA:          -4.632
REMARK INTER:                  -4.632
REMARK INTRA:                   0.000
REMARK UNBOUND:                 0.000
REMARK SMILES CC1=CC(=O)[C@H]2C[C@@H]1C2(C)C
REMARK SMILES IDX 1 1 2 2 3 3 4 4 5 5 6 6 7 7 8 8 9 9 10 10 11 11
REMARK H PARENT
REMARK Flexibility Score: inf
ROOT
ATOM      1  C   UNL     1      17.417 -17.126 -18.998  1.00  0.00     0.040 C 
ATOM      2  C   UNL     1      16.319 -18.096 -19.301  1.00  0.00    -0.066 C 
ATOM      3  C   UNL     1      16.504 -19.170 -20.120  1.00  0.00     0.047 C 
ATOM      4  C   UNL     1      15.312 -20.053 -20.334  1.00  0.00     0.159 C 
ATOM      5  O   UNL     1      15.343 -21.051 -21.099  1.00  0.00    -0.295 OA
ATOM      6  C   UNL     1      14.057 -19.656 -19.555  1.00  0.00     0.067 C 
ATOM      7  C   UNL     1      14.574 -19.359 -18.130  1.00  0.00     0.021 C 
ATOM      8  C   UNL     1      14.930 -17.948 -18.648  1.00  0.00     0.022 C 
ATOM      9  C   UNL     1      13.827 -18.128 -19.731  1.00  0.00    -0.019 C 
ATOM     10  C   UNL     1      14.066 -17.502 -21.135  1.00  0.00     0.012 C 
ATOM     11  C   UNL     1      12.430 -17.681 -19.231  1.00  0.00     0.012 C 
ENDROOT
TORSDOF 0
ENDMDL
MODEL 8
REMARK VINA RESULT:    -4.611      1.711      3.078
REMARK INTER + INTRA:          -4.611
REMARK INTER:                  -4.611
REMARK INTRA:                   0.000
REMARK UNBOUND:                 0.000
REMARK SMILES CC1=CC(=O)[C@H]2C[C@@H]1C2(C)C
REMARK SMILES IDX 1 1 2 2 3 3 4 4 5 5 6 6 7 7 8 8 9 9 10 10 11 11
REMARK H PARENT
REMARK Flexibility Score: inf
ROOT
ATOM      1  C   UNL     1      11.885 -17.687 -19.233  1.00  0.00     0.040 C 
ATOM      2  C   UNL     1      13.304 -18.136 -19.379  1.00  0.00    -0.066 C 
ATOM      3  C   UNL     1      14.337 -17.489 -18.769  1.00  0.00     0.047 C 
ATOM      4  C   UNL     1      15.706 -18.051 -19.010  1.00  0.00     0.159 C 
ATOM      5  O   UNL     1      16.744 -17.519 -18.537  1.00  0.00    -0.295 OA
ATOM      6  C   UNL     1      15.751 -19.316 -19.868  1.00  0.00     0.067 C 
ATOM      7  C   UNL     1      14.623 -20.202 -19.295  1.00  0.00     0.021 C 
ATOM      8  C   UNL     1      13.656 -19.398 -20.192  1.00  0.00     0.022 C 
ATOM      9  C   UNL     1      14.863 -19.093 -21.125  1.00  0.00    -0.019 C 
ATOM     10  C   UNL     1      14.916 -17.708 -21.831  1.00  0.00     0.012 C 
ATOM     11  C   UNL     1      15.073 -20.193 -22.197  1.00  0.00     0.012 C 
ENDROOT
TORSDOF 0
ENDMDL
MODEL 9
REMARK VINA RESULT:    -4.607      1.765      2.800
REMARK INTER + INTRA:          -4.607
REMARK INTER:                  -4.607
REMARK INTRA:                   0.000
REMARK UNBOUND:                 0.000
REMARK SMILES CC1=CC(=O)[C@H]2C[C@@H]1C2(C)C
REMARK SMILES IDX 1 1 2 2 3 3 4 4 5 5 6 6 7 7 8 8 9 9 10 10 11 11
REMARK H PARENT
REMARK Flexibility Score: inf
ROOT
ATOM      1  C   UNL     1      14.372 -17.181 -22.966  1.00  0.00     0.040 C 
ATOM      2  C   UNL     1      14.339 -18.105 -21.791  1.00  0.00    -0.066 C 
ATOM      3  C   UNL     1      13.533 -19.202 -21.751  1.00  0.00     0.047 C 
ATOM      4  C   UNL     1      13.606 -20.033 -20.506  1.00  0.00     0.159 C 
ATOM      5  O   UNL     1      12.881 -21.047 -20.330  1.00  0.00    -0.295 OA
ATOM      6  C   UNL     1      14.623 -19.564 -19.465  1.00  0.00     0.067 C 
ATOM      7  C   UNL     1      15.894 -19.263 -20.289  1.00  0.00     0.021 C 
ATOM      8  C   UNL     1      15.270 -17.880 -20.582  1.00  0.00     0.022 C 
ATOM      9  C   UNL     1      14.455 -18.031 -19.265  1.00  0.00    -0.019 C 
ATOM     10  C   UNL     1      13.015 -17.445 -19.221  1.00  0.00     0.012 C 
ATOM     11  C   UNL     1      15.230 -17.509 -18.028  1.00  0.00     0.012 C 
ENDROOT
TORSDOF 0
ENDMDL
