MODEL 1
REMARK VINA RESULT:    -0.784      0.000      0.000
REMARK INTER + INTRA:          -1.544
REMARK INTER:                  -1.196
REMARK INTRA:                  -0.348
REMARK UNBOUND:                -0.348
REMARK SMILES CCCCCCCCCCC(=O)[O-]
REMARK SMILES IDX 7 1 8 2 9 3 10 4 11 5 12 6 13 7 6 8 5 9 4 10 3 11 2 12 1 13
REMARK H PARENT
REMARK Flexibility Score: inf
ROOT
ATOM      1  C   UNL     1      32.823  22.587  28.724  1.00  0.00     0.000 C 
ENDROOT
BRANCH   1   2
ATOM      2  C   UNL     1      32.398  22.039  27.350  1.00  0.00     0.000 C 
BRANCH   2   3
ATOM      3  C   UNL     1      30.903  22.256  27.055  1.00  0.00     0.006 C 
BRANCH   3   4
ATOM      4  C   UNL     1      30.037  22.099  28.311  1.00  0.00     0.053 C 
BRANCH   4   5
ATOM      5  C   UNL     1      29.672  23.426  28.904  1.00  0.00     0.041 C 
ATOM      6  O   UNL     1      28.764  24.125  28.383  1.00  0.00    -0.550 OA
ATOM      7  O   UNL     1      30.362  23.907  30.010  1.00  0.00    -0.550 OA
ENDBRANCH   4   5
ENDBRANCH   3   4
ENDBRANCH   2   3
ENDBRANCH   1   2
BRANCH   1   8
ATOM      8  C   UNL     1      33.782  23.790  28.675  1.00  0.00     0.000 C 
BRANCH   8   9
ATOM      9  C   UNL     1      34.256  24.122  27.252  1.00  0.00    -0.000 C 
BRANCH   9  10
ATOM     10  C   UNL     1      35.787  24.047  27.154  1.00  0.00    -0.000 C 
BRANCH  10  11
ATOM     11  C   UNL     1      36.461  23.846  28.521  1.00  0.00    -0.000 C 
BRANCH  11  12
ATOM     12  C   UNL     1      37.124  22.468  28.656  1.00  0.00    -0.003 C 
ATOM     13  C   UNL     1      36.555  21.483  27.639  1.00  0.00     0.004 C 
ENDBRANCH  11  12
ENDBRANCH  10  11
ENDBRANCH   9  10
ENDBRANCH   8   9
ENDBRANCH   1   8
TORSDOF 9
ENDMDL
MODEL 2
REMARK VINA RESULT:     0.753      1.560      2.026
REMARK INTER + INTRA:           0.802
REMARK INTER:                   0.354
REMARK INTRA:                   0.448
REMARK UNBOUND:                -0.348
REMARK SMILES CCCCCCCCCCC(=O)[O-]
REMARK SMILES IDX 7 1 8 2 9 3 10 4 11 5 12 6 13 7 6 8 5 9 4 10 3 11 2 12 1 13
REMARK H PARENT
REMARK Flexibility Score: inf
ROOT
ATOM      1  C   UNL     1      31.981  22.631  29.256  1.00  0.00     0.000 C 
ENDROOT
BRANCH   1   2
ATOM      2  C   UNL     1      31.963  21.401  28.331  1.00  0.00     0.000 C 
BRANCH   2   3
ATOM      3  C   UNL     1      31.246  21.666  26.995  1.00  0.00     0.006 C 
BRANCH   3   4
ATOM      4  C   UNL     1      29.936  20.876  26.875  1.00  0.00     0.053 C 
BRANCH   4   5
ATOM      5  C   UNL     1      28.824  21.524  27.642  1.00  0.00     0.041 C 
ATOM      6  O   UNL     1      27.777  20.879  27.907  1.00  0.00    -0.550 OA
ATOM      7  O   UNL     1      28.930  22.855  28.029  1.00  0.00    -0.550 OA
ENDBRANCH   4   5
ENDBRANCH   3   4
ENDBRANCH   2   3
ENDBRANCH   1   2
BRANCH   1   8
ATOM      8  C   UNL     1      32.165  23.980  28.539  1.00  0.00     0.000 C 
BRANCH   8   9
ATOM      9  C   UNL     1      32.694  23.830  27.104  1.00  0.00    -0.000 C 
BRANCH   9  10
ATOM     10  C   UNL     1      34.204  24.106  27.044  1.00  0.00    -0.000 C 
BRANCH  10  11
ATOM     11  C   UNL     1      35.039  22.818  26.970  1.00  0.00    -0.000 C 
BRANCH  11  12
ATOM     12  C   UNL     1      36.296  22.876  27.850  1.00  0.00    -0.003 C 
ATOM     13  C   UNL     1      37.124  24.121  27.541  1.00  0.00     0.004 C 
ENDBRANCH  11  12
ENDBRANCH  10  11
ENDBRANCH   9  10
ENDBRANCH   8   9
ENDBRANCH   1   8
TORSDOF 9
ENDMDL
MODEL 3
REMARK VINA RESULT:     1.822     18.926     20.818
REMARK INTER + INTRA:           2.434
REMARK INTER:                   2.688
REMARK INTRA:                  -0.255
REMARK UNBOUND:                -0.348
REMARK SMILES CCCCCCCCCCC(=O)[O-]
REMARK SMILES IDX 7 1 8 2 9 3 10 4 11 5 12 6 13 7 6 8 5 9 4 10 3 11 2 12 1 13
REMARK H PARENT
REMARK Flexibility Score: inf
ROOT
ATOM      1  C   UNL     1      21.701  22.637  45.956  1.00  0.00     0.000 C 
ENDROOT
BRANCH   1   2
ATOM      2  C   UNL     1      20.662  21.795  46.717  1.00  0.00     0.000 C 
BRANCH   2   3
ATOM      3  C   UNL     1      19.418  22.604  47.125  1.00  0.00     0.006 C 
BRANCH   3   4
ATOM      4  C   UNL     1      19.262  23.884  46.294  1.00  0.00     0.053 C 
BRANCH   4   5
ATOM      5  C   UNL     1      17.924  23.950  45.622  1.00  0.00     0.041 C 
ATOM      6  O   UNL     1      16.876  24.067  46.307  1.00  0.00    -0.550 OA
ATOM      7  O   UNL     1      17.835  23.845  44.239  1.00  0.00    -0.550 OA
ENDBRANCH   4   5
ENDBRANCH   3   4
ENDBRANCH   2   3
ENDBRANCH   1   2
BRANCH   1   8
ATOM      8  C   UNL     1      23.141  22.098  46.012  1.00  0.00     0.000 C 
BRANCH   8   9
ATOM      9  C   UNL     1      24.172  23.077  45.431  1.00  0.00    -0.000 C 
BRANCH   9  10
ATOM     10  C   UNL     1      25.448  23.101  46.286  1.00  0.00    -0.000 C 
BRANCH  10  11
ATOM     11  C   UNL     1      26.625  23.790  45.575  1.00  0.00    -0.000 C 
BRANCH  11  12
ATOM     12  C   UNL     1      27.964  23.560  46.290  1.00  0.00    -0.003 C 
ATOM     13  C   UNL     1      28.916  22.743  45.421  1.00  0.00     0.004 C 
ENDBRANCH  11  12
ENDBRANCH  10  11
ENDBRANCH   9  10
ENDBRANCH   8   9
ENDBRANCH   1   8
TORSDOF 9
ENDMDL
