MODEL 1
REMARK VINA RESULT:    -3.835      0.000      0.000
REMARK INTER + INTRA:          -6.850
REMARK INTER:                  -5.853
REMARK INTRA:                  -0.997
REMARK UNBOUND:                -0.997
REMARK SMILES CCCCCCCCCCC(=O)[O-]
REMARK SMILES IDX 7 1 8 2 9 3 10 4 11 5 12 6 13 7 6 8 5 9 4 10 3 11 2 12 1 13
REMARK H PARENT
REMARK Flexibility Score: inf
ROOT
ATOM      1  C   UNL     1      10.617 -27.484 -29.917  1.00  0.00     0.000 C 
ENDROOT
BRANCH   1   2
ATOM      2  C   UNL     1      10.842 -26.651 -31.193  1.00  0.00     0.000 C 
BRANCH   2   3
ATOM      3  C   UNL     1       9.957 -25.396 -31.243  1.00  0.00     0.006 C 
BRANCH   3   4
ATOM      4  C   UNL     1      10.439 -24.346 -30.237  1.00  0.00     0.053 C 
BRANCH   4   5
ATOM      5  C   UNL     1      11.719 -23.724 -30.700  1.00  0.00     0.041 C 
ATOM      6  O   UNL     1      11.867 -23.405 -31.909  1.00  0.00    -0.550 OA
ATOM      7  O   UNL     1      12.767 -23.544 -29.806  1.00  0.00    -0.550 OA
ENDBRANCH   4   5
ENDBRANCH   3   4
ENDBRANCH   2   3
ENDBRANCH   1   2
BRANCH   1   8
ATOM      8  C   UNL     1       9.297 -28.279 -29.919  1.00  0.00     0.000 C 
BRANCH   8   9
ATOM      9  C   UNL     1       8.469 -28.104 -28.625  1.00  0.00    -0.000 C 
BRANCH   9  10
ATOM     10  C   UNL     1       8.704 -26.754 -27.921  1.00  0.00    -0.000 C 
BRANCH  10  11
ATOM     11  C   UNL     1       8.840 -26.842 -26.390  1.00  0.00    -0.000 C 
BRANCH  11  12
ATOM     12  C   UNL     1       9.863 -25.869 -25.776  1.00  0.00    -0.003 C 
ATOM     13  C   UNL     1      10.903 -25.379 -26.783  1.00  0.00     0.004 C 
ENDBRANCH  11  12
ENDBRANCH  10  11
ENDBRANCH   9  10
ENDBRANCH   8   9
ENDBRANCH   1   8
TORSDOF 9
ENDMDL
MODEL 2
REMARK VINA RESULT:    -3.809      1.565      2.994
REMARK INTER + INTRA:          -6.810
REMARK INTER:                  -6.130
REMARK INTRA:                  -0.680
REMARK UNBOUND:                -0.997
REMARK SMILES CCCCCCCCCCC(=O)[O-]
REMARK SMILES IDX 7 1 8 2 9 3 10 4 11 5 12 6 13 7 6 8 5 9 4 10 3 11 2 12 1 13
REMARK H PARENT
REMARK Flexibility Score: inf
ROOT
ATOM      1  C   UNL     1      10.662 -26.987 -30.451  1.00  0.00     0.000 C 
ENDROOT
BRANCH   1   2
ATOM      2  C   UNL     1      10.977 -26.474 -31.869  1.00  0.00     0.000 C 
BRANCH   2   3
ATOM      3  C   UNL     1      10.469 -25.044 -32.107  1.00  0.00     0.006 C 
BRANCH   3   4
ATOM      4  C   UNL     1      11.638 -24.070 -32.277  1.00  0.00     0.053 C 
BRANCH   4   5
ATOM      5  C   UNL     1      11.842 -23.272 -31.028  1.00  0.00     0.041 C 
ATOM      6  O   UNL     1      12.532 -23.738 -30.084  1.00  0.00    -0.550 OA
ATOM      7  O   UNL     1      11.227 -22.034 -30.886  1.00  0.00    -0.550 OA
ENDBRANCH   4   5
ENDBRANCH   3   4
ENDBRANCH   2   3
ENDBRANCH   1   2
BRANCH   1   8
ATOM      8  C   UNL     1       9.769 -26.036 -29.630  1.00  0.00     0.000 C 
BRANCH   8   9
ATOM      9  C   UNL     1       9.177 -26.689 -28.360  1.00  0.00    -0.000 C 
BRANCH   9  10
ATOM     10  C   UNL     1       8.322 -27.938 -28.650  1.00  0.00    -0.000 C 
BRANCH  10  11
ATOM     11  C   UNL     1       8.962 -29.270 -28.217  1.00  0.00    -0.000 C 
BRANCH  11  12
ATOM     12  C   UNL     1       8.664 -30.461 -29.147  1.00  0.00    -0.003 C 
ATOM     13  C   UNL     1       7.559 -30.167 -30.161  1.00  0.00     0.004 C 
ENDBRANCH  11  12
ENDBRANCH  10  11
ENDBRANCH   9  10
ENDBRANCH   8   9
ENDBRANCH   1   8
TORSDOF 9
ENDMDL
MODEL 3
REMARK VINA RESULT:    -3.807      1.809      3.468
REMARK INTER + INTRA:          -6.808
REMARK INTER:                  -5.924
REMARK INTRA:                  -0.884
REMARK UNBOUND:                -0.997
REMARK SMILES CCCCCCCCCCC(=O)[O-]
REMARK SMILES IDX 7 1 8 2 9 3 10 4 11 5 12 6 13 7 6 8 5 9 4 10 3 11 2 12 1 13
REMARK H PARENT
REMARK Flexibility Score: inf
ROOT
ATOM      1  C   UNL     1      11.679 -26.943 -27.782  1.00  0.00     0.000 C 
ENDROOT
BRANCH   1   2
ATOM      2  C   UNL     1      11.602 -25.405 -27.794  1.00  0.00     0.000 C 
BRANCH   2   3
ATOM      3  C   UNL     1      11.778 -24.815 -29.202  1.00  0.00     0.006 C 
BRANCH   3   4
ATOM      4  C   UNL     1      10.581 -25.160 -30.092  1.00  0.00     0.053 C 
BRANCH   4   5
ATOM      5  C   UNL     1      11.044 -25.677 -31.418  1.00  0.00     0.041 C 
ATOM      6  O   UNL     1      11.471 -24.881 -32.294  1.00  0.00    -0.550 OA
ATOM      7  O   UNL     1      10.956 -27.034 -31.703  1.00  0.00    -0.550 OA
ENDBRANCH   4   5
ENDBRANCH   3   4
ENDBRANCH   2   3
ENDBRANCH   1   2
BRANCH   1   8
ATOM      8  C   UNL     1      10.559 -27.614 -26.963  1.00  0.00     0.000 C 
BRANCH   8   9
ATOM      9  C   UNL     1       9.211 -26.861 -27.029  1.00  0.00    -0.000 C 
BRANCH   9  10
ATOM     10  C   UNL     1       8.114 -27.625 -27.795  1.00  0.00    -0.000 C 
BRANCH  10  11
ATOM     11  C   UNL     1       8.514 -28.074 -29.213  1.00  0.00    -0.000 C 
BRANCH  11  12
ATOM     12  C   UNL     1       8.566 -29.600 -29.416  1.00  0.00    -0.003 C 
ATOM     13  C   UNL     1       7.368 -30.141 -30.196  1.00  0.00     0.004 C 
ENDBRANCH  11  12
ENDBRANCH  10  11
ENDBRANCH   9  10
ENDBRANCH   8   9
ENDBRANCH   1   8
TORSDOF 9
ENDMDL
MODEL 4
REMARK VINA RESULT:    -3.805      1.528      3.101
REMARK INTER + INTRA:          -6.805
REMARK INTER:                  -6.075
REMARK INTRA:                  -0.729
REMARK UNBOUND:                -0.997
REMARK SMILES CCCCCCCCCCC(=O)[O-]
REMARK SMILES IDX 7 1 8 2 9 3 10 4 11 5 12 6 13 7 6 8 5 9 4 10 3 11 2 12 1 13
REMARK H PARENT
REMARK Flexibility Score: inf
ROOT
ATOM      1  C   UNL     1      10.926 -25.000 -29.355  1.00  0.00     0.000 C 
ENDROOT
BRANCH   1   2
ATOM      2  C   UNL     1       9.630 -24.941 -30.185  1.00  0.00     0.000 C 
BRANCH   2   3
ATOM      3  C   UNL     1       9.885 -24.583 -31.656  1.00  0.00     0.006 C 
BRANCH   3   4
ATOM      4  C   UNL     1      11.366 -24.745 -32.010  1.00  0.00     0.053 C 
BRANCH   4   5
ATOM      5  C   UNL     1      11.868 -23.537 -32.736  1.00  0.00     0.041 C 
ATOM      6  O   UNL     1      12.955 -23.000 -32.395  1.00  0.00    -0.550 OA
ATOM      7  O   UNL     1      11.110 -22.974 -33.755  1.00  0.00    -0.550 OA
ENDBRANCH   4   5
ENDBRANCH   3   4
ENDBRANCH   2   3
ENDBRANCH   1   2
BRANCH   1   8
ATOM      8  C   UNL     1      10.694 -25.280 -27.858  1.00  0.00     0.000 C 
BRANCH   8   9
ATOM      9  C   UNL     1      10.375 -26.762 -27.550  1.00  0.00    -0.000 C 
BRANCH   9  10
ATOM     10  C   UNL     1       8.904 -27.008 -27.161  1.00  0.00    -0.000 C 
BRANCH  10  11
ATOM     11  C   UNL     1       8.049 -27.664 -28.260  1.00  0.00    -0.000 C 
BRANCH  11  12
ATOM     12  C   UNL     1       8.841 -28.501 -29.281  1.00  0.00    -0.003 C 
ATOM     13  C   UNL     1       8.032 -29.662 -29.859  1.00  0.00     0.004 C 
ENDBRANCH  11  12
ENDBRANCH  10  11
ENDBRANCH   9  10
ENDBRANCH   8   9
ENDBRANCH   1   8
TORSDOF 9
ENDMDL
MODEL 5
REMARK VINA RESULT:    -3.737      2.269      4.622
REMARK INTER + INTRA:          -6.701
REMARK INTER:                  -5.917
REMARK INTRA:                  -0.783
REMARK UNBOUND:                -0.997
REMARK SMILES CCCCCCCCCCC(=O)[O-]
REMARK SMILES IDX 7 1 8 2 9 3 10 4 11 5 12 6 13 7 6 8 5 9 4 10 3 11 2 12 1 13
REMARK H PARENT
REMARK Flexibility Score: inf
ROOT
ATOM      1  C   UNL     1       9.443 -28.305 -29.857  1.00  0.00     0.000 C 
ENDROOT
BRANCH   1   2
ATOM      2  C   UNL     1       8.368 -27.869 -28.843  1.00  0.00     0.000 C 
BRANCH   2   3
ATOM      3  C   UNL     1       8.790 -26.637 -28.028  1.00  0.00     0.006 C 
BRANCH   3   4
ATOM      4  C   UNL     1       8.758 -26.938 -26.527  1.00  0.00     0.053 C 
BRANCH   4   5
ATOM      5  C   UNL     1       9.734 -26.069 -25.797  1.00  0.00     0.041 C 
ATOM      6  O   UNL     1      10.513 -25.316 -26.437  1.00  0.00    -0.550 OA
ATOM      7  O   UNL     1       9.816 -26.130 -24.411  1.00  0.00    -0.550 OA
ENDBRANCH   4   5
ENDBRANCH   3   4
ENDBRANCH   2   3
ENDBRANCH   1   2
BRANCH   1   8
ATOM      8  C   UNL     1      10.555 -27.261 -30.071  1.00  0.00     0.000 C 
BRANCH   8   9
ATOM      9  C   UNL     1      10.858 -26.978 -31.561  1.00  0.00    -0.000 C 
BRANCH   9  10
ATOM     10  C   UNL     1      10.507 -25.542 -31.998  1.00  0.00    -0.000 C 
BRANCH  10  11
ATOM     11  C   UNL     1       9.804 -24.695 -30.923  1.00  0.00    -0.000 C 
BRANCH  11  12
ATOM     12  C   UNL     1      10.689 -23.617 -30.270  1.00  0.00    -0.003 C 
ATOM     13  C   UNL     1      12.114 -23.599 -30.820  1.00  0.00     0.004 C 
ENDBRANCH  11  12
ENDBRANCH  10  11
ENDBRANCH   9  10
ENDBRANCH   8   9
ENDBRANCH   1   8
TORSDOF 9
ENDMDL
MODEL 6
REMARK VINA RESULT:    -3.697      1.850      2.816
REMARK INTER + INTRA:          -6.639
REMARK INTER:                  -5.558
REMARK INTRA:                  -1.081
REMARK UNBOUND:                -0.997
REMARK SMILES CCCCCCCCCCC(=O)[O-]
REMARK SMILES IDX 7 1 8 2 9 3 10 4 11 5 12 6 13 7 6 8 5 9 4 10 3 11 2 12 1 13
REMARK H PARENT
REMARK Flexibility Score: inf
ROOT
ATOM      1  C   UNL     1       8.699 -27.777 -28.886  1.00  0.00     0.000 C 
ENDROOT
BRANCH   1   2
ATOM      2  C   UNL     1       9.457 -26.684 -29.663  1.00  0.00     0.000 C 
BRANCH   2   3
ATOM      3  C   UNL     1      10.762 -27.199 -30.288  1.00  0.00     0.006 C 
BRANCH   3   4
ATOM      4  C   UNL     1      10.882 -26.753 -31.748  1.00  0.00     0.053 C 
BRANCH   4   5
ATOM      5  C   UNL     1      10.810 -25.262 -31.849  1.00  0.00     0.041 C 
ATOM      6  O   UNL     1       9.952 -24.718 -32.594  1.00  0.00    -0.550 OA
ATOM      7  O   UNL     1      11.723 -24.474 -31.160  1.00  0.00    -0.550 OA
ENDBRANCH   4   5
ENDBRANCH   3   4
ENDBRANCH   2   3
ENDBRANCH   1   2
BRANCH   1   8
ATOM      8  C   UNL     1       8.289 -27.356 -27.462  1.00  0.00     0.000 C 
BRANCH   8   9
ATOM      9  C   UNL     1       9.352 -26.492 -26.744  1.00  0.00    -0.000 C 
BRANCH   9  10
ATOM     10  C   UNL     1      10.453 -27.319 -26.053  1.00  0.00    -0.000 C 
BRANCH  10  11
ATOM     11  C   UNL     1      11.815 -27.304 -26.770  1.00  0.00    -0.000 C 
BRANCH  11  12
ATOM     12  C   UNL     1      12.458 -28.690 -26.964  1.00  0.00    -0.003 C 
ATOM     13  C   UNL     1      11.504 -29.711 -27.581  1.00  0.00     0.004 C 
ENDBRANCH  11  12
ENDBRANCH  10  11
ENDBRANCH   9  10
ENDBRANCH   8   9
ENDBRANCH   1   8
TORSDOF 9
ENDMDL
MODEL 7
REMARK VINA RESULT:    -3.692      3.441      5.574
REMARK INTER + INTRA:          -6.631
REMARK INTER:                  -5.823
REMARK INTRA:                  -0.809
REMARK UNBOUND:                -0.997
REMARK SMILES CCCCCCCCCCC(=O)[O-]
REMARK SMILES IDX 7 1 8 2 9 3 10 4 11 5 12 6 13 7 6 8 5 9 4 10 3 11 2 12 1 13
REMARK H PARENT
REMARK Flexibility Score: inf
ROOT
ATOM      1  C   UNL     1      10.834 -26.974 -28.301  1.00  0.00     0.000 C 
ENDROOT
BRANCH   1   2
ATOM      2  C   UNL     1       9.531 -26.687 -27.531  1.00  0.00     0.000 C 
BRANCH   2   3
ATOM      3  C   UNL     1       8.368 -27.584 -27.984  1.00  0.00     0.006 C 
BRANCH   3   4
ATOM      4  C   UNL     1       8.628 -28.152 -29.382  1.00  0.00     0.053 C 
BRANCH   4   5
ATOM      5  C   UNL     1       8.364 -29.625 -29.407  1.00  0.00     0.041 C 
ATOM      6  O   UNL     1       7.511 -30.102 -30.201  1.00  0.00    -0.550 OA
ATOM      7  O   UNL     1       9.025 -30.464 -28.519  1.00  0.00    -0.550 OA
ENDBRANCH   4   5
ENDBRANCH   3   4
ENDBRANCH   2   3
ENDBRANCH   1   2
BRANCH   1   8
ATOM      8  C   UNL     1      11.376 -25.759 -29.079  1.00  0.00     0.000 C 
BRANCH   8   9
ATOM      9  C   UNL     1      10.286 -24.723 -29.440  1.00  0.00    -0.000 C 
BRANCH   9  10
ATOM     10  C   UNL     1       9.746 -24.872 -30.876  1.00  0.00    -0.000 C 
BRANCH  10  11
ATOM     11  C   UNL     1      10.830 -25.009 -31.960  1.00  0.00    -0.000 C 
BRANCH  11  12
ATOM     12  C   UNL     1      10.988 -23.780 -32.873  1.00  0.00    -0.003 C 
ATOM     13  C   UNL     1      11.431 -22.527 -32.119  1.00  0.00     0.004 C 
ENDBRANCH  11  12
ENDBRANCH  10  11
ENDBRANCH   9  10
ENDBRANCH   8   9
ENDBRANCH   1   8
TORSDOF 9
ENDMDL
MODEL 8
REMARK VINA RESULT:    -3.664      2.225      4.524
REMARK INTER + INTRA:          -6.588
REMARK INTER:                  -5.591
REMARK INTRA:                  -0.998
REMARK UNBOUND:                -0.997
REMARK SMILES CCCCCCCCCCC(=O)[O-]
REMARK SMILES IDX 7 1 8 2 9 3 10 4 11 5 12 6 13 7 6 8 5 9 4 10 3 11 2 12 1 13
REMARK H PARENT
REMARK Flexibility Score: inf
ROOT
ATOM      1  C   UNL     1       8.775 -26.712 -28.242  1.00  0.00     0.000 C 
ENDROOT
BRANCH   1   2
ATOM      2  C   UNL     1       8.598 -27.078 -26.756  1.00  0.00     0.000 C 
BRANCH   2   3
ATOM      3  C   UNL     1       9.621 -26.376 -25.849  1.00  0.00     0.006 C 
BRANCH   3   4
ATOM      4  C   UNL     1      10.571 -25.502 -26.671  1.00  0.00     0.053 C 
BRANCH   4   5
ATOM      5  C   UNL     1      11.974 -26.014 -26.572  1.00  0.00     0.041 C 
ATOM      6  O   UNL     1      12.895 -25.262 -26.160  1.00  0.00    -0.550 OA
ATOM      7  O   UNL     1      12.271 -27.307 -26.986  1.00  0.00    -0.550 OA
ENDBRANCH   4   5
ENDBRANCH   3   4
ENDBRANCH   2   3
ENDBRANCH   1   2
BRANCH   1   8
ATOM      8  C   UNL     1       8.850 -27.934 -29.178  1.00  0.00     0.000 C 
BRANCH   8   9
ATOM      9  C   UNL     1      10.162 -28.007 -29.992  1.00  0.00    -0.000 C 
BRANCH   9  10
ATOM     10  C   UNL     1      10.834 -26.637 -30.203  1.00  0.00    -0.000 C 
BRANCH  10  11
ATOM     11  C   UNL     1      10.951 -26.197 -31.674  1.00  0.00    -0.000 C 
BRANCH  11  12
ATOM     12  C   UNL     1      10.142 -24.938 -32.037  1.00  0.00    -0.003 C 
ATOM     13  C   UNL     1       9.484 -24.279 -30.826  1.00  0.00     0.004 C 
ENDBRANCH  11  12
ENDBRANCH  10  11
ENDBRANCH   9  10
ENDBRANCH   8   9
ENDBRANCH   1   8
TORSDOF 9
ENDMDL
MODEL 9
REMARK VINA RESULT:    -3.655      1.377      2.370
REMARK INTER + INTRA:          -6.575
REMARK INTER:                  -5.683
REMARK INTRA:                  -0.891
REMARK UNBOUND:                -0.997
REMARK SMILES CCCCCCCCCCC(=O)[O-]
REMARK SMILES IDX 7 1 8 2 9 3 10 4 11 5 12 6 13 7 6 8 5 9 4 10 3 11 2 12 1 13
REMARK H PARENT
REMARK Flexibility Score: inf
ROOT
ATOM      1  C   UNL     1       9.945 -25.638 -30.565  1.00  0.00     0.000 C 
ENDROOT
BRANCH   1   2
ATOM      2  C   UNL     1      10.683 -24.854 -29.463  1.00  0.00     0.000 C 
BRANCH   2   3
ATOM      3  C   UNL     1      11.869 -24.044 -30.008  1.00  0.00     0.006 C 
BRANCH   3   4
ATOM      4  C   UNL     1      11.717 -23.794 -31.511  1.00  0.00     0.053 C 
BRANCH   4   5
ATOM      5  C   UNL     1      11.563 -22.332 -31.787  1.00  0.00     0.041 C 
ATOM      6  O   UNL     1      11.507 -21.914 -32.974  1.00  0.00    -0.550 OA
ATOM      7  O   UNL     1      11.532 -21.425 -30.735  1.00  0.00    -0.550 OA
ENDBRANCH   4   5
ENDBRANCH   3   4
ENDBRANCH   2   3
ENDBRANCH   1   2
BRANCH   1   8
ATOM      8  C   UNL     1      10.331 -27.128 -30.631  1.00  0.00     0.000 C 
BRANCH   8   9
ATOM      9  C   UNL     1      11.124 -27.616 -29.397  1.00  0.00    -0.000 C 
BRANCH   9  10
ATOM     10  C   UNL     1      10.305 -28.520 -28.456  1.00  0.00    -0.000 C 
BRANCH  10  11
ATOM     11  C   UNL     1       8.778 -28.387 -28.604  1.00  0.00    -0.000 C 
BRANCH  11  12
ATOM     12  C   UNL     1       8.122 -27.376 -27.646  1.00  0.00    -0.003 C 
ATOM     13  C   UNL     1       9.078 -26.865 -26.568  1.00  0.00     0.004 C 
ENDBRANCH  11  12
ENDBRANCH  10  11
ENDBRANCH   9  10
ENDBRANCH   8   9
ENDBRANCH   1   8
TORSDOF 9
ENDMDL
