MODEL 1
REMARK VINA RESULT:    -5.085      0.000      0.000
REMARK INTER + INTRA:          -8.355
REMARK INTER:                  -7.314
REMARK INTRA:                  -1.041
REMARK UNBOUND:                -1.041
REMARK SMILES O=c1cc(-c2ccc(O)c(O)c2)oc2cc(O[C@H]3O[C@@H](CO)[C@H](O)[C@@H](O)[C@@H]3O)cc(O)c12
REMARK SMILES IDX 17 1 16 2 4 3 3 4 13 5 2 6 14 7 1 8 32 9 15 10 30 11 29 12
REMARK SMILES IDX 5 13 6 14 7 15 8 16 12 17 10 18 9 19 11 21 31 23 18 25 27 26
REMARK SMILES IDX 19 27 25 28 20 29 23 30 28 31 26 33 21 35 22 36 24 38
REMARK H PARENT 9 20 11 22 31 24 28 32 26 34 22 37 24 39
REMARK Flexibility Score: inf
ROOT
ATOM      1  O   UNL     1     -43.365 -43.293  76.456  1.00  0.00    -0.462 OA
ENDROOT
BRANCH   1   2
ATOM      2  C   UNL     1     -43.217 -43.572  75.089  1.00  0.00     0.130 A 
ATOM      3  C   UNL     1     -44.515 -46.407  71.493  1.00  0.00     0.138 A 
ATOM      4  C   UNL     1     -43.677 -45.761  70.579  1.00  0.00     0.100 A 
ATOM      5  O   UNL     1     -44.560 -45.991  72.752  1.00  0.00    -0.456 OA
ATOM      6  C   UNL     1     -42.904 -44.677  71.000  1.00  0.00     0.197 A 
ATOM      7  C   UNL     1     -43.827 -44.982  73.213  1.00  0.00     0.146 A 
ATOM      8  O   UNL     1     -42.216 -44.069  70.140  1.00  0.00    -0.289 OA
ATOM      9  C   UNL     1     -42.941 -44.274  72.357  1.00  0.00     0.107 A 
ATOM     10  C   UNL     1     -43.948 -44.632  74.557  1.00  0.00     0.094 A 
ATOM     11  C   UNL     1     -42.182 -43.199  72.909  1.00  0.00     0.134 A 
ATOM     12  C   UNL     1     -42.358 -42.843  74.251  1.00  0.00     0.093 A 
BRANCH   3  13
ATOM     13  C   UNL     1     -45.389 -47.526  71.076  1.00  0.00     0.021 A 
ATOM     14  C   UNL     1     -44.812 -48.725  70.633  1.00  0.00     0.016 A 
ATOM     15  C   UNL     1     -45.618 -49.807  70.272  1.00  0.00     0.051 A 
ATOM     16  C   UNL     1     -47.012 -49.698  70.326  1.00  0.00     0.157 A 
ATOM     17  C   UNL     1     -46.791 -47.413  71.115  1.00  0.00     0.062 A 
ATOM     18  C   UNL     1     -47.602 -48.493  70.738  1.00  0.00     0.158 A 
BRANCH  16  19
ATOM     19  O   UNL     1     -47.791 -50.795  69.965  1.00  0.00    -0.504 OA
ATOM     20  H   UNL     1     -47.383 -51.693  69.730  1.00  0.00     0.293 HD
ENDBRANCH  16  19
BRANCH  18  21
ATOM     21  O   UNL     1     -48.991 -48.372  70.771  1.00  0.00    -0.504 OA
ATOM     22  H   UNL     1     -49.540 -48.318  69.922  1.00  0.00     0.293 HD
ENDBRANCH  18  21
ENDBRANCH   3  13
BRANCH  11  23
ATOM     23  O   UNL     1     -41.229 -42.469  72.191  1.00  0.00    -0.507 OA
ATOM     24  H   UNL     1     -40.785 -41.622  72.516  1.00  0.00     0.293 HD
ENDBRANCH  11  23
ENDBRANCH   1   2
BRANCH   1  25
ATOM     25  C   UNL     1     -42.819 -42.163  77.138  1.00  0.00     0.339 C 
ATOM     26  C   UNL     1     -42.561 -42.502  78.613  1.00  0.00     0.214 C 
ATOM     27  O   UNL     1     -43.632 -41.009  76.980  1.00  0.00    -0.332 OA
ATOM     28  C   UNL     1     -43.889 -42.696  79.365  1.00  0.00     0.180 C 
ATOM     29  C   UNL     1     -44.898 -41.091  77.632  1.00  0.00     0.179 C 
ATOM     30  C   UNL     1     -44.813 -41.490  79.133  1.00  0.00     0.177 C 
BRANCH  26  31
ATOM     31  O   UNL     1     -41.828 -41.466  79.217  1.00  0.00    -0.384 OA
ATOM     32  H   UNL     1     -42.184 -41.360  80.140  1.00  0.00     0.211 HD
ENDBRANCH  26  31
BRANCH  28  33
ATOM     33  O   UNL     1     -44.548 -43.873  78.967  1.00  0.00    -0.387 OA
ATOM     34  H   UNL     1     -45.296 -43.619  78.363  1.00  0.00     0.211 HD
ENDBRANCH  28  33
BRANCH  29  35
ATOM     35  C   UNL     1     -45.921 -41.912  76.821  1.00  0.00     0.191 C 
BRANCH  35  36
ATOM     36  O   UNL     1     -46.780 -42.610  77.682  1.00  0.00    -0.394 OA
ATOM     37  H   UNL     1     -46.253 -42.851  78.486  1.00  0.00     0.210 HD
ENDBRANCH  35  36
ENDBRANCH  29  35
BRANCH  30  38
ATOM     38  O   UNL     1     -44.332 -40.396  79.876  1.00  0.00    -0.387 OA
ATOM     39  H   UNL     1     -44.436 -40.626  80.833  1.00  0.00     0.211 HD
ENDBRANCH  30  38
ENDBRANCH   1  25
TORSDOF 11
ENDMDL
MODEL 2
REMARK VINA RESULT:    -4.981      0.795      2.111
REMARK INTER + INTRA:          -8.205
REMARK INTER:                  -7.104
REMARK INTRA:                  -1.101
REMARK UNBOUND:                -1.041
REMARK SMILES O=c1cc(-c2ccc(O)c(O)c2)oc2cc(O[C@H]3O[C@@H](CO)[C@H](O)[C@@H](O)[C@@H]3O)cc(O)c12
REMARK SMILES IDX 17 1 16 2 4 3 3 4 13 5 2 6 14 7 1 8 32 9 15 10 30 11 29 12
REMARK SMILES IDX 5 13 6 14 7 15 8 16 12 17 10 18 9 19 11 21 31 23 18 25 27 26
REMARK SMILES IDX 19 27 25 28 20 29 23 30 28 31 26 33 21 35 22 36 24 38
REMARK H PARENT 9 20 11 22 31 24 28 32 26 34 22 37 24 39
REMARK Flexibility Score: inf
ROOT
ATOM      1  O   UNL     1     -43.080 -42.825  76.010  1.00  0.00    -0.462 OA
ENDROOT
BRANCH   1   2
ATOM      2  C   UNL     1     -42.965 -43.215  74.668  1.00  0.00     0.130 A 
ATOM      3  C   UNL     1     -44.364 -46.318  71.341  1.00  0.00     0.138 A 
ATOM      4  C   UNL     1     -43.542 -45.755  70.360  1.00  0.00     0.100 A 
ATOM      5  O   UNL     1     -44.378 -45.802  72.563  1.00  0.00    -0.456 OA
ATOM      6  C   UNL     1     -42.752 -44.648  70.675  1.00  0.00     0.197 A 
ATOM      7  C   UNL     1     -43.627 -44.765  72.925  1.00  0.00     0.146 A 
ATOM      8  O   UNL     1     -42.078 -44.117  69.754  1.00  0.00    -0.289 OA
ATOM      9  C   UNL     1     -42.755 -44.137  71.995  1.00  0.00     0.107 A 
ATOM     10  C   UNL     1     -43.716 -44.307  74.239  1.00  0.00     0.094 A 
ATOM     11  C   UNL     1     -41.976 -43.028  72.442  1.00  0.00     0.134 A 
ATOM     12  C   UNL     1     -42.120 -42.564  73.755  1.00  0.00     0.093 A 
BRANCH   3  13
ATOM     13  C   UNL     1     -45.256 -47.459  71.035  1.00  0.00     0.021 A 
ATOM     14  C   UNL     1     -44.698 -48.690  70.660  1.00  0.00     0.016 A 
ATOM     15  C   UNL     1     -45.520 -49.790  70.404  1.00  0.00     0.051 A 
ATOM     16  C   UNL     1     -46.910 -49.670  70.497  1.00  0.00     0.157 A 
ATOM     17  C   UNL     1     -46.655 -47.336  71.112  1.00  0.00     0.062 A 
ATOM     18  C   UNL     1     -47.482 -48.435  70.841  1.00  0.00     0.158 A 
BRANCH  16  19
ATOM     19  O   UNL     1     -47.705 -50.785  70.242  1.00  0.00    -0.504 OA
ATOM     20  H   UNL     1     -48.619 -50.708  69.807  1.00  0.00     0.293 HD
ENDBRANCH  16  19
BRANCH  18  21
ATOM     21  O   UNL     1     -48.869 -48.303  70.911  1.00  0.00    -0.504 OA
ATOM     22  H   UNL     1     -49.363 -47.599  70.380  1.00  0.00     0.293 HD
ENDBRANCH  18  21
ENDBRANCH   3  13
BRANCH  11  23
ATOM     23  O   UNL     1     -41.034 -42.367  71.648  1.00  0.00    -0.507 OA
ATOM     24  H   UNL     1     -41.240 -41.897  70.779  1.00  0.00     0.293 HD
ENDBRANCH  11  23
ENDBRANCH   1   2
BRANCH   1  25
ATOM     25  C   UNL     1     -44.228 -43.025  76.837  1.00  0.00     0.339 C 
ATOM     26  C   UNL     1     -45.317 -41.997  76.497  1.00  0.00     0.214 C 
ATOM     27  O   UNL     1     -43.890 -43.019  78.217  1.00  0.00    -0.332 OA
ATOM     28  C   UNL     1     -44.881 -40.584  76.920  1.00  0.00     0.180 C 
ATOM     29  C   UNL     1     -43.459 -41.753  78.710  1.00  0.00     0.179 C 
ATOM     30  C   UNL     1     -44.433 -40.583  78.389  1.00  0.00     0.177 C 
BRANCH  26  31
ATOM     31  O   UNL     1     -46.511 -42.335  77.155  1.00  0.00    -0.384 OA
ATOM     32  H   UNL     1     -47.052 -41.502  77.221  1.00  0.00     0.211 HD
ENDBRANCH  26  31
BRANCH  28  33
ATOM     33  O   UNL     1     -43.839 -40.094  76.112  1.00  0.00    -0.387 OA
ATOM     34  H   UNL     1     -44.225 -39.431  75.480  1.00  0.00     0.211 HD
ENDBRANCH  28  33
BRANCH  29  35
ATOM     35  C   UNL     1     -41.986 -41.459  78.358  1.00  0.00     0.191 C 
BRANCH  35  36
ATOM     36  O   UNL     1     -41.766 -40.075  78.294  1.00  0.00    -0.394 OA
ATOM     37  H   UNL     1     -42.161 -39.680  79.113  1.00  0.00     0.210 HD
ENDBRANCH  35  36
ENDBRANCH  29  35
BRANCH  30  38
ATOM     38  O   UNL     1     -45.568 -40.686  79.214  1.00  0.00    -0.387 OA
ATOM     39  H   UNL     1     -45.618 -41.625  79.523  1.00  0.00     0.211 HD
ENDBRANCH  30  38
ENDBRANCH   1  25
TORSDOF 11
ENDMDL
MODEL 3
REMARK VINA RESULT:    -4.954      5.241     11.984
REMARK INTER + INTRA:          -8.167
REMARK INTER:                  -7.118
REMARK INTRA:                  -1.049
REMARK UNBOUND:                -1.041
REMARK SMILES O=c1cc(-c2ccc(O)c(O)c2)oc2cc(O[C@H]3O[C@@H](CO)[C@H](O)[C@@H](O)[C@@H]3O)cc(O)c12
REMARK SMILES IDX 17 1 16 2 4 3 3 4 13 5 2 6 14 7 1 8 32 9 15 10 30 11 29 12
REMARK SMILES IDX 5 13 6 14 7 15 8 16 12 17 10 18 9 19 11 21 31 23 18 25 27 26
REMARK SMILES IDX 19 27 25 28 20 29 23 30 28 31 26 33 21 35 22 36 24 38
REMARK H PARENT 9 20 11 22 31 24 28 32 26 34 22 37 24 39
REMARK Flexibility Score: inf
ROOT
ATOM      1  O   UNL     1     -50.509 -47.135  65.967  1.00  0.00    -0.462 OA
ENDROOT
BRANCH   1   2
ATOM      2  C   UNL     1     -50.055 -47.848  67.087  1.00  0.00     0.130 A 
ATOM      3  C   UNL     1     -46.475 -48.471  70.161  1.00  0.00     0.138 A 
ATOM      4  C   UNL     1     -47.130 -49.507  70.834  1.00  0.00     0.100 A 
ATOM      5  O   UNL     1     -47.066 -47.877  69.133  1.00  0.00    -0.456 OA
ATOM      6  C   UNL     1     -48.406 -49.897  70.422  1.00  0.00     0.197 A 
ATOM      7  C   UNL     1     -48.268 -48.225  68.683  1.00  0.00     0.146 A 
ATOM      8  O   UNL     1     -49.002 -50.780  71.091  1.00  0.00    -0.289 OA
ATOM      9  C   UNL     1     -49.002 -49.273  69.299  1.00  0.00     0.107 A 
ATOM     10  C   UNL     1     -48.793 -47.536  67.590  1.00  0.00     0.094 A 
ATOM     11  C   UNL     1     -50.288 -49.600  68.772  1.00  0.00     0.134 A 
ATOM     12  C   UNL     1     -50.806 -48.861  67.702  1.00  0.00     0.093 A 
BRANCH   3  13
ATOM     13  C   UNL     1     -45.145 -47.992  70.598  1.00  0.00     0.021 A 
ATOM     14  C   UNL     1     -44.025 -48.822  70.437  1.00  0.00     0.016 A 
ATOM     15  C   UNL     1     -42.755 -48.375  70.807  1.00  0.00     0.051 A 
ATOM     16  C   UNL     1     -42.588 -47.102  71.363  1.00  0.00     0.157 A 
ATOM     17  C   UNL     1     -44.977 -46.719  71.172  1.00  0.00     0.062 A 
ATOM     18  C   UNL     1     -43.705 -46.274  71.557  1.00  0.00     0.158 A 
BRANCH  16  19
ATOM     19  O   UNL     1     -41.308 -46.680  71.717  1.00  0.00    -0.504 OA
ATOM     20  H   UNL     1     -40.973 -46.718  72.674  1.00  0.00     0.293 HD
ENDBRANCH  16  19
BRANCH  18  21
ATOM     21  O   UNL     1     -43.547 -45.014  72.134  1.00  0.00    -0.504 OA
ATOM     22  H   UNL     1     -42.941 -44.867  72.930  1.00  0.00     0.293 HD
ENDBRANCH  18  21
ENDBRANCH   3  13
BRANCH  11  23
ATOM     23  O   UNL     1     -51.080 -50.651  69.245  1.00  0.00    -0.507 OA
ATOM     24  H   UNL     1     -51.190 -51.542  68.784  1.00  0.00     0.293 HD
ENDBRANCH  11  23
ENDBRANCH   1   2
BRANCH   1  25
ATOM     25  C   UNL     1     -49.867 -47.094  64.692  1.00  0.00     0.339 C 
ATOM     26  C   UNL     1     -50.094 -45.730  64.023  1.00  0.00     0.214 C 
ATOM     27  O   UNL     1     -50.269 -48.177  63.865  1.00  0.00    -0.332 OA
ATOM     28  C   UNL     1     -51.570 -45.560  63.625  1.00  0.00     0.180 C 
ATOM     29  C   UNL     1     -51.631 -48.121  63.447  1.00  0.00     0.179 C 
ATOM     30  C   UNL     1     -52.041 -46.768  62.799  1.00  0.00     0.177 C 
BRANCH  26  31
ATOM     31  O   UNL     1     -49.285 -45.621  62.880  1.00  0.00    -0.384 OA
ATOM     32  H   UNL     1     -48.682 -46.412  62.874  1.00  0.00     0.211 HD
ENDBRANCH  26  31
BRANCH  28  33
ATOM     33  O   UNL     1     -52.402 -45.409  64.749  1.00  0.00    -0.387 OA
ATOM     34  H   UNL     1     -53.289 -45.800  64.531  1.00  0.00     0.211 HD
ENDBRANCH  28  33
BRANCH  29  35
ATOM     35  C   UNL     1     -52.598 -48.612  64.544  1.00  0.00     0.191 C 
BRANCH  35  36
ATOM     36  O   UNL     1     -53.856 -48.010  64.390  1.00  0.00    -0.394 OA
ATOM     37  H   UNL     1     -53.699 -47.086  64.067  1.00  0.00     0.210 HD
ENDBRANCH  35  36
ENDBRANCH  29  35
BRANCH  30  38
ATOM     38  O   UNL     1     -51.485 -46.685  61.510  1.00  0.00    -0.387 OA
ATOM     39  H   UNL     1     -51.127 -45.768  61.406  1.00  0.00     0.211 HD
ENDBRANCH  30  38
ENDBRANCH   1  25
TORSDOF 11
ENDMDL
MODEL 4
REMARK VINA RESULT:    -4.906      6.164      7.949
REMARK INTER + INTRA:          -8.098
REMARK INTER:                  -7.014
REMARK INTRA:                  -1.083
REMARK UNBOUND:                -1.041
REMARK SMILES O=c1cc(-c2ccc(O)c(O)c2)oc2cc(O[C@H]3O[C@@H](CO)[C@H](O)[C@@H](O)[C@@H]3O)cc(O)c12
REMARK SMILES IDX 17 1 16 2 4 3 3 4 13 5 2 6 14 7 1 8 32 9 15 10 30 11 29 12
REMARK SMILES IDX 5 13 6 14 7 15 8 16 12 17 10 18 9 19 11 21 31 23 18 25 27 26
REMARK SMILES IDX 19 27 25 28 20 29 23 30 28 31 26 33 21 35 22 36 24 38
REMARK H PARENT 9 20 11 22 31 24 28 32 26 34 22 37 24 39
REMARK Flexibility Score: inf
ROOT
ATOM      1  O   UNL     1     -44.504 -40.846  75.084  1.00  0.00    -0.462 OA
ENDROOT
BRANCH   1   2
ATOM      2  C   UNL     1     -44.829 -39.701  74.342  1.00  0.00     0.130 A 
ATOM      3  C   UNL     1     -48.244 -37.410  71.946  1.00  0.00     0.138 A 
ATOM      4  C   UNL     1     -47.393 -36.362  71.581  1.00  0.00     0.100 A 
ATOM      5  O   UNL     1     -47.779 -38.408  72.686  1.00  0.00    -0.456 OA
ATOM      6  C   UNL     1     -46.064 -36.373  72.009  1.00  0.00     0.197 A 
ATOM      7  C   UNL     1     -46.517 -38.482  73.099  1.00  0.00     0.146 A 
ATOM      8  O   UNL     1     -45.341 -35.383  71.728  1.00  0.00    -0.289 OA
ATOM      9  C   UNL     1     -45.580 -37.467  72.767  1.00  0.00     0.107 A 
ATOM     10  C   UNL     1     -46.134 -39.581  73.868  1.00  0.00     0.094 A 
ATOM     11  C   UNL     1     -44.240 -37.602  73.241  1.00  0.00     0.134 A 
ATOM     12  C   UNL     1     -43.897 -38.694  74.048  1.00  0.00     0.093 A 
BRANCH   3  13
ATOM     13  C   UNL     1     -49.672 -37.410  71.557  1.00  0.00     0.021 A 
ATOM     14  C   UNL     1     -50.652 -37.650  72.532  1.00  0.00     0.016 A 
ATOM     15  C   UNL     1     -52.007 -37.616  72.194  1.00  0.00     0.051 A 
ATOM     16  C   UNL     1     -52.401 -37.366  70.875  1.00  0.00     0.157 A 
ATOM     17  C   UNL     1     -50.069 -37.175  70.229  1.00  0.00     0.062 A 
ATOM     18  C   UNL     1     -51.428 -37.156  69.885  1.00  0.00     0.158 A 
BRANCH  16  19
ATOM     19  O   UNL     1     -53.759 -37.333  70.568  1.00  0.00    -0.504 OA
ATOM     20  H   UNL     1     -54.471 -37.611  71.236  1.00  0.00     0.293 HD
ENDBRANCH  16  19
BRANCH  18  21
ATOM     21  O   UNL     1     -51.815 -36.930  68.564  1.00  0.00    -0.504 OA
ATOM     22  H   UNL     1     -51.361 -37.399  67.791  1.00  0.00     0.293 HD
ENDBRANCH  18  21
ENDBRANCH   3  13
BRANCH  11  23
ATOM     23  O   UNL     1     -43.210 -36.710  72.929  1.00  0.00    -0.507 OA
ATOM     24  H   UNL     1     -43.309 -35.898  72.336  1.00  0.00     0.293 HD
ENDBRANCH  11  23
ENDBRANCH   1   2
BRANCH   1  25
ATOM     25  C   UNL     1     -43.430 -40.952  76.021  1.00  0.00     0.339 C 
ATOM     26  C   UNL     1     -42.744 -42.320  75.894  1.00  0.00     0.214 C 
ATOM     27  O   UNL     1     -43.859 -40.681  77.347  1.00  0.00    -0.332 OA
ATOM     28  C   UNL     1     -43.679 -43.442  76.378  1.00  0.00     0.180 C 
ATOM     29  C   UNL     1     -44.744 -41.660  77.888  1.00  0.00     0.179 C 
ATOM     30  C   UNL     1     -44.217 -43.119  77.780  1.00  0.00     0.177 C 
BRANCH  26  31
ATOM     31  O   UNL     1     -41.565 -42.333  76.658  1.00  0.00    -0.384 OA
ATOM     32  H   UNL     1     -41.805 -42.683  77.557  1.00  0.00     0.211 HD
ENDBRANCH  26  31
BRANCH  28  33
ATOM     33  O   UNL     1     -44.757 -43.641  75.496  1.00  0.00    -0.387 OA
ATOM     34  H   UNL     1     -44.460 -44.266  74.783  1.00  0.00     0.211 HD
ENDBRANCH  28  33
BRANCH  29  35
ATOM     35  C   UNL     1     -46.193 -41.476  77.392  1.00  0.00     0.191 C 
BRANCH  35  36
ATOM     36  O   UNL     1     -46.886 -42.694  77.448  1.00  0.00    -0.394 OA
ATOM     37  H   UNL     1     -47.850 -42.485  77.348  1.00  0.00     0.210 HD
ENDBRANCH  35  36
ENDBRANCH  29  35
BRANCH  30  38
ATOM     38  O   UNL     1     -43.188 -43.311  78.720  1.00  0.00    -0.387 OA
ATOM     39  H   UNL     1     -43.620 -43.450  79.600  1.00  0.00     0.211 HD
ENDBRANCH  30  38
ENDBRANCH   1  25
TORSDOF 11
ENDMDL
MODEL 5
REMARK VINA RESULT:    -4.871      4.267      5.709
REMARK INTER + INTRA:          -8.048
REMARK INTER:                  -6.914
REMARK INTRA:                  -1.134
REMARK UNBOUND:                -1.041
REMARK SMILES O=c1cc(-c2ccc(O)c(O)c2)oc2cc(O[C@H]3O[C@@H](CO)[C@H](O)[C@@H](O)[C@@H]3O)cc(O)c12
REMARK SMILES IDX 17 1 16 2 4 3 3 4 13 5 2 6 14 7 1 8 32 9 15 10 30 11 29 12
REMARK SMILES IDX 5 13 6 14 7 15 8 16 12 17 10 18 9 19 11 21 31 23 18 25 27 26
REMARK SMILES IDX 19 27 25 28 20 29 23 30 28 31 26 33 21 35 22 36 24 38
REMARK H PARENT 9 20 11 22 31 24 28 32 26 34 22 37 24 39
REMARK Flexibility Score: inf
ROOT
ATOM      1  O   UNL     1     -44.679 -38.864  72.271  1.00  0.00    -0.462 OA
ENDROOT
BRANCH   1   2
ATOM      2  C   UNL     1     -43.763 -39.413  71.362  1.00  0.00     0.130 A 
ATOM      3  C   UNL     1     -42.334 -43.364  69.124  1.00  0.00     0.138 A 
ATOM      4  C   UNL     1     -41.274 -42.711  68.485  1.00  0.00     0.100 A 
ATOM      5  O   UNL     1     -43.133 -42.682  69.934  1.00  0.00    -0.456 OA
ATOM      6  C   UNL     1     -41.077 -41.346  68.699  1.00  0.00     0.197 A 
ATOM      7  C   UNL     1     -42.975 -41.387  70.194  1.00  0.00     0.146 A 
ATOM      8  O   UNL     1     -40.162 -40.770  68.055  1.00  0.00    -0.289 OA
ATOM      9  C   UNL     1     -41.920 -40.647  69.597  1.00  0.00     0.107 A 
ATOM     10  C   UNL     1     -43.871 -40.770  71.067  1.00  0.00     0.094 A 
ATOM     11  C   UNL     1     -41.803 -39.260  69.913  1.00  0.00     0.134 A 
ATOM     12  C   UNL     1     -42.744 -38.660  70.758  1.00  0.00     0.093 A 
BRANCH   3  13
ATOM     13  C   UNL     1     -42.611 -44.797  68.884  1.00  0.00     0.021 A 
ATOM     14  C   UNL     1     -42.363 -45.345  67.617  1.00  0.00     0.016 A 
ATOM     15  C   UNL     1     -42.580 -46.705  67.380  1.00  0.00     0.051 A 
ATOM     16  C   UNL     1     -43.069 -47.530  68.398  1.00  0.00     0.157 A 
ATOM     17  C   UNL     1     -43.117 -45.625  69.902  1.00  0.00     0.062 A 
ATOM     18  C   UNL     1     -43.350 -46.987  69.661  1.00  0.00     0.158 A 
BRANCH  16  19
ATOM     19  O   UNL     1     -43.271 -48.883  68.134  1.00  0.00    -0.504 OA
ATOM     20  H   UNL     1     -42.655 -49.602  68.499  1.00  0.00     0.293 HD
ENDBRANCH  16  19
BRANCH  18  21
ATOM     21  O   UNL     1     -43.861 -47.801  70.672  1.00  0.00    -0.504 OA
ATOM     22  H   UNL     1     -43.899 -47.491  71.635  1.00  0.00     0.293 HD
ENDBRANCH  18  21
ENDBRANCH   3  13
BRANCH  11  23
ATOM     23  O   UNL     1     -40.772 -38.439  69.446  1.00  0.00    -0.507 OA
ATOM     24  H   UNL     1     -39.842 -38.400  69.837  1.00  0.00     0.293 HD
ENDBRANCH  11  23
ENDBRANCH   1   2
BRANCH   1  25
ATOM     25  C   UNL     1     -46.080 -39.141  72.308  1.00  0.00     0.339 C 
ATOM     26  C   UNL     1     -46.884 -37.834  72.266  1.00  0.00     0.214 C 
ATOM     27  O   UNL     1     -46.426 -39.955  73.420  1.00  0.00    -0.332 OA
ATOM     28  C   UNL     1     -46.698 -37.039  73.570  1.00  0.00     0.180 C 
ATOM     29  C   UNL     1     -46.277 -39.314  74.685  1.00  0.00     0.179 C 
ATOM     30  C   UNL     1     -46.989 -37.935  74.784  1.00  0.00     0.177 C 
BRANCH  26  31
ATOM     31  O   UNL     1     -48.248 -38.121  72.083  1.00  0.00    -0.384 OA
ATOM     32  H   UNL     1     -48.698 -37.261  71.866  1.00  0.00     0.211 HD
ENDBRANCH  26  31
BRANCH  28  33
ATOM     33  O   UNL     1     -45.400 -36.510  73.679  1.00  0.00    -0.387 OA
ATOM     34  H   UNL     1     -45.324 -36.061  74.562  1.00  0.00     0.211 HD
ENDBRANCH  28  33
BRANCH  29  35
ATOM     35  C   UNL     1     -44.811 -39.300  75.163  1.00  0.00     0.191 C 
BRANCH  35  36
ATOM     36  O   UNL     1     -44.168 -40.495  74.803  1.00  0.00    -0.394 OA
ATOM     37  H   UNL     1     -44.803 -41.009  74.241  1.00  0.00     0.210 HD
ENDBRANCH  35  36
ENDBRANCH  29  35
BRANCH  30  38
ATOM     38  O   UNL     1     -48.378 -38.137  74.882  1.00  0.00    -0.387 OA
ATOM     39  H   UNL     1     -48.804 -37.244  74.853  1.00  0.00     0.211 HD
ENDBRANCH  30  38
ENDBRANCH   1  25
TORSDOF 11
ENDMDL
MODEL 6
REMARK VINA RESULT:    -4.814      6.452      8.427
REMARK INTER + INTRA:          -7.966
REMARK INTER:                  -6.890
REMARK INTRA:                  -1.076
REMARK UNBOUND:                -1.041
REMARK SMILES O=c1cc(-c2ccc(O)c(O)c2)oc2cc(O[C@H]3O[C@@H](CO)[C@H](O)[C@@H](O)[C@@H]3O)cc(O)c12
REMARK SMILES IDX 17 1 16 2 4 3 3 4 13 5 2 6 14 7 1 8 32 9 15 10 30 11 29 12
REMARK SMILES IDX 5 13 6 14 7 15 8 16 12 17 10 18 9 19 11 21 31 23 18 25 27 26
REMARK SMILES IDX 19 27 25 28 20 29 23 30 28 31 26 33 21 35 22 36 24 38
REMARK H PARENT 9 20 11 22 31 24 28 32 26 34 22 37 24 39
REMARK Flexibility Score: inf
ROOT
ATOM      1  O   UNL     1     -45.261 -39.741  75.993  1.00  0.00    -0.462 OA
ENDROOT
BRANCH   1   2
ATOM      2  C   UNL     1     -45.509 -38.786  74.997  1.00  0.00     0.130 A 
ATOM      3  C   UNL     1     -48.678 -37.102  71.869  1.00  0.00     0.138 A 
ATOM      4  C   UNL     1     -47.789 -36.147  71.365  1.00  0.00     0.100 A 
ATOM      5  O   UNL     1     -48.288 -37.913  72.844  1.00  0.00    -0.456 OA
ATOM      6  C   UNL     1     -46.504 -36.050  71.904  1.00  0.00     0.197 A 
ATOM      7  C   UNL     1     -47.070 -37.882  73.375  1.00  0.00     0.146 A 
ATOM      8  O   UNL     1     -45.751 -35.133  71.483  1.00  0.00    -0.289 OA
ATOM      9  C   UNL     1     -46.099 -36.950  72.919  1.00  0.00     0.107 A 
ATOM     10  C   UNL     1     -46.765 -38.785  74.393  1.00  0.00     0.094 A 
ATOM     11  C   UNL     1     -44.809 -36.964  73.529  1.00  0.00     0.134 A 
ATOM     12  C   UNL     1     -44.548 -37.853  74.578  1.00  0.00     0.093 A 
BRANCH   3  13
ATOM     13  C   UNL     1     -50.064 -37.203  71.363  1.00  0.00     0.021 A 
ATOM     14  C   UNL     1     -51.111 -37.449  72.263  1.00  0.00     0.016 A 
ATOM     15  C   UNL     1     -52.432 -37.509  71.812  1.00  0.00     0.051 A 
ATOM     16  C   UNL     1     -52.722 -37.348  70.453  1.00  0.00     0.157 A 
ATOM     17  C   UNL     1     -50.357 -37.056  69.995  1.00  0.00     0.062 A 
ATOM     18  C   UNL     1     -51.680 -37.131  69.538  1.00  0.00     0.158 A 
BRANCH  16  19
ATOM     19  O   UNL     1     -54.049 -37.407  70.032  1.00  0.00    -0.504 OA
ATOM     20  H   UNL     1     -54.719 -38.046  70.448  1.00  0.00     0.293 HD
ENDBRANCH  16  19
BRANCH  18  21
ATOM     21  O   UNL     1     -51.962 -36.994  68.179  1.00  0.00    -0.504 OA
ATOM     22  H   UNL     1     -52.344 -37.758  67.636  1.00  0.00     0.293 HD
ENDBRANCH  18  21
ENDBRANCH   3  13
BRANCH  11  23
ATOM     23  O   UNL     1     -43.748 -36.146  73.127  1.00  0.00    -0.507 OA
ATOM     24  H   UNL     1     -42.844 -36.112  73.574  1.00  0.00     0.293 HD
ENDBRANCH  11  23
ENDBRANCH   1   2
BRANCH   1  25
ATOM     25  C   UNL     1     -45.746 -41.085  75.996  1.00  0.00     0.339 C 
ATOM     26  C   UNL     1     -46.100 -41.522  77.424  1.00  0.00     0.214 C 
ATOM     27  O   UNL     1     -44.834 -41.975  75.367  1.00  0.00    -0.332 OA
ATOM     28  C   UNL     1     -44.831 -41.657  78.281  1.00  0.00     0.180 C 
ATOM     29  C   UNL     1     -43.613 -42.161  76.078  1.00  0.00     0.179 C 
ATOM     30  C   UNL     1     -43.802 -42.551  77.572  1.00  0.00     0.177 C 
BRANCH  26  31
ATOM     31  O   UNL     1     -46.775 -42.754  77.390  1.00  0.00    -0.384 OA
ATOM     32  H   UNL     1     -47.432 -42.746  78.137  1.00  0.00     0.211 HD
ENDBRANCH  26  31
BRANCH  28  33
ATOM     33  O   UNL     1     -44.251 -40.406  78.559  1.00  0.00    -0.387 OA
ATOM     34  H   UNL     1     -43.907 -40.426  79.491  1.00  0.00     0.211 HD
ENDBRANCH  28  33
BRANCH  29  35
ATOM     35  C   UNL     1     -42.622 -41.001  75.851  1.00  0.00     0.191 C 
BRANCH  35  36
ATOM     36  O   UNL     1     -42.567 -40.664  74.491  1.00  0.00    -0.394 OA
ATOM     37  H   UNL     1     -41.619 -40.468  74.277  1.00  0.00     0.210 HD
ENDBRANCH  35  36
ENDBRANCH  29  35
BRANCH  30  38
ATOM     38  O   UNL     1     -44.227 -43.890  77.650  1.00  0.00    -0.387 OA
ATOM     39  H   UNL     1     -44.748 -44.078  76.830  1.00  0.00     0.211 HD
ENDBRANCH  30  38
ENDBRANCH   1  25
TORSDOF 11
ENDMDL
MODEL 7
REMARK VINA RESULT:    -4.721      1.198      1.543
REMARK INTER + INTRA:          -7.832
REMARK INTER:                  -6.694
REMARK INTRA:                  -1.139
REMARK UNBOUND:                -1.041
REMARK SMILES O=c1cc(-c2ccc(O)c(O)c2)oc2cc(O[C@H]3O[C@@H](CO)[C@H](O)[C@@H](O)[C@@H]3O)cc(O)c12
REMARK SMILES IDX 17 1 16 2 4 3 3 4 13 5 2 6 14 7 1 8 32 9 15 10 30 11 29 12
REMARK SMILES IDX 5 13 6 14 7 15 8 16 12 17 10 18 9 19 11 21 31 23 18 25 27 26
REMARK SMILES IDX 19 27 25 28 20 29 23 30 28 31 26 33 21 35 22 36 24 38
REMARK H PARENT 9 20 11 22 31 24 28 32 26 34 22 37 24 39
REMARK Flexibility Score: inf
ROOT
ATOM      1  O   UNL     1     -42.951 -42.960  75.651  1.00  0.00    -0.462 OA
ENDROOT
BRANCH   1   2
ATOM      2  C   UNL     1     -42.849 -43.438  74.336  1.00  0.00     0.130 A 
ATOM      3  C   UNL     1     -44.447 -46.618  71.175  1.00  0.00     0.138 A 
ATOM      4  C   UNL     1     -43.570 -46.181  70.177  1.00  0.00     0.100 A 
ATOM      5  O   UNL     1     -44.435 -46.029  72.364  1.00  0.00    -0.456 OA
ATOM      6  C   UNL     1     -42.700 -45.122  70.439  1.00  0.00     0.197 A 
ATOM      7  C   UNL     1     -43.610 -45.035  72.676  1.00  0.00     0.146 A 
ATOM      8  O   UNL     1     -41.975 -44.702  69.501  1.00  0.00    -0.289 OA
ATOM      9  C   UNL     1     -42.679 -44.534  71.727  1.00  0.00     0.107 A 
ATOM     10  C   UNL     1     -43.679 -44.492  73.959  1.00  0.00     0.094 A 
ATOM     11  C   UNL     1     -41.821 -43.463  72.121  1.00  0.00     0.134 A 
ATOM     12  C   UNL     1     -41.944 -42.911  73.401  1.00  0.00     0.093 A 
BRANCH   3  13
ATOM     13  C   UNL     1     -45.422 -47.702  70.922  1.00  0.00     0.021 A 
ATOM     14  C   UNL     1     -44.960 -48.970  70.540  1.00  0.00     0.016 A 
ATOM     15  C   UNL     1     -45.860 -50.018  70.334  1.00  0.00     0.051 A 
ATOM     16  C   UNL     1     -47.235 -49.807  70.482  1.00  0.00     0.157 A 
ATOM     17  C   UNL     1     -46.805 -47.488  71.055  1.00  0.00     0.062 A 
ATOM     18  C   UNL     1     -47.712 -48.535  70.834  1.00  0.00     0.158 A 
BRANCH  16  19
ATOM     19  O   UNL     1     -48.110 -50.872  70.276  1.00  0.00    -0.504 OA
ATOM     20  H   UNL     1     -47.790 -51.834  70.241  1.00  0.00     0.293 HD
ENDBRANCH  16  19
BRANCH  18  21
ATOM     21  O   UNL     1     -49.083 -48.313  70.959  1.00  0.00    -0.504 OA
ATOM     22  H   UNL     1     -49.469 -47.803  71.743  1.00  0.00     0.293 HD
ENDBRANCH  18  21
ENDBRANCH   3  13
BRANCH  11  23
ATOM     23  O   UNL     1     -40.820 -42.927  71.305  1.00  0.00    -0.507 OA
ATOM     24  H   UNL     1     -40.620 -41.942  71.207  1.00  0.00     0.293 HD
ENDBRANCH  11  23
ENDBRANCH   1   2
BRANCH   1  25
ATOM     25  C   UNL     1     -41.853 -42.691  76.525  1.00  0.00     0.339 C 
ATOM     26  C   UNL     1     -41.323 -43.996  77.134  1.00  0.00     0.214 C 
ATOM     27  O   UNL     1     -42.191 -41.729  77.514  1.00  0.00    -0.332 OA
ATOM     28  C   UNL     1     -42.348 -44.595  78.112  1.00  0.00     0.180 C 
ATOM     29  C   UNL     1     -43.149 -42.181  78.468  1.00  0.00     0.179 C 
ATOM     30  C   UNL     1     -42.785 -43.537  79.137  1.00  0.00     0.177 C 
BRANCH  26  31
ATOM     31  O   UNL     1     -40.118 -43.749  77.813  1.00  0.00    -0.384 OA
ATOM     32  H   UNL     1     -40.105 -44.347  78.608  1.00  0.00     0.211 HD
ENDBRANCH  26  31
BRANCH  28  33
ATOM     33  O   UNL     1     -43.480 -45.094  77.442  1.00  0.00    -0.387 OA
ATOM     34  H   UNL     1     -43.350 -44.950  76.468  1.00  0.00     0.211 HD
ENDBRANCH  28  33
BRANCH  29  35
ATOM     35  C   UNL     1     -44.591 -42.115  77.925  1.00  0.00     0.191 C 
BRANCH  35  36
ATOM     36  O   UNL     1     -45.413 -43.021  78.611  1.00  0.00    -0.394 OA
ATOM     37  H   UNL     1     -44.837 -43.771  78.908  1.00  0.00     0.210 HD
ENDBRANCH  35  36
ENDBRANCH  29  35
BRANCH  30  38
ATOM     38  O   UNL     1     -41.741 -43.334  80.058  1.00  0.00    -0.387 OA
ATOM     39  H   UNL     1     -42.141 -42.923  80.864  1.00  0.00     0.211 HD
ENDBRANCH  30  38
ENDBRANCH   1  25
TORSDOF 11
ENDMDL
MODEL 8
REMARK VINA RESULT:    -4.717      5.327     12.070
REMARK INTER + INTRA:          -7.826
REMARK INTER:                  -6.738
REMARK INTRA:                  -1.088
REMARK UNBOUND:                -1.041
REMARK SMILES O=c1cc(-c2ccc(O)c(O)c2)oc2cc(O[C@H]3O[C@@H](CO)[C@H](O)[C@@H](O)[C@@H]3O)cc(O)c12
REMARK SMILES IDX 17 1 16 2 4 3 3 4 13 5 2 6 14 7 1 8 32 9 15 10 30 11 29 12
REMARK SMILES IDX 5 13 6 14 7 15 8 16 12 17 10 18 9 19 11 21 31 23 18 25 27 26
REMARK SMILES IDX 19 27 25 28 20 29 23 30 28 31 26 33 21 35 22 36 24 38
REMARK H PARENT 9 20 11 22 31 24 28 32 26 34 22 37 24 39
REMARK Flexibility Score: inf
ROOT
ATOM      1  O   UNL     1     -50.354 -47.934  65.432  1.00  0.00    -0.462 OA
ENDROOT
BRANCH   1   2
ATOM      2  C   UNL     1     -49.961 -48.478  66.664  1.00  0.00     0.130 A 
ATOM      3  C   UNL     1     -46.602 -48.552  70.036  1.00  0.00     0.138 A 
ATOM      4  C   UNL     1     -47.272 -49.521  70.791  1.00  0.00     0.100 A 
ATOM      5  O   UNL     1     -47.135 -48.119  68.901  1.00  0.00    -0.456 OA
ATOM      6  C   UNL     1     -48.500 -50.013  70.345  1.00  0.00     0.197 A 
ATOM      7  C   UNL     1     -48.287 -48.573  68.416  1.00  0.00     0.146 A 
ATOM      8  O   UNL     1     -49.115 -50.829  71.080  1.00  0.00    -0.289 OA
ATOM      9  C   UNL     1     -49.031 -49.564  69.112  1.00  0.00     0.107 A 
ATOM     10  C   UNL     1     -48.752 -48.051  67.209  1.00  0.00     0.094 A 
ATOM     11  C   UNL     1     -50.262 -50.009  68.543  1.00  0.00     0.134 A 
ATOM     12  C   UNL     1     -50.723 -49.435  67.352  1.00  0.00     0.093 A 
BRANCH   3  13
ATOM     13  C   UNL     1     -45.325 -47.965  70.498  1.00  0.00     0.021 A 
ATOM     14  C   UNL     1     -45.329 -46.713  71.130  1.00  0.00     0.016 A 
ATOM     15  C   UNL     1     -44.140 -46.159  71.609  1.00  0.00     0.051 A 
ATOM     16  C   UNL     1     -42.928 -46.837  71.443  1.00  0.00     0.157 A 
ATOM     17  C   UNL     1     -44.103 -48.638  70.319  1.00  0.00     0.062 A 
ATOM     18  C   UNL     1     -42.906 -48.077  70.785  1.00  0.00     0.158 A 
BRANCH  16  19
ATOM     19  O   UNL     1     -41.758 -46.263  71.936  1.00  0.00    -0.504 OA
ATOM     20  H   UNL     1     -41.425 -45.358  71.619  1.00  0.00     0.293 HD
ENDBRANCH  16  19
BRANCH  18  21
ATOM     21  O   UNL     1     -41.697 -48.745  70.595  1.00  0.00    -0.504 OA
ATOM     22  H   UNL     1     -41.036 -48.871  71.351  1.00  0.00     0.293 HD
ENDBRANCH  18  21
ENDBRANCH   3  13
BRANCH  11  23
ATOM     23  O   UNL     1     -51.052 -51.024  69.092  1.00  0.00    -0.507 OA
ATOM     24  H   UNL     1     -50.746 -51.674  69.801  1.00  0.00     0.293 HD
ENDBRANCH  11  23
ENDBRANCH   1   2
BRANCH   1  25
ATOM     25  C   UNL     1     -50.781 -46.588  65.216  1.00  0.00     0.339 C 
ATOM     26  C   UNL     1     -52.201 -46.564  64.635  1.00  0.00     0.214 C 
ATOM     27  O   UNL     1     -49.856 -45.864  64.417  1.00  0.00    -0.332 OA
ATOM     28  C   UNL     1     -52.210 -47.118  63.200  1.00  0.00     0.180 C 
ATOM     29  C   UNL     1     -49.777 -46.308  63.064  1.00  0.00     0.179 C 
ATOM     30  C   UNL     1     -51.154 -46.400  62.347  1.00  0.00     0.177 C 
BRANCH  26  31
ATOM     31  O   UNL     1     -52.691 -45.247  64.632  1.00  0.00    -0.384 OA
ATOM     32  H   UNL     1     -51.901 -44.644  64.657  1.00  0.00     0.211 HD
ENDBRANCH  26  31
BRANCH  28  33
ATOM     33  O   UNL     1     -51.971 -48.504  63.173  1.00  0.00    -0.387 OA
ATOM     34  H   UNL     1     -52.677 -48.949  63.713  1.00  0.00     0.211 HD
ENDBRANCH  28  33
BRANCH  29  35
ATOM     35  C   UNL     1     -48.905 -47.571  62.914  1.00  0.00     0.191 C 
BRANCH  35  36
ATOM     36  O   UNL     1     -47.819 -47.523  63.801  1.00  0.00    -0.394 OA
ATOM     37  H   UNL     1     -47.100 -47.007  63.354  1.00  0.00     0.210 HD
ENDBRANCH  35  36
ENDBRANCH  29  35
BRANCH  30  38
ATOM     38  O   UNL     1     -51.610 -45.102  62.052  1.00  0.00    -0.387 OA
ATOM     39  H   UNL     1     -50.809 -44.530  61.946  1.00  0.00     0.211 HD
ENDBRANCH  30  38
ENDBRANCH   1  25
TORSDOF 11
ENDMDL
MODEL 9
REMARK VINA RESULT:    -4.709      5.888      8.898
REMARK INTER + INTRA:          -7.815
REMARK INTER:                  -6.786
REMARK INTRA:                  -1.029
REMARK UNBOUND:                -1.041
REMARK SMILES O=c1cc(-c2ccc(O)c(O)c2)oc2cc(O[C@H]3O[C@@H](CO)[C@H](O)[C@@H](O)[C@@H]3O)cc(O)c12
REMARK SMILES IDX 17 1 16 2 4 3 3 4 13 5 2 6 14 7 1 8 32 9 15 10 30 11 29 12
REMARK SMILES IDX 5 13 6 14 7 15 8 16 12 17 10 18 9 19 11 21 31 23 18 25 27 26
REMARK SMILES IDX 19 27 25 28 20 29 23 30 28 31 26 33 21 35 22 36 24 38
REMARK H PARENT 9 20 11 22 31 24 28 32 26 34 22 37 24 39
REMARK Flexibility Score: inf
ROOT
ATOM      1  O   UNL     1     -44.091 -41.713  73.812  1.00  0.00    -0.462 OA
ENDROOT
BRANCH   1   2
ATOM      2  C   UNL     1     -45.054 -40.762  74.176  1.00  0.00     0.130 A 
ATOM      3  C   UNL     1     -48.065 -37.422  72.615  1.00  0.00     0.138 A 
ATOM      4  C   UNL     1     -48.484 -37.086  73.906  1.00  0.00     0.100 A 
ATOM      5  O   UNL     1     -47.161 -38.378  72.445  1.00  0.00    -0.456 OA
ATOM      6  C   UNL     1     -47.953 -37.769  75.002  1.00  0.00     0.197 A 
ATOM      7  C   UNL     1     -46.603 -39.041  73.453  1.00  0.00     0.146 A 
ATOM      8  O   UNL     1     -48.401 -37.496  76.146  1.00  0.00    -0.289 OA
ATOM      9  C   UNL     1     -46.962 -38.759  74.798  1.00  0.00     0.107 A 
ATOM     10  C   UNL     1     -45.658 -40.024  73.160  1.00  0.00     0.094 A 
ATOM     11  C   UNL     1     -46.331 -39.507  75.838  1.00  0.00     0.134 A 
ATOM     12  C   UNL     1     -45.418 -40.517  75.509  1.00  0.00     0.093 A 
BRANCH   3  13
ATOM     13  C   UNL     1     -48.641 -36.760  71.424  1.00  0.00     0.021 A 
ATOM     14  C   UNL     1     -48.146 -35.510  71.021  1.00  0.00     0.016 A 
ATOM     15  C   UNL     1     -48.648 -34.886  69.877  1.00  0.00     0.051 A 
ATOM     16  C   UNL     1     -49.668 -35.489  69.133  1.00  0.00     0.157 A 
ATOM     17  C   UNL     1     -49.677 -37.357  70.683  1.00  0.00     0.062 A 
ATOM     18  C   UNL     1     -50.193 -36.724  69.543  1.00  0.00     0.158 A 
BRANCH  16  19
ATOM     19  O   UNL     1     -50.146 -34.846  67.994  1.00  0.00    -0.504 OA
ATOM     20  H   UNL     1     -50.179 -33.834  67.919  1.00  0.00     0.293 HD
ENDBRANCH  16  19
BRANCH  18  21
ATOM     21  O   UNL     1     -51.226 -37.318  68.819  1.00  0.00    -0.504 OA
ATOM     22  H   UNL     1     -51.140 -38.251  68.437  1.00  0.00     0.293 HD
ENDBRANCH  18  21
ENDBRANCH   3  13
BRANCH  11  23
ATOM     23  O   UNL     1     -46.545 -39.280  77.201  1.00  0.00    -0.507 OA
ATOM     24  H   UNL     1     -47.068 -38.506  77.582  1.00  0.00     0.293 HD
ENDBRANCH  11  23
ENDBRANCH   1   2
BRANCH   1  25
ATOM     25  C   UNL     1     -42.728 -41.723  74.242  1.00  0.00     0.339 C 
ATOM     26  C   UNL     1     -41.788 -41.553  73.041  1.00  0.00     0.214 C 
ATOM     27  O   UNL     1     -42.426 -42.881  75.008  1.00  0.00    -0.332 OA
ATOM     28  C   UNL     1     -41.829 -42.798  72.139  1.00  0.00     0.180 C 
ATOM     29  C   UNL     1     -42.449 -44.098  74.265  1.00  0.00     0.179 C 
ATOM     30  C   UNL     1     -41.586 -44.066  72.971  1.00  0.00     0.177 C 
BRANCH  26  31
ATOM     31  O   UNL     1     -40.473 -41.346  73.493  1.00  0.00    -0.384 OA
ATOM     32  H   UNL     1     -40.473 -40.492  74.003  1.00  0.00     0.211 HD
ENDBRANCH  26  31
BRANCH  28  33
ATOM     33  O   UNL     1     -43.055 -42.911  71.459  1.00  0.00    -0.387 OA
ATOM     34  H   UNL     1     -42.909 -42.639  70.514  1.00  0.00     0.211 HD
ENDBRANCH  28  33
BRANCH  29  35
ATOM     35  C   UNL     1     -43.883 -44.625  74.051  1.00  0.00     0.191 C 
BRANCH  35  36
ATOM     36  O   UNL     1     -44.665 -44.389  75.192  1.00  0.00    -0.394 OA
ATOM     37  H   UNL     1     -45.614 -44.455  74.914  1.00  0.00     0.210 HD
ENDBRANCH  35  36
ENDBRANCH  29  35
BRANCH  30  38
ATOM     38  O   UNL     1     -40.225 -44.131  73.321  1.00  0.00    -0.387 OA
ATOM     39  H   UNL     1     -40.148 -44.770  74.073  1.00  0.00     0.211 HD
ENDBRANCH  30  38
ENDBRANCH   1  25
TORSDOF 11
ENDMDL
