MODEL 1
REMARK VINA RESULT:    -5.744      0.000      0.000
REMARK INTER + INTRA:          -5.912
REMARK INTER:                  -5.912
REMARK INTRA:                   0.000
REMARK UNBOUND:                 0.000
REMARK SMILES Nc1ncnc2nc[nH]c12
REMARK SMILES IDX 8 1 7 2 6 3 5 4 4 5 3 6 2 7 10 8 9 9 1 11
REMARK H PARENT 9 10 1 12 1 13
REMARK Flexibility Score: inf
ROOT
ATOM      1  C   UNL     1      -3.713  -4.350   9.346  1.00  0.00     0.199 A 
ATOM      2  N   UNL     1      -4.538  -3.777  10.265  1.00  0.00    -0.217 NA
ATOM      3  C   UNL     1      -5.540  -3.314   9.499  1.00  0.00     0.182 A 
ATOM      4  N   UNL     1      -6.640  -2.649   9.925  1.00  0.00    -0.215 NA
ATOM      5  C   UNL     1      -7.557  -2.254   8.990  1.00  0.00     0.226 A 
ATOM      6  N   UNL     1      -7.359  -2.529   7.661  1.00  0.00    -0.217 NA
ATOM      7  C   UNL     1      -6.249  -3.200   7.230  1.00  0.00     0.152 A 
ATOM      8  C   UNL     1      -5.325  -3.595   8.194  1.00  0.00     0.127 A 
ATOM      9  N   UNL     1      -4.167  -4.255   8.070  1.00  0.00    -0.340 N 
ATOM     10  H   UNL     1      -3.711  -4.617   7.204  1.00  0.00     0.168 HD
ENDROOT
BRANCH   7  11
ATOM     11  N   UNL     1      -6.064  -3.476   5.841  1.00  0.00    -0.382 N 
ATOM     12  H   UNL     1      -5.172  -3.903   5.508  1.00  0.00     0.158 HD
ATOM     13  H   UNL     1      -6.807  -3.261   5.141  1.00  0.00     0.158 HD
ENDBRANCH   7  11
TORSDOF 1
ENDMDL
MODEL 2
REMARK VINA RESULT:    -5.416      1.330      3.172
REMARK INTER + INTRA:          -5.575
REMARK INTER:                  -5.575
REMARK INTRA:                   0.000
REMARK UNBOUND:                 0.000
REMARK SMILES Nc1ncnc2nc[nH]c12
REMARK SMILES IDX 8 1 7 2 6 3 5 4 4 5 3 6 2 7 10 8 9 9 1 11
REMARK H PARENT 9 10 1 12 1 13
REMARK Flexibility Score: inf
ROOT
ATOM      1  C   UNL     1      -6.547  -2.157   7.996  1.00  0.00     0.199 A 
ATOM      2  N   UNL     1      -6.992  -2.656   9.181  1.00  0.00    -0.217 NA
ATOM      3  C   UNL     1      -5.954  -3.409   9.583  1.00  0.00     0.182 A 
ATOM      4  N   UNL     1      -5.878  -4.136  10.722  1.00  0.00    -0.215 NA
ATOM      5  C   UNL     1      -4.732  -4.843  10.960  1.00  0.00     0.226 A 
ATOM      6  N   UNL     1      -3.693  -4.810  10.064  1.00  0.00    -0.217 NA
ATOM      7  C   UNL     1      -3.770  -4.076   8.913  1.00  0.00     0.152 A 
ATOM      8  C   UNL     1      -4.943  -3.362   8.686  1.00  0.00     0.127 A 
ATOM      9  N   UNL     1      -5.296  -2.571   7.665  1.00  0.00    -0.340 N 
ATOM     10  H   UNL     1      -4.749  -2.323   6.812  1.00  0.00     0.168 HD
ENDROOT
BRANCH   7  11
ATOM     11  N   UNL     1      -2.677  -4.056   7.994  1.00  0.00    -0.382 N 
ATOM     12  H   UNL     1      -2.831  -4.312   6.994  1.00  0.00     0.158 HD
ATOM     13  H   UNL     1      -1.716  -3.788   8.299  1.00  0.00     0.158 HD
ENDBRANCH   7  11
TORSDOF 1
ENDMDL
MODEL 3
REMARK VINA RESULT:    -5.381      0.785      2.884
REMARK INTER + INTRA:          -5.539
REMARK INTER:                  -5.539
REMARK INTRA:                   0.000
REMARK UNBOUND:                 0.000
REMARK SMILES Nc1ncnc2nc[nH]c12
REMARK SMILES IDX 8 1 7 2 6 3 5 4 4 5 3 6 2 7 10 8 9 9 1 11
REMARK H PARENT 9 10 1 12 1 13
REMARK Flexibility Score: inf
ROOT
ATOM      1  C   UNL     1      -8.150  -1.749   9.256  1.00  0.00     0.199 A 
ATOM      2  N   UNL     1      -7.315  -2.153  10.252  1.00  0.00    -0.217 NA
ATOM      3  C   UNL     1      -6.379  -2.843   9.579  1.00  0.00     0.182 A 
ATOM      4  N   UNL     1      -5.300  -3.466  10.108  1.00  0.00    -0.215 NA
ATOM      5  C   UNL     1      -4.454  -4.123   9.257  1.00  0.00     0.226 A 
ATOM      6  N   UNL     1      -4.700  -4.144   7.907  1.00  0.00    -0.217 NA
ATOM      7  C   UNL     1      -5.790  -3.515   7.373  1.00  0.00     0.152 A 
ATOM      8  C   UNL     1      -6.641  -2.851   8.252  1.00  0.00     0.127 A 
ATOM      9  N   UNL     1      -7.765  -2.161   8.021  1.00  0.00    -0.340 N 
ATOM     10  H   UNL     1      -8.242  -1.975   7.111  1.00  0.00     0.168 HD
ENDROOT
BRANCH   7  11
ATOM     11  N   UNL     1      -6.027  -3.549   5.965  1.00  0.00    -0.382 N 
ATOM     12  H   UNL     1      -6.301  -4.445   5.504  1.00  0.00     0.158 HD
ATOM     13  H   UNL     1      -5.933  -2.693   5.377  1.00  0.00     0.158 HD
ENDBRANCH   7  11
TORSDOF 1
ENDMDL
MODEL 4
REMARK VINA RESULT:    -5.296      1.163      3.009
REMARK INTER + INTRA:          -5.450
REMARK INTER:                  -5.450
REMARK INTRA:                   0.000
REMARK UNBOUND:                 0.000
REMARK SMILES Nc1ncnc2nc[nH]c12
REMARK SMILES IDX 8 1 7 2 6 3 5 4 4 5 3 6 2 7 10 8 9 9 1 11
REMARK H PARENT 9 10 1 12 1 13
REMARK Flexibility Score: inf
ROOT
ATOM      1  C   UNL     1      -6.764  -3.246   6.472  1.00  0.00     0.199 A 
ATOM      2  N   UNL     1      -7.286  -2.425   7.423  1.00  0.00    -0.217 NA
ATOM      3  C   UNL     1      -6.306  -2.390   8.341  1.00  0.00     0.182 A 
ATOM      4  N   UNL     1      -6.316  -1.704   9.509  1.00  0.00    -0.215 NA
ATOM      5  C   UNL     1      -5.218  -1.793  10.318  1.00  0.00     0.226 A 
ATOM      6  N   UNL     1      -4.140  -2.557   9.950  1.00  0.00    -0.217 NA
ATOM      7  C   UNL     1      -4.128  -3.249   8.772  1.00  0.00     0.152 A 
ATOM      8  C   UNL     1      -5.254  -3.149   7.958  1.00  0.00     0.127 A 
ATOM      9  N   UNL     1      -5.521  -3.705   6.771  1.00  0.00    -0.340 N 
ATOM     10  H   UNL     1      -4.924  -4.343   6.198  1.00  0.00     0.168 HD
ENDROOT
BRANCH   7  11
ATOM     11  N   UNL     1      -2.995  -4.038   8.408  1.00  0.00    -0.382 N 
ATOM     12  H   UNL     1      -2.039  -3.752   8.715  1.00  0.00     0.158 HD
ATOM     13  H   UNL     1      -3.097  -4.906   7.839  1.00  0.00     0.158 HD
ENDBRANCH   7  11
TORSDOF 1
ENDMDL
MODEL 5
REMARK VINA RESULT:    -5.280      1.485      3.107
REMARK INTER + INTRA:          -5.434
REMARK INTER:                  -5.434
REMARK INTRA:                   0.000
REMARK UNBOUND:                 0.000
REMARK SMILES Nc1ncnc2nc[nH]c12
REMARK SMILES IDX 8 1 7 2 6 3 5 4 4 5 3 6 2 7 10 8 9 9 1 11
REMARK H PARENT 9 10 1 12 1 13
REMARK Flexibility Score: inf
ROOT
ATOM      1  C   UNL     1      -5.848  -0.943  10.109  1.00  0.00     0.199 A 
ATOM      2  N   UNL     1      -6.808  -1.349   9.235  1.00  0.00    -0.217 NA
ATOM      3  C   UNL     1      -6.215  -2.386   8.619  1.00  0.00     0.182 A 
ATOM      4  N   UNL     1      -6.748  -3.159   7.644  1.00  0.00    -0.215 NA
ATOM      5  C   UNL     1      -5.986  -4.175   7.137  1.00  0.00     0.226 A 
ATOM      6  N   UNL     1      -4.717  -4.398   7.611  1.00  0.00    -0.217 NA
ATOM      7  C   UNL     1      -4.178  -3.618   8.595  1.00  0.00     0.152 A 
ATOM      8  C   UNL     1      -4.967  -2.588   9.101  1.00  0.00     0.127 A 
ATOM      9  N   UNL     1      -4.709  -1.681  10.050  1.00  0.00    -0.340 N 
ATOM     10  H   UNL     1      -3.843  -1.559  10.620  1.00  0.00     0.168 HD
ENDROOT
BRANCH   7  11
ATOM     11  N   UNL     1      -2.856  -3.868   9.073  1.00  0.00    -0.382 N 
ATOM     12  H   UNL     1      -2.548  -4.846   9.269  1.00  0.00     0.158 HD
ATOM     13  H   UNL     1      -2.179  -3.091   9.232  1.00  0.00     0.158 HD
ENDBRANCH   7  11
TORSDOF 1
ENDMDL
MODEL 6
REMARK VINA RESULT:    -5.148      1.780      2.433
REMARK INTER + INTRA:          -5.299
REMARK INTER:                  -5.299
REMARK INTRA:                   0.000
REMARK UNBOUND:                 0.000
REMARK SMILES Nc1ncnc2nc[nH]c12
REMARK SMILES IDX 8 1 7 2 6 3 5 4 4 5 3 6 2 7 10 8 9 9 1 11
REMARK H PARENT 9 10 1 12 1 13
REMARK Flexibility Score: inf
ROOT
ATOM      1  C   UNL     1      -5.726  -4.119   6.857  1.00  0.00     0.199 A 
ATOM      2  N   UNL     1      -5.936  -3.997   8.196  1.00  0.00    -0.217 NA
ATOM      3  C   UNL     1      -6.759  -2.937   8.261  1.00  0.00     0.182 A 
ATOM      4  N   UNL     1      -7.281  -2.386   9.383  1.00  0.00    -0.215 NA
ATOM      5  C   UNL     1      -8.104  -1.303   9.247  1.00  0.00     0.226 A 
ATOM      6  N   UNL     1      -8.390  -0.796   8.004  1.00  0.00    -0.217 NA
ATOM      7  C   UNL     1      -7.864  -1.350   6.872  1.00  0.00     0.152 A 
ATOM      8  C   UNL     1      -7.027  -2.452   7.026  1.00  0.00     0.127 A 
ATOM      9  N   UNL     1      -6.380  -3.188   6.115  1.00  0.00    -0.340 N 
ATOM     10  H   UNL     1      -6.372  -3.083   5.076  1.00  0.00     0.168 HD
ENDROOT
BRANCH   7  11
ATOM     11  N   UNL     1      -8.174  -0.805   5.588  1.00  0.00    -0.382 N 
ATOM     12  H   UNL     1      -8.753  -1.353   4.915  1.00  0.00     0.158 HD
ATOM     13  H   UNL     1      -7.835   0.139   5.302  1.00  0.00     0.158 HD
ENDBRANCH   7  11
TORSDOF 1
ENDMDL
MODEL 7
REMARK VINA RESULT:    -5.143      1.336      1.392
REMARK INTER + INTRA:          -5.293
REMARK INTER:                  -5.293
REMARK INTRA:                   0.000
REMARK UNBOUND:                 0.000
REMARK SMILES Nc1ncnc2nc[nH]c12
REMARK SMILES IDX 8 1 7 2 6 3 5 4 4 5 3 6 2 7 10 8 9 9 1 11
REMARK H PARENT 9 10 1 12 1 13
REMARK Flexibility Score: inf
ROOT
ATOM      1  C   UNL     1      -4.206  -2.682   9.660  1.00  0.00     0.199 A 
ATOM      2  N   UNL     1      -5.166  -1.826  10.104  1.00  0.00    -0.217 NA
ATOM      3  C   UNL     1      -6.042  -1.826   9.085  1.00  0.00     0.182 A 
ATOM      4  N   UNL     1      -7.199  -1.126   9.016  1.00  0.00    -0.215 NA
ATOM      5  C   UNL     1      -7.964  -1.255   7.890  1.00  0.00     0.226 A 
ATOM      6  N   UNL     1      -7.564  -2.074   6.865  1.00  0.00    -0.217 NA
ATOM      7  C   UNL     1      -6.396  -2.781   6.934  1.00  0.00     0.152 A 
ATOM      8  C   UNL     1      -5.628  -2.638   8.087  1.00  0.00     0.127 A 
ATOM      9  N   UNL     1      -4.460  -3.195   8.428  1.00  0.00    -0.340 N 
ATOM     10  H   UNL     1      -3.873  -3.868   7.886  1.00  0.00     0.168 HD
ENDROOT
BRANCH   7  11
ATOM     11  N   UNL     1      -5.998  -3.627   5.855  1.00  0.00    -0.382 N 
ATOM     12  H   UNL     1      -5.115  -4.180   5.923  1.00  0.00     0.158 HD
ATOM     13  H   UNL     1      -6.574  -3.712   4.989  1.00  0.00     0.158 HD
ENDBRANCH   7  11
TORSDOF 1
ENDMDL
MODEL 8
REMARK VINA RESULT:    -4.982      1.127      2.689
REMARK INTER + INTRA:          -5.127
REMARK INTER:                  -5.127
REMARK INTRA:                   0.000
REMARK UNBOUND:                 0.000
REMARK SMILES Nc1ncnc2nc[nH]c12
REMARK SMILES IDX 8 1 7 2 6 3 5 4 4 5 3 6 2 7 10 8 9 9 1 11
REMARK H PARENT 9 10 1 12 1 13
REMARK Flexibility Score: inf
ROOT
ATOM      1  C   UNL     1      -4.926  -4.593   7.124  1.00  0.00     0.199 A 
ATOM      2  N   UNL     1      -6.216  -4.189   6.973  1.00  0.00    -0.217 NA
ATOM      3  C   UNL     1      -6.360  -3.309   7.978  1.00  0.00     0.182 A 
ATOM      4  N   UNL     1      -7.476  -2.604   8.281  1.00  0.00    -0.215 NA
ATOM      5  C   UNL     1      -7.429  -1.751   9.349  1.00  0.00     0.226 A 
ATOM      6  N   UNL     1      -6.280  -1.618  10.086  1.00  0.00    -0.217 NA
ATOM      7  C   UNL     1      -5.153  -2.329   9.781  1.00  0.00     0.152 A 
ATOM      8  C   UNL     1      -5.217  -3.194   8.691  1.00  0.00     0.127 A 
ATOM      9  N   UNL     1      -4.288  -4.003   8.168  1.00  0.00    -0.340 N 
ATOM     10  H   UNL     1      -3.302  -4.152   8.477  1.00  0.00     0.168 HD
ENDROOT
BRANCH   7  11
ATOM     11  N   UNL     1      -3.967  -2.176  10.562  1.00  0.00    -0.382 N 
ATOM     12  H   UNL     1      -4.025  -2.175  11.605  1.00  0.00     0.158 HD
ATOM     13  H   UNL     1      -3.032  -2.064  10.114  1.00  0.00     0.158 HD
ENDBRANCH   7  11
TORSDOF 1
ENDMDL
MODEL 9
REMARK VINA RESULT:    -4.791      1.218      3.701
REMARK INTER + INTRA:          -4.931
REMARK INTER:                  -4.931
REMARK INTRA:                   0.000
REMARK UNBOUND:                 0.000
REMARK SMILES Nc1ncnc2nc[nH]c12
REMARK SMILES IDX 8 1 7 2 6 3 5 4 4 5 3 6 2 7 10 8 9 9 1 11
REMARK H PARENT 9 10 1 12 1 13
REMARK Flexibility Score: inf
ROOT
ATOM      1  C   UNL     1      -7.151  -2.504   6.728  1.00  0.00     0.199 A 
ATOM      2  N   UNL     1      -6.374  -3.613   6.594  1.00  0.00    -0.217 NA
ATOM      3  C   UNL     1      -5.526  -3.495   7.630  1.00  0.00     0.182 A 
ATOM      4  N   UNL     1      -4.531  -4.351   7.961  1.00  0.00    -0.215 NA
ATOM      5  C   UNL     1      -3.768  -4.060   9.058  1.00  0.00     0.226 A 
ATOM      6  N   UNL     1      -4.011  -2.930   9.797  1.00  0.00    -0.217 NA
ATOM      7  C   UNL     1      -5.016  -2.065   9.463  1.00  0.00     0.152 A 
ATOM      8  C   UNL     1      -5.783  -2.375   8.344  1.00  0.00     0.127 A 
ATOM      9  N   UNL     1      -6.814  -1.727   7.789  1.00  0.00    -0.340 N 
ATOM     10  H   UNL     1      -7.263  -0.834   8.091  1.00  0.00     0.168 HD
ENDROOT
BRANCH   7  11
ATOM     11  N   UNL     1      -5.252  -0.894  10.247  1.00  0.00    -0.382 N 
ATOM     12  H   UNL     1      -6.032  -0.878  10.940  1.00  0.00     0.158 HD
ATOM     13  H   UNL     1      -4.656  -0.044  10.146  1.00  0.00     0.158 HD
ENDBRANCH   7  11
TORSDOF 1
ENDMDL
