MODEL 1
REMARK VINA RESULT:    -3.626      0.000      0.000
REMARK INTER + INTRA:          -4.991
REMARK INTER:                  -4.686
REMARK INTRA:                  -0.305
REMARK UNBOUND:                -0.305
REMARK SMILES C=CC(=O)CCCCC
REMARK SMILES IDX 6 1 7 2 8 3 9 4 5 5 3 6 4 7 2 8 1 9
REMARK H PARENT
REMARK Flexibility Score: inf
ROOT
ATOM      1  C   UNL     1      11.904  81.101  17.883  1.00  0.00     0.008 C 
ENDROOT
BRANCH   1   2
ATOM      2  C   UNL     1      11.099  82.408  17.830  1.00  0.00     0.000 C 
BRANCH   2   3
ATOM      3  C   UNL     1      11.589  83.443  18.854  1.00  0.00    -0.003 C 
ATOM      4  C   UNL     1      11.654  82.885  20.276  1.00  0.00     0.004 C 
ENDBRANCH   2   3
ENDBRANCH   1   2
BRANCH   1   5
ATOM      5  C   UNL     1      11.125  79.950  17.237  1.00  0.00     0.080 C 
BRANCH   5   6
ATOM      6  C   UNL     1      10.740  78.930  18.267  1.00  0.00     0.155 C 
ATOM      7  O   UNL     1       9.762  78.166  18.044  1.00  0.00    -0.295 OA
BRANCH   6   8
ATOM      8  C   UNL     1      11.474  78.857  19.545  1.00  0.00     0.039 C 
ATOM      9  C   UNL     1      11.781  77.700  20.128  1.00  0.00     0.012 C 
ENDBRANCH   6   8
ENDBRANCH   5   6
ENDBRANCH   1   5
TORSDOF 5
ENDMDL
MODEL 2
REMARK VINA RESULT:    -3.510      1.356      2.253
REMARK INTER + INTRA:          -4.841
REMARK INTER:                  -4.609
REMARK INTRA:                  -0.232
REMARK UNBOUND:                -0.305
REMARK SMILES C=CC(=O)CCCCC
REMARK SMILES IDX 6 1 7 2 8 3 9 4 5 5 3 6 4 7 2 8 1 9
REMARK H PARENT
REMARK Flexibility Score: inf
ROOT
ATOM      1  C   UNL     1      11.598  81.604  19.101  1.00  0.00     0.008 C 
ENDROOT
BRANCH   1   2
ATOM      2  C   UNL     1      11.652  82.932  19.870  1.00  0.00     0.000 C 
BRANCH   2   3
ATOM      3  C   UNL     1      11.147  84.118  19.033  1.00  0.00    -0.003 C 
ATOM      4  C   UNL     1      10.901  83.748  17.570  1.00  0.00     0.004 C 
ENDBRANCH   2   3
ENDBRANCH   1   2
BRANCH   1   5
ATOM      5  C   UNL     1      11.915  80.423  20.024  1.00  0.00     0.080 C 
BRANCH   5   6
ATOM      6  C   UNL     1      11.366  79.147  19.458  1.00  0.00     0.155 C 
ATOM      7  O   UNL     1      11.546  78.066  20.082  1.00  0.00    -0.295 OA
BRANCH   6   8
ATOM      8  C   UNL     1      10.663  79.157  18.160  1.00  0.00     0.039 C 
ATOM      9  C   UNL     1       9.954  78.118  17.724  1.00  0.00     0.012 C 
ENDBRANCH   6   8
ENDBRANCH   5   6
ENDBRANCH   1   5
TORSDOF 5
ENDMDL
MODEL 3
REMARK VINA RESULT:    -3.483      2.144      4.467
REMARK INTER + INTRA:          -4.805
REMARK INTER:                  -4.551
REMARK INTRA:                  -0.255
REMARK UNBOUND:                -0.305
REMARK SMILES C=CC(=O)CCCCC
REMARK SMILES IDX 6 1 7 2 8 3 9 4 5 5 3 6 4 7 2 8 1 9
REMARK H PARENT
REMARK Flexibility Score: inf
ROOT
ATOM      1  C   UNL     1      11.181  80.856  17.548  1.00  0.00     0.008 C 
ENDROOT
BRANCH   1   2
ATOM      2  C   UNL     1      10.944  80.196  18.914  1.00  0.00     0.000 C 
BRANCH   2   3
ATOM      3  C   UNL     1      10.878  78.663  18.824  1.00  0.00    -0.003 C 
ATOM      4  C   UNL     1       9.972  78.175  17.693  1.00  0.00     0.004 C 
ENDBRANCH   2   3
ENDBRANCH   1   2
BRANCH   1   5
ATOM      5  C   UNL     1      12.063  82.101  17.688  1.00  0.00     0.080 C 
BRANCH   5   6
ATOM      6  C   UNL     1      11.221  83.321  17.916  1.00  0.00     0.155 C 
ATOM      7  O   UNL     1      10.531  83.783  16.966  1.00  0.00    -0.295 OA
BRANCH   6   8
ATOM      8  C   UNL     1      11.241  83.998  19.228  1.00  0.00     0.039 C 
ATOM      9  C   UNL     1      11.675  83.399  20.335  1.00  0.00     0.012 C 
ENDBRANCH   6   8
ENDBRANCH   5   6
ENDBRANCH   1   5
TORSDOF 5
ENDMDL
MODEL 4
REMARK VINA RESULT:    -3.463      1.886      4.130
REMARK INTER + INTRA:          -4.779
REMARK INTER:                  -4.333
REMARK INTRA:                  -0.447
REMARK UNBOUND:                -0.305
REMARK SMILES C=CC(=O)CCCCC
REMARK SMILES IDX 6 1 7 2 8 3 9 4 5 5 3 6 4 7 2 8 1 9
REMARK H PARENT
REMARK Flexibility Score: inf
ROOT
ATOM      1  C   UNL     1      11.151  80.498  17.584  1.00  0.00     0.008 C 
ENDROOT
BRANCH   1   2
ATOM      2  C   UNL     1      10.654  79.811  18.865  1.00  0.00     0.000 C 
BRANCH   2   3
ATOM      3  C   UNL     1      11.806  79.362  19.778  1.00  0.00    -0.003 C 
ATOM      4  C   UNL     1      11.840  77.848  19.986  1.00  0.00     0.004 C 
ENDBRANCH   2   3
ENDBRANCH   1   2
BRANCH   1   5
ATOM      5  C   UNL     1      12.125  81.634  17.915  1.00  0.00     0.080 C 
BRANCH   5   6
ATOM      6  C   UNL     1      11.383  82.922  18.119  1.00  0.00     0.155 C 
ATOM      7  O   UNL     1      10.672  83.380  17.183  1.00  0.00    -0.295 OA
BRANCH   6   8
ATOM      8  C   UNL     1      11.526  83.665  19.386  1.00  0.00     0.039 C 
ATOM      9  C   UNL     1      11.600  83.055  20.567  1.00  0.00     0.012 C 
ENDBRANCH   6   8
ENDBRANCH   5   6
ENDBRANCH   1   5
TORSDOF 5
ENDMDL
MODEL 5
REMARK VINA RESULT:    -3.266      2.365      4.827
REMARK INTER + INTRA:          -4.525
REMARK INTER:                  -4.329
REMARK INTRA:                  -0.196
REMARK UNBOUND:                -0.305
REMARK SMILES C=CC(=O)CCCCC
REMARK SMILES IDX 6 1 7 2 8 3 9 4 5 5 3 6 4 7 2 8 1 9
REMARK H PARENT
REMARK Flexibility Score: inf
ROOT
ATOM      1  C   UNL     1      11.379  80.630  19.735  1.00  0.00     0.008 C 
ENDROOT
BRANCH   1   2
ATOM      2  C   UNL     1      11.673  79.290  19.046  1.00  0.00     0.000 C 
BRANCH   2   3
ATOM      3  C   UNL     1      11.048  79.198  17.645  1.00  0.00    -0.003 C 
ATOM      4  C   UNL     1       9.905  78.184  17.572  1.00  0.00     0.004 C 
ENDBRANCH   2   3
ENDBRANCH   1   2
BRANCH   1   5
ATOM      5  C   UNL     1      12.047  81.789  18.986  1.00  0.00     0.080 C 
BRANCH   5   6
ATOM      6  C   UNL     1      11.657  83.104  19.592  1.00  0.00     0.155 C 
ATOM      7  O   UNL     1      11.878  83.310  20.817  1.00  0.00    -0.295 OA
BRANCH   6   8
ATOM      8  C   UNL     1      10.978  84.125  18.770  1.00  0.00     0.039 C 
ATOM      9  C   UNL     1      10.781  83.973  17.462  1.00  0.00     0.012 C 
ENDBRANCH   6   8
ENDBRANCH   5   6
ENDBRANCH   1   5
TORSDOF 5
ENDMDL
MODEL 6
REMARK VINA RESULT:    -3.249      3.678      5.614
REMARK INTER + INTRA:          -4.503
REMARK INTER:                  -4.403
REMARK INTRA:                  -0.101
REMARK UNBOUND:                -0.305
REMARK SMILES C=CC(=O)CCCCC
REMARK SMILES IDX 6 1 7 2 8 3 9 4 5 5 3 6 4 7 2 8 1 9
REMARK H PARENT
REMARK Flexibility Score: inf
ROOT
ATOM      1  C   UNL     1      11.759  76.907  21.541  1.00  0.00     0.008 C 
ENDROOT
BRANCH   1   2
ATOM      2  C   UNL     1      11.774  77.436  20.099  1.00  0.00     0.000 C 
BRANCH   2   3
ATOM      3  C   UNL     1      11.627  78.964  20.030  1.00  0.00    -0.003 C 
ATOM      4  C   UNL     1      10.684  79.418  18.915  1.00  0.00     0.004 C 
ENDBRANCH   2   3
ENDBRANCH   1   2
BRANCH   1   5
ATOM      5  C   UNL     1      12.015  75.397  21.573  1.00  0.00     0.080 C 
BRANCH   5   6
ATOM      6  C   UNL     1      11.111  74.729  22.566  1.00  0.00     0.155 C 
ATOM      7  O   UNL     1       9.882  74.620  22.307  1.00  0.00    -0.295 OA
BRANCH   6   8
ATOM      8  C   UNL     1      11.653  74.249  23.853  1.00  0.00     0.039 C 
ATOM      9  C   UNL     1      11.677  72.959  24.181  1.00  0.00     0.012 C 
ENDBRANCH   6   8
ENDBRANCH   5   6
ENDBRANCH   1   5
TORSDOF 5
ENDMDL
MODEL 7
REMARK VINA RESULT:    -3.237      1.680      2.189
REMARK INTER + INTRA:          -4.487
REMARK INTER:                  -4.282
REMARK INTRA:                  -0.206
REMARK UNBOUND:                -0.305
REMARK SMILES C=CC(=O)CCCCC
REMARK SMILES IDX 6 1 7 2 8 3 9 4 5 5 3 6 4 7 2 8 1 9
REMARK H PARENT
REMARK Flexibility Score: inf
ROOT
ATOM      1  C   UNL     1      11.231  79.466  17.347  1.00  0.00     0.008 C 
ENDROOT
BRANCH   1   2
ATOM      2  C   UNL     1      11.999  80.790  17.220  1.00  0.00     0.000 C 
BRANCH   2   3
ATOM      3  C   UNL     1      11.193  81.990  17.742  1.00  0.00    -0.003 C 
ATOM      4  C   UNL     1      11.796  83.333  17.328  1.00  0.00     0.004 C 
ENDBRANCH   2   3
ENDBRANCH   1   2
BRANCH   1   5
ATOM      5  C   UNL     1      10.543  79.360  18.712  1.00  0.00     0.080 C 
BRANCH   5   6
ATOM      6  C   UNL     1      11.523  78.933  19.765  1.00  0.00     0.155 C 
ATOM      7  O   UNL     1      12.101  79.809  20.463  1.00  0.00    -0.295 OA
BRANCH   6   8
ATOM      8  C   UNL     1      11.836  77.502  19.945  1.00  0.00     0.039 C 
ATOM      9  C   UNL     1      11.850  76.919  21.142  1.00  0.00     0.012 C 
ENDBRANCH   6   8
ENDBRANCH   5   6
ENDBRANCH   1   5
TORSDOF 5
ENDMDL
MODEL 8
REMARK VINA RESULT:    -3.163      2.004      5.447
REMARK INTER + INTRA:          -4.392
REMARK INTER:                  -4.297
REMARK INTRA:                  -0.095
REMARK UNBOUND:                -0.305
REMARK SMILES C=CC(=O)CCCCC
REMARK SMILES IDX 6 1 7 2 8 3 9 4 5 5 3 6 4 7 2 8 1 9
REMARK H PARENT
REMARK Flexibility Score: inf
ROOT
ATOM      1  C   UNL     1      11.942  77.093  20.321  1.00  0.00     0.008 C 
ENDROOT
BRANCH   1   2
ATOM      2  C   UNL     1      11.955  76.497  21.736  1.00  0.00     0.000 C 
BRANCH   2   3
ATOM      3  C   UNL     1      11.900  74.961  21.730  1.00  0.00    -0.003 C 
ATOM      4  C   UNL     1      10.666  74.410  22.444  1.00  0.00     0.004 C 
ENDBRANCH   2   3
ENDBRANCH   1   2
BRANCH   1   5
ATOM      5  C   UNL     1      12.027  78.622  20.370  1.00  0.00     0.080 C 
BRANCH   5   6
ATOM      6  C   UNL     1      11.256  79.230  19.236  1.00  0.00     0.155 C 
ATOM      7  O   UNL     1      10.532  78.491  18.515  1.00  0.00    -0.295 OA
BRANCH   6   8
ATOM      8  C   UNL     1      11.385  80.671  18.943  1.00  0.00     0.039 C 
ATOM      9  C   UNL     1      11.325  81.157  17.705  1.00  0.00     0.012 C 
ENDBRANCH   6   8
ENDBRANCH   5   6
ENDBRANCH   1   5
TORSDOF 5
ENDMDL
MODEL 9
REMARK VINA RESULT:    -3.049      1.685      4.583
REMARK INTER + INTRA:          -4.244
REMARK INTER:                  -4.119
REMARK INTRA:                  -0.126
REMARK UNBOUND:                -0.305
REMARK SMILES C=CC(=O)CCCCC
REMARK SMILES IDX 6 1 7 2 8 3 9 4 5 5 3 6 4 7 2 8 1 9
REMARK H PARENT
REMARK Flexibility Score: inf
ROOT
ATOM      1  C   UNL     1      10.709  79.518  18.852  1.00  0.00     0.008 C 
ENDROOT
BRANCH   1   2
ATOM      2  C   UNL     1      11.802  78.478  19.138  1.00  0.00     0.000 C 
BRANCH   2   3
ATOM      3  C   UNL     1      11.993  78.222  20.642  1.00  0.00    -0.003 C 
ATOM      4  C   UNL     1      11.920  76.738  21.003  1.00  0.00     0.004 C 
ENDBRANCH   2   3
ENDBRANCH   1   2
BRANCH   1   5
ATOM      5  C   UNL     1      11.156  80.917  19.290  1.00  0.00     0.080 C 
BRANCH   5   6
ATOM      6  C   UNL     1      11.482  81.765  18.097  1.00  0.00     0.155 C 
ATOM      7  O   UNL     1      11.838  81.208  17.023  1.00  0.00    -0.295 OA
BRANCH   6   8
ATOM      8  C   UNL     1      11.431  83.236  18.200  1.00  0.00     0.039 C 
ATOM      9  C   UNL     1      10.678  83.983  17.395  1.00  0.00     0.012 C 
ENDBRANCH   6   8
ENDBRANCH   5   6
ENDBRANCH   1   5
TORSDOF 5
ENDMDL
