MODEL 1
REMARK VINA RESULT:   146.710      0.000      0.000
REMARK INTER + INTRA:         150.998
REMARK INTER:                 150.998
REMARK INTRA:                   0.000
REMARK UNBOUND:                 0.000
REMARK SMILES CC1(C)CC[C@@]2(C)CC[C@]3(C)C(=CC[C@H]4[C@]5(C)CC[C@@H](O)C(C)(C)[C@@H]5CC[C@@]43C)[C@H]2C1
REMARK SMILES IDX 1 1 2 2 4 3 5 4 6 5 8 6 9 7 10 8 12 9 13 10 14 11 15 12
REMARK SMILES IDX 28 13 27 14 26 15 25 16 16 17 18 18 19 19 20 20 22 21 23 22
REMARK SMILES IDX 24 23 17 24 29 25 30 26 31 27 11 28 7 29 3 30 21 31
REMARK H PARENT 21 32
REMARK Flexibility Score: inf
ROOT
ATOM      1  C   UNL     1     -26.875  21.053 -12.513  1.00  0.00     0.011 C 
ATOM      2  C   UNL     1     -28.117  21.741 -11.901  1.00  0.00    -0.035 C 
ATOM      3  C   UNL     1     -29.400  20.876 -12.140  1.00  0.00     0.007 C 
ATOM      4  C   UNL     1     -30.529  21.637 -12.859  1.00  0.00     0.008 C 
ATOM      5  C   UNL     1     -30.054  22.266 -14.203  1.00  0.00    -0.026 C 
ATOM      6  C   UNL     1     -31.245  23.080 -14.790  1.00  0.00     0.008 C 
ATOM      7  C   UNL     1     -30.893  23.917 -16.046  1.00  0.00     0.012 C 
ATOM      8  C   UNL     1     -29.548  24.748 -15.957  1.00  0.00    -0.006 C 
ATOM      9  C   UNL     1     -29.049  24.639 -14.500  1.00  0.00    -0.064 C 
ATOM     10  C   UNL     1     -29.099  25.712 -13.660  1.00  0.00    -0.027 C 
ATOM     11  C   UNL     1     -29.698  27.055 -13.998  1.00  0.00     0.032 C 
ATOM     12  C   UNL     1     -30.550  27.032 -15.296  1.00  0.00     0.006 C 
ATOM     13  C   UNL     1     -29.717  26.292 -16.396  1.00  0.00    -0.020 C 
ATOM     14  C   UNL     1     -30.469  26.435 -17.740  1.00  0.00     0.008 C 
ATOM     15  C   UNL     1     -30.621  27.882 -18.213  1.00  0.00     0.005 C 
ATOM     16  C   UNL     1     -30.795  28.994 -17.122  1.00  0.00     0.003 C 
ATOM     17  C   UNL     1     -31.295  28.408 -15.729  1.00  0.00    -0.025 C 
ATOM     18  C   UNL     1     -32.826  28.123 -15.865  1.00  0.00     0.010 C 
ATOM     19  C   UNL     1     -33.658  29.313 -16.370  1.00  0.00     0.033 C 
ATOM     20  C   UNL     1     -33.163  29.852 -17.721  1.00  0.00     0.120 C 
ATOM     21  C   UNL     1     -31.644  30.220 -17.707  1.00  0.00    -0.006 C 
ATOM     22  C   UNL     1     -31.399  31.545 -16.909  1.00  0.00     0.014 C 
ATOM     23  C   UNL     1     -31.196  30.544 -19.169  1.00  0.00     0.014 C 
ATOM     24  C   UNL     1     -31.106  29.455 -14.588  1.00  0.00     0.012 C 
ATOM     25  C   UNL     1     -28.295  26.939 -16.558  1.00  0.00     0.012 C 
ATOM     26  C   UNL     1     -28.789  23.206 -13.965  1.00  0.00     0.022 C 
ATOM     27  C   UNL     1     -28.281  23.170 -12.490  1.00  0.00     0.015 C 
ATOM     28  C   UNL     1     -28.488  24.066 -16.884  1.00  0.00     0.017 C 
ATOM     29  C   UNL     1     -29.741  21.093 -15.179  1.00  0.00     0.012 C 
ATOM     30  C   UNL     1     -27.871  21.875 -10.380  1.00  0.00     0.011 C 
ENDROOT
BRANCH  20  31
ATOM     31  O   UNL     1     -33.944  30.970 -18.068  1.00  0.00    -0.393 OA
ATOM     32  H   UNL     1     -33.882  31.619 -17.319  1.00  0.00     0.210 HD
ENDBRANCH  20  31
TORSDOF 1
ENDMDL
MODEL 2
REMARK VINA RESULT:   148.911      2.091      4.367
REMARK INTER + INTRA:         153.263
REMARK INTER:                 153.263
REMARK INTRA:                   0.000
REMARK UNBOUND:                 0.000
REMARK SMILES CC1(C)CC[C@@]2(C)CC[C@]3(C)C(=CC[C@H]4[C@]5(C)CC[C@@H](O)C(C)(C)[C@@H]5CC[C@@]43C)[C@H]2C1
REMARK SMILES IDX 1 1 2 2 4 3 5 4 6 5 8 6 9 7 10 8 12 9 13 10 14 11 15 12
REMARK SMILES IDX 28 13 27 14 26 15 25 16 16 17 18 18 19 19 20 20 22 21 23 22
REMARK SMILES IDX 24 23 17 24 29 25 30 26 31 27 11 28 7 29 3 30 21 31
REMARK H PARENT 21 32
REMARK Flexibility Score: inf
ROOT
ATOM      1  C   UNL     1     -27.148  25.934 -13.749  1.00  0.00     0.011 C 
ATOM      2  C   UNL     1     -28.596  25.391 -13.759  1.00  0.00    -0.035 C 
ATOM      3  C   UNL     1     -28.749  24.251 -14.821  1.00  0.00     0.007 C 
ATOM      4  C   UNL     1     -29.866  24.513 -15.848  1.00  0.00     0.008 C 
ATOM      5  C   UNL     1     -29.699  25.887 -16.564  1.00  0.00    -0.026 C 
ATOM      6  C   UNL     1     -30.925  26.080 -17.504  1.00  0.00     0.008 C 
ATOM      7  C   UNL     1     -31.010  27.479 -18.168  1.00  0.00     0.012 C 
ATOM      8  C   UNL     1     -30.757  28.708 -17.204  1.00  0.00    -0.006 C 
ATOM      9  C   UNL     1     -30.693  28.147 -15.767  1.00  0.00    -0.064 C 
ATOM     10  C   UNL     1     -31.696  28.385 -14.876  1.00  0.00    -0.027 C 
ATOM     11  C   UNL     1     -32.978  29.118 -15.185  1.00  0.00     0.032 C 
ATOM     12  C   UNL     1     -33.214  29.320 -16.707  1.00  0.00     0.006 C 
ATOM     13  C   UNL     1     -31.881  29.860 -17.325  1.00  0.00    -0.020 C 
ATOM     14  C   UNL     1     -32.161  30.248 -18.795  1.00  0.00     0.008 C 
ATOM     15  C   UNL     1     -33.196  31.364 -18.956  1.00  0.00     0.005 C 
ATOM     16  C   UNL     1     -34.367  31.429 -17.915  1.00  0.00     0.003 C 
ATOM     17  C   UNL     1     -34.593  30.045 -17.164  1.00  0.00    -0.025 C 
ATOM     18  C   UNL     1     -35.350  29.096 -18.148  1.00  0.00     0.010 C 
ATOM     19  C   UNL     1     -36.635  29.690 -18.751  1.00  0.00     0.033 C 
ATOM     20  C   UNL     1     -36.388  31.019 -19.481  1.00  0.00     0.120 C 
ATOM     21  C   UNL     1     -35.669  32.079 -18.584  1.00  0.00    -0.006 C 
ATOM     22  C   UNL     1     -36.654  32.665 -17.518  1.00  0.00     0.014 C 
ATOM     23  C   UNL     1     -35.272  33.300 -19.476  1.00  0.00     0.014 C 
ATOM     24  C   UNL     1     -35.492  30.239 -15.904  1.00  0.00     0.012 C 
ATOM     25  C   UNL     1     -31.386  31.143 -16.564  1.00  0.00     0.012 C 
ATOM     26  C   UNL     1     -29.612  27.067 -15.497  1.00  0.00     0.022 C 
ATOM     27  C   UNL     1     -29.599  26.548 -14.025  1.00  0.00     0.015 C 
ATOM     28  C   UNL     1     -29.358  29.321 -17.547  1.00  0.00     0.017 C 
ATOM     29  C   UNL     1     -28.420  25.796 -17.448  1.00  0.00     0.012 C 
ATOM     30  C   UNL     1     -28.887  24.818 -12.353  1.00  0.00     0.011 C 
ENDROOT
BRANCH  20  31
ATOM     31  O   UNL     1     -37.623  31.511 -19.941  1.00  0.00    -0.393 OA
ATOM     32  H   UNL     1     -38.282  30.772 -19.868  1.00  0.00     0.210 HD
ENDBRANCH  20  31
TORSDOF 1
ENDMDL
MODEL 3
REMARK VINA RESULT:   149.438      2.875      8.286
REMARK INTER + INTRA:         153.806
REMARK INTER:                 153.806
REMARK INTRA:                   0.000
REMARK UNBOUND:                 0.000
REMARK SMILES CC1(C)CC[C@@]2(C)CC[C@]3(C)C(=CC[C@H]4[C@]5(C)CC[C@@H](O)C(C)(C)[C@@H]5CC[C@@]43C)[C@H]2C1
REMARK SMILES IDX 1 1 2 2 4 3 5 4 6 5 8 6 9 7 10 8 12 9 13 10 14 11 15 12
REMARK SMILES IDX 28 13 27 14 26 15 25 16 16 17 18 18 19 19 20 20 22 21 23 22
REMARK SMILES IDX 24 23 17 24 29 25 30 26 31 27 11 28 7 29 3 30 21 31
REMARK H PARENT 21 32
REMARK Flexibility Score: inf
ROOT
ATOM      1  C   UNL     1     -31.210  34.488 -16.950  1.00  0.00     0.011 C 
ATOM      2  C   UNL     1     -30.561  34.002 -15.633  1.00  0.00    -0.035 C 
ATOM      3  C   UNL     1     -29.003  34.124 -15.710  1.00  0.00     0.007 C 
ATOM      4  C   UNL     1     -28.267  32.800 -15.433  1.00  0.00     0.008 C 
ATOM      5  C   UNL     1     -28.757  31.648 -16.361  1.00  0.00    -0.026 C 
ATOM      6  C   UNL     1     -28.014  30.349 -15.931  1.00  0.00     0.008 C 
ATOM      7  C   UNL     1     -28.510  29.062 -16.640  1.00  0.00     0.012 C 
ATOM      8  C   UNL     1     -30.081  28.891 -16.722  1.00  0.00    -0.006 C 
ATOM      9  C   UNL     1     -30.701  30.008 -15.854  1.00  0.00    -0.064 C 
ATOM     10  C   UNL     1     -31.303  29.720 -14.665  1.00  0.00    -0.027 C 
ATOM     11  C   UNL     1     -31.364  28.352 -14.030  1.00  0.00     0.032 C 
ATOM     12  C   UNL     1     -30.404  27.328 -14.694  1.00  0.00     0.006 C 
ATOM     13  C   UNL     1     -30.594  27.437 -16.244  1.00  0.00    -0.020 C 
ATOM     14  C   UNL     1     -29.791  26.292 -16.903  1.00  0.00     0.008 C 
ATOM     15  C   UNL     1     -30.267  24.892 -16.506  1.00  0.00     0.005 C 
ATOM     16  C   UNL     1     -30.821  24.695 -15.053  1.00  0.00     0.003 C 
ATOM     17  C   UNL     1     -30.339  25.837 -14.055  1.00  0.00    -0.025 C 
ATOM     18  C   UNL     1     -28.857  25.526 -13.669  1.00  0.00     0.010 C 
ATOM     19  C   UNL     1     -28.617  24.101 -13.141  1.00  0.00     0.033 C 
ATOM     20  C   UNL     1     -29.079  23.017 -14.127  1.00  0.00     0.120 C 
ATOM     21  C   UNL     1     -30.571  23.190 -14.562  1.00  0.00    -0.006 C 
ATOM     22  C   UNL     1     -31.540  22.775 -13.405  1.00  0.00     0.014 C 
ATOM     23  C   UNL     1     -30.873  22.183 -15.719  1.00  0.00     0.014 C 
ATOM     24  C   UNL     1     -31.185  25.821 -12.745  1.00  0.00     0.012 C 
ATOM     25  C   UNL     1     -32.105  27.268 -16.640  1.00  0.00     0.012 C 
ATOM     26  C   UNL     1     -30.334  31.465 -16.242  1.00  0.00     0.022 C 
ATOM     27  C   UNL     1     -30.999  32.542 -15.329  1.00  0.00     0.015 C 
ATOM     28  C   UNL     1     -30.524  29.127 -18.204  1.00  0.00     0.017 C 
ATOM     29  C   UNL     1     -28.312  32.002 -17.812  1.00  0.00     0.012 C 
ATOM     30  C   UNL     1     -31.086  34.907 -14.494  1.00  0.00     0.011 C 
ENDROOT
BRANCH  20  31
ATOM     31  O   UNL     1     -28.876  21.759 -13.532  1.00  0.00    -0.393 OA
ATOM     32  H   UNL     1     -29.410  21.098 -14.047  1.00  0.00     0.210 HD
ENDBRANCH  20  31
TORSDOF 1
ENDMDL
