MODEL 1
REMARK VINA RESULT:    -4.374      0.000      0.000
REMARK INTER + INTRA:          -5.293
REMARK INTER:                  -5.141
REMARK INTRA:                  -0.151
REMARK UNBOUND:                -0.151
REMARK SMILES O=C([O-])C=Cc1ccc(O)c(O)c1
REMARK SMILES IDX 6 1 13 2 7 3 11 4 8 5 9 6 5 7 4 8 2 9 1 10 3 11 12 12 10 14
REMARK H PARENT 12 13 10 15
REMARK Flexibility Score: inf
ROOT
ATOM      1  C   UNL     1      -7.388   1.784  -7.457  1.00  0.00    -0.022 A 
ATOM      2  C   UNL     1      -8.022   1.025  -6.452  1.00  0.00     0.058 A 
ATOM      3  C   UNL     1      -6.686   1.113  -8.471  1.00  0.00     0.012 A 
ATOM      4  C   UNL     1      -7.933  -0.375  -6.453  1.00  0.00     0.157 A 
ATOM      5  C   UNL     1      -6.596  -0.281  -8.472  1.00  0.00     0.051 A 
ATOM      6  C   UNL     1      -7.213  -1.029  -7.466  1.00  0.00     0.157 A 
ENDROOT
BRANCH   1   7
ATOM      7  C   UNL     1      -7.463   3.266  -7.506  1.00  0.00     0.010 C 
ATOM      8  C   UNL     1      -7.116   3.993  -8.577  1.00  0.00     0.025 C 
BRANCH   8   9
ATOM      9  C   UNL     1      -7.215   5.462  -8.594  1.00  0.00     0.064 C 
ATOM     10  O   UNL     1      -8.280   6.048  -8.261  1.00  0.00    -0.545 OA
ATOM     11  O   UNL     1      -6.115   6.215  -8.980  1.00  0.00    -0.545 OA
ENDBRANCH   8   9
ENDBRANCH   1   7
BRANCH   4  12
ATOM     12  O   UNL     1      -8.561  -1.117  -5.454  1.00  0.00    -0.504 OA
ATOM     13  H   UNL     1      -9.515  -0.924  -5.169  1.00  0.00     0.293 HD
ENDBRANCH   4  12
BRANCH   6  14
ATOM     14  O   UNL     1      -7.103  -2.419  -7.491  1.00  0.00    -0.504 OA
ATOM     15  H   UNL     1      -6.929  -2.930  -8.349  1.00  0.00     0.293 HD
ENDBRANCH   6  14
TORSDOF 4
ENDMDL
MODEL 2
REMARK VINA RESULT:    -4.333      1.907      5.815
REMARK INTER + INTRA:          -5.244
REMARK INTER:                  -5.100
REMARK INTRA:                  -0.144
REMARK UNBOUND:                -0.151
REMARK SMILES O=C([O-])C=Cc1ccc(O)c(O)c1
REMARK SMILES IDX 6 1 13 2 7 3 11 4 8 5 9 6 5 7 4 8 2 9 1 10 3 11 12 12 10 14
REMARK H PARENT 12 13 10 15
REMARK Flexibility Score: inf
ROOT
ATOM      1  C   UNL     1      -7.551   0.483  -7.393  1.00  0.00    -0.022 A 
ATOM      2  C   UNL     1      -8.150   1.177  -6.322  1.00  0.00     0.058 A 
ATOM      3  C   UNL     1      -6.893   1.219  -8.392  1.00  0.00     0.012 A 
ATOM      4  C   UNL     1      -8.109   2.578  -6.267  1.00  0.00     0.157 A 
ATOM      5  C   UNL     1      -6.852   2.615  -8.339  1.00  0.00     0.051 A 
ATOM      6  C   UNL     1      -7.460   3.299  -7.283  1.00  0.00     0.157 A 
ENDROOT
BRANCH   1   7
ATOM      7  C   UNL     1      -7.558  -0.997  -7.489  1.00  0.00     0.010 C 
ATOM      8  C   UNL     1      -7.414  -1.669  -8.641  1.00  0.00     0.025 C 
BRANCH   8   9
ATOM      9  C   UNL     1      -7.413  -3.140  -8.697  1.00  0.00     0.064 C 
ATOM     10  O   UNL     1      -6.374  -3.803  -8.434  1.00  0.00    -0.545 OA
ATOM     11  O   UNL     1      -8.579  -3.810  -9.043  1.00  0.00    -0.545 OA
ENDBRANCH   8   9
ENDBRANCH   1   7
BRANCH   4  12
ATOM     12  O   UNL     1      -8.705   3.256  -5.205  1.00  0.00    -0.504 OA
ATOM     13  H   UNL     1      -9.671   3.563  -5.246  1.00  0.00     0.293 HD
ENDBRANCH   4  12
BRANCH   6  14
ATOM     14  O   UNL     1      -7.406   4.693  -7.259  1.00  0.00    -0.504 OA
ATOM     15  H   UNL     1      -6.547   5.201  -7.432  1.00  0.00     0.293 HD
ENDBRANCH   6  14
TORSDOF 4
ENDMDL
MODEL 3
REMARK VINA RESULT:    -4.299      2.057      6.111
REMARK INTER + INTRA:          -5.204
REMARK INTER:                  -5.082
REMARK INTRA:                  -0.123
REMARK UNBOUND:                -0.151
REMARK SMILES O=C([O-])C=Cc1ccc(O)c(O)c1
REMARK SMILES IDX 6 1 13 2 7 3 11 4 8 5 9 6 5 7 4 8 2 9 1 10 3 11 12 12 10 14
REMARK H PARENT 12 13 10 15
REMARK Flexibility Score: inf
ROOT
ATOM      1  C   UNL     1      -7.230   0.265  -7.586  1.00  0.00    -0.022 A 
ATOM      2  C   UNL     1      -6.961   1.091  -8.696  1.00  0.00     0.058 A 
ATOM      3  C   UNL     1      -7.529   0.866  -6.352  1.00  0.00     0.012 A 
ATOM      4  C   UNL     1      -6.969   2.487  -8.565  1.00  0.00     0.157 A 
ATOM      5  C   UNL     1      -7.535   2.257  -6.221  1.00  0.00     0.051 A 
ATOM      6  C   UNL     1      -7.254   3.072  -7.320  1.00  0.00     0.157 A 
ENDROOT
BRANCH   1   7
ATOM      7  C   UNL     1      -7.245  -1.216  -7.676  1.00  0.00     0.010 C 
ATOM      8  C   UNL     1      -7.387  -1.890  -8.826  1.00  0.00     0.025 C 
BRANCH   8   9
ATOM      9  C   UNL     1      -7.385  -3.362  -8.879  1.00  0.00     0.064 C 
ATOM     10  O   UNL     1      -8.392  -4.001  -9.284  1.00  0.00    -0.545 OA
ATOM     11  O   UNL     1      -6.252  -4.057  -8.478  1.00  0.00    -0.545 OA
ENDBRANCH   8   9
ENDBRANCH   1   7
BRANCH   4  12
ATOM     12  O   UNL     1      -6.699   3.296  -9.669  1.00  0.00    -0.504 OA
ATOM     13  H   UNL     1      -5.755   3.422 -10.017  1.00  0.00     0.293 HD
ENDBRANCH   4  12
BRANCH   6  14
ATOM     14  O   UNL     1      -7.264   4.457  -7.158  1.00  0.00    -0.504 OA
ATOM     15  H   UNL     1      -6.646   4.928  -6.508  1.00  0.00     0.293 HD
ENDBRANCH   6  14
TORSDOF 4
ENDMDL
MODEL 4
REMARK VINA RESULT:    -4.105     14.488     16.154
REMARK INTER + INTRA:          -4.976
REMARK INTER:                  -4.852
REMARK INTRA:                  -0.124
REMARK UNBOUND:                -0.151
REMARK SMILES O=C([O-])C=Cc1ccc(O)c(O)c1
REMARK SMILES IDX 6 1 13 2 7 3 11 4 8 5 9 6 5 7 4 8 2 9 1 10 3 11 12 12 10 14
REMARK H PARENT 12 13 10 15
REMARK Flexibility Score: inf
ROOT
ATOM      1  C   UNL     1       6.376  -6.490  -7.782  1.00  0.00    -0.022 A 
ATOM      2  C   UNL     1       5.522  -5.537  -7.191  1.00  0.00     0.058 A 
ATOM      3  C   UNL     1       6.075  -7.854  -7.632  1.00  0.00     0.012 A 
ATOM      4  C   UNL     1       4.405  -5.944  -6.446  1.00  0.00     0.157 A 
ATOM      5  C   UNL     1       4.963  -8.260  -6.889  1.00  0.00     0.051 A 
ATOM      6  C   UNL     1       4.128  -7.312  -6.293  1.00  0.00     0.157 A 
ENDROOT
BRANCH   1   7
ATOM      7  C   UNL     1       7.563  -6.110  -8.588  1.00  0.00     0.010 C 
ATOM      8  C   UNL     1       8.160  -4.912  -8.513  1.00  0.00     0.025 C 
BRANCH   8   9
ATOM      9  C   UNL     1       9.345  -4.574  -9.320  1.00  0.00     0.064 C 
ATOM     10  O   UNL     1      10.054  -5.473  -9.847  1.00  0.00    -0.545 OA
ATOM     11  O   UNL     1       9.685  -3.241  -9.506  1.00  0.00    -0.545 OA
ENDBRANCH   8   9
ENDBRANCH   1   7
BRANCH   4  12
ATOM     12  O   UNL     1       3.567  -4.994  -5.864  1.00  0.00    -0.504 OA
ATOM     13  H   UNL     1       3.279  -5.064  -4.894  1.00  0.00     0.293 HD
ENDBRANCH   4  12
BRANCH   6  14
ATOM     14  O   UNL     1       3.027  -7.748  -5.555  1.00  0.00    -0.504 OA
ATOM     15  H   UNL     1       2.538  -8.607  -5.774  1.00  0.00     0.293 HD
ENDBRANCH   6  14
TORSDOF 4
ENDMDL
MODEL 5
REMARK VINA RESULT:    -3.926     21.463     22.172
REMARK INTER + INTRA:          -4.766
REMARK INTER:                  -4.621
REMARK INTRA:                  -0.145
REMARK UNBOUND:                -0.151
REMARK SMILES O=C([O-])C=Cc1ccc(O)c(O)c1
REMARK SMILES IDX 6 1 13 2 7 3 11 4 8 5 9 6 5 7 4 8 2 9 1 10 3 11 12 12 10 14
REMARK H PARENT 12 13 10 15
REMARK Flexibility Score: inf
ROOT
ATOM      1  C   UNL     1       8.634  -1.636   7.033  1.00  0.00    -0.022 A 
ATOM      2  C   UNL     1       8.790  -1.733   5.636  1.00  0.00     0.058 A 
ATOM      3  C   UNL     1       8.432  -2.812   7.775  1.00  0.00     0.012 A 
ATOM      4  C   UNL     1       8.722  -2.979   4.995  1.00  0.00     0.157 A 
ATOM      5  C   UNL     1       8.362  -4.053   7.137  1.00  0.00     0.051 A 
ATOM      6  C   UNL     1       8.503  -4.143   5.750  1.00  0.00     0.157 A 
ENDROOT
BRANCH   1   7
ATOM      7  C   UNL     1       8.710  -0.344   7.759  1.00  0.00     0.010 C 
ATOM      8  C   UNL     1       8.008  -0.070   8.867  1.00  0.00     0.025 C 
BRANCH   8   9
ATOM      9  C   UNL     1       8.118   1.220   9.568  1.00  0.00     0.064 C 
ATOM     10  O   UNL     1       9.240   1.692   9.893  1.00  0.00    -0.545 OA
ATOM     11  O   UNL     1       6.965   1.931   9.873  1.00  0.00    -0.545 OA
ENDBRANCH   8   9
ENDBRANCH   1   7
BRANCH   4  12
ATOM     12  O   UNL     1       8.875  -3.064   3.612  1.00  0.00    -0.504 OA
ATOM     13  H   UNL     1       8.105  -2.879   2.979  1.00  0.00     0.293 HD
ENDBRANCH   4  12
BRANCH   6  14
ATOM     14  O   UNL     1       8.425  -5.395   5.140  1.00  0.00    -0.504 OA
ATOM     15  H   UNL     1       7.670  -6.042   5.333  1.00  0.00     0.293 HD
ENDBRANCH   6  14
TORSDOF 4
ENDMDL
MODEL 6
REMARK VINA RESULT:    -3.922     14.776     15.443
REMARK INTER + INTRA:          -4.761
REMARK INTER:                  -4.635
REMARK INTRA:                  -0.125
REMARK UNBOUND:                -0.151
REMARK SMILES O=C([O-])C=Cc1ccc(O)c(O)c1
REMARK SMILES IDX 6 1 13 2 7 3 11 4 8 5 9 6 5 7 4 8 2 9 1 10 3 11 12 12 10 14
REMARK H PARENT 12 13 10 15
REMARK Flexibility Score: inf
ROOT
ATOM      1  C   UNL     1      -9.013   5.218   6.895  1.00  0.00    -0.022 A 
ATOM      2  C   UNL     1      -8.119   5.179   7.984  1.00  0.00     0.058 A 
ATOM      3  C   UNL     1      -9.629   4.024   6.483  1.00  0.00     0.012 A 
ATOM      4  C   UNL     1      -7.831   3.968   8.629  1.00  0.00     0.157 A 
ATOM      5  C   UNL     1      -9.342   2.817   7.124  1.00  0.00     0.051 A 
ATOM      6  C   UNL     1      -8.443   2.781   8.194  1.00  0.00     0.157 A 
ENDROOT
BRANCH   1   7
ATOM      7  C   UNL     1      -9.358   6.475   6.188  1.00  0.00     0.010 C 
ATOM      8  C   UNL     1      -8.894   7.681   6.544  1.00  0.00     0.025 C 
BRANCH   8   9
ATOM      9  C   UNL     1      -9.249   8.908   5.810  1.00  0.00     0.064 C 
ATOM     10  O   UNL     1     -10.124   8.896   4.904  1.00  0.00    -0.545 OA
ATOM     11  O   UNL     1      -8.610  10.100   6.125  1.00  0.00    -0.545 OA
ENDBRANCH   8   9
ENDBRANCH   1   7
BRANCH   4  12
ATOM     12  O   UNL     1      -6.944   3.940   9.704  1.00  0.00    -0.504 OA
ATOM     13  H   UNL     1      -6.978   4.638  10.439  1.00  0.00     0.293 HD
ENDBRANCH   4  12
BRANCH   6  14
ATOM     14  O   UNL     1      -8.174   1.560   8.812  1.00  0.00    -0.504 OA
ATOM     15  H   UNL     1      -7.238   1.297   9.098  1.00  0.00     0.293 HD
ENDBRANCH   6  14
TORSDOF 4
ENDMDL
MODEL 7
REMARK VINA RESULT:    -3.855     14.945     15.801
REMARK INTER + INTRA:          -4.682
REMARK INTER:                  -4.550
REMARK INTRA:                  -0.132
REMARK UNBOUND:                -0.151
REMARK SMILES O=C([O-])C=Cc1ccc(O)c(O)c1
REMARK SMILES IDX 6 1 13 2 7 3 11 4 8 5 9 6 5 7 4 8 2 9 1 10 3 11 12 12 10 14
REMARK H PARENT 12 13 10 15
REMARK Flexibility Score: inf
ROOT
ATOM      1  C   UNL     1      -8.477   4.470   7.603  1.00  0.00    -0.022 A 
ATOM      2  C   UNL     1      -9.165   3.275   7.314  1.00  0.00     0.058 A 
ATOM      3  C   UNL     1      -7.635   4.512   8.726  1.00  0.00     0.012 A 
ATOM      4  C   UNL     1      -9.031   2.155   8.146  1.00  0.00     0.157 A 
ATOM      5  C   UNL     1      -7.502   3.397   9.558  1.00  0.00     0.051 A 
ATOM      6  C   UNL     1      -8.198   2.218   9.276  1.00  0.00     0.157 A 
ENDROOT
BRANCH   1   7
ATOM      7  C   UNL     1      -8.577   5.678   6.746  1.00  0.00     0.010 C 
ATOM      8  C   UNL     1      -9.124   6.833   7.150  1.00  0.00     0.025 C 
BRANCH   8   9
ATOM      9  C   UNL     1      -9.196   8.016   6.275  1.00  0.00     0.064 C 
ATOM     10  O   UNL     1      -9.766   7.964   5.153  1.00  0.00    -0.545 OA
ATOM     11  O   UNL     1      -8.627   9.211   6.696  1.00  0.00    -0.545 OA
ENDBRANCH   8   9
ENDBRANCH   1   7
BRANCH   4  12
ATOM     12  O   UNL     1      -9.718   0.977   7.854  1.00  0.00    -0.504 OA
ATOM     13  H   UNL     1     -10.323   0.532   8.535  1.00  0.00     0.293 HD
ENDBRANCH   4  12
BRANCH   6  14
ATOM     14  O   UNL     1      -8.047   1.123  10.125  1.00  0.00    -0.504 OA
ATOM     15  H   UNL     1      -8.790   0.449  10.271  1.00  0.00     0.293 HD
ENDBRANCH   6  14
TORSDOF 4
ENDMDL
MODEL 8
REMARK VINA RESULT:    -3.658      2.091      2.796
REMARK INTER + INTRA:          -4.451
REMARK INTER:                  -4.328
REMARK INTRA:                  -0.122
REMARK UNBOUND:                -0.151
REMARK SMILES O=C([O-])C=Cc1ccc(O)c(O)c1
REMARK SMILES IDX 6 1 13 2 7 3 11 4 8 5 9 6 5 7 4 8 2 9 1 10 3 11 12 12 10 14
REMARK H PARENT 12 13 10 15
REMARK Flexibility Score: inf
ROOT
ATOM      1  C   UNL     1      -8.181   0.638  -6.987  1.00  0.00    -0.022 A 
ATOM      2  C   UNL     1      -7.183   0.465  -7.967  1.00  0.00     0.058 A 
ATOM      3  C   UNL     1      -8.707  -0.497  -6.350  1.00  0.00     0.012 A 
ATOM      4  C   UNL     1      -6.742  -0.820  -8.317  1.00  0.00     0.157 A 
ATOM      5  C   UNL     1      -8.269  -1.777  -6.699  1.00  0.00     0.051 A 
ATOM      6  C   UNL     1      -7.291  -1.945  -7.681  1.00  0.00     0.157 A 
ENDROOT
BRANCH   1   7
ATOM      7  C   UNL     1      -8.672   1.976  -6.574  1.00  0.00     0.010 C 
ATOM      8  C   UNL     1      -9.153   2.889  -7.430  1.00  0.00     0.025 C 
BRANCH   8   9
ATOM      9  C   UNL     1      -9.644   4.203  -6.983  1.00  0.00     0.064 C 
ATOM     10  O   UNL     1     -10.087   4.371  -5.815  1.00  0.00    -0.545 OA
ATOM     11  O   UNL     1      -9.616   5.277  -7.862  1.00  0.00    -0.545 OA
ENDBRANCH   8   9
ENDBRANCH   1   7
BRANCH   4  12
ATOM     12  O   UNL     1      -5.756  -0.981  -9.290  1.00  0.00    -0.504 OA
ATOM     13  H   UNL     1      -5.991  -1.116 -10.267  1.00  0.00     0.293 HD
ENDBRANCH   4  12
BRANCH   6  14
ATOM     14  O   UNL     1      -6.876  -3.235  -8.011  1.00  0.00    -0.504 OA
ATOM     15  H   UNL     1      -6.604  -3.910  -7.305  1.00  0.00     0.293 HD
ENDBRANCH   6  14
TORSDOF 4
ENDMDL
MODEL 9
REMARK VINA RESULT:    -3.631     21.139     22.774
REMARK INTER + INTRA:          -4.419
REMARK INTER:                  -4.296
REMARK INTRA:                  -0.123
REMARK UNBOUND:                -0.151
REMARK SMILES O=C([O-])C=Cc1ccc(O)c(O)c1
REMARK SMILES IDX 6 1 13 2 7 3 11 4 8 5 9 6 5 7 4 8 2 9 1 10 3 11 12 12 10 14
REMARK H PARENT 12 13 10 15
REMARK Flexibility Score: inf
ROOT
ATOM      1  C   UNL     1       8.158  -4.665   6.945  1.00  0.00    -0.022 A 
ATOM      2  C   UNL     1       8.420  -4.490   5.571  1.00  0.00     0.058 A 
ATOM      3  C   UNL     1       8.052  -3.528   7.764  1.00  0.00     0.012 A 
ATOM      4  C   UNL     1       8.595  -3.206   5.036  1.00  0.00     0.157 A 
ATOM      5  C   UNL     1       8.227  -2.249   7.231  1.00  0.00     0.051 A 
ATOM      6  C   UNL     1       8.501  -2.081   5.871  1.00  0.00     0.157 A 
ENDROOT
BRANCH   1   7
ATOM      7  C   UNL     1       7.954  -6.001   7.557  1.00  0.00     0.010 C 
ATOM      8  C   UNL     1       7.321  -7.012   6.944  1.00  0.00     0.025 C 
BRANCH   8   9
ATOM      9  C   UNL     1       7.148  -8.329   7.578  1.00  0.00     0.064 C 
ATOM     10  O   UNL     1       8.093  -8.884   8.200  1.00  0.00    -0.545 OA
ATOM     11  O   UNL     1       5.920  -8.972   7.490  1.00  0.00    -0.545 OA
ENDBRANCH   8   9
ENDBRANCH   1   7
BRANCH   4  12
ATOM     12  O   UNL     1       8.855  -3.043   3.676  1.00  0.00    -0.504 OA
ATOM     13  H   UNL     1       8.140  -2.721   3.033  1.00  0.00     0.293 HD
ENDBRANCH   4  12
BRANCH   6  14
ATOM     14  O   UNL     1       8.675  -0.792   5.369  1.00  0.00    -0.504 OA
ATOM     15  H   UNL     1       8.056  -0.029   5.618  1.00  0.00     0.293 HD
ENDBRANCH   6  14
TORSDOF 4
ENDMDL
