MODEL 1
REMARK VINA RESULT:    -2.027      0.000      0.000
REMARK INTER + INTRA:          -4.486
REMARK INTER:                  -3.568
REMARK INTRA:                  -0.919
REMARK UNBOUND:                -0.919
REMARK SMILES CCCCCCCCCCCCCCC(=O)[O-]
REMARK SMILES IDX 9 1 10 2 11 3 12 4 13 5 14 6 15 7 16 8 17 9 8 10 7 11 6 12
REMARK SMILES IDX 5 13 4 14 3 15 2 16 1 17
REMARK H PARENT
REMARK Flexibility Score: inf
ROOT
ATOM      1  C   UNL     1       3.454  42.763  10.324  1.00  0.00     0.000 C 
ENDROOT
BRANCH   1   2
ATOM      2  C   UNL     1       2.427  43.868  10.614  1.00  0.00     0.000 C 
BRANCH   2   3
ATOM      3  C   UNL     1       2.087  43.991  12.109  1.00  0.00     0.000 C 
BRANCH   3   4
ATOM      4  C   UNL     1       0.585  43.901  12.448  1.00  0.00     0.000 C 
BRANCH   4   5
ATOM      5  C   UNL     1       0.229  44.168  13.924  1.00  0.00     0.006 C 
BRANCH   5   6
ATOM      6  C   UNL     1      -0.955  45.125  14.128  1.00  0.00     0.053 C 
BRANCH   6   7
ATOM      7  C   UNL     1      -2.154  44.420  14.683  1.00  0.00     0.041 C 
ATOM      8  O   UNL     1      -3.018  45.059  15.340  1.00  0.00    -0.550 OA
ATOM      9  O   UNL     1      -2.299  43.050  14.507  1.00  0.00    -0.550 OA
ENDBRANCH   6   7
ENDBRANCH   5   6
ENDBRANCH   4   5
ENDBRANCH   3   4
ENDBRANCH   2   3
ENDBRANCH   1   2
BRANCH   1  10
ATOM     10  C   UNL     1       4.806  43.364   9.914  1.00  0.00     0.000 C 
BRANCH  10  11
ATOM     11  C   UNL     1       4.953  44.834  10.336  1.00  0.00    -0.000 C 
BRANCH  11  12
ATOM     12  C   UNL     1       6.303  45.122  11.016  1.00  0.00    -0.000 C 
BRANCH  12  13
ATOM     13  C   UNL     1       7.486  44.447  10.300  1.00  0.00    -0.000 C 
BRANCH  13  14
ATOM     14  C   UNL     1       8.416  43.665  11.252  1.00  0.00    -0.000 C 
BRANCH  14  15
ATOM     15  C   UNL     1       7.932  42.222  11.480  1.00  0.00    -0.000 C 
BRANCH  15  16
ATOM     16  C   UNL     1       7.644  41.922  12.959  1.00  0.00    -0.003 C 
ATOM     17  C   UNL     1       6.514  42.780  13.527  1.00  0.00     0.004 C 
ENDBRANCH  15  16
ENDBRANCH  14  15
ENDBRANCH  13  14
ENDBRANCH  12  13
ENDBRANCH  11  12
ENDBRANCH  10  11
ENDBRANCH   1  10
TORSDOF 13
ENDMDL
MODEL 2
REMARK VINA RESULT:    -1.685      4.023      7.703
REMARK INTER + INTRA:          -3.885
REMARK INTER:                  -3.003
REMARK INTRA:                  -0.881
REMARK UNBOUND:                -0.919
REMARK SMILES CCCCCCCCCCCCCCC(=O)[O-]
REMARK SMILES IDX 9 1 10 2 11 3 12 4 13 5 14 6 15 7 16 8 17 9 8 10 7 11 6 12
REMARK SMILES IDX 5 13 4 14 3 15 2 16 1 17
REMARK H PARENT
REMARK Flexibility Score: inf
ROOT
ATOM      1  C   UNL     1       3.820  43.079  10.028  1.00  0.00     0.000 C 
ENDROOT
BRANCH   1   2
ATOM      2  C   UNL     1       5.061  43.981   9.970  1.00  0.00     0.000 C 
BRANCH   2   3
ATOM      3  C   UNL     1       5.018  45.125  10.998  1.00  0.00     0.000 C 
BRANCH   3   4
ATOM      4  C   UNL     1       5.769  44.847  12.316  1.00  0.00     0.000 C 
BRANCH   4   5
ATOM      5  C   UNL     1       5.929  43.357  12.677  1.00  0.00     0.006 C 
BRANCH   5   6
ATOM      6  C   UNL     1       7.384  42.867  12.722  1.00  0.00     0.053 C 
BRANCH   6   7
ATOM      7  C   UNL     1       7.898  42.516  11.359  1.00  0.00     0.041 C 
ATOM      8  O   UNL     1       8.663  43.307  10.747  1.00  0.00    -0.550 OA
ATOM      9  O   UNL     1       7.502  41.332  10.751  1.00  0.00    -0.550 OA
ENDBRANCH   6   7
ENDBRANCH   5   6
ENDBRANCH   4   5
ENDBRANCH   3   4
ENDBRANCH   2   3
ENDBRANCH   1   2
BRANCH   1  10
ATOM     10  C   UNL     1       2.559  43.898  10.339  1.00  0.00     0.000 C 
BRANCH  10  11
ATOM     11  C   UNL     1       1.267  43.081  10.178  1.00  0.00    -0.000 C 
BRANCH  11  12
ATOM     12  C   UNL     1       0.601  42.757  11.526  1.00  0.00    -0.000 C 
BRANCH  12  13
ATOM     13  C   UNL     1       1.003  43.739  12.640  1.00  0.00    -0.000 C 
BRANCH  13  14
ATOM     14  C   UNL     1      -0.178  44.576  13.178  1.00  0.00    -0.000 C 
BRANCH  14  15
ATOM     15  C   UNL     1      -0.640  44.102  14.567  1.00  0.00    -0.000 C 
BRANCH  15  16
ATOM     16  C   UNL     1      -2.165  43.943  14.661  1.00  0.00    -0.003 C 
ATOM     17  C   UNL     1      -2.609  42.481  14.642  1.00  0.00     0.004 C 
ENDBRANCH  15  16
ENDBRANCH  14  15
ENDBRANCH  13  14
ENDBRANCH  12  13
ENDBRANCH  11  12
ENDBRANCH  10  11
ENDBRANCH   1  10
TORSDOF 13
ENDMDL
MODEL 3
REMARK VINA RESULT:    -1.684      3.222      7.635
REMARK INTER + INTRA:          -3.883
REMARK INTER:                  -3.371
REMARK INTRA:                  -0.512
REMARK UNBOUND:                -0.919
REMARK SMILES CCCCCCCCCCCCCCC(=O)[O-]
REMARK SMILES IDX 9 1 10 2 11 3 12 4 13 5 14 6 15 7 16 8 17 9 8 10 7 11 6 12
REMARK SMILES IDX 5 13 4 14 3 15 2 16 1 17
REMARK H PARENT
REMARK Flexibility Score: inf
ROOT
ATOM      1  C   UNL     1       3.938  44.009  10.648  1.00  0.00     0.000 C 
ENDROOT
BRANCH   1   2
ATOM      2  C   UNL     1       5.264  43.836   9.891  1.00  0.00     0.000 C 
BRANCH   2   3
ATOM      3  C   UNL     1       6.239  45.004  10.119  1.00  0.00     0.000 C 
BRANCH   3   4
ATOM      4  C   UNL     1       7.730  44.612  10.151  1.00  0.00     0.000 C 
BRANCH   4   5
ATOM      5  C   UNL     1       8.212  43.972  11.469  1.00  0.00     0.006 C 
BRANCH   5   6
ATOM      6  C   UNL     1       7.567  42.615  11.788  1.00  0.00     0.053 C 
BRANCH   6   7
ATOM      7  C   UNL     1       6.937  42.601  13.147  1.00  0.00     0.041 C 
ATOM      8  O   UNL     1       7.403  41.861  14.054  1.00  0.00    -0.550 OA
ATOM      9  O   UNL     1       5.815  43.378  13.401  1.00  0.00    -0.550 OA
ENDBRANCH   6   7
ENDBRANCH   5   6
ENDBRANCH   4   5
ENDBRANCH   3   4
ENDBRANCH   2   3
ENDBRANCH   1   2
BRANCH   1  10
ATOM     10  C   UNL     1       2.777  43.367   9.875  1.00  0.00     0.000 C 
BRANCH  10  11
ATOM     11  C   UNL     1       1.546  43.113  10.760  1.00  0.00    -0.000 C 
BRANCH  11  12
ATOM     12  C   UNL     1       1.584  43.917  12.070  1.00  0.00    -0.000 C 
BRANCH  12  13
ATOM     13  C   UNL     1       0.362  43.653  12.967  1.00  0.00    -0.000 C 
BRANCH  13  14
ATOM     14  C   UNL     1      -0.070  44.882  13.797  1.00  0.00    -0.000 C 
BRANCH  14  15
ATOM     15  C   UNL     1      -1.301  44.588  14.671  1.00  0.00    -0.000 C 
BRANCH  15  16
ATOM     16  C   UNL     1      -1.711  43.108  14.635  1.00  0.00    -0.003 C 
ATOM     17  C   UNL     1      -3.220  42.908  14.771  1.00  0.00     0.004 C 
ENDBRANCH  15  16
ENDBRANCH  14  15
ENDBRANCH  13  14
ENDBRANCH  12  13
ENDBRANCH  11  12
ENDBRANCH  10  11
ENDBRANCH   1  10
TORSDOF 13
ENDMDL
MODEL 4
REMARK VINA RESULT:    -1.296      0.961      1.788
REMARK INTER + INTRA:          -3.200
REMARK INTER:                  -2.762
REMARK INTRA:                  -0.438
REMARK UNBOUND:                -0.919
REMARK SMILES CCCCCCCCCCCCCCC(=O)[O-]
REMARK SMILES IDX 9 1 10 2 11 3 12 4 13 5 14 6 15 7 16 8 17 9 8 10 7 11 6 12
REMARK SMILES IDX 5 13 4 14 3 15 2 16 1 17
REMARK H PARENT
REMARK Flexibility Score: inf
ROOT
ATOM      1  C   UNL     1       1.904  43.232   9.876  1.00  0.00     0.000 C 
ENDROOT
BRANCH   1   2
ATOM      2  C   UNL     1       1.324  43.110  11.293  1.00  0.00     0.000 C 
BRANCH   2   3
ATOM      3  C   UNL     1       2.052  43.999  12.316  1.00  0.00     0.000 C 
BRANCH   3   4
ATOM      4  C   UNL     1       1.137  44.710  13.332  1.00  0.00     0.000 C 
BRANCH   4   5
ATOM      5  C   UNL     1      -0.315  44.192  13.381  1.00  0.00     0.006 C 
BRANCH   5   6
ATOM      6  C   UNL     1      -1.166  44.792  14.511  1.00  0.00     0.053 C 
BRANCH   6   7
ATOM      7  C   UNL     1      -2.340  43.925  14.847  1.00  0.00     0.041 C 
ATOM      8  O   UNL     1      -2.357  42.716  14.493  1.00  0.00    -0.550 OA
ATOM      9  O   UNL     1      -3.430  44.461  15.519  1.00  0.00    -0.550 OA
ENDBRANCH   6   7
ENDBRANCH   5   6
ENDBRANCH   4   5
ENDBRANCH   3   4
ENDBRANCH   2   3
ENDBRANCH   1   2
BRANCH   1  10
ATOM     10  C   UNL     1       3.427  43.039   9.887  1.00  0.00     0.000 C 
BRANCH  10  11
ATOM     11  C   UNL     1       4.192  44.372   9.884  1.00  0.00    -0.000 C 
BRANCH  11  12
ATOM     12  C   UNL     1       5.644  44.221  10.369  1.00  0.00    -0.000 C 
BRANCH  12  13
ATOM     13  C   UNL     1       5.838  44.686  11.823  1.00  0.00    -0.000 C 
BRANCH  13  14
ATOM     14  C   UNL     1       5.563  43.581  12.865  1.00  0.00    -0.000 C 
BRANCH  14  15
ATOM     15  C   UNL     1       6.830  42.778  13.208  1.00  0.00    -0.000 C 
BRANCH  15  16
ATOM     16  C   UNL     1       7.886  42.837  12.094  1.00  0.00    -0.003 C 
ATOM     17  C   UNL     1       7.883  41.590  11.210  1.00  0.00     0.004 C 
ENDBRANCH  15  16
ENDBRANCH  14  15
ENDBRANCH  13  14
ENDBRANCH  12  13
ENDBRANCH  11  12
ENDBRANCH  10  11
ENDBRANCH   1  10
TORSDOF 13
ENDMDL
MODEL 5
REMARK VINA RESULT:    -1.111      1.172      2.132
REMARK INTER + INTRA:          -2.875
REMARK INTER:                  -2.042
REMARK INTRA:                  -0.832
REMARK UNBOUND:                -0.919
REMARK SMILES CCCCCCCCCCCCCCC(=O)[O-]
REMARK SMILES IDX 9 1 10 2 11 3 12 4 13 5 14 6 15 7 16 8 17 9 8 10 7 11 6 12
REMARK SMILES IDX 5 13 4 14 3 15 2 16 1 17
REMARK H PARENT
REMARK Flexibility Score: inf
ROOT
ATOM      1  C   UNL     1       4.797  45.102  10.059  1.00  0.00     0.000 C 
ENDROOT
BRANCH   1   2
ATOM      2  C   UNL     1       3.386  44.838  10.607  1.00  0.00     0.000 C 
BRANCH   2   3
ATOM      3  C   UNL     1       2.739  43.576  10.009  1.00  0.00     0.000 C 
BRANCH   3   4
ATOM      4  C   UNL     1       1.772  42.830  10.950  1.00  0.00     0.000 C 
BRANCH   4   5
ATOM      5  C   UNL     1       1.242  43.659  12.137  1.00  0.00     0.006 C 
BRANCH   5   6
ATOM      6  C   UNL     1      -0.165  43.263  12.610  1.00  0.00     0.053 C 
BRANCH   6   7
ATOM      7  C   UNL     1      -0.593  44.050  13.810  1.00  0.00     0.041 C 
ATOM      8  O   UNL     1       0.023  45.100  14.133  1.00  0.00    -0.550 OA
ATOM      9  O   UNL     1      -1.650  43.605  14.593  1.00  0.00    -0.550 OA
ENDBRANCH   6   7
ENDBRANCH   5   6
ENDBRANCH   4   5
ENDBRANCH   3   4
ENDBRANCH   2   3
ENDBRANCH   1   2
BRANCH   1  10
ATOM     10  C   UNL     1       5.835  45.101  11.190  1.00  0.00     0.000 C 
BRANCH  10  11
ATOM     11  C   UNL     1       7.277  44.999  10.670  1.00  0.00    -0.000 C 
BRANCH  11  12
ATOM     12  C   UNL     1       7.550  43.671   9.943  1.00  0.00    -0.000 C 
BRANCH  12  13
ATOM     13  C   UNL     1       6.910  42.463  10.648  1.00  0.00    -0.000 C 
BRANCH  13  14
ATOM     14  C   UNL     1       7.836  41.797  11.690  1.00  0.00    -0.000 C 
BRANCH  14  15
ATOM     15  C   UNL     1       7.663  42.406  13.092  1.00  0.00    -0.000 C 
BRANCH  15  16
ATOM     16  C   UNL     1       6.191  42.671  13.444  1.00  0.00    -0.003 C 
ATOM     17  C   UNL     1       5.847  42.281  14.881  1.00  0.00     0.004 C 
ENDBRANCH  15  16
ENDBRANCH  14  15
ENDBRANCH  13  14
ENDBRANCH  12  13
ENDBRANCH  11  12
ENDBRANCH  10  11
ENDBRANCH   1  10
TORSDOF 13
ENDMDL
MODEL 6
REMARK VINA RESULT:    -1.004      1.223      1.689
REMARK INTER + INTRA:          -2.687
REMARK INTER:                  -2.165
REMARK INTRA:                  -0.522
REMARK UNBOUND:                -0.919
REMARK SMILES CCCCCCCCCCCCCCC(=O)[O-]
REMARK SMILES IDX 9 1 10 2 11 3 12 4 13 5 14 6 15 7 16 8 17 9 8 10 7 11 6 12
REMARK SMILES IDX 5 13 4 14 3 15 2 16 1 17
REMARK H PARENT
REMARK Flexibility Score: inf
ROOT
ATOM      1  C   UNL     1       1.806  43.243  10.561  1.00  0.00     0.000 C 
ENDROOT
BRANCH   1   2
ATOM      2  C   UNL     1       1.840  43.701  12.027  1.00  0.00     0.000 C 
BRANCH   2   3
ATOM      3  C   UNL     1       0.459  43.640  12.705  1.00  0.00     0.000 C 
BRANCH   3   4
ATOM      4  C   UNL     1       0.076  44.892  13.519  1.00  0.00     0.000 C 
BRANCH   4   5
ATOM      5  C   UNL     1      -0.729  44.616  14.805  1.00  0.00     0.006 C 
BRANCH   5   6
ATOM      6  C   UNL     1      -2.182  44.182  14.564  1.00  0.00     0.053 C 
BRANCH   6   7
ATOM      7  C   UNL     1      -2.376  42.717  14.809  1.00  0.00     0.041 C 
ATOM      8  O   UNL     1      -1.443  42.028  15.300  1.00  0.00    -0.550 OA
ATOM      9  O   UNL     1      -3.574  42.107  14.461  1.00  0.00    -0.550 OA
ENDBRANCH   6   7
ENDBRANCH   5   6
ENDBRANCH   4   5
ENDBRANCH   3   4
ENDBRANCH   2   3
ENDBRANCH   1   2
BRANCH   1  10
ATOM     10  C   UNL     1       3.210  43.281   9.942  1.00  0.00     0.000 C 
BRANCH  10  11
ATOM     11  C   UNL     1       3.951  44.595  10.234  1.00  0.00    -0.000 C 
BRANCH  11  12
ATOM     12  C   UNL     1       5.217  44.384  11.080  1.00  0.00    -0.000 C 
BRANCH  12  13
ATOM     13  C   UNL     1       6.424  43.922  10.244  1.00  0.00    -0.000 C 
BRANCH  13  14
ATOM     14  C   UNL     1       6.533  42.387  10.115  1.00  0.00    -0.000 C 
BRANCH  14  15
ATOM     15  C   UNL     1       7.674  41.813  10.973  1.00  0.00    -0.000 C 
BRANCH  15  16
ATOM     16  C   UNL     1       8.009  42.701  12.181  1.00  0.00    -0.003 C 
ATOM     17  C   UNL     1       7.293  42.258  13.457  1.00  0.00     0.004 C 
ENDBRANCH  15  16
ENDBRANCH  14  15
ENDBRANCH  13  14
ENDBRANCH  12  13
ENDBRANCH  11  12
ENDBRANCH  10  11
ENDBRANCH   1  10
TORSDOF 13
ENDMDL
MODEL 7
REMARK VINA RESULT:    -0.365      2.444      3.337
REMARK INTER + INTRA:          -1.561
REMARK INTER:                  -1.379
REMARK INTRA:                  -0.183
REMARK UNBOUND:                -0.919
REMARK SMILES CCCCCCCCCCCCCCC(=O)[O-]
REMARK SMILES IDX 9 1 10 2 11 3 12 4 13 5 14 6 15 7 16 8 17 9 8 10 7 11 6 12
REMARK SMILES IDX 5 13 4 14 3 15 2 16 1 17
REMARK H PARENT
REMARK Flexibility Score: inf
ROOT
ATOM      1  C   UNL     1       5.535  44.204  11.160  1.00  0.00     0.000 C 
ENDROOT
BRANCH   1   2
ATOM      2  C   UNL     1       4.911  44.769   9.876  1.00  0.00     0.000 C 
BRANCH   2   3
ATOM      3  C   UNL     1       3.393  44.991   9.997  1.00  0.00     0.000 C 
BRANCH   3   4
ATOM      4  C   UNL     1       2.811  44.772  11.408  1.00  0.00     0.000 C 
BRANCH   4   5
ATOM      5  C   UNL     1       2.185  43.384  11.650  1.00  0.00     0.006 C 
BRANCH   5   6
ATOM      6  C   UNL     1       1.334  42.858  10.484  1.00  0.00     0.053 C 
BRANCH   6   7
ATOM      7  C   UNL     1       0.126  42.114  10.964  1.00  0.00     0.041 C 
ATOM      8  O   UNL     1      -0.347  41.166  10.283  1.00  0.00    -0.550 OA
ATOM      9  O   UNL     1      -0.498  42.490  12.147  1.00  0.00    -0.550 OA
ENDBRANCH   6   7
ENDBRANCH   5   6
ENDBRANCH   4   5
ENDBRANCH   3   4
ENDBRANCH   2   3
ENDBRANCH   1   2
BRANCH   1  10
ATOM     10  C   UNL     1       6.650  45.124  11.680  1.00  0.00     0.000 C 
BRANCH  10  11
ATOM     11  C   UNL     1       8.026  44.779  11.090  1.00  0.00    -0.000 C 
BRANCH  11  12
ATOM     12  C   UNL     1       8.001  43.494  10.245  1.00  0.00    -0.000 C 
BRANCH  12  13
ATOM     13  C   UNL     1       8.478  42.258  11.028  1.00  0.00    -0.000 C 
BRANCH  13  14
ATOM     14  C   UNL     1       7.430  41.717  12.024  1.00  0.00    -0.000 C 
BRANCH  14  15
ATOM     15  C   UNL     1       7.789  42.052  13.482  1.00  0.00    -0.000 C 
BRANCH  15  16
ATOM     16  C   UNL     1       6.561  42.067  14.405  1.00  0.00    -0.003 C 
ATOM     17  C   UNL     1       5.481  43.041  13.935  1.00  0.00     0.004 C 
ENDBRANCH  15  16
ENDBRANCH  14  15
ENDBRANCH  13  14
ENDBRANCH  12  13
ENDBRANCH  11  12
ENDBRANCH  10  11
ENDBRANCH   1  10
TORSDOF 13
ENDMDL
MODEL 8
REMARK VINA RESULT:     0.145      4.026      7.178
REMARK INTER + INTRA:          -0.663
REMARK INTER:                  -0.215
REMARK INTRA:                  -0.448
REMARK UNBOUND:                -0.919
REMARK SMILES CCCCCCCCCCCCCCC(=O)[O-]
REMARK SMILES IDX 9 1 10 2 11 3 12 4 13 5 14 6 15 7 16 8 17 9 8 10 7 11 6 12
REMARK SMILES IDX 5 13 4 14 3 15 2 16 1 17
REMARK H PARENT
REMARK Flexibility Score: inf
ROOT
ATOM      1  C   UNL     1       5.051  42.628  13.572  1.00  0.00     0.000 C 
ENDROOT
BRANCH   1   2
ATOM      2  C   UNL     1       6.527  42.908  13.889  1.00  0.00     0.000 C 
BRANCH   2   3
ATOM      3  C   UNL     1       7.493  42.147  12.964  1.00  0.00     0.000 C 
BRANCH   3   4
ATOM      4  C   UNL     1       8.437  43.037  12.131  1.00  0.00     0.000 C 
BRANCH   4   5
ATOM      5  C   UNL     1       8.321  42.866  10.603  1.00  0.00     0.006 C 
BRANCH   5   6
ATOM      6  C   UNL     1       6.965  42.325  10.126  1.00  0.00     0.053 C 
BRANCH   6   7
ATOM      7  C   UNL     1       6.965  40.831  10.020  1.00  0.00     0.041 C 
ATOM      8  O   UNL     1       5.881  40.206   9.875  1.00  0.00    -0.550 OA
ATOM      9  O   UNL     1       8.158  40.127  10.119  1.00  0.00    -0.550 OA
ENDBRANCH   6   7
ENDBRANCH   5   6
ENDBRANCH   4   5
ENDBRANCH   3   4
ENDBRANCH   2   3
ENDBRANCH   1   2
BRANCH   1  10
ATOM     10  C   UNL     1       4.387  43.851  12.923  1.00  0.00     0.000 C 
BRANCH  10  11
ATOM     11  C   UNL     1       5.405  44.810  12.288  1.00  0.00    -0.000 C 
BRANCH  11  12
ATOM     12  C   UNL     1       5.129  45.062  10.796  1.00  0.00    -0.000 C 
BRANCH  12  13
ATOM     13  C   UNL     1       4.350  43.912  10.132  1.00  0.00    -0.000 C 
BRANCH  13  14
ATOM     14  C   UNL     1       2.820  44.028  10.297  1.00  0.00    -0.000 C 
BRANCH  14  15
ATOM     15  C   UNL     1       2.093  42.732   9.897  1.00  0.00    -0.000 C 
BRANCH  15  16
ATOM     16  C   UNL     1       0.705  42.609  10.544  1.00  0.00    -0.003 C 
ATOM     17  C   UNL     1       0.638  43.255  11.927  1.00  0.00     0.004 C 
ENDBRANCH  15  16
ENDBRANCH  14  15
ENDBRANCH  13  14
ENDBRANCH  12  13
ENDBRANCH  11  12
ENDBRANCH  10  11
ENDBRANCH   1  10
TORSDOF 13
ENDMDL
