MODEL 1
REMARK VINA RESULT:    -4.282      0.000      0.000
REMARK INTER + INTRA:          -4.922
REMARK INTER:                  -4.658
REMARK INTRA:                  -0.264
REMARK UNBOUND:                -0.264
REMARK SMILES CC1(C)CC[C@@]2(C(=O)[O-])CC[C@]3(C)C(=CC[C@@H]4[C@@]5(C)CC[C@@H](O)C(C)(C)[C@H]5CC[C@@]43C)[C@H]2C1
REMARK SMILES IDX 6 1 5 2 10 3 32 4 4 5 11 6 14 7 33 8 2 9 12 10 15 11 1 12
REMARK SMILES IDX 3 13 13 14 30 15 16 16 17 17 29 18 31 19 18 20 28 21 27 22
REMARK SMILES IDX 20 23 19 24 24 25 21 26 22 27 25 28 26 29 7 30 8 31 9 32
REMARK SMILES IDX 23 33
REMARK H PARENT 23 34
REMARK Flexibility Score: inf
ROOT
ATOM      1  C   UNL     1    -119.165  39.883   4.105  1.00  0.00     0.017 C 
ATOM      2  C   UNL     1    -118.242  39.997   2.857  1.00  0.00     0.014 C 
ATOM      3  C   UNL     1    -119.720  41.303   4.508  1.00  0.00     0.014 C 
ATOM      4  C   UNL     1    -120.318  38.855   3.829  1.00  0.00     0.028 C 
ATOM      5  C   UNL     1    -118.996  40.223   1.538  1.00  0.00     0.007 C 
ATOM      6  C   UNL     1    -121.217  41.373   4.870  1.00  0.00     0.013 C 
ATOM      7  C   UNL     1    -121.335  38.853   4.969  1.00  0.00    -0.064 C 
ATOM      8  C   UNL     1    -121.028  39.042   2.465  1.00  0.00     0.015 C 
ATOM      9  C   UNL     1    -120.061  39.136   1.260  1.00  0.00    -0.035 C 
ATOM     10  C   UNL     1    -121.751  40.136   5.678  1.00  0.00    -0.006 C 
ATOM     11  C   UNL     1    -121.881  37.696   5.374  1.00  0.00    -0.027 C 
ATOM     12  C   UNL     1    -120.869  39.549   0.009  1.00  0.00     0.011 C 
ATOM     13  C   UNL     1    -119.402  37.766   0.963  1.00  0.00     0.011 C 
ATOM     14  C   UNL     1    -121.034  40.179   7.076  1.00  0.00     0.017 C 
ATOM     15  C   UNL     1    -123.362  40.116   5.854  1.00  0.00    -0.020 C 
ATOM     16  C   UNL     1    -122.788  37.642   6.571  1.00  0.00     0.032 C 
ATOM     17  C   UNL     1    -123.842  38.819   6.660  1.00  0.00     0.006 C 
ATOM     18  C   UNL     1    -124.127  40.150   4.477  1.00  0.00     0.008 C 
ATOM     19  C   UNL     1    -123.745  41.413   6.648  1.00  0.00     0.012 C 
ATOM     20  C   UNL     1    -125.321  38.279   6.353  1.00  0.00    -0.025 C 
ATOM     21  C   UNL     1    -124.601  38.799   3.900  1.00  0.00     0.005 C 
ATOM     22  C   UNL     1    -125.400  37.828   4.845  1.00  0.00     0.003 C 
ATOM     23  C   UNL     1    -126.431  39.344   6.634  1.00  0.00     0.010 C 
ATOM     24  C   UNL     1    -125.582  37.089   7.348  1.00  0.00     0.012 C 
ATOM     25  C   UNL     1    -126.859  37.426   4.329  1.00  0.00    -0.006 C 
ATOM     26  C   UNL     1    -127.850  38.928   6.201  1.00  0.00     0.033 C 
ATOM     27  C   UNL     1    -127.934  38.494   4.723  1.00  0.00     0.120 C 
ATOM     28  C   UNL     1    -126.888  37.195   2.788  1.00  0.00     0.014 C 
ATOM     29  C   UNL     1    -127.289  36.051   4.925  1.00  0.00     0.014 C 
ENDROOT
BRANCH   1  30
ATOM     30  C   UNL     1    -118.266  39.362   5.230  1.00  0.00     0.048 C 
ATOM     31  O   UNL     1    -117.697  40.166   6.018  1.00  0.00    -0.550 OA
ATOM     32  O   UNL     1    -117.991  38.003   5.362  1.00  0.00    -0.550 OA
ENDBRANCH   1  30
BRANCH  27  33
ATOM     33  O   UNL     1    -127.926  39.611   3.866  1.00  0.00    -0.393 OA
ATOM     34  H   UNL     1    -128.659  39.503   3.210  1.00  0.00     0.210 HD
ENDBRANCH  27  33
TORSDOF 2
ENDMDL
MODEL 2
REMARK VINA RESULT:    -4.280      9.935     14.203
REMARK INTER + INTRA:          -4.919
REMARK INTER:                  -4.655
REMARK INTRA:                  -0.264
REMARK UNBOUND:                -0.264
REMARK SMILES CC1(C)CC[C@@]2(C(=O)[O-])CC[C@]3(C)C(=CC[C@@H]4[C@@]5(C)CC[C@@H](O)C(C)(C)[C@H]5CC[C@@]43C)[C@H]2C1
REMARK SMILES IDX 6 1 5 2 10 3 32 4 4 5 11 6 14 7 33 8 2 9 12 10 15 11 1 12
REMARK SMILES IDX 3 13 13 14 30 15 16 16 17 17 29 18 31 19 18 20 28 21 27 22
REMARK SMILES IDX 20 23 19 24 24 25 21 26 22 27 25 28 26 29 7 30 8 31 9 32
REMARK SMILES IDX 23 33
REMARK H PARENT 23 34
REMARK Flexibility Score: inf
ROOT
ATOM      1  C   UNL     1    -131.083  39.293  15.873  1.00  0.00     0.017 C 
ATOM      2  C   UNL     1    -132.134  39.339  17.020  1.00  0.00     0.014 C 
ATOM      3  C   UNL     1    -130.612  40.751  15.502  1.00  0.00     0.014 C 
ATOM      4  C   UNL     1    -129.881  38.371  16.282  1.00  0.00     0.028 C 
ATOM      5  C   UNL     1    -131.539  39.642  18.404  1.00  0.00     0.007 C 
ATOM      6  C   UNL     1    -129.097  40.946  15.291  1.00  0.00     0.013 C 
ATOM      7  C   UNL     1    -128.757  38.445  15.250  1.00  0.00    -0.064 C 
ATOM      8  C   UNL     1    -129.331  38.632  17.707  1.00  0.00     0.015 C 
ATOM      9  C   UNL     1    -130.420  38.654  18.807  1.00  0.00    -0.035 C 
ATOM     10  C   UNL     1    -128.381  39.752  14.563  1.00  0.00    -0.006 C 
ATOM     11  C   UNL     1    -128.077  37.336  14.923  1.00  0.00    -0.027 C 
ATOM     12  C   UNL     1    -129.780  39.147  20.125  1.00  0.00     0.011 C 
ATOM     13  C   UNL     1    -130.987  37.235  19.062  1.00  0.00     0.011 C 
ATOM     14  C   UNL     1    -128.954  39.720  13.099  1.00  0.00     0.017 C 
ATOM     15  C   UNL     1    -126.765  39.869  14.549  1.00  0.00    -0.020 C 
ATOM     16  C   UNL     1    -127.052  37.349  13.824  1.00  0.00     0.032 C 
ATOM     17  C   UNL     1    -126.098  38.610  13.820  1.00  0.00     0.006 C 
ATOM     18  C   UNL     1    -126.150  39.983  15.995  1.00  0.00     0.008 C 
ATOM     19  C   UNL     1    -126.415  41.186  13.774  1.00  0.00     0.012 C 
ATOM     20  C   UNL     1    -124.617  38.203  14.283  1.00  0.00    -0.025 C 
ATOM     21  C   UNL     1    -125.623  38.683  16.642  1.00  0.00     0.005 C 
ATOM     22  C   UNL     1    -124.653  37.775  15.799  1.00  0.00     0.003 C 
ATOM     23  C   UNL     1    -123.579  39.357  14.095  1.00  0.00     0.010 C 
ATOM     24  C   UNL     1    -124.157  37.031  13.341  1.00  0.00     0.012 C 
ATOM     25  C   UNL     1    -123.225  37.506  16.466  1.00  0.00    -0.006 C 
ATOM     26  C   UNL     1    -122.181  39.069  14.675  1.00  0.00     0.033 C 
ATOM     27  C   UNL     1    -122.211  38.658  16.162  1.00  0.00     0.120 C 
ATOM     28  C   UNL     1    -123.334  37.293  18.007  1.00  0.00     0.014 C 
ATOM     29  C   UNL     1    -122.623  36.167  15.941  1.00  0.00     0.014 C 
ENDROOT
BRANCH   1  30
ATOM     30  C   UNL     1    -131.816  38.685  14.674  1.00  0.00     0.048 C 
ATOM     31  O   UNL     1    -132.370  39.430  13.819  1.00  0.00    -0.550 OA
ATOM     32  O   UNL     1    -131.958  37.307  14.540  1.00  0.00    -0.550 OA
ENDBRANCH   1  30
BRANCH  27  33
ATOM     33  O   UNL     1    -122.399  39.778  16.993  1.00  0.00    -0.393 OA
ATOM     34  H   UNL     1    -121.522  40.034  17.373  1.00  0.00     0.210 HD
ENDBRANCH  27  33
TORSDOF 2
ENDMDL
MODEL 3
REMARK VINA RESULT:    -3.956     10.454     13.482
REMARK INTER + INTRA:          -4.567
REMARK INTER:                  -4.444
REMARK INTRA:                  -0.123
REMARK UNBOUND:                -0.264
REMARK SMILES CC1(C)CC[C@@]2(C(=O)[O-])CC[C@]3(C)C(=CC[C@@H]4[C@@]5(C)CC[C@@H](O)C(C)(C)[C@H]5CC[C@@]43C)[C@H]2C1
REMARK SMILES IDX 6 1 5 2 10 3 32 4 4 5 11 6 14 7 33 8 2 9 12 10 15 11 1 12
REMARK SMILES IDX 3 13 13 14 30 15 16 16 17 17 29 18 31 19 18 20 28 21 27 22
REMARK SMILES IDX 20 23 19 24 24 25 21 26 22 27 25 28 26 29 7 30 8 31 9 32
REMARK SMILES IDX 23 33
REMARK H PARENT 23 34
REMARK Flexibility Score: inf
ROOT
ATOM      1  C   UNL     1    -125.336  39.786  14.629  1.00  0.00     0.017 C 
ATOM      2  C   UNL     1    -123.877  39.250  14.722  1.00  0.00     0.014 C 
ATOM      3  C   UNL     1    -126.081  39.137  13.401  1.00  0.00     0.014 C 
ATOM      4  C   UNL     1    -126.090  39.529  15.980  1.00  0.00     0.028 C 
ATOM      5  C   UNL     1    -123.770  37.811  15.249  1.00  0.00     0.007 C 
ATOM      6  C   UNL     1    -127.525  38.659  13.654  1.00  0.00     0.013 C 
ATOM      7  C   UNL     1    -127.571  39.887  15.859  1.00  0.00    -0.064 C 
ATOM      8  C   UNL     1    -125.920  38.097  16.545  1.00  0.00     0.015 C 
ATOM      9  C   UNL     1    -124.449  37.623  16.626  1.00  0.00    -0.035 C 
ATOM     10  C   UNL     1    -128.367  39.595  14.594  1.00  0.00    -0.006 C 
ATOM     11  C   UNL     1    -128.199  40.482  16.884  1.00  0.00    -0.027 C 
ATOM     12  C   UNL     1    -124.433  36.118  16.980  1.00  0.00     0.011 C 
ATOM     13  C   UNL     1    -123.678  38.376  17.740  1.00  0.00     0.011 C 
ATOM     14  C   UNL     1    -128.560  40.946  13.812  1.00  0.00     0.017 C 
ATOM     15  C   UNL     1    -129.796  38.970  15.030  1.00  0.00    -0.020 C 
ATOM     16  C   UNL     1    -129.618  40.960  16.752  1.00  0.00     0.032 C 
ATOM     17  C   UNL     1    -130.589  39.959  16.006  1.00  0.00     0.006 C 
ATOM     18  C   UNL     1    -129.658  37.575  15.749  1.00  0.00     0.008 C 
ATOM     19  C   UNL     1    -130.614  38.749  13.710  1.00  0.00     0.012 C 
ATOM     20  C   UNL     1    -131.618  39.290  17.040  1.00  0.00    -0.025 C 
ATOM     21  C   UNL     1    -129.669  37.573  17.293  1.00  0.00     0.005 C 
ATOM     22  C   UNL     1    -130.818  38.358  18.028  1.00  0.00     0.003 C 
ATOM     23  C   UNL     1    -132.738  38.458  16.336  1.00  0.00     0.010 C 
ATOM     24  C   UNL     1    -132.340  40.471  17.785  1.00  0.00     0.012 C 
ATOM     25  C   UNL     1    -131.718  37.477  19.014  1.00  0.00    -0.006 C 
ATOM     26  C   UNL     1    -133.651  37.665  17.291  1.00  0.00     0.033 C 
ATOM     27  C   UNL     1    -132.873  36.743  18.254  1.00  0.00     0.120 C 
ATOM     28  C   UNL     1    -130.867  36.439  19.806  1.00  0.00     0.014 C 
ATOM     29  C   UNL     1    -132.348  38.374  20.123  1.00  0.00     0.014 C 
ENDROOT
BRANCH   1  30
ATOM     30  C   UNL     1    -125.201  41.293  14.391  1.00  0.00     0.048 C 
ATOM     31  O   UNL     1    -125.546  41.798  13.287  1.00  0.00    -0.550 OA
ATOM     32  O   UNL     1    -124.625  42.125  15.346  1.00  0.00    -0.550 OA
ENDBRANCH   1  30
BRANCH  27  33
ATOM     33  O   UNL     1    -132.434  35.579  17.597  1.00  0.00    -0.393 OA
ATOM     34  H   UNL     1    -133.172  35.248  17.026  1.00  0.00     0.210 HD
ENDBRANCH  27  33
TORSDOF 2
ENDMDL
MODEL 4
REMARK VINA RESULT:    -3.874     11.694     15.555
REMARK INTER + INTRA:          -4.478
REMARK INTER:                  -4.218
REMARK INTRA:                  -0.260
REMARK UNBOUND:                -0.264
REMARK SMILES CC1(C)CC[C@@]2(C(=O)[O-])CC[C@]3(C)C(=CC[C@@H]4[C@@]5(C)CC[C@@H](O)C(C)(C)[C@H]5CC[C@@]43C)[C@H]2C1
REMARK SMILES IDX 6 1 5 2 10 3 32 4 4 5 11 6 14 7 33 8 2 9 12 10 15 11 1 12
REMARK SMILES IDX 3 13 13 14 30 15 16 16 17 17 29 18 31 19 18 20 28 21 27 22
REMARK SMILES IDX 20 23 19 24 24 25 21 26 22 27 25 28 26 29 7 30 8 31 9 32
REMARK SMILES IDX 23 33
REMARK H PARENT 23 34
REMARK Flexibility Score: inf
ROOT
ATOM      1  C   UNL     1    -132.183  38.408  17.449  1.00  0.00     0.017 C 
ATOM      2  C   UNL     1    -133.196  39.490  16.976  1.00  0.00     0.014 C 
ATOM      3  C   UNL     1    -132.154  37.201  16.435  1.00  0.00     0.014 C 
ATOM      4  C   UNL     1    -130.764  39.049  17.645  1.00  0.00     0.028 C 
ATOM      5  C   UNL     1    -132.706  40.330  15.786  1.00  0.00     0.007 C 
ATOM      6  C   UNL     1    -130.761  36.656  16.063  1.00  0.00     0.013 C 
ATOM      7  C   UNL     1    -129.715  37.978  17.941  1.00  0.00    -0.064 C 
ATOM      8  C   UNL     1    -130.305  39.953  16.474  1.00  0.00     0.015 C 
ATOM      9  C   UNL     1    -131.347  41.017  16.054  1.00  0.00    -0.035 C 
ATOM     10  C   UNL     1    -129.736  36.619  17.252  1.00  0.00    -0.006 C 
ATOM     11  C   UNL     1    -128.746  38.224  18.836  1.00  0.00    -0.027 C 
ATOM     12  C   UNL     1    -130.869  41.688  14.747  1.00  0.00     0.011 C 
ATOM     13  C   UNL     1    -131.480  42.125  17.130  1.00  0.00     0.011 C 
ATOM     14  C   UNL     1    -130.283  35.558  18.275  1.00  0.00     0.017 C 
ATOM     15  C   UNL     1    -128.222  36.259  16.800  1.00  0.00    -0.020 C 
ATOM     16  C   UNL     1    -127.775  37.151  19.242  1.00  0.00     0.032 C 
ATOM     17  C   UNL     1    -127.225  36.267  18.051  1.00  0.00     0.006 C 
ATOM     18  C   UNL     1    -127.657  37.253  15.715  1.00  0.00     0.008 C 
ATOM     19  C   UNL     1    -128.270  34.828  16.161  1.00  0.00     0.012 C 
ATOM     20  C   UNL     1    -125.687  36.611  17.753  1.00  0.00    -0.025 C 
ATOM     21  C   UNL     1    -126.775  38.417  16.215  1.00  0.00     0.005 C 
ATOM     22  C   UNL     1    -125.589  38.082  17.194  1.00  0.00     0.003 C 
ATOM     23  C   UNL     1    -125.026  35.625  16.735  1.00  0.00     0.010 C 
ATOM     24  C   UNL     1    -124.913  36.435  19.111  1.00  0.00     0.012 C 
ATOM     25  C   UNL     1    -124.140  38.521  16.680  1.00  0.00    -0.006 C 
ATOM     26  C   UNL     1    -123.601  36.012  16.294  1.00  0.00     0.033 C 
ATOM     27  C   UNL     1    -123.503  37.447  15.737  1.00  0.00     0.120 C 
ATOM     28  C   UNL     1    -124.174  39.902  15.957  1.00  0.00     0.014 C 
ATOM     29  C   UNL     1    -123.181  38.751  17.888  1.00  0.00     0.014 C 
ENDROOT
BRANCH   1  30
ATOM     30  C   UNL     1    -132.716  37.913  18.797  1.00  0.00     0.048 C 
ATOM     31  O   UNL     1    -133.515  36.937  18.849  1.00  0.00    -0.550 OA
ATOM     32  O   UNL     1    -132.402  38.572  19.982  1.00  0.00    -0.550 OA
ENDBRANCH   1  30
BRANCH  27  33
ATOM     33  O   UNL     1    -124.001  37.516  14.423  1.00  0.00    -0.393 OA
ATOM     34  H   UNL     1    -124.893  37.945  14.452  1.00  0.00     0.210 HD
ENDBRANCH  27  33
TORSDOF 2
ENDMDL
MODEL 5
REMARK VINA RESULT:    -3.866      2.524      4.369
REMARK INTER + INTRA:          -4.469
REMARK INTER:                  -4.205
REMARK INTRA:                  -0.263
REMARK UNBOUND:                -0.264
REMARK SMILES CC1(C)CC[C@@]2(C(=O)[O-])CC[C@]3(C)C(=CC[C@@H]4[C@@]5(C)CC[C@@H](O)C(C)(C)[C@H]5CC[C@@]43C)[C@H]2C1
REMARK SMILES IDX 6 1 5 2 10 3 32 4 4 5 11 6 14 7 33 8 2 9 12 10 15 11 1 12
REMARK SMILES IDX 3 13 13 14 30 15 16 16 17 17 29 18 31 19 18 20 28 21 27 22
REMARK SMILES IDX 20 23 19 24 24 25 21 26 22 27 25 28 26 29 7 30 8 31 9 32
REMARK SMILES IDX 23 33
REMARK H PARENT 23 34
REMARK Flexibility Score: inf
ROOT
ATOM      1  C   UNL     1    -123.089  40.140   5.858  1.00  0.00     0.017 C 
ATOM      2  C   UNL     1    -121.796  40.947   5.545  1.00  0.00     0.014 C 
ATOM      3  C   UNL     1    -124.367  40.992   5.501  1.00  0.00     0.014 C 
ATOM      4  C   UNL     1    -123.063  38.768   5.099  1.00  0.00     0.028 C 
ATOM      5  C   UNL     1    -121.470  41.053   4.047  1.00  0.00     0.007 C 
ATOM      6  C   UNL     1    -125.496  40.250   4.757  1.00  0.00     0.013 C 
ATOM      7  C   UNL     1    -124.395  38.033   5.249  1.00  0.00    -0.064 C 
ATOM      8  C   UNL     1    -122.664  38.871   3.605  1.00  0.00     0.015 C 
ATOM      9  C   UNL     1    -121.364  39.673   3.356  1.00  0.00    -0.035 C 
ATOM     10  C   UNL     1    -125.727  38.770   5.233  1.00  0.00    -0.006 C 
ATOM     11  C   UNL     1    -124.406  36.701   5.410  1.00  0.00    -0.027 C 
ATOM     12  C   UNL     1    -121.206  39.896   1.835  1.00  0.00     0.011 C 
ATOM     13  C   UNL     1    -120.120  38.891   3.848  1.00  0.00     0.011 C 
ATOM     14  C   UNL     1    -126.258  38.860   6.710  1.00  0.00     0.017 C 
ATOM     15  C   UNL     1    -126.755  37.937   4.298  1.00  0.00    -0.020 C 
ATOM     16  C   UNL     1    -125.686  35.963   5.686  1.00  0.00     0.032 C 
ATOM     17  C   UNL     1    -126.924  36.433   4.819  1.00  0.00     0.006 C 
ATOM     18  C   UNL     1    -126.303  37.886   2.789  1.00  0.00     0.008 C 
ATOM     19  C   UNL     1    -128.131  38.684   4.361  1.00  0.00     0.012 C 
ATOM     20  C   UNL     1    -127.304  35.323   3.725  1.00  0.00    -0.025 C 
ATOM     21  C   UNL     1    -125.533  36.630   2.325  1.00  0.00     0.005 C 
ATOM     22  C   UNL     1    -126.136  35.220   2.672  1.00  0.00     0.003 C 
ATOM     23  C   UNL     1    -128.645  35.630   2.983  1.00  0.00     0.010 C 
ATOM     24  C   UNL     1    -127.525  33.976   4.507  1.00  0.00     0.012 C 
ATOM     25  C   UNL     1    -126.435  34.281   1.412  1.00  0.00    -0.006 C 
ATOM     26  C   UNL     1    -128.968  34.681   1.813  1.00  0.00     0.033 C 
ATOM     27  C   UNL     1    -127.831  34.584   0.774  1.00  0.00     0.120 C 
ATOM     28  C   UNL     1    -125.323  34.396   0.325  1.00  0.00     0.014 C 
ATOM     29  C   UNL     1    -126.399  32.779   1.831  1.00  0.00     0.014 C 
ENDROOT
BRANCH   1  30
ATOM     30  C   UNL     1    -123.060  39.896   7.369  1.00  0.00     0.048 C 
ATOM     31  O   UNL     1    -123.666  40.675   8.154  1.00  0.00    -0.550 OA
ATOM     32  O   UNL     1    -122.303  38.864   7.918  1.00  0.00    -0.550 OA
ENDBRANCH   1  30
BRANCH  27  33
ATOM     33  O   UNL     1    -127.810  35.716  -0.061  1.00  0.00    -0.393 OA
ATOM     34  H   UNL     1    -127.031  35.641  -0.666  1.00  0.00     0.210 HD
ENDBRANCH  27  33
TORSDOF 2
ENDMDL
MODEL 6
REMARK VINA RESULT:    -3.793      9.154     12.241
REMARK INTER + INTRA:          -4.390
REMARK INTER:                  -4.125
REMARK INTRA:                  -0.264
REMARK UNBOUND:                -0.264
REMARK SMILES CC1(C)CC[C@@]2(C(=O)[O-])CC[C@]3(C)C(=CC[C@@H]4[C@@]5(C)CC[C@@H](O)C(C)(C)[C@H]5CC[C@@]43C)[C@H]2C1
REMARK SMILES IDX 6 1 5 2 10 3 32 4 4 5 11 6 14 7 33 8 2 9 12 10 15 11 1 12
REMARK SMILES IDX 3 13 13 14 30 15 16 16 17 17 29 18 31 19 18 20 28 21 27 22
REMARK SMILES IDX 20 23 19 24 24 25 21 26 22 27 25 28 26 29 7 30 8 31 9 32
REMARK SMILES IDX 23 33
REMARK H PARENT 23 34
REMARK Flexibility Score: inf
ROOT
ATOM      1  C   UNL     1    -123.682  38.086  14.550  1.00  0.00     0.017 C 
ATOM      2  C   UNL     1    -122.550  37.462  15.417  1.00  0.00     0.014 C 
ATOM      3  C   UNL     1    -124.427  36.964  13.732  1.00  0.00     0.014 C 
ATOM      4  C   UNL     1    -124.663  38.906  15.458  1.00  0.00     0.028 C 
ATOM      5  C   UNL     1    -123.053  36.707  16.657  1.00  0.00     0.007 C 
ATOM      6  C   UNL     1    -125.966  37.053  13.699  1.00  0.00     0.013 C 
ATOM      7  C   UNL     1    -125.877  39.384  14.662  1.00  0.00    -0.064 C 
ATOM      8  C   UNL     1    -125.112  38.168  16.744  1.00  0.00     0.015 C 
ATOM      9  C   UNL     1    -123.944  37.579  17.572  1.00  0.00    -0.035 C 
ATOM     10  C   UNL     1    -126.534  38.514  13.597  1.00  0.00    -0.006 C 
ATOM     11  C   UNL     1    -126.385  40.605  14.889  1.00  0.00    -0.027 C 
ATOM     12  C   UNL     1    -124.531  36.683  18.686  1.00  0.00     0.011 C 
ATOM     13  C   UNL     1    -123.121  38.700  18.255  1.00  0.00     0.011 C 
ATOM     14  C   UNL     1    -126.105  39.057  12.186  1.00  0.00     0.017 C 
ATOM     15  C   UNL     1    -128.139  38.607  13.790  1.00  0.00    -0.020 C 
ATOM     16  C   UNL     1    -127.496  41.154  14.039  1.00  0.00     0.032 C 
ATOM     17  C   UNL     1    -128.648  40.122  13.704  1.00  0.00     0.006 C 
ATOM     18  C   UNL     1    -128.626  38.002  15.161  1.00  0.00     0.008 C 
ATOM     19  C   UNL     1    -128.782  37.760  12.637  1.00  0.00     0.012 C 
ATOM     20  C   UNL     1    -129.987  40.486  14.509  1.00  0.00    -0.025 C 
ATOM     21  C   UNL     1    -128.859  38.990  16.325  1.00  0.00     0.005 C 
ATOM     22  C   UNL     1    -129.734  40.268  16.050  1.00  0.00     0.003 C 
ATOM     23  C   UNL     1    -131.220  39.636  14.061  1.00  0.00     0.010 C 
ATOM     24  C   UNL     1    -130.327  41.982  14.165  1.00  0.00     0.012 C 
ATOM     25  C   UNL     1    -131.026  40.419  16.981  1.00  0.00    -0.006 C 
ATOM     26  C   UNL     1    -132.487  39.835  14.915  1.00  0.00     0.033 C 
ATOM     27  C   UNL     1    -132.247  39.613  16.423  1.00  0.00     0.120 C 
ATOM     28  C   UNL     1    -130.737  39.986  18.450  1.00  0.00     0.014 C 
ATOM     29  C   UNL     1    -131.438  41.917  17.102  1.00  0.00     0.014 C 
ENDROOT
BRANCH   1  30
ATOM     30  C   UNL     1    -122.972  39.028  13.574  1.00  0.00     0.048 C 
ATOM     31  O   UNL     1    -122.637  38.624  12.426  1.00  0.00    -0.550 OA
ATOM     32  O   UNL     1    -122.611  40.318  13.950  1.00  0.00    -0.550 OA
ENDBRANCH   1  30
BRANCH  27  33
ATOM     33  O   UNL     1    -132.174  38.241  16.728  1.00  0.00    -0.393 OA
ATOM     34  H   UNL     1    -132.204  37.733  15.879  1.00  0.00     0.210 HD
ENDBRANCH  27  33
TORSDOF 2
ENDMDL
MODEL 7
REMARK VINA RESULT:    -3.772      1.769      7.071
REMARK INTER + INTRA:          -4.367
REMARK INTER:                  -4.115
REMARK INTRA:                  -0.252
REMARK UNBOUND:                -0.264
REMARK SMILES CC1(C)CC[C@@]2(C(=O)[O-])CC[C@]3(C)C(=CC[C@@H]4[C@@]5(C)CC[C@@H](O)C(C)(C)[C@H]5CC[C@@]43C)[C@H]2C1
REMARK SMILES IDX 6 1 5 2 10 3 32 4 4 5 11 6 14 7 33 8 2 9 12 10 15 11 1 12
REMARK SMILES IDX 3 13 13 14 30 15 16 16 17 17 29 18 31 19 18 20 28 21 27 22
REMARK SMILES IDX 20 23 19 24 24 25 21 26 22 27 25 28 26 29 7 30 8 31 9 32
REMARK SMILES IDX 23 33
REMARK H PARENT 23 34
REMARK Flexibility Score: inf
ROOT
ATOM      1  C   UNL     1    -125.015  39.469   5.854  1.00  0.00     0.017 C 
ATOM      2  C   UNL     1    -126.397  38.755   5.786  1.00  0.00     0.014 C 
ATOM      3  C   UNL     1    -124.157  38.888   7.043  1.00  0.00     0.014 C 
ATOM      4  C   UNL     1    -124.277  39.343   4.476  1.00  0.00     0.028 C 
ATOM      5  C   UNL     1    -126.338  37.328   5.221  1.00  0.00     0.007 C 
ATOM      6  C   UNL     1    -122.673  38.603   6.736  1.00  0.00     0.013 C 
ATOM      7  C   UNL     1    -122.850  39.883   4.568  1.00  0.00    -0.064 C 
ATOM      8  C   UNL     1    -124.283  37.915   3.875  1.00  0.00     0.015 C 
ATOM      9  C   UNL     1    -125.684  37.261   3.821  1.00  0.00    -0.035 C 
ATOM     10  C   UNL     1    -121.985  39.662   5.802  1.00  0.00    -0.006 C 
ATOM     11  C   UNL     1    -122.333  40.578   3.543  1.00  0.00    -0.027 C 
ATOM     12  C   UNL     1    -125.521  35.776   3.424  1.00  0.00     0.011 C 
ATOM     13  C   UNL     1    -126.577  37.939   2.750  1.00  0.00     0.011 C 
ATOM     14  C   UNL     1    -121.939  41.006   6.616  1.00  0.00     0.017 C 
ATOM     15  C   UNL     1    -120.502  39.234   5.309  1.00  0.00    -0.020 C 
ATOM     16  C   UNL     1    -120.982  41.228   3.650  1.00  0.00     0.032 C 
ATOM     17  C   UNL     1    -119.870  40.340   4.340  1.00  0.00     0.006 C 
ATOM     18  C   UNL     1    -120.486  37.851   4.553  1.00  0.00     0.008 C 
ATOM     19  C   UNL     1    -119.623  39.085   6.599  1.00  0.00     0.012 C 
ATOM     20  C   UNL     1    -118.798  39.832   3.260  1.00  0.00    -0.025 C 
ATOM     21  C   UNL     1    -120.522  37.890   3.010  1.00  0.00     0.005 C 
ATOM     22  C   UNL     1    -119.504  38.832   2.267  1.00  0.00     0.003 C 
ATOM     23  C   UNL     1    -117.560  39.131   3.909  1.00  0.00     0.010 C 
ATOM     24  C   UNL     1    -118.253  41.114   2.529  1.00  0.00     0.012 C 
ATOM     25  C   UNL     1    -118.531  38.098   1.232  1.00  0.00    -0.006 C 
ATOM     26  C   UNL     1    -116.585  38.484   2.906  1.00  0.00     0.033 C 
ATOM     27  C   UNL     1    -117.271  37.497   1.939  1.00  0.00     0.120 C 
ATOM     28  C   UNL     1    -119.269  36.980   0.434  1.00  0.00     0.014 C 
ATOM     29  C   UNL     1    -118.053  39.095   0.133  1.00  0.00     0.014 C 
ENDROOT
BRANCH   1  30
ATOM     30  C   UNL     1    -125.331  40.939   6.140  1.00  0.00     0.048 C 
ATOM     31  O   UNL     1    -125.257  41.393   7.315  1.00  0.00    -0.550 OA
ATOM     32  O   UNL     1    -125.783  41.788   5.133  1.00  0.00    -0.550 OA
ENDBRANCH   1  30
BRANCH  27  33
ATOM     33  O   UNL     1    -117.539  36.270   2.574  1.00  0.00    -0.393 OA
ATOM     34  H   UNL     1    -117.410  35.544   1.913  1.00  0.00     0.210 HD
ENDBRANCH  27  33
TORSDOF 2
ENDMDL
MODEL 8
REMARK VINA RESULT:    -3.663      1.785      7.102
REMARK INTER + INTRA:          -4.248
REMARK INTER:                  -3.994
REMARK INTRA:                  -0.254
REMARK UNBOUND:                -0.264
REMARK SMILES CC1(C)CC[C@@]2(C(=O)[O-])CC[C@]3(C)C(=CC[C@@H]4[C@@]5(C)CC[C@@H](O)C(C)(C)[C@H]5CC[C@@]43C)[C@H]2C1
REMARK SMILES IDX 6 1 5 2 10 3 32 4 4 5 11 6 14 7 33 8 2 9 12 10 15 11 1 12
REMARK SMILES IDX 3 13 13 14 30 15 16 16 17 17 29 18 31 19 18 20 28 21 27 22
REMARK SMILES IDX 20 23 19 24 24 25 21 26 22 27 25 28 26 29 7 30 8 31 9 32
REMARK SMILES IDX 23 33
REMARK H PARENT 23 34
REMARK Flexibility Score: inf
ROOT
ATOM      1  C   UNL     1    -126.867  36.003   3.797  1.00  0.00     0.017 C 
ATOM      2  C   UNL     1    -127.632  35.195   2.709  1.00  0.00     0.014 C 
ATOM      3  C   UNL     1    -126.040  35.029   4.722  1.00  0.00     0.014 C 
ATOM      4  C   UNL     1    -125.959  37.089   3.122  1.00  0.00     0.028 C 
ATOM      5  C   UNL     1    -126.739  34.667   1.576  1.00  0.00     0.007 C 
ATOM      6  C   UNL     1    -124.602  35.469   5.062  1.00  0.00     0.013 C 
ATOM      7  C   UNL     1    -125.068  37.778   4.155  1.00  0.00    -0.064 C 
ATOM      8  C   UNL     1    -125.113  36.567   1.934  1.00  0.00     0.015 C 
ATOM      9  C   UNL     1    -125.929  35.784   0.877  1.00  0.00    -0.035 C 
ATOM     10  C   UNL     1    -124.433  37.012   5.308  1.00  0.00    -0.006 C 
ATOM     11  C   UNL     1    -124.836  39.096   4.062  1.00  0.00    -0.027 C 
ATOM     12  C   UNL     1    -124.946  35.128  -0.119  1.00  0.00     0.011 C 
ATOM     13  C   UNL     1    -126.855  36.729   0.071  1.00  0.00     0.011 C 
ATOM     14  C   UNL     1    -125.236  37.340   6.619  1.00  0.00     0.017 C 
ATOM     15  C   UNL     1    -122.890  37.487   5.440  1.00  0.00    -0.020 C 
ATOM     16  C   UNL     1    -124.069  39.827   5.128  1.00  0.00     0.032 C 
ATOM     17  C   UNL     1    -122.787  39.069   5.661  1.00  0.00     0.006 C 
ATOM     18  C   UNL     1    -122.024  37.109   4.179  1.00  0.00     0.008 C 
ATOM     19  C   UNL     1    -122.290  36.733   6.677  1.00  0.00     0.012 C 
ATOM     20  C   UNL     1    -121.448  39.788   5.147  1.00  0.00    -0.025 C 
ATOM     21  C   UNL     1    -121.822  38.203   3.108  1.00  0.00     0.005 C 
ATOM     22  C   UNL     1    -121.348  39.626   3.582  1.00  0.00     0.003 C 
ATOM     23  C   UNL     1    -120.153  39.218   5.811  1.00  0.00     0.010 C 
ATOM     24  C   UNL     1    -121.549  41.295   5.587  1.00  0.00     0.012 C 
ATOM     25  C   UNL     1    -119.980  40.137   2.930  1.00  0.00    -0.006 C 
ATOM     26  C   UNL     1    -118.835  39.764   5.230  1.00  0.00     0.033 C 
ATOM     27  C   UNL     1    -118.727  39.599   3.700  1.00  0.00     0.120 C 
ATOM     28  C   UNL     1    -119.875  39.754   1.423  1.00  0.00     0.014 C 
ATOM     29  C   UNL     1    -119.926  41.696   2.928  1.00  0.00     0.014 C 
ENDROOT
BRANCH   1  30
ATOM     30  C   UNL     1    -127.952  36.684   4.636  1.00  0.00     0.048 C 
ATOM     31  O   UNL     1    -128.457  36.093   5.630  1.00  0.00    -0.550 OA
ATOM     32  O   UNL     1    -128.464  37.928   4.279  1.00  0.00    -0.550 OA
ENDBRANCH   1  30
BRANCH  27  33
ATOM     33  O   UNL     1    -118.409  38.273   3.355  1.00  0.00    -0.393 OA
ATOM     34  H   UNL     1    -117.436  38.144   3.483  1.00  0.00     0.210 HD
ENDBRANCH  27  33
TORSDOF 2
ENDMDL
MODEL 9
REMARK VINA RESULT:    -3.603      9.394     11.858
REMARK INTER + INTRA:          -4.183
REMARK INTER:                  -3.919
REMARK INTRA:                  -0.264
REMARK UNBOUND:                -0.264
REMARK SMILES CC1(C)CC[C@@]2(C(=O)[O-])CC[C@]3(C)C(=CC[C@@H]4[C@@]5(C)CC[C@@H](O)C(C)(C)[C@H]5CC[C@@]43C)[C@H]2C1
REMARK SMILES IDX 6 1 5 2 10 3 32 4 4 5 11 6 14 7 33 8 2 9 12 10 15 11 1 12
REMARK SMILES IDX 3 13 13 14 30 15 16 16 17 17 29 18 31 19 18 20 28 21 27 22
REMARK SMILES IDX 20 23 19 24 24 25 21 26 22 27 25 28 26 29 7 30 8 31 9 32
REMARK SMILES IDX 23 33
REMARK H PARENT 23 34
REMARK Flexibility Score: inf
ROOT
ATOM      1  C   UNL     1    -122.816  37.761  15.658  1.00  0.00     0.017 C 
ATOM      2  C   UNL     1    -121.490  38.532  15.391  1.00  0.00     0.014 C 
ATOM      3  C   UNL     1    -123.168  37.790  17.194  1.00  0.00     0.014 C 
ATOM      4  C   UNL     1    -123.970  38.356  14.777  1.00  0.00     0.028 C 
ATOM      5  C   UNL     1    -121.627  40.060  15.466  1.00  0.00     0.007 C 
ATOM      6  C   UNL     1    -124.640  38.077  17.552  1.00  0.00     0.013 C 
ATOM      7  C   UNL     1    -125.317  37.735  15.145  1.00  0.00    -0.064 C 
ATOM      8  C   UNL     1    -124.058  39.903  14.799  1.00  0.00     0.015 C 
ATOM      9  C   UNL     1    -122.714  40.614  14.515  1.00  0.00    -0.035 C 
ATOM     10  C   UNL     1    -125.687  37.414  16.587  1.00  0.00    -0.006 C 
ATOM     11  C   UNL     1    -126.206  37.452  14.181  1.00  0.00    -0.027 C 
ATOM     12  C   UNL     1    -122.886  42.125  14.793  1.00  0.00     0.011 C 
ATOM     13  C   UNL     1    -122.297  40.453  13.032  1.00  0.00     0.011 C 
ATOM     14  C   UNL     1    -125.556  35.861  16.794  1.00  0.00     0.017 C 
ATOM     15  C   UNL     1    -127.210  37.905  16.839  1.00  0.00    -0.020 C 
ATOM     16  C   UNL     1    -127.485  36.728  14.494  1.00  0.00     0.032 C 
ATOM     17  C   UNL     1    -128.220  37.215  15.807  1.00  0.00     0.006 C 
ATOM     18  C   UNL     1    -127.376  39.467  16.719  1.00  0.00     0.008 C 
ATOM     19  C   UNL     1    -127.580  37.495  18.307  1.00  0.00     0.012 C 
ATOM     20  C   UNL     1    -129.554  38.028  15.442  1.00  0.00    -0.025 C 
ATOM     21  C   UNL     1    -127.873  40.022  15.366  1.00  0.00     0.005 C 
ATOM     22  C   UNL     1    -129.155  39.373  14.725  1.00  0.00     0.003 C 
ATOM     23  C   UNL     1    -130.436  38.350  16.693  1.00  0.00     0.010 C 
ATOM     24  C   UNL     1    -130.415  37.090  14.519  1.00  0.00     0.012 C 
ATOM     25  C   UNL     1    -130.363  40.384  14.450  1.00  0.00    -0.006 C 
ATOM     26  C   UNL     1    -131.641  39.268  16.414  1.00  0.00     0.033 C 
ATOM     27  C   UNL     1    -131.254  40.591  15.720  1.00  0.00     0.120 C 
ATOM     28  C   UNL     1    -129.858  41.766  13.932  1.00  0.00     0.014 C 
ATOM     29  C   UNL     1    -131.265  39.854  13.294  1.00  0.00     0.014 C 
ENDROOT
BRANCH   1  30
ATOM     30  C   UNL     1    -122.538  36.316  15.237  1.00  0.00     0.048 C 
ATOM     31  O   UNL     1    -122.147  35.467  16.086  1.00  0.00    -0.550 OA
ATOM     32  O   UNL     1    -122.630  35.922  13.905  1.00  0.00    -0.550 OA
ENDBRANCH   1  30
BRANCH  27  33
ATOM     33  O   UNL     1    -130.689  41.497  16.636  1.00  0.00    -0.393 OA
ATOM     34  H   UNL     1    -131.384  42.153  16.892  1.00  0.00     0.210 HD
ENDBRANCH  27  33
TORSDOF 2
ENDMDL
