MODEL 1
REMARK VINA RESULT:    -4.426      0.000      0.000
REMARK INTER + INTRA:          -4.701
REMARK INTER:                  -4.684
REMARK INTRA:                  -0.016
REMARK UNBOUND:                -0.016
REMARK SMILES O=C([O-])c1cccnc1
REMARK SMILES IDX 4 1 5 2 9 3 6 4 8 5 7 6 2 7 1 8 3 9
REMARK H PARENT
REMARK Flexibility Score: inf
ROOT
ATOM      1  C   UNL     1      13.015  29.390 127.608  1.00  0.00     0.016 A 
ATOM      2  C   UNL     1      11.910  28.848 126.928  1.00  0.00     0.013 A 
ATOM      3  C   UNL     1      13.387  30.715 127.328  1.00  0.00     0.120 A 
ATOM      4  C   UNL     1      11.211  29.622 125.999  1.00  0.00     0.021 A 
ATOM      5  N   UNL     1      12.689  31.446 126.418  1.00  0.00    -0.264 NA
ATOM      6  C   UNL     1      11.619  30.933 125.755  1.00  0.00     0.111 A 
ENDROOT
BRANCH   1   7
ATOM      7  C   UNL     1      13.768  28.588 128.595  1.00  0.00     0.073 C 
ATOM      8  O   UNL     1      14.757  27.893 128.236  1.00  0.00    -0.545 OA
ATOM      9  O   UNL     1      13.395  28.588 129.935  1.00  0.00    -0.545 OA
ENDBRANCH   1   7
TORSDOF 1
ENDMDL
MODEL 2
REMARK VINA RESULT:    -4.123     16.854     17.750
REMARK INTER + INTRA:          -4.380
REMARK INTER:                  -4.357
REMARK INTRA:                  -0.023
REMARK UNBOUND:                -0.016
REMARK SMILES O=C([O-])c1cccnc1
REMARK SMILES IDX 4 1 5 2 9 3 6 4 8 5 7 6 2 7 1 8 3 9
REMARK H PARENT
REMARK Flexibility Score: inf
ROOT
ATOM      1  C   UNL     1      29.671  33.815 130.134  1.00  0.00     0.016 A 
ATOM      2  C   UNL     1      30.748  34.624 129.733  1.00  0.00     0.013 A 
ATOM      3  C   UNL     1      28.995  33.069 129.155  1.00  0.00     0.120 A 
ATOM      4  C   UNL     1      31.125  34.675 128.389  1.00  0.00     0.021 A 
ATOM      5  N   UNL     1      29.382  33.137 127.853  1.00  0.00    -0.264 NA
ATOM      6  C   UNL     1      30.422  33.915 127.453  1.00  0.00     0.111 A 
ENDROOT
BRANCH   1   7
ATOM      7  C   UNL     1      29.257  33.748 131.552  1.00  0.00     0.073 C 
ATOM      8  O   UNL     1      29.642  34.622 132.374  1.00  0.00    -0.545 OA
ATOM      9  O   UNL     1      28.437  32.717 131.998  1.00  0.00    -0.545 OA
ENDBRANCH   1   7
TORSDOF 1
ENDMDL
MODEL 3
REMARK VINA RESULT:    -4.121     11.246     11.904
REMARK INTER + INTRA:          -4.378
REMARK INTER:                  -4.355
REMARK INTRA:                  -0.023
REMARK UNBOUND:                -0.016
REMARK SMILES O=C([O-])c1cccnc1
REMARK SMILES IDX 4 1 5 2 9 3 6 4 8 5 7 6 2 7 1 8 3 9
REMARK H PARENT
REMARK Flexibility Score: inf
ROOT
ATOM      1  C   UNL     1      19.801  32.304 118.204  1.00  0.00     0.016 A 
ATOM      2  C   UNL     1      18.710  31.888 118.986  1.00  0.00     0.013 A 
ATOM      3  C   UNL     1      20.108  33.675 118.162  1.00  0.00     0.120 A 
ATOM      4  C   UNL     1      17.959  32.826 119.699  1.00  0.00     0.021 A 
ATOM      5  N   UNL     1      19.360  34.567 118.864  1.00  0.00    -0.264 NA
ATOM      6  C   UNL     1      18.303  34.176 119.624  1.00  0.00     0.111 A 
ENDROOT
BRANCH   1   7
ATOM      7  C   UNL     1      20.608  31.328 117.443  1.00  0.00     0.073 C 
ATOM      8  O   UNL     1      21.496  31.719 116.638  1.00  0.00    -0.545 OA
ATOM      9  O   UNL     1      20.398  29.962 117.603  1.00  0.00    -0.545 OA
ENDBRANCH   1   7
TORSDOF 1
ENDMDL
MODEL 4
REMARK VINA RESULT:    -4.114     17.385     18.172
REMARK INTER + INTRA:          -4.371
REMARK INTER:                  -4.352
REMARK INTRA:                  -0.018
REMARK UNBOUND:                -0.016
REMARK SMILES O=C([O-])c1cccnc1
REMARK SMILES IDX 4 1 5 2 9 3 6 4 8 5 7 6 2 7 1 8 3 9
REMARK H PARENT
REMARK Flexibility Score: inf
ROOT
ATOM      1  C   UNL     1      30.000  34.183 129.438  1.00  0.00     0.016 A 
ATOM      2  C   UNL     1      30.368  34.669 130.704  1.00  0.00     0.013 A 
ATOM      3  C   UNL     1      29.243  33.001 129.370  1.00  0.00     0.120 A 
ATOM      4  C   UNL     1      29.983  33.983 131.858  1.00  0.00     0.021 A 
ATOM      5  N   UNL     1      28.883  32.352 130.509  1.00  0.00    -0.264 NA
ATOM      6  C   UNL     1      29.232  32.813 131.739  1.00  0.00     0.111 A 
ENDROOT
BRANCH   1   7
ATOM      7  C   UNL     1      30.397  34.895 128.204  1.00  0.00     0.073 C 
ATOM      8  O   UNL     1      30.081  36.103 128.032  1.00  0.00    -0.545 OA
ATOM      9  O   UNL     1      31.125  34.240 127.216  1.00  0.00    -0.545 OA
ENDBRANCH   1   7
TORSDOF 1
ENDMDL
MODEL 5
REMARK VINA RESULT:    -4.078     17.196     18.012
REMARK INTER + INTRA:          -4.333
REMARK INTER:                  -4.312
REMARK INTRA:                  -0.021
REMARK UNBOUND:                -0.016
REMARK SMILES O=C([O-])c1cccnc1
REMARK SMILES IDX 4 1 5 2 9 3 6 4 8 5 7 6 2 7 1 8 3 9
REMARK H PARENT
REMARK Flexibility Score: inf
ROOT
ATOM      1  C   UNL     1      29.957  33.509 129.320  1.00  0.00     0.016 A 
ATOM      2  C   UNL     1      29.217  32.749 130.242  1.00  0.00     0.013 A 
ATOM      3  C   UNL     1      30.704  34.598 129.799  1.00  0.00     0.120 A 
ATOM      4  C   UNL     1      29.235  33.080 131.599  1.00  0.00     0.021 A 
ATOM      5  N   UNL     1      30.703  34.900 131.125  1.00  0.00    -0.264 NA
ATOM      6  C   UNL     1      29.993  34.171 132.026  1.00  0.00     0.111 A 
ENDROOT
BRANCH   1   7
ATOM      7  C   UNL     1      29.951  33.175 127.880  1.00  0.00     0.073 C 
ATOM      8  O   UNL     1      28.891  32.795 127.314  1.00  0.00    -0.545 OA
ATOM      9  O   UNL     1      31.118  33.273 127.129  1.00  0.00    -0.545 OA
ENDBRANCH   1   7
TORSDOF 1
ENDMDL
MODEL 6
REMARK VINA RESULT:    -4.037      2.718      3.198
REMARK INTER + INTRA:          -4.289
REMARK INTER:                  -4.270
REMARK INTRA:                  -0.020
REMARK UNBOUND:                -0.016
REMARK SMILES O=C([O-])c1cccnc1
REMARK SMILES IDX 4 1 5 2 9 3 6 4 8 5 7 6 2 7 1 8 3 9
REMARK H PARENT
REMARK Flexibility Score: inf
ROOT
ATOM      1  C   UNL     1      12.390  30.423 128.951  1.00  0.00     0.016 A 
ATOM      2  C   UNL     1      12.187  30.434 130.341  1.00  0.00     0.013 A 
ATOM      3  C   UNL     1      12.124  31.598 128.228  1.00  0.00     0.120 A 
ATOM      4  C   UNL     1      11.731  31.592 130.974  1.00  0.00     0.021 A 
ATOM      5  N   UNL     1      11.680  32.712 128.869  1.00  0.00    -0.264 NA
ATOM      6  C   UNL     1      11.481  32.734 130.213  1.00  0.00     0.111 A 
ENDROOT
BRANCH   1   7
ATOM      7  C   UNL     1      12.872  29.207 128.262  1.00  0.00     0.073 C 
ATOM      8  O   UNL     1      12.346  28.833 127.179  1.00  0.00    -0.545 OA
ATOM      9  O   UNL     1      13.913  28.458 128.800  1.00  0.00    -0.545 OA
ENDBRANCH   1   7
TORSDOF 1
ENDMDL
MODEL 7
REMARK VINA RESULT:    -4.017     11.265     11.866
REMARK INTER + INTRA:          -4.268
REMARK INTER:                  -4.247
REMARK INTRA:                  -0.021
REMARK UNBOUND:                -0.016
REMARK SMILES O=C([O-])c1cccnc1
REMARK SMILES IDX 4 1 5 2 9 3 6 4 8 5 7 6 2 7 1 8 3 9
REMARK H PARENT
REMARK Flexibility Score: inf
ROOT
ATOM      1  C   UNL     1      19.284  32.941 118.663  1.00  0.00     0.016 A 
ATOM      2  C   UNL     1      19.110  31.674 119.245  1.00  0.00     0.013 A 
ATOM      3  C   UNL     1      20.029  33.034 117.475  1.00  0.00     0.120 A 
ATOM      4  C   UNL     1      19.671  30.544 118.645  1.00  0.00     0.021 A 
ATOM      5  N   UNL     1      20.565  31.918 116.913  1.00  0.00    -0.264 NA
ATOM      6  C   UNL     1      20.403  30.687 117.467  1.00  0.00     0.111 A 
ENDROOT
BRANCH   1   7
ATOM      7  C   UNL     1      18.698  34.149 119.281  1.00  0.00     0.073 C 
ATOM      8  O   UNL     1      19.313  35.249 119.249  1.00  0.00    -0.545 OA
ATOM      9  O   UNL     1      17.458  34.089 119.909  1.00  0.00    -0.545 OA
ENDBRANCH   1   7
TORSDOF 1
ENDMDL
MODEL 8
REMARK VINA RESULT:    -3.994      2.406      2.856
REMARK INTER + INTRA:          -4.244
REMARK INTER:                  -4.226
REMARK INTRA:                  -0.018
REMARK UNBOUND:                -0.016
REMARK SMILES O=C([O-])c1cccnc1
REMARK SMILES IDX 4 1 5 2 9 3 6 4 8 5 7 6 2 7 1 8 3 9
REMARK H PARENT
REMARK Flexibility Score: inf
ROOT
ATOM      1  C   UNL     1      11.952  30.497 128.995  1.00  0.00     0.016 A 
ATOM      2  C   UNL     1      10.933  30.939 128.134  1.00  0.00     0.013 A 
ATOM      3  C   UNL     1      12.901  29.589 128.497  1.00  0.00     0.120 A 
ATOM      4  C   UNL     1      10.878  30.476 126.817  1.00  0.00     0.021 A 
ATOM      5  N   UNL     1      12.824  29.153 127.211  1.00  0.00    -0.264 NA
ATOM      6  C   UNL     1      11.843  29.573 126.369  1.00  0.00     0.111 A 
ENDROOT
BRANCH   1   7
ATOM      7  C   UNL     1      12.028  30.976 130.392  1.00  0.00     0.073 C 
ATOM      8  O   UNL     1      12.101  32.209 130.644  1.00  0.00    -0.545 OA
ATOM      9  O   UNL     1      12.021  30.071 131.448  1.00  0.00    -0.545 OA
ENDBRANCH   1   7
TORSDOF 1
ENDMDL
MODEL 9
REMARK VINA RESULT:    -3.983     17.030     18.060
REMARK INTER + INTRA:          -4.232
REMARK INTER:                  -4.214
REMARK INTRA:                  -0.018
REMARK UNBOUND:                -0.016
REMARK SMILES O=C([O-])c1cccnc1
REMARK SMILES IDX 4 1 5 2 9 3 6 4 8 5 7 6 2 7 1 8 3 9
REMARK H PARENT
REMARK Flexibility Score: inf
ROOT
ATOM      1  C   UNL     1      29.831  34.517 128.884  1.00  0.00     0.016 A 
ATOM      2  C   UNL     1      30.854  34.736 129.824  1.00  0.00     0.013 A 
ATOM      3  C   UNL     1      28.574  34.100 129.351  1.00  0.00     0.120 A 
ATOM      4  C   UNL     1      30.610  34.539 131.184  1.00  0.00     0.021 A 
ATOM      5  N   UNL     1      28.363  33.915 130.682  1.00  0.00    -0.264 NA
ATOM      6  C   UNL     1      29.344  34.124 131.599  1.00  0.00     0.111 A 
ENDROOT
BRANCH   1   7
ATOM      7  C   UNL     1      30.069  34.720 127.440  1.00  0.00     0.073 C 
ATOM      8  O   UNL     1      30.941  34.042 126.832  1.00  0.00    -0.545 OA
ATOM      9  O   UNL     1      29.334  35.664 126.730  1.00  0.00    -0.545 OA
ENDBRANCH   1   7
TORSDOF 1
ENDMDL
