MODEL 1
REMARK VINA RESULT:    -3.774      0.000      0.000
REMARK INTER + INTRA:          -5.455
REMARK INTER:                  -5.097
REMARK INTRA:                  -0.358
REMARK UNBOUND:                -0.358
REMARK SMILES [NH3+]CCCC[C@H]([NH3+])C(=O)[O-]
REMARK SMILES IDX 4 1 3 2 2 3 1 4 5 8 6 9 7 10 8 14 9 15 10 16
REMARK H PARENT 1 5 1 6 1 7 7 11 7 12 7 13
REMARK Flexibility Score: inf
ROOT
ATOM      1  C   UNL     1      21.016  15.043 -16.033  1.00  0.00     0.012 C 
ENDROOT
BRANCH   1   2
ATOM      2  C   UNL     1      20.704  16.464 -16.528  1.00  0.00     0.061 C 
BRANCH   2   3
ATOM      3  C   UNL     1      20.454  16.525 -18.042  1.00  0.00     0.258 C 
BRANCH   3   4
ATOM      4  N   UNL     1      19.037  16.752 -18.328  1.00  0.00    -0.358 N 
ATOM      5  H   UNL     1      18.578  15.853 -18.601  1.00  0.00     0.344 HD
ATOM      6  H   UNL     1      18.951  17.431 -19.119  1.00  0.00     0.344 HD
ATOM      7  H   UNL     1      18.560  17.152 -17.487  1.00  0.00     0.344 HD
ENDBRANCH   3   4
ENDBRANCH   2   3
ENDBRANCH   1   2
BRANCH   1   8
ATOM      8  C   UNL     1      19.806  14.371 -15.358  1.00  0.00     0.072 C 
BRANCH   8   9
ATOM      9  C   UNL     1      19.626  12.905 -15.810  1.00  0.00     0.227 C 
BRANCH   9  10
ATOM     10  N   UNL     1      20.902  12.352 -16.279  1.00  0.00    -0.350 N 
ATOM     11  H   UNL     1      20.942  11.320 -16.108  1.00  0.00     0.345 HD
ATOM     12  H   UNL     1      21.012  12.533 -17.303  1.00  0.00     0.345 HD
ATOM     13  H   UNL     1      21.696  12.815 -15.779  1.00  0.00     0.345 HD
ENDBRANCH   9  10
BRANCH   9  14
ATOM     14  C   UNL     1      18.582  12.790 -16.890  1.00  0.00     0.099 C 
ATOM     15  O   UNL     1      18.606  13.560 -17.887  1.00  0.00    -0.544 OA
ATOM     16  O   UNL     1      17.580  11.833 -16.788  1.00  0.00    -0.544 OA
ENDBRANCH   9  14
ENDBRANCH   8   9
ENDBRANCH   1   8
TORSDOF 7
ENDMDL
MODEL 2
REMARK VINA RESULT:    -3.725      0.379      1.065
REMARK INTER + INTRA:          -5.390
REMARK INTER:                  -5.027
REMARK INTRA:                  -0.363
REMARK UNBOUND:                -0.358
REMARK SMILES [NH3+]CCCC[C@H]([NH3+])C(=O)[O-]
REMARK SMILES IDX 4 1 3 2 2 3 1 4 5 8 6 9 7 10 8 14 9 15 10 16
REMARK H PARENT 1 5 1 6 1 7 7 11 7 12 7 13
REMARK Flexibility Score: inf
ROOT
ATOM      1  C   UNL     1      21.303  15.098 -16.316  1.00  0.00     0.012 C 
ENDROOT
BRANCH   1   2
ATOM      2  C   UNL     1      21.124  16.458 -17.010  1.00  0.00     0.061 C 
BRANCH   2   3
ATOM      3  C   UNL     1      20.420  16.344 -18.370  1.00  0.00     0.258 C 
BRANCH   3   4
ATOM      4  N   UNL     1      19.022  16.762 -18.271  1.00  0.00    -0.358 N 
ATOM      5  H   UNL     1      18.397  16.022 -18.665  1.00  0.00     0.344 HD
ATOM      6  H   UNL     1      18.888  17.645 -18.817  1.00  0.00     0.344 HD
ATOM      7  H   UNL     1      18.771  16.944 -17.271  1.00  0.00     0.344 HD
ENDBRANCH   3   4
ENDBRANCH   2   3
ENDBRANCH   1   2
BRANCH   1   8
ATOM      8  C   UNL     1      20.010  14.600 -15.645  1.00  0.00     0.072 C 
BRANCH   8   9
ATOM      9  C   UNL     1      19.832  13.072 -15.785  1.00  0.00     0.227 C 
BRANCH   9  10
ATOM     10  N   UNL     1      21.089  12.444 -16.208  1.00  0.00    -0.350 N 
ATOM     11  H   UNL     1      21.897  13.088 -16.042  1.00  0.00     0.345 HD
ATOM     12  H   UNL     1      21.242  11.559 -15.673  1.00  0.00     0.345 HD
ATOM     13  H   UNL     1      21.042  12.206 -17.226  1.00  0.00     0.345 HD
ENDBRANCH   9  10
BRANCH   9  14
ATOM     14  C   UNL     1      18.732  12.737 -16.757  1.00  0.00     0.099 C 
ATOM     15  O   UNL     1      18.103  11.649 -16.661  1.00  0.00    -0.544 OA
ATOM     16  O   UNL     1      18.408  13.627 -17.773  1.00  0.00    -0.544 OA
ENDBRANCH   9  14
ENDBRANCH   8   9
ENDBRANCH   1   8
TORSDOF 7
ENDMDL
MODEL 3
REMARK VINA RESULT:    -3.440      2.463      4.462
REMARK INTER + INTRA:          -5.004
REMARK INTER:                  -4.457
REMARK INTRA:                  -0.547
REMARK UNBOUND:                -0.358
REMARK SMILES [NH3+]CCCC[C@H]([NH3+])C(=O)[O-]
REMARK SMILES IDX 4 1 3 2 2 3 1 4 5 8 6 9 7 10 8 14 9 15 10 16
REMARK H PARENT 1 5 1 6 1 7 7 11 7 12 7 13
REMARK Flexibility Score: inf
ROOT
ATOM      1  C   UNL     1      19.661  13.253 -18.374  1.00  0.00     0.012 C 
ENDROOT
BRANCH   1   2
ATOM      2  C   UNL     1      18.895  13.284 -17.041  1.00  0.00     0.061 C 
BRANCH   2   3
ATOM      3  C   UNL     1      19.623  12.527 -15.919  1.00  0.00     0.258 C 
BRANCH   3   4
ATOM      4  N   UNL     1      21.064  12.771 -15.976  1.00  0.00    -0.358 N 
ATOM      5  H   UNL     1      21.273  13.753 -15.681  1.00  0.00     0.344 HD
ATOM      6  H   UNL     1      21.397  12.634 -16.958  1.00  0.00     0.344 HD
ATOM      7  H   UNL     1      21.568  12.099 -15.352  1.00  0.00     0.344 HD
ENDBRANCH   3   4
ENDBRANCH   2   3
ENDBRANCH   1   2
BRANCH   1   8
ATOM      8  C   UNL     1      19.975  14.661 -18.910  1.00  0.00     0.072 C 
BRANCH   8   9
ATOM      9  C   UNL     1      19.840  15.745 -17.817  1.00  0.00     0.227 C 
BRANCH   9  10
ATOM     10  N   UNL     1      19.001  16.852 -18.292  1.00  0.00    -0.350 N 
ATOM     11  H   UNL     1      18.495  16.582 -19.167  1.00  0.00     0.345 HD
ATOM     12  H   UNL     1      18.301  17.106 -17.558  1.00  0.00     0.345 HD
ATOM     13  H   UNL     1      19.595  17.692 -18.481  1.00  0.00     0.345 HD
ENDBRANCH   9  10
BRANCH   9  14
ATOM     14  C   UNL     1      21.188  16.262 -17.390  1.00  0.00     0.099 C 
ATOM     15  O   UNL     1      21.729  17.221 -18.004  1.00  0.00    -0.544 OA
ATOM     16  O   UNL     1      21.848  15.679 -16.315  1.00  0.00    -0.544 OA
ENDBRANCH   9  14
ENDBRANCH   8   9
ENDBRANCH   1   8
TORSDOF 7
ENDMDL
MODEL 4
REMARK VINA RESULT:    -3.434      1.481      1.842
REMARK INTER + INTRA:          -4.996
REMARK INTER:                  -4.488
REMARK INTRA:                  -0.508
REMARK UNBOUND:                -0.358
REMARK SMILES [NH3+]CCCC[C@H]([NH3+])C(=O)[O-]
REMARK SMILES IDX 4 1 3 2 2 3 1 4 5 8 6 9 7 10 8 14 9 15 10 16
REMARK H PARENT 1 5 1 6 1 7 7 11 7 12 7 13
REMARK Flexibility Score: inf
ROOT
ATOM      1  C   UNL     1      21.962  15.503 -16.742  1.00  0.00     0.012 C 
ENDROOT
BRANCH   1   2
ATOM      2  C   UNL     1      21.611  16.640 -17.714  1.00  0.00     0.061 C 
BRANCH   2   3
ATOM      3  C   UNL     1      20.426  16.296 -18.630  1.00  0.00     0.258 C 
BRANCH   3   4
ATOM      4  N   UNL     1      19.161  16.704 -18.020  1.00  0.00    -0.358 N 
ATOM      5  H   UNL     1      18.937  17.691 -18.283  1.00  0.00     0.344 HD
ATOM      6  H   UNL     1      19.247  16.643 -16.979  1.00  0.00     0.344 HD
ATOM      7  H   UNL     1      18.389  16.070 -18.332  1.00  0.00     0.344 HD
ENDBRANCH   3   4
ENDBRANCH   2   3
ENDBRANCH   1   2
BRANCH   1   8
ATOM      8  C   UNL     1      21.790  14.109 -17.373  1.00  0.00     0.072 C 
BRANCH   8   9
ATOM      9  C   UNL     1      21.062  13.128 -16.428  1.00  0.00     0.227 C 
BRANCH   9  10
ATOM     10  N   UNL     1      20.930  11.809 -17.060  1.00  0.00    -0.350 N 
ATOM     11  H   UNL     1      21.592  11.125 -16.628  1.00  0.00     0.345 HD
ATOM     12  H   UNL     1      19.952  11.458 -16.944  1.00  0.00     0.345 HD
ATOM     13  H   UNL     1      21.130  11.884 -18.084  1.00  0.00     0.345 HD
ENDBRANCH   9  10
BRANCH   9  14
ATOM     14  C   UNL     1      19.707  13.652 -16.033  1.00  0.00     0.099 C 
ATOM     15  O   UNL     1      19.468  13.970 -14.837  1.00  0.00    -0.544 OA
ATOM     16  O   UNL     1      18.707  13.783 -16.989  1.00  0.00    -0.544 OA
ENDBRANCH   9  14
ENDBRANCH   8   9
ENDBRANCH   1   8
TORSDOF 7
ENDMDL
MODEL 5
REMARK VINA RESULT:    -3.356      2.878      4.505
REMARK INTER + INTRA:          -4.891
REMARK INTER:                  -4.369
REMARK INTRA:                  -0.522
REMARK UNBOUND:                -0.358
REMARK SMILES [NH3+]CCCC[C@H]([NH3+])C(=O)[O-]
REMARK SMILES IDX 4 1 3 2 2 3 1 4 5 8 6 9 7 10 8 14 9 15 10 16
REMARK H PARENT 1 5 1 6 1 7 7 11 7 12 7 13
REMARK Flexibility Score: inf
ROOT
ATOM      1  C   UNL     1      18.151  12.503 -17.465  1.00  0.00     0.012 C 
ENDROOT
BRANCH   1   2
ATOM      2  C   UNL     1      18.403  11.324 -16.513  1.00  0.00     0.061 C 
BRANCH   2   3
ATOM      3  C   UNL     1      18.935  10.077 -17.236  1.00  0.00     0.258 C 
BRANCH   3   4
ATOM      4  N   UNL     1      20.394  10.110 -17.328  1.00  0.00    -0.358 N 
ATOM      5  H   UNL     1      20.734   9.321 -17.924  1.00  0.00     0.344 HD
ATOM      6  H   UNL     1      20.800  10.008 -16.369  1.00  0.00     0.344 HD
ATOM      7  H   UNL     1      20.709  11.022 -17.732  1.00  0.00     0.344 HD
ENDBRANCH   3   4
ENDBRANCH   2   3
ENDBRANCH   1   2
BRANCH   1   8
ATOM      8  C   UNL     1      18.961  13.756 -17.086  1.00  0.00     0.072 C 
BRANCH   8   9
ATOM      9  C   UNL     1      20.022  13.459 -16.004  1.00  0.00     0.227 C 
BRANCH   9  10
ATOM     10  N   UNL     1      19.815  14.317 -14.832  1.00  0.00    -0.350 N 
ATOM     11  H   UNL     1      20.704  14.800 -14.566  1.00  0.00     0.345 HD
ATOM     12  H   UNL     1      19.086  15.036 -15.043  1.00  0.00     0.345 HD
ATOM     13  H   UNL     1      19.481  13.742 -14.024  1.00  0.00     0.345 HD
ENDBRANCH   9  10
BRANCH   9  14
ATOM     14  C   UNL     1      21.417  13.642 -16.541  1.00  0.00     0.099 C 
ATOM     15  O   UNL     1      22.024  12.681 -17.086  1.00  0.00    -0.544 OA
ATOM     16  O   UNL     1      22.047  14.876 -16.433  1.00  0.00    -0.544 OA
ENDBRANCH   9  14
ENDBRANCH   8   9
ENDBRANCH   1   8
TORSDOF 7
ENDMDL
MODEL 6
REMARK VINA RESULT:    -3.325      2.388      2.612
REMARK INTER + INTRA:          -4.850
REMARK INTER:                  -4.369
REMARK INTRA:                  -0.480
REMARK UNBOUND:                -0.358
REMARK SMILES [NH3+]CCCC[C@H]([NH3+])C(=O)[O-]
REMARK SMILES IDX 4 1 3 2 2 3 1 4 5 8 6 9 7 10 8 14 9 15 10 16
REMARK H PARENT 1 5 1 6 1 7 7 11 7 12 7 13
REMARK Flexibility Score: inf
ROOT
ATOM      1  C   UNL     1      20.461  16.373 -16.750  1.00  0.00     0.012 C 
ENDROOT
BRANCH   1   2
ATOM      2  C   UNL     1      21.342  17.007 -17.839  1.00  0.00     0.061 C 
BRANCH   2   3
ATOM      3  C   UNL     1      22.530  16.117 -18.235  1.00  0.00     0.258 C 
BRANCH   3   4
ATOM      4  N   UNL     1      23.347  15.787 -17.067  1.00  0.00    -0.358 N 
ATOM      5  H   UNL     1      24.147  16.456 -16.989  1.00  0.00     0.344 HD
ATOM      6  H   UNL     1      23.725  14.818 -17.176  1.00  0.00     0.344 HD
ATOM      7  H   UNL     1      22.765  15.827 -16.199  1.00  0.00     0.344 HD
ENDBRANCH   3   4
ENDBRANCH   2   3
ENDBRANCH   1   2
BRANCH   1   8
ATOM      8  C   UNL     1      19.664  15.160 -17.264  1.00  0.00     0.072 C 
BRANCH   8   9
ATOM      9  C   UNL     1      19.635  14.005 -16.239  1.00  0.00     0.227 C 
BRANCH   9  10
ATOM     10  N   UNL     1      19.882  14.513 -14.885  1.00  0.00    -0.350 N 
ATOM     11  H   UNL     1      20.322  13.775 -14.288  1.00  0.00     0.345 HD
ATOM     12  H   UNL     1      20.518  15.342 -14.927  1.00  0.00     0.345 HD
ATOM     13  H   UNL     1      18.981  14.816 -14.449  1.00  0.00     0.345 HD
ENDBRANCH   9  10
BRANCH   9  14
ATOM     14  C   UNL     1      20.643  12.941 -16.586  1.00  0.00     0.099 C 
ATOM     15  O   UNL     1      21.877  13.165 -16.463  1.00  0.00    -0.544 OA
ATOM     16  O   UNL     1      20.216  11.703 -17.050  1.00  0.00    -0.544 OA
ENDBRANCH   9  14
ENDBRANCH   8   9
ENDBRANCH   1   8
TORSDOF 7
ENDMDL
MODEL 7
REMARK VINA RESULT:    -3.312      1.699      2.030
REMARK INTER + INTRA:          -4.832
REMARK INTER:                  -4.595
REMARK INTRA:                  -0.237
REMARK UNBOUND:                -0.358
REMARK SMILES [NH3+]CCCC[C@H]([NH3+])C(=O)[O-]
REMARK SMILES IDX 4 1 3 2 2 3 1 4 5 8 6 9 7 10 8 14 9 15 10 16
REMARK H PARENT 1 5 1 6 1 7 7 11 7 12 7 13
REMARK Flexibility Score: inf
ROOT
ATOM      1  C   UNL     1      20.076  14.324 -17.965  1.00  0.00     0.012 C 
ENDROOT
BRANCH   1   2
ATOM      2  C   UNL     1      20.397  15.824 -18.062  1.00  0.00     0.061 C 
BRANCH   2   3
ATOM      3  C   UNL     1      20.730  16.451 -16.700  1.00  0.00     0.258 C 
BRANCH   3   4
ATOM      4  N   UNL     1      22.010  15.954 -16.197  1.00  0.00    -0.358 N 
ATOM      5  H   UNL     1      21.967  14.917 -16.068  1.00  0.00     0.344 HD
ATOM      6  H   UNL     1      22.213  16.402 -15.273  1.00  0.00     0.344 HD
ATOM      7  H   UNL     1      22.778  16.197 -16.865  1.00  0.00     0.344 HD
ENDBRANCH   3   4
ENDBRANCH   2   3
ENDBRANCH   1   2
BRANCH   1   8
ATOM      8  C   UNL     1      19.093  14.001 -16.825  1.00  0.00     0.072 C 
BRANCH   8   9
ATOM      9  C   UNL     1      19.546  12.781 -15.993  1.00  0.00     0.227 C 
BRANCH   9  10
ATOM     10  N   UNL     1      20.996  12.589 -16.109  1.00  0.00    -0.350 N 
ATOM     11  H   UNL     1      21.339  12.923 -17.039  1.00  0.00     0.345 HD
ATOM     12  H   UNL     1      21.486  13.122 -15.354  1.00  0.00     0.345 HD
ATOM     13  H   UNL     1      21.231  11.576 -15.998  1.00  0.00     0.345 HD
ENDBRANCH   9  10
BRANCH   9  14
ATOM     14  C   UNL     1      18.822  11.530 -16.417  1.00  0.00     0.099 C 
ATOM     15  O   UNL     1      19.435  10.431 -16.492  1.00  0.00    -0.544 OA
ATOM     16  O   UNL     1      17.471  11.583 -16.735  1.00  0.00    -0.544 OA
ENDBRANCH   9  14
ENDBRANCH   8   9
ENDBRANCH   1   8
TORSDOF 7
ENDMDL
MODEL 8
REMARK VINA RESULT:    -3.286      2.250      2.746
REMARK INTER + INTRA:          -4.796
REMARK INTER:                  -4.239
REMARK INTRA:                  -0.557
REMARK UNBOUND:                -0.358
REMARK SMILES [NH3+]CCCC[C@H]([NH3+])C(=O)[O-]
REMARK SMILES IDX 4 1 3 2 2 3 1 4 5 8 6 9 7 10 8 14 9 15 10 16
REMARK H PARENT 1 5 1 6 1 7 7 11 7 12 7 13
REMARK Flexibility Score: inf
ROOT
ATOM      1  C   UNL     1      22.421  13.938 -17.708  1.00  0.00     0.012 C 
ENDROOT
BRANCH   1   2
ATOM      2  C   UNL     1      23.215  15.221 -17.418  1.00  0.00     0.061 C 
BRANCH   2   3
ATOM      3  C   UNL     1      23.005  16.305 -18.487  1.00  0.00     0.258 C 
BRANCH   3   4
ATOM      4  N   UNL     1      22.144  17.375 -17.982  1.00  0.00    -0.358 N 
ATOM      5  H   UNL     1      21.397  16.975 -17.369  1.00  0.00     0.344 HD
ATOM      6  H   UNL     1      21.694  17.863 -18.790  1.00  0.00     0.344 HD
ATOM      7  H   UNL     1      22.712  18.069 -17.442  1.00  0.00     0.344 HD
ENDBRANCH   3   4
ENDBRANCH   2   3
ENDBRANCH   1   2
BRANCH   1   8
ATOM      8  C   UNL     1      21.550  13.498 -16.517  1.00  0.00     0.072 C 
BRANCH   8   9
ATOM      9  C   UNL     1      20.543  14.592 -16.097  1.00  0.00     0.227 C 
BRANCH   9  10
ATOM     10  N   UNL     1      19.864  14.214 -14.851  1.00  0.00    -0.350 N 
ATOM     11  H   UNL     1      19.492  13.239 -14.915  1.00  0.00     0.345 HD
ATOM     12  H   UNL     1      20.535  14.272 -14.050  1.00  0.00     0.345 HD
ATOM     13  H   UNL     1      19.074  14.873 -14.663  1.00  0.00     0.345 HD
ENDBRANCH   9  10
BRANCH   9  14
ATOM     14  C   UNL     1      19.530  14.849 -17.181  1.00  0.00     0.099 C 
ATOM     15  O   UNL     1      18.705  13.955 -17.511  1.00  0.00    -0.544 OA
ATOM     16  O   UNL     1      19.504  16.077 -17.831  1.00  0.00    -0.544 OA
ENDBRANCH   9  14
ENDBRANCH   8   9
ENDBRANCH   1   8
TORSDOF 7
ENDMDL
MODEL 9
REMARK VINA RESULT:    -3.241      2.083      3.964
REMARK INTER + INTRA:          -4.736
REMARK INTER:                  -4.392
REMARK INTRA:                  -0.344
REMARK UNBOUND:                -0.358
REMARK SMILES [NH3+]CCCC[C@H]([NH3+])C(=O)[O-]
REMARK SMILES IDX 4 1 3 2 2 3 1 4 5 8 6 9 7 10 8 14 9 15 10 16
REMARK H PARENT 1 5 1 6 1 7 7 11 7 12 7 13
REMARK Flexibility Score: inf
ROOT
ATOM      1  C   UNL     1      20.904  14.667 -16.251  1.00  0.00     0.012 C 
ENDROOT
BRANCH   1   2
ATOM      2  C   UNL     1      19.704  13.950 -15.612  1.00  0.00     0.061 C 
BRANCH   2   3
ATOM      3  C   UNL     1      19.046  12.934 -16.557  1.00  0.00     0.258 C 
BRANCH   3   4
ATOM      4  N   UNL     1      18.282  13.614 -17.603  1.00  0.00    -0.358 N 
ATOM      5  H   UNL     1      17.261  13.585 -17.379  1.00  0.00     0.344 HD
ATOM      6  H   UNL     1      18.442  13.127 -18.516  1.00  0.00     0.344 HD
ATOM      7  H   UNL     1      18.598  14.607 -17.692  1.00  0.00     0.344 HD
ENDBRANCH   3   4
ENDBRANCH   2   3
ENDBRANCH   1   2
BRANCH   1   8
ATOM      8  C   UNL     1      20.691  16.187 -16.372  1.00  0.00     0.072 C 
BRANCH   8   9
ATOM      9  C   UNL     1      20.540  16.640 -17.841  1.00  0.00     0.227 C 
BRANCH   9  10
ATOM     10  N   UNL     1      19.124  16.825 -18.179  1.00  0.00    -0.350 N 
ATOM     11  H   UNL     1      18.907  16.395 -19.108  1.00  0.00     0.345 HD
ATOM     12  H   UNL     1      18.523  16.380 -17.448  1.00  0.00     0.345 HD
ATOM     13  H   UNL     1      18.897  17.846 -18.210  1.00  0.00     0.345 HD
ENDBRANCH   9  10
BRANCH   9  14
ATOM     14  C   UNL     1      21.174  15.652 -18.785  1.00  0.00     0.099 C 
ATOM     15  O   UNL     1      20.465  14.808 -19.397  1.00  0.00    -0.544 OA
ATOM     16  O   UNL     1      22.549  15.662 -18.981  1.00  0.00    -0.544 OA
ENDBRANCH   9  14
ENDBRANCH   8   9
ENDBRANCH   1   8
TORSDOF 7
ENDMDL
