MODEL 1
REMARK VINA RESULT:    -4.048      0.000      0.000
REMARK INTER + INTRA:          -7.233
REMARK INTER:                  -6.178
REMARK INTRA:                  -1.055
REMARK UNBOUND:                -1.055
REMARK SMILES O=C([O-])CCCCCCCCC(=O)[O-]
REMARK SMILES IDX 7 1 6 2 5 3 4 4 2 5 1 6 3 7 8 8 9 9 10 10 11 11 12 12 13 13
REMARK SMILES IDX 14 14
REMARK H PARENT
REMARK Flexibility Score: inf
ROOT
ATOM      1  C   UNL     1      -8.078 -13.825  17.300  1.00  0.00     0.000 C 
ENDROOT
BRANCH   1   2
ATOM      2  C   UNL     1      -9.432 -14.517  17.524  1.00  0.00     0.000 C 
BRANCH   2   3
ATOM      3  C   UNL     1     -10.060 -15.024  16.214  1.00  0.00     0.006 C 
BRANCH   3   4
ATOM      4  C   UNL     1     -11.547 -14.661  16.107  1.00  0.00     0.053 C 
BRANCH   4   5
ATOM      5  C   UNL     1     -11.827 -13.813  14.903  1.00  0.00     0.041 C 
ATOM      6  O   UNL     1     -12.632 -12.849  14.982  1.00  0.00    -0.550 OA
ATOM      7  O   UNL     1     -11.171 -14.065  13.705  1.00  0.00    -0.550 OA
ENDBRANCH   4   5
ENDBRANCH   3   4
ENDBRANCH   2   3
ENDBRANCH   1   2
BRANCH   1   8
ATOM      8  C   UNL     1      -7.805 -13.521  15.820  1.00  0.00     0.000 C 
BRANCH   8   9
ATOM      9  C   UNL     1      -7.824 -12.006  15.559  1.00  0.00     0.000 C 
BRANCH   9  10
ATOM     10  C   UNL     1      -9.243 -11.460  15.337  1.00  0.00     0.006 C 
BRANCH  10  11
ATOM     11  C   UNL     1      -9.560 -10.256  16.234  1.00  0.00     0.053 C 
BRANCH  11  12
ATOM     12  C   UNL     1      -9.942 -10.714  17.606  1.00  0.00     0.041 C 
ATOM     13  O   UNL     1      -9.244 -10.384  18.601  1.00  0.00    -0.550 OA
ATOM     14  O   UNL     1     -11.097 -11.463  17.793  1.00  0.00    -0.550 OA
ENDBRANCH  11  12
ENDBRANCH  10  11
ENDBRANCH   9  10
ENDBRANCH   8   9
ENDBRANCH   1   8
TORSDOF 9
ENDMDL
MODEL 2
REMARK VINA RESULT:    -3.891      0.707      4.209
REMARK INTER + INTRA:          -6.992
REMARK INTER:                  -5.955
REMARK INTRA:                  -1.037
REMARK UNBOUND:                -1.055
REMARK SMILES O=C([O-])CCCCCCCCC(=O)[O-]
REMARK SMILES IDX 7 1 6 2 5 3 4 4 2 5 1 6 3 7 8 8 9 9 10 10 11 11 12 12 13 13
REMARK SMILES IDX 14 14
REMARK H PARENT
REMARK Flexibility Score: inf
ROOT
ATOM      1  C   UNL     1      -7.468 -13.329  16.473  1.00  0.00     0.000 C 
ENDROOT
BRANCH   1   2
ATOM      2  C   UNL     1      -7.072 -11.867  16.738  1.00  0.00     0.000 C 
BRANCH   2   3
ATOM      3  C   UNL     1      -7.866 -10.874  15.872  1.00  0.00     0.006 C 
BRANCH   3   4
ATOM      4  C   UNL     1      -9.365 -11.200  15.844  1.00  0.00     0.053 C 
BRANCH   4   5
ATOM      5  C   UNL     1     -10.050 -10.778  17.108  1.00  0.00     0.041 C 
ATOM      6  O   UNL     1     -10.932 -11.513  17.625  1.00  0.00    -0.550 OA
ATOM      7  O   UNL     1      -9.687  -9.593  17.735  1.00  0.00    -0.550 OA
ENDBRANCH   4   5
ENDBRANCH   3   4
ENDBRANCH   2   3
ENDBRANCH   1   2
BRANCH   1   8
ATOM      8  C   UNL     1      -7.894 -14.068  17.750  1.00  0.00     0.000 C 
BRANCH   8   9
ATOM      9  C   UNL     1      -9.325 -14.611  17.617  1.00  0.00     0.000 C 
BRANCH   9  10
ATOM     10  C   UNL     1      -9.752 -14.806  16.153  1.00  0.00     0.006 C 
BRANCH  10  11
ATOM     11  C   UNL     1     -11.270 -14.698  15.961  1.00  0.00     0.053 C 
BRANCH  11  12
ATOM     12  C   UNL     1     -11.587 -13.887  14.745  1.00  0.00     0.041 C 
ATOM     13  O   UNL     1     -10.893 -14.012  13.701  1.00  0.00    -0.550 OA
ATOM     14  O   UNL     1     -12.678 -13.028  14.746  1.00  0.00    -0.550 OA
ENDBRANCH  11  12
ENDBRANCH  10  11
ENDBRANCH   9  10
ENDBRANCH   8   9
ENDBRANCH   1   8
TORSDOF 9
ENDMDL
MODEL 3
REMARK VINA RESULT:    -3.855      2.268      2.840
REMARK INTER + INTRA:          -6.938
REMARK INTER:                  -6.233
REMARK INTRA:                  -0.705
REMARK UNBOUND:                -1.055
REMARK SMILES O=C([O-])CCCCCCCCC(=O)[O-]
REMARK SMILES IDX 7 1 6 2 5 3 4 4 2 5 1 6 3 7 8 8 9 9 10 10 11 11 12 12 13 13
REMARK SMILES IDX 14 14
REMARK H PARENT
REMARK Flexibility Score: inf
ROOT
ATOM      1  C   UNL     1     -11.132 -12.858  17.758  1.00  0.00     0.000 C 
ENDROOT
BRANCH   1   2
ATOM      2  C   UNL     1     -11.726 -13.811  16.709  1.00  0.00     0.000 C 
BRANCH   2   3
ATOM      3  C   UNL     1     -11.963 -13.124  15.352  1.00  0.00     0.006 C 
BRANCH   3   4
ATOM      4  C   UNL     1     -11.408 -13.946  14.183  1.00  0.00     0.053 C 
BRANCH   4   5
ATOM      5  C   UNL     1     -10.111 -13.390  13.678  1.00  0.00     0.041 C 
ATOM      6  O   UNL     1      -9.407 -12.654  14.419  1.00  0.00    -0.550 OA
ATOM      7  O   UNL     1      -9.661 -13.715  12.405  1.00  0.00    -0.550 OA
ENDBRANCH   4   5
ENDBRANCH   3   4
ENDBRANCH   2   3
ENDBRANCH   1   2
BRANCH   1   8
ATOM      8  C   UNL     1      -9.632 -13.092  17.990  1.00  0.00     0.000 C 
BRANCH   8   9
ATOM      9  C   UNL     1      -8.839 -11.790  17.800  1.00  0.00     0.000 C 
BRANCH   9  10
ATOM     10  C   UNL     1      -9.726 -10.612  17.365  1.00  0.00     0.006 C 
BRANCH  10  11
ATOM     11  C   UNL     1      -9.767  -9.487  18.408  1.00  0.00     0.053 C 
BRANCH  11  12
ATOM     12  C   UNL     1      -9.149  -8.242  17.856  1.00  0.00     0.041 C 
ATOM     13  O   UNL     1      -8.791  -8.193  16.649  1.00  0.00    -0.550 OA
ATOM     14  O   UNL     1      -9.014  -7.117  18.659  1.00  0.00    -0.550 OA
ENDBRANCH  11  12
ENDBRANCH  10  11
ENDBRANCH   9  10
ENDBRANCH   8   9
ENDBRANCH   1   8
TORSDOF 9
ENDMDL
MODEL 4
REMARK VINA RESULT:    -3.849      1.975      2.764
REMARK INTER + INTRA:          -6.929
REMARK INTER:                  -5.991
REMARK INTRA:                  -0.938
REMARK UNBOUND:                -1.055
REMARK SMILES O=C([O-])CCCCCCCCC(=O)[O-]
REMARK SMILES IDX 7 1 6 2 5 3 4 4 2 5 1 6 3 7 8 8 9 9 10 10 11 11 12 12 13 13
REMARK SMILES IDX 14 14
REMARK H PARENT
REMARK Flexibility Score: inf
ROOT
ATOM      1  C   UNL     1      -9.845 -13.148  13.764  1.00  0.00     0.000 C 
ENDROOT
BRANCH   1   2
ATOM      2  C   UNL     1     -11.177 -13.869  14.026  1.00  0.00     0.000 C 
BRANCH   2   3
ATOM      3  C   UNL     1     -11.993 -13.211  15.152  1.00  0.00     0.006 C 
BRANCH   3   4
ATOM      4  C   UNL     1     -11.880 -13.980  16.474  1.00  0.00     0.053 C 
BRANCH   4   5
ATOM      5  C   UNL     1     -11.161 -13.184  17.521  1.00  0.00     0.041 C 
ATOM      6  O   UNL     1     -10.004 -13.521  17.888  1.00  0.00    -0.550 OA
ATOM      7  O   UNL     1     -11.752 -12.051  18.063  1.00  0.00    -0.550 OA
ENDBRANCH   4   5
ENDBRANCH   3   4
ENDBRANCH   2   3
ENDBRANCH   1   2
BRANCH   1   8
ATOM      8  C   UNL     1      -8.696 -13.694  14.623  1.00  0.00     0.000 C 
BRANCH   8   9
ATOM      9  C   UNL     1      -7.848 -12.549  15.197  1.00  0.00     0.000 C 
BRANCH   9  10
ATOM     10  C   UNL     1      -8.680 -11.297  15.516  1.00  0.00     0.006 C 
BRANCH  10  11
ATOM     11  C   UNL     1      -7.893 -10.252  16.318  1.00  0.00     0.053 C 
BRANCH  11  12
ATOM     12  C   UNL     1      -8.693  -9.782  17.490  1.00  0.00     0.041 C 
ATOM     13  O   UNL     1      -9.333  -8.699  17.427  1.00  0.00    -0.550 OA
ATOM     14  O   UNL     1      -8.774 -10.563  18.636  1.00  0.00    -0.550 OA
ENDBRANCH  11  12
ENDBRANCH  10  11
ENDBRANCH   9  10
ENDBRANCH   8   9
ENDBRANCH   1   8
TORSDOF 9
ENDMDL
MODEL 5
REMARK VINA RESULT:    -3.815      2.238      3.684
REMARK INTER + INTRA:          -6.877
REMARK INTER:                  -5.755
REMARK INTRA:                  -1.122
REMARK UNBOUND:                -1.055
REMARK SMILES O=C([O-])CCCCCCCCC(=O)[O-]
REMARK SMILES IDX 7 1 6 2 5 3 4 4 2 5 1 6 3 7 8 8 9 9 10 10 11 11 12 12 13 13
REMARK SMILES IDX 14 14
REMARK H PARENT
REMARK Flexibility Score: inf
ROOT
ATOM      1  C   UNL     1     -11.996 -13.458  15.255  1.00  0.00     0.000 C 
ENDROOT
BRANCH   1   2
ATOM      2  C   UNL     1     -11.164 -13.840  14.021  1.00  0.00     0.000 C 
BRANCH   2   3
ATOM      3  C   UNL     1      -9.850 -13.046  13.924  1.00  0.00     0.006 C 
BRANCH   3   4
ATOM      4  C   UNL     1      -8.620 -13.931  14.158  1.00  0.00     0.053 C 
BRANCH   4   5
ATOM      5  C   UNL     1      -7.791 -13.441  15.307  1.00  0.00     0.041 C 
ATOM      6  O   UNL     1      -7.879 -13.998  16.432  1.00  0.00    -0.550 OA
ATOM      7  O   UNL     1      -6.897 -12.395  15.124  1.00  0.00    -0.550 OA
ENDBRANCH   4   5
ENDBRANCH   3   4
ENDBRANCH   2   3
ENDBRANCH   1   2
BRANCH   1   8
ATOM      8  C   UNL     1     -11.666 -14.319  16.482  1.00  0.00     0.000 C 
BRANCH   8   9
ATOM      9  C   UNL     1     -11.094 -13.457  17.619  1.00  0.00     0.000 C 
BRANCH   9  10
ATOM     10  C   UNL     1     -11.066 -11.960  17.271  1.00  0.00     0.006 C 
BRANCH  10  11
ATOM     11  C   UNL     1      -9.867 -11.231  17.893  1.00  0.00     0.053 C 
BRANCH  11  12
ATOM     12  C   UNL     1      -9.166 -10.406  16.862  1.00  0.00     0.041 C 
ATOM     13  O   UNL     1      -9.732 -10.141  15.769  1.00  0.00    -0.550 OA
ATOM     14  O   UNL     1      -7.905  -9.885  17.127  1.00  0.00    -0.550 OA
ENDBRANCH  11  12
ENDBRANCH  10  11
ENDBRANCH   9  10
ENDBRANCH   8   9
ENDBRANCH   1   8
TORSDOF 9
ENDMDL
MODEL 6
REMARK VINA RESULT:    -3.806      1.435      2.380
REMARK INTER + INTRA:          -6.863
REMARK INTER:                  -5.974
REMARK INTRA:                  -0.889
REMARK UNBOUND:                -1.055
REMARK SMILES O=C([O-])CCCCCCCCC(=O)[O-]
REMARK SMILES IDX 7 1 6 2 5 3 4 4 2 5 1 6 3 7 8 8 9 9 10 10 11 11 12 12 13 13
REMARK SMILES IDX 14 14
REMARK H PARENT
REMARK Flexibility Score: inf
ROOT
ATOM      1  C   UNL     1      -8.097 -13.585  14.953  1.00  0.00     0.000 C 
ENDROOT
BRANCH   1   2
ATOM      2  C   UNL     1      -9.398 -12.791  14.757  1.00  0.00     0.000 C 
BRANCH   2   3
ATOM      3  C   UNL     1     -10.430 -13.548  13.903  1.00  0.00     0.006 C 
BRANCH   3   4
ATOM      4  C   UNL     1     -11.747 -13.776  14.654  1.00  0.00     0.053 C 
BRANCH   4   5
ATOM      5  C   UNL     1     -11.529 -14.487  15.955  1.00  0.00     0.041 C 
ATOM      6  O   UNL     1     -11.991 -14.008  17.024  1.00  0.00    -0.550 OA
ATOM      7  O   UNL     1     -10.849 -15.698  15.982  1.00  0.00    -0.550 OA
ENDBRANCH   4   5
ENDBRANCH   3   4
ENDBRANCH   2   3
ENDBRANCH   1   2
BRANCH   1   8
ATOM      8  C   UNL     1      -7.433 -13.309  16.310  1.00  0.00     0.000 C 
BRANCH   8   9
ATOM      9  C   UNL     1      -8.210 -13.991  17.448  1.00  0.00     0.000 C 
BRANCH   9  10
ATOM     10  C   UNL     1      -8.810 -12.984  18.442  1.00  0.00     0.006 C 
BRANCH  10  11
ATOM     11  C   UNL     1      -8.449 -11.532  18.102  1.00  0.00     0.053 C 
BRANCH  11  12
ATOM     12  C   UNL     1      -9.688 -10.720  17.896  1.00  0.00     0.041 C 
ATOM     13  O   UNL     1     -10.823 -11.247  18.043  1.00  0.00    -0.550 OA
ATOM     14  O   UNL     1      -9.592  -9.369  17.589  1.00  0.00    -0.550 OA
ENDBRANCH  11  12
ENDBRANCH  10  11
ENDBRANCH   9  10
ENDBRANCH   8   9
ENDBRANCH   1   8
TORSDOF 9
ENDMDL
MODEL 7
REMARK VINA RESULT:    -3.794      1.808      4.650
REMARK INTER + INTRA:          -6.845
REMARK INTER:                  -5.947
REMARK INTRA:                  -0.897
REMARK UNBOUND:                -1.055
REMARK SMILES O=C([O-])CCCCCCCCC(=O)[O-]
REMARK SMILES IDX 7 1 6 2 5 3 4 4 2 5 1 6 3 7 8 8 9 9 10 10 11 11 12 12 13 13
REMARK SMILES IDX 14 14
REMARK H PARENT
REMARK Flexibility Score: inf
ROOT
ATOM      1  C   UNL     1      -8.297 -12.438  16.038  1.00  0.00     0.000 C 
ENDROOT
BRANCH   1   2
ATOM      2  C   UNL     1      -8.270 -11.011  15.468  1.00  0.00     0.000 C 
BRANCH   2   3
ATOM      3  C   UNL     1      -9.374 -10.117  16.058  1.00  0.00     0.006 C 
BRANCH   3   4
ATOM      4  C   UNL     1      -9.949 -10.691  17.359  1.00  0.00     0.053 C 
BRANCH   4   5
ATOM      5  C   UNL     1      -9.567  -9.864  18.549  1.00  0.00     0.041 C 
ATOM      6  O   UNL     1      -8.368  -9.520  18.721  1.00  0.00    -0.550 OA
ATOM      7  O   UNL     1     -10.540  -9.443  19.446  1.00  0.00    -0.550 OA
ENDBRANCH   4   5
ENDBRANCH   3   4
ENDBRANCH   2   3
ENDBRANCH   1   2
BRANCH   1   8
ATOM      8  C   UNL     1      -8.598 -13.498  14.969  1.00  0.00     0.000 C 
BRANCH   8   9
ATOM      9  C   UNL     1      -9.657 -12.990  13.977  1.00  0.00     0.000 C 
BRANCH   9  10
ATOM     10  C   UNL     1     -10.928 -13.855  13.972  1.00  0.00     0.006 C 
BRANCH  10  11
ATOM     11  C   UNL     1     -11.991 -13.347  14.955  1.00  0.00     0.053 C 
BRANCH  11  12
ATOM     12  C   UNL     1     -12.083 -14.255  16.140  1.00  0.00     0.041 C 
ATOM     13  O   UNL     1     -12.864 -15.243  16.122  1.00  0.00    -0.550 OA
ATOM     14  O   UNL     1     -11.270 -14.040  17.246  1.00  0.00    -0.550 OA
ENDBRANCH  11  12
ENDBRANCH  10  11
ENDBRANCH   9  10
ENDBRANCH   8   9
ENDBRANCH   1   8
TORSDOF 9
ENDMDL
MODEL 8
REMARK VINA RESULT:    -3.757      2.281      4.059
REMARK INTER + INTRA:          -6.788
REMARK INTER:                  -6.079
REMARK INTRA:                  -0.709
REMARK UNBOUND:                -1.055
REMARK SMILES O=C([O-])CCCCCCCCC(=O)[O-]
REMARK SMILES IDX 7 1 6 2 5 3 4 4 2 5 1 6 3 7 8 8 9 9 10 10 11 11 12 12 13 13
REMARK SMILES IDX 14 14
REMARK H PARENT
REMARK Flexibility Score: inf
ROOT
ATOM      1  C   UNL     1      -8.565 -13.947  14.842  1.00  0.00     0.000 C 
ENDROOT
BRANCH   1   2
ATOM      2  C   UNL     1      -7.278 -13.149  15.103  1.00  0.00     0.000 C 
BRANCH   2   3
ATOM      3  C   UNL     1      -7.479 -12.022  16.131  1.00  0.00     0.006 C 
BRANCH   3   4
ATOM      4  C   UNL     1      -7.018 -10.661  15.595  1.00  0.00     0.053 C 
BRANCH   4   5
ATOM      5  C   UNL     1      -8.162  -9.703  15.450  1.00  0.00     0.041 C 
ATOM      6  O   UNL     1      -7.961  -8.539  15.016  1.00  0.00    -0.550 OA
ATOM      7  O   UNL     1      -9.454 -10.109  15.759  1.00  0.00    -0.550 OA
ENDBRANCH   4   5
ENDBRANCH   3   4
ENDBRANCH   2   3
ENDBRANCH   1   2
BRANCH   1   8
ATOM      8  C   UNL     1      -9.641 -13.119  14.125  1.00  0.00     0.000 C 
BRANCH   8   9
ATOM      9  C   UNL     1     -11.009 -13.814  14.203  1.00  0.00     0.000 C 
BRANCH   9  10
ATOM     10  C   UNL     1     -11.936 -13.180  15.253  1.00  0.00     0.006 C 
BRANCH  10  11
ATOM     11  C   UNL     1     -11.824 -13.857  16.625  1.00  0.00     0.053 C 
BRANCH  11  12
ATOM     12  C   UNL     1     -11.242 -12.911  17.628  1.00  0.00     0.041 C 
ATOM     13  O   UNL     1     -10.034 -13.015  17.969  1.00  0.00    -0.550 OA
ATOM     14  O   UNL     1     -12.019 -11.885  18.149  1.00  0.00    -0.550 OA
ENDBRANCH  11  12
ENDBRANCH  10  11
ENDBRANCH   9  10
ENDBRANCH   8   9
ENDBRANCH   1   8
TORSDOF 9
ENDMDL
MODEL 9
REMARK VINA RESULT:    -3.698      1.990      4.776
REMARK INTER + INTRA:          -6.698
REMARK INTER:                  -5.855
REMARK INTRA:                  -0.843
REMARK UNBOUND:                -1.055
REMARK SMILES O=C([O-])CCCCCCCCC(=O)[O-]
REMARK SMILES IDX 7 1 6 2 5 3 4 4 2 5 1 6 3 7 8 8 9 9 10 10 11 11 12 12 13 13
REMARK SMILES IDX 14 14
REMARK H PARENT
REMARK Flexibility Score: inf
ROOT
ATOM      1  C   UNL     1     -10.132 -10.448  17.790  1.00  0.00     0.000 C 
ENDROOT
BRANCH   1   2
ATOM      2  C   UNL     1      -9.293  -9.802  16.676  1.00  0.00     0.000 C 
BRANCH   2   3
ATOM      3  C   UNL     1      -8.858 -10.812  15.600  1.00  0.00     0.006 C 
BRANCH   3   4
ATOM      4  C   UNL     1      -7.333 -10.942  15.510  1.00  0.00     0.053 C 
BRANCH   4   5
ATOM      5  C   UNL     1      -6.883 -12.359  15.700  1.00  0.00     0.041 C 
ATOM      6  O   UNL     1      -6.209 -12.677  16.715  1.00  0.00    -0.550 OA
ATOM      7  O   UNL     1      -7.238 -13.333  14.777  1.00  0.00    -0.550 OA
ENDBRANCH   4   5
ENDBRANCH   3   4
ENDBRANCH   2   3
ENDBRANCH   1   2
BRANCH   1   8
ATOM      8  C   UNL     1     -10.104 -11.983  17.737  1.00  0.00     0.000 C 
BRANCH   8   9
ATOM      9  C   UNL     1     -11.529 -12.557  17.754  1.00  0.00     0.000 C 
BRANCH   9  10
ATOM     10  C   UNL     1     -11.643 -13.884  16.985  1.00  0.00     0.006 C 
BRANCH  10  11
ATOM     11  C   UNL     1     -10.581 -14.021  15.886  1.00  0.00     0.053 C 
BRANCH  11  12
ATOM     12  C   UNL     1     -11.165 -13.687  14.550  1.00  0.00     0.041 C 
ATOM     13  O   UNL     1     -12.407 -13.520  14.426  1.00  0.00    -0.550 OA
ATOM     14  O   UNL     1     -10.333 -13.511  13.452  1.00  0.00    -0.550 OA
ENDBRANCH  11  12
ENDBRANCH  10  11
ENDBRANCH   9  10
ENDBRANCH   8   9
ENDBRANCH   1   8
TORSDOF 9
ENDMDL
