MODEL 1
REMARK VINA RESULT:    -4.558      0.000      0.000
REMARK INTER + INTRA:          -6.076
REMARK INTER:                  -5.624
REMARK INTRA:                  -0.452
REMARK UNBOUND:                -0.452
REMARK SMILES C=CC[C@H](C)C(=O)CC
REMARK SMILES IDX 4 1 5 2 6 3 7 4 8 5 9 6 3 7 2 8 1 9
REMARK H PARENT
REMARK Flexibility Score: inf
ROOT
ATOM      1  C   UNL     1       8.909  31.721  27.801  1.00  0.00     0.057 C 
ATOM      2  C   UNL     1      10.124  31.124  27.077  1.00  0.00     0.016 C 
ENDROOT
BRANCH   1   3
ATOM      3  C   UNL     1       9.293  32.962  28.583  1.00  0.00     0.135 C 
ATOM      4  O   UNL     1      10.125  33.736  28.129  1.00  0.00    -0.299 OA
BRANCH   3   5
ATOM      5  C   UNL     1       8.662  33.269  29.916  1.00  0.00     0.072 C 
ATOM      6  C   UNL     1       7.503  34.246  29.751  1.00  0.00     0.012 C 
ENDBRANCH   3   5
ENDBRANCH   1   3
BRANCH   1   7
ATOM      7  C   UNL     1       8.191  30.686  28.693  1.00  0.00     0.038 C 
BRANCH   7   8
ATOM      8  C   UNL     1       6.758  30.440  28.291  1.00  0.00    -0.034 C 
ATOM      9  C   UNL     1       6.087  31.297  27.516  1.00  0.00     0.004 C 
ENDBRANCH   7   8
ENDBRANCH   1   7
TORSDOF 4
ENDMDL
MODEL 2
REMARK VINA RESULT:    -4.472     17.203     18.147
REMARK INTER + INTRA:          -5.970
REMARK INTER:                  -5.545
REMARK INTRA:                  -0.425
REMARK UNBOUND:                -0.452
REMARK SMILES C=CC[C@H](C)C(=O)CC
REMARK SMILES IDX 4 1 5 2 6 3 7 4 8 5 9 6 3 7 2 8 1 9
REMARK H PARENT
REMARK Flexibility Score: inf
ROOT
ATOM      1  C   UNL     1      -7.759  32.966  21.354  1.00  0.00     0.057 C 
ATOM      2  C   UNL     1      -7.356  33.023  19.874  1.00  0.00     0.016 C 
ENDROOT
BRANCH   1   3
ATOM      3  C   UNL     1      -8.897  31.989  21.575  1.00  0.00     0.135 C 
ATOM      4  O   UNL     1     -10.050  32.336  21.357  1.00  0.00    -0.299 OA
BRANCH   3   5
ATOM      5  C   UNL     1      -8.635  30.585  22.053  1.00  0.00     0.072 C 
ATOM      6  C   UNL     1      -7.339  30.521  22.855  1.00  0.00     0.012 C 
ENDBRANCH   3   5
ENDBRANCH   1   3
BRANCH   1   7
ATOM      7  C   UNL     1      -8.088  34.362  21.926  1.00  0.00     0.038 C 
BRANCH   7   8
ATOM      8  C   UNL     1      -7.539  34.586  23.313  1.00  0.00    -0.034 C 
ATOM      9  C   UNL     1      -8.277  34.369  24.406  1.00  0.00     0.004 C 
ENDBRANCH   7   8
ENDBRANCH   1   7
TORSDOF 4
ENDMDL
MODEL 3
REMARK VINA RESULT:    -4.443     16.721     18.120
REMARK INTER + INTRA:          -5.934
REMARK INTER:                  -5.529
REMARK INTRA:                  -0.405
REMARK UNBOUND:                -0.452
REMARK SMILES C=CC[C@H](C)C(=O)CC
REMARK SMILES IDX 4 1 5 2 6 3 7 4 8 5 9 6 3 7 2 8 1 9
REMARK H PARENT
REMARK Flexibility Score: inf
ROOT
ATOM      1  C   UNL     1      -9.037  32.619  22.988  1.00  0.00     0.057 C 
ATOM      2  C   UNL     1      -7.882  33.398  23.632  1.00  0.00     0.016 C 
ENDROOT
BRANCH   1   3
ATOM      3  C   UNL     1      -8.940  31.139  23.301  1.00  0.00     0.135 C 
ATOM      4  O   UNL     1      -9.548  30.676  24.257  1.00  0.00    -0.299 OA
BRANCH   3   5
ATOM      5  C   UNL     1      -8.110  30.216  22.448  1.00  0.00     0.072 C 
ATOM      6  C   UNL     1      -6.860  29.767  23.197  1.00  0.00     0.012 C 
ENDBRANCH   3   5
ENDBRANCH   1   3
BRANCH   1   7
ATOM      7  C   UNL     1      -9.143  32.875  21.470  1.00  0.00     0.038 C 
BRANCH   7   8
ATOM      8  C   UNL     1      -7.955  33.612  20.902  1.00  0.00    -0.034 C 
ATOM      9  C   UNL     1      -7.222  33.104  19.907  1.00  0.00     0.004 C 
ENDBRANCH   7   8
ENDBRANCH   1   7
TORSDOF 4
ENDMDL
MODEL 4
REMARK VINA RESULT:    -4.422     16.735     17.729
REMARK INTER + INTRA:          -5.908
REMARK INTER:                  -5.626
REMARK INTRA:                  -0.282
REMARK UNBOUND:                -0.452
REMARK SMILES C=CC[C@H](C)C(=O)CC
REMARK SMILES IDX 4 1 5 2 6 3 7 4 8 5 9 6 3 7 2 8 1 9
REMARK H PARENT
REMARK Flexibility Score: inf
ROOT
ATOM      1  C   UNL     1      -8.523  32.290  21.615  1.00  0.00     0.057 C 
ATOM      2  C   UNL     1      -9.768  31.876  20.818  1.00  0.00     0.016 C 
ENDROOT
BRANCH   1   3
ATOM      3  C   UNL     1      -7.907  33.555  21.049  1.00  0.00     0.135 C 
ATOM      4  O   UNL     1      -7.422  33.548  19.926  1.00  0.00    -0.299 OA
BRANCH   3   5
ATOM      5  C   UNL     1      -7.888  34.834  21.844  1.00  0.00     0.072 C 
ATOM      6  C   UNL     1      -7.547  34.556  23.304  1.00  0.00     0.012 C 
ENDBRANCH   3   5
ENDBRANCH   1   3
BRANCH   1   7
ATOM      7  C   UNL     1      -7.487  31.150  21.719  1.00  0.00     0.038 C 
BRANCH   7   8
ATOM      8  C   UNL     1      -7.312  30.626  23.122  1.00  0.00    -0.034 C 
ATOM      9  C   UNL     1      -7.052  29.339  23.366  1.00  0.00     0.004 C 
ENDBRANCH   7   8
ENDBRANCH   1   7
TORSDOF 4
ENDMDL
MODEL 5
REMARK VINA RESULT:    -4.375      1.655      2.884
REMARK INTER + INTRA:          -5.849
REMARK INTER:                  -5.505
REMARK INTRA:                  -0.344
REMARK UNBOUND:                -0.452
REMARK SMILES C=CC[C@H](C)C(=O)CC
REMARK SMILES IDX 4 1 5 2 6 3 7 4 8 5 9 6 3 7 2 8 1 9
REMARK H PARENT
REMARK Flexibility Score: inf
ROOT
ATOM      1  C   UNL     1       6.401  31.873  28.250  1.00  0.00     0.057 C 
ATOM      2  C   UNL     1       5.999  31.796  26.771  1.00  0.00     0.016 C 
ENDROOT
BRANCH   1   3
ATOM      3  C   UNL     1       7.855  32.279  28.402  1.00  0.00     0.135 C 
ATOM      4  O   UNL     1       8.294  32.570  29.506  1.00  0.00    -0.299 OA
BRANCH   3   5
ATOM      5  C   UNL     1       8.778  32.324  27.213  1.00  0.00     0.072 C 
ATOM      6  C   UNL     1      10.111  31.660  27.539  1.00  0.00     0.012 C 
ENDBRANCH   3   5
ENDBRANCH   1   3
BRANCH   1   7
ATOM      7  C   UNL     1       6.093  30.565  29.010  1.00  0.00     0.038 C 
BRANCH   7   8
ATOM      8  C   UNL     1       6.497  29.324  28.256  1.00  0.00    -0.034 C 
ATOM      9  C   UNL     1       7.756  28.876  28.260  1.00  0.00     0.004 C 
ENDBRANCH   7   8
ENDBRANCH   1   7
TORSDOF 4
ENDMDL
MODEL 6
REMARK VINA RESULT:    -4.373     16.605     17.523
REMARK INTER + INTRA:          -5.847
REMARK INTER:                  -5.361
REMARK INTRA:                  -0.486
REMARK UNBOUND:                -0.452
REMARK SMILES C=CC[C@H](C)C(=O)CC
REMARK SMILES IDX 4 1 5 2 6 3 7 4 8 5 9 6 3 7 2 8 1 9
REMARK H PARENT
REMARK Flexibility Score: inf
ROOT
ATOM      1  C   UNL     1      -7.751  31.546  22.929  1.00  0.00     0.057 C 
ATOM      2  C   UNL     1      -7.069  30.205  23.233  1.00  0.00     0.016 C 
ENDROOT
BRANCH   1   3
ATOM      3  C   UNL     1      -8.192  32.237  24.205  1.00  0.00     0.135 C 
ATOM      4  O   UNL     1      -8.265  31.603  25.248  1.00  0.00    -0.299 OA
BRANCH   3   5
ATOM      5  C   UNL     1      -8.538  33.703  24.215  1.00  0.00     0.072 C 
ATOM      6  C   UNL     1      -7.462  34.516  23.503  1.00  0.00     0.012 C 
ENDBRANCH   3   5
ENDBRANCH   1   3
BRANCH   1   7
ATOM      7  C   UNL     1      -8.917  31.398  21.929  1.00  0.00     0.038 C 
BRANCH   7   8
ATOM      8  C   UNL     1      -8.781  32.281  20.714  1.00  0.00    -0.034 C 
ATOM      9  C   UNL     1      -7.588  32.679  20.263  1.00  0.00     0.004 C 
ENDBRANCH   7   8
ENDBRANCH   1   7
TORSDOF 4
ENDMDL
MODEL 7
REMARK VINA RESULT:    -4.331     16.406     17.536
REMARK INTER + INTRA:          -5.796
REMARK INTER:                  -5.430
REMARK INTRA:                  -0.366
REMARK UNBOUND:                -0.452
REMARK SMILES C=CC[C@H](C)C(=O)CC
REMARK SMILES IDX 4 1 5 2 6 3 7 4 8 5 9 6 3 7 2 8 1 9
REMARK H PARENT
REMARK Flexibility Score: inf
ROOT
ATOM      1  C   UNL     1      -7.931  32.327  23.483  1.00  0.00     0.057 C 
ATOM      2  C   UNL     1      -8.351  32.732  24.902  1.00  0.00     0.016 C 
ENDROOT
BRANCH   1   3
ATOM      3  C   UNL     1      -7.952  33.518  22.545  1.00  0.00     0.135 C 
ATOM      4  O   UNL     1      -7.501  34.594  22.915  1.00  0.00    -0.299 OA
BRANCH   3   5
ATOM      5  C   UNL     1      -8.514  33.402  21.152  1.00  0.00     0.072 C 
ATOM      6  C   UNL     1      -7.399  33.169  20.138  1.00  0.00     0.012 C 
ENDBRANCH   3   5
ENDBRANCH   1   3
BRANCH   1   7
ATOM      7  C   UNL     1      -8.772  31.155  22.934  1.00  0.00     0.038 C 
BRANCH   7   8
ATOM      8  C   UNL     1      -7.964  29.910  22.666  1.00  0.00    -0.034 C 
ATOM      9  C   UNL     1      -6.781  29.700  23.251  1.00  0.00     0.004 C 
ENDBRANCH   7   8
ENDBRANCH   1   7
TORSDOF 4
ENDMDL
MODEL 8
REMARK VINA RESULT:    -4.080     17.138     17.910
REMARK INTER + INTRA:          -5.485
REMARK INTER:                  -5.240
REMARK INTRA:                  -0.246
REMARK UNBOUND:                -0.452
REMARK SMILES C=CC[C@H](C)C(=O)CC
REMARK SMILES IDX 4 1 5 2 6 3 7 4 8 5 9 6 3 7 2 8 1 9
REMARK H PARENT
REMARK Flexibility Score: inf
ROOT
ATOM      1  C   UNL     1      -7.744  33.646  23.171  1.00  0.00     0.057 C 
ATOM      2  C   UNL     1      -7.763  34.810  22.171  1.00  0.00     0.016 C 
ENDROOT
BRANCH   1   3
ATOM      3  C   UNL     1      -7.853  32.311  22.459  1.00  0.00     0.135 C 
ATOM      4  O   UNL     1      -7.690  31.272  23.084  1.00  0.00    -0.299 OA
BRANCH   3   5
ATOM      5  C   UNL     1      -8.168  32.238  20.989  1.00  0.00     0.072 C 
ATOM      6  C   UNL     1      -9.562  31.663  20.764  1.00  0.00     0.012 C 
ENDBRANCH   3   5
ENDBRANCH   1   3
BRANCH   1   7
ATOM      7  C   UNL     1      -8.820  33.797  24.268  1.00  0.00     0.038 C 
BRANCH   7   8
ATOM      8  C   UNL     1      -8.298  34.420  25.538  1.00  0.00    -0.034 C 
ATOM      9  C   UNL     1      -8.484  35.714  25.815  1.00  0.00     0.004 C 
ENDBRANCH   7   8
ENDBRANCH   1   7
TORSDOF 4
ENDMDL
