MODEL 1
REMARK VINA RESULT:    -5.949      0.000      0.000
REMARK INTER + INTRA:         -10.242
REMARK INTER:                  -8.558
REMARK INTRA:                  -1.684
REMARK UNBOUND:                -1.684
REMARK SMILES O=c1c(O[C@H]2O[C@H](CO)[C@H](O)[C@@H](O)[C@@H]2O)c(-c2ccc(O)cc2)oc2cc(O)cc(O)c12
REMARK SMILES IDX 4 1 3 2 16 3 24 4 2 5 25 6 1 7 32 8 26 9 30 10 27 11 29 12
REMARK SMILES IDX 17 13 18 14 19 15 20 16 23 17 22 18 21 19 31 21 28 23 5 25
REMARK SMILES IDX 14 26 6 27 12 28 7 29 10 30 15 31 13 33 8 35 9 36 11 38
REMARK H PARENT 21 20 31 22 28 24 15 32 13 34 9 37 11 39
REMARK Flexibility Score: inf
ROOT
ATOM      1  O   UNL     1      18.199   0.216 -12.686  1.00  0.00    -0.454 OA
ENDROOT
BRANCH   1   2
ATOM      2  C   UNL     1      18.366   0.025 -14.075  1.00  0.00     0.214 A 
ATOM      3  C   UNL     1      17.394  -0.732 -14.762  1.00  0.00     0.180 A 
ATOM      4  O   UNL     1      17.558  -1.026 -16.047  1.00  0.00    -0.452 OA
ATOM      5  C   UNL     1      19.465   0.525 -14.811  1.00  0.00     0.239 A 
ATOM      6  C   UNL     1      18.584  -0.598 -16.767  1.00  0.00     0.146 A 
ATOM      7  O   UNL     1      20.339   1.236 -14.248  1.00  0.00    -0.285 OA
ATOM      8  C   UNL     1      19.580   0.223 -16.185  1.00  0.00     0.111 A 
ATOM      9  C   UNL     1      18.662  -0.954 -18.117  1.00  0.00     0.094 A 
ATOM     10  C   UNL     1      20.637   0.703 -16.998  1.00  0.00     0.134 A 
ATOM     11  C   UNL     1      19.710  -0.478 -18.913  1.00  0.00     0.123 A 
ATOM     12  C   UNL     1      20.687   0.351 -18.355  1.00  0.00     0.093 A 
BRANCH   3  13
ATOM     13  C   UNL     1      16.177  -1.233 -14.085  1.00  0.00     0.021 A 
ATOM     14  C   UNL     1      15.102  -0.374 -13.794  1.00  0.00     0.016 A 
ATOM     15  C   UNL     1      13.960  -0.864 -13.151  1.00  0.00     0.047 A 
ATOM     16  C   UNL     1      13.866  -2.221 -12.821  1.00  0.00     0.115 A 
ATOM     17  C   UNL     1      16.065  -2.596 -13.773  1.00  0.00     0.016 A 
ATOM     18  C   UNL     1      14.917  -3.087 -13.141  1.00  0.00     0.047 A 
BRANCH  16  19
ATOM     19  O   UNL     1      12.733  -2.721 -12.183  1.00  0.00    -0.508 OA
ATOM     20  H   UNL     1      12.484  -3.702 -12.232  1.00  0.00     0.293 HD
ENDBRANCH  16  19
ENDBRANCH   3  13
BRANCH  10  21
ATOM     21  O   UNL     1      21.632   1.532 -16.474  1.00  0.00    -0.507 OA
ATOM     22  H   UNL     1      22.092   2.237 -17.041  1.00  0.00     0.293 HD
ENDBRANCH  10  21
BRANCH  11  23
ATOM     23  O   UNL     1      19.786  -0.817 -20.261  1.00  0.00    -0.508 OA
ATOM     24  H   UNL     1      19.530  -1.742 -20.591  1.00  0.00     0.293 HD
ENDBRANCH  11  23
ENDBRANCH   1   2
BRANCH   1  25
ATOM     25  C   UNL     1      19.014  -0.307 -11.630  1.00  0.00     0.339 C 
ATOM     26  C   UNL     1      18.949  -1.858 -11.634  1.00  0.00     0.214 C 
ATOM     27  O   UNL     1      18.622   0.213 -10.369  1.00  0.00    -0.332 OA
ATOM     28  C   UNL     1      18.002  -2.392 -10.537  1.00  0.00     0.180 C 
ATOM     29  C   UNL     1      17.238   0.013 -10.104  1.00  0.00     0.179 C 
ATOM     30  C   UNL     1      16.778  -1.457 -10.394  1.00  0.00     0.177 C 
BRANCH  26  31
ATOM     31  O   UNL     1      20.231  -2.419 -11.488  1.00  0.00    -0.384 OA
ATOM     32  H   UNL     1      20.832  -1.974 -12.141  1.00  0.00     0.211 HD
ENDBRANCH  26  31
BRANCH  28  33
ATOM     33  O   UNL     1      17.606  -3.713 -10.813  1.00  0.00    -0.387 OA
ATOM     34  H   UNL     1      18.314  -4.321 -10.468  1.00  0.00     0.211 HD
ENDBRANCH  28  33
BRANCH  29  35
ATOM     35  C   UNL     1      16.977   0.458  -8.653  1.00  0.00     0.191 C 
BRANCH  35  36
ATOM     36  O   UNL     1      17.674  -0.351  -7.744  1.00  0.00    -0.394 OA
ATOM     37  H   UNL     1      17.837   0.203  -6.935  1.00  0.00     0.210 HD
ENDBRANCH  35  36
ENDBRANCH  29  35
BRANCH  30  38
ATOM     38  O   UNL     1      15.851  -1.936  -9.449  1.00  0.00    -0.387 OA
ATOM     39  H   UNL     1      16.159  -1.665  -8.543  1.00  0.00     0.211 HD
ENDBRANCH  30  38
ENDBRANCH   1  25
TORSDOF 11
ENDMDL
MODEL 2
REMARK VINA RESULT:    -5.811      3.310      6.465
REMARK INTER + INTRA:         -10.043
REMARK INTER:                  -8.782
REMARK INTRA:                  -1.261
REMARK UNBOUND:                -1.684
REMARK SMILES O=c1c(O[C@H]2O[C@H](CO)[C@H](O)[C@@H](O)[C@@H]2O)c(-c2ccc(O)cc2)oc2cc(O)cc(O)c12
REMARK SMILES IDX 4 1 3 2 16 3 24 4 2 5 25 6 1 7 32 8 26 9 30 10 27 11 29 12
REMARK SMILES IDX 17 13 18 14 19 15 20 16 23 17 22 18 21 19 31 21 28 23 5 25
REMARK SMILES IDX 14 26 6 27 12 28 7 29 10 30 15 31 13 33 8 35 9 36 11 38
REMARK H PARENT 21 20 31 22 28 24 15 32 13 34 9 37 11 39
REMARK Flexibility Score: inf
ROOT
ATOM      1  O   UNL     1      17.499  -0.990 -10.610  1.00  0.00    -0.454 OA
ENDROOT
BRANCH   1   2
ATOM      2  C   UNL     1      16.195  -0.454 -10.679  1.00  0.00     0.214 A 
ATOM      3  C   UNL     1      15.380  -0.829 -11.768  1.00  0.00     0.180 A 
ATOM      4  O   UNL     1      14.184  -0.275 -11.933  1.00  0.00    -0.452 OA
ATOM      5  C   UNL     1      15.668   0.459  -9.736  1.00  0.00     0.239 A 
ATOM      6  C   UNL     1      13.664   0.601 -11.087  1.00  0.00     0.146 A 
ATOM      7  O   UNL     1      16.345   0.796  -8.728  1.00  0.00    -0.285 OA
ATOM      8  C   UNL     1      14.376   0.994  -9.929  1.00  0.00     0.111 A 
ATOM      9  C   UNL     1      12.392   1.121 -11.344  1.00  0.00     0.094 A 
ATOM     10  C   UNL     1      13.768   1.895  -9.019  1.00  0.00     0.134 A 
ATOM     11  C   UNL     1      11.798   2.012 -10.443  1.00  0.00     0.123 A 
ATOM     12  C   UNL     1      12.483   2.391  -9.285  1.00  0.00     0.093 A 
BRANCH   3  13
ATOM     13  C   UNL     1      15.823  -1.832 -12.761  1.00  0.00     0.021 A 
ATOM     14  C   UNL     1      15.390  -3.168 -12.690  1.00  0.00     0.016 A 
ATOM     15  C   UNL     1      15.822  -4.103 -13.637  1.00  0.00     0.047 A 
ATOM     16  C   UNL     1      16.664  -3.708 -14.682  1.00  0.00     0.115 A 
ATOM     17  C   UNL     1      16.648  -1.439 -13.827  1.00  0.00     0.016 A 
ATOM     18  C   UNL     1      17.070  -2.373 -14.780  1.00  0.00     0.047 A 
BRANCH  16  19
ATOM     19  O   UNL     1      17.099  -4.630 -15.632  1.00  0.00    -0.508 OA
ATOM     20  H   UNL     1      17.349  -4.347 -16.572  1.00  0.00     0.293 HD
ENDBRANCH  16  19
ENDBRANCH   3  13
BRANCH  10  21
ATOM     21  O   UNL     1      14.423   2.296  -7.852  1.00  0.00    -0.507 OA
ATOM     22  H   UNL     1      14.150   1.946  -6.940  1.00  0.00     0.293 HD
ENDBRANCH  10  21
BRANCH  11  23
ATOM     23  O   UNL     1      10.526   2.524 -10.686  1.00  0.00    -0.508 OA
ATOM     24  H   UNL     1      10.289   3.485 -10.465  1.00  0.00     0.293 HD
ENDBRANCH  11  23
ENDBRANCH   1   2
BRANCH   1  25
ATOM     25  C   UNL     1      17.872  -2.342 -10.321  1.00  0.00     0.339 C 
ATOM     26  C   UNL     1      17.153  -2.820  -9.030  1.00  0.00     0.214 C 
ATOM     27  O   UNL     1      19.279  -2.475 -10.196  1.00  0.00    -0.332 OA
ATOM     28  C   UNL     1      18.097  -2.791  -7.808  1.00  0.00     0.180 C 
ATOM     29  C   UNL     1      19.829  -1.570  -9.244  1.00  0.00     0.179 C 
ATOM     30  C   UNL     1      19.034  -1.564  -7.894  1.00  0.00     0.177 C 
BRANCH  26  31
ATOM     31  O   UNL     1      16.613  -4.109  -9.199  1.00  0.00    -0.384 OA
ATOM     32  H   UNL     1      16.270  -4.411  -8.318  1.00  0.00     0.211 HD
ENDBRANCH  26  31
BRANCH  28  33
ATOM     33  O   UNL     1      17.365  -2.792  -6.606  1.00  0.00    -0.387 OA
ATOM     34  H   UNL     1      17.937  -3.200  -5.903  1.00  0.00     0.211 HD
ENDBRANCH  28  33
BRANCH  29  35
ATOM     35  C   UNL     1      21.317  -1.927  -9.075  1.00  0.00     0.191 C 
BRANCH  35  36
ATOM     36  O   UNL     1      21.474  -3.269  -8.697  1.00  0.00    -0.394 OA
ATOM     37  H   UNL     1      21.122  -3.348  -7.771  1.00  0.00     0.210 HD
ENDBRANCH  35  36
ENDBRANCH  29  35
BRANCH  30  38
ATOM     38  O   UNL     1      19.872  -1.456  -6.767  1.00  0.00    -0.387 OA
ATOM     39  H   UNL     1      19.560  -2.105  -6.081  1.00  0.00     0.211 HD
ENDBRANCH  30  38
ENDBRANCH   1  25
TORSDOF 11
ENDMDL
MODEL 3
REMARK VINA RESULT:    -5.808      1.656      2.536
REMARK INTER + INTRA:         -10.039
REMARK INTER:                  -8.256
REMARK INTRA:                  -1.783
REMARK UNBOUND:                -1.684
REMARK SMILES O=c1c(O[C@H]2O[C@H](CO)[C@H](O)[C@@H](O)[C@@H]2O)c(-c2ccc(O)cc2)oc2cc(O)cc(O)c12
REMARK SMILES IDX 4 1 3 2 16 3 24 4 2 5 25 6 1 7 32 8 26 9 30 10 27 11 29 12
REMARK SMILES IDX 17 13 18 14 19 15 20 16 23 17 22 18 21 19 31 21 28 23 5 25
REMARK SMILES IDX 14 26 6 27 12 28 7 29 10 30 15 31 13 33 8 35 9 36 11 38
REMARK H PARENT 21 20 31 22 28 24 15 32 13 34 9 37 11 39
REMARK Flexibility Score: inf
ROOT
ATOM      1  O   UNL     1      19.158   0.631 -13.713  1.00  0.00    -0.454 OA
ENDROOT
BRANCH   1   2
ATOM      2  C   UNL     1      19.140   0.355 -15.097  1.00  0.00     0.214 A 
ATOM      3  C   UNL     1      18.027  -0.335 -15.623  1.00  0.00     0.180 A 
ATOM      4  O   UNL     1      18.009  -0.708 -16.897  1.00  0.00    -0.452 OA
ATOM      5  C   UNL     1      20.187   0.704 -15.982  1.00  0.00     0.239 A 
ATOM      6  C   UNL     1      18.979  -0.422 -17.754  1.00  0.00     0.146 A 
ATOM      7  O   UNL     1      21.185   1.350 -15.567  1.00  0.00    -0.285 OA
ATOM      8  C   UNL     1      20.109   0.322 -17.340  1.00  0.00     0.111 A 
ATOM      9  C   UNL     1      18.862  -0.852 -19.079  1.00  0.00     0.094 A 
ATOM     10  C   UNL     1      21.103   0.653 -18.295  1.00  0.00     0.134 A 
ATOM     11  C   UNL     1      19.848  -0.524 -20.016  1.00  0.00     0.123 A 
ATOM     12  C   UNL     1      20.958   0.229 -19.624  1.00  0.00     0.093 A 
BRANCH   3  13
ATOM     13  C   UNL     1      16.857  -0.675 -14.783  1.00  0.00     0.021 A 
ATOM     14  C   UNL     1      15.740   0.177 -14.712  1.00  0.00     0.016 A 
ATOM     15  C   UNL     1      14.643  -0.160 -13.911  1.00  0.00     0.047 A 
ATOM     16  C   UNL     1      14.637  -1.365 -13.198  1.00  0.00     0.115 A 
ATOM     17  C   UNL     1      16.831  -1.892 -14.085  1.00  0.00     0.016 A 
ATOM     18  C   UNL     1      15.729  -2.233 -13.294  1.00  0.00     0.047 A 
BRANCH  16  19
ATOM     19  O   UNL     1      13.549  -1.712 -12.399  1.00  0.00    -0.508 OA
ATOM     20  H   UNL     1      12.906  -1.014 -12.045  1.00  0.00     0.293 HD
ENDBRANCH  16  19
ENDBRANCH   3  13
BRANCH  10  21
ATOM     21  O   UNL     1      22.226   1.402 -17.939  1.00  0.00    -0.507 OA
ATOM     22  H   UNL     1      23.083   0.962 -17.621  1.00  0.00     0.293 HD
ENDBRANCH  10  21
BRANCH  11  23
ATOM     23  O   UNL     1      19.732  -0.937 -21.341  1.00  0.00    -0.508 OA
ATOM     24  H   UNL     1      19.610  -1.914 -21.583  1.00  0.00     0.293 HD
ENDBRANCH  11  23
ENDBRANCH   1   2
BRANCH   1  25
ATOM     25  C   UNL     1      18.836   1.868 -13.067  1.00  0.00     0.339 C 
ATOM     26  C   UNL     1      20.001   2.292 -12.133  1.00  0.00     0.214 C 
ATOM     27  O   UNL     1      17.617   1.772 -12.344  1.00  0.00    -0.332 OA
ATOM     28  C   UNL     1      19.690   1.976 -10.653  1.00  0.00     0.180 C 
ATOM     29  C   UNL     1      17.616   0.688 -11.421  1.00  0.00     0.179 C 
ATOM     30  C   UNL     1      18.917   0.642 -10.549  1.00  0.00     0.177 C 
BRANCH  26  31
ATOM     31  O   UNL     1      20.302   3.658 -12.288  1.00  0.00    -0.384 OA
ATOM     32  H   UNL     1      20.975   3.899 -11.599  1.00  0.00     0.211 HD
ENDBRANCH  26  31
BRANCH  28  33
ATOM     33  O   UNL     1      20.870   1.945  -9.887  1.00  0.00    -0.387 OA
ATOM     34  H   UNL     1      20.657   2.307  -8.986  1.00  0.00     0.211 HD
ENDBRANCH  28  33
BRANCH  29  35
ATOM     35  C   UNL     1      16.326   0.795 -10.587  1.00  0.00     0.191 C 
BRANCH  35  36
ATOM     36  O   UNL     1      15.941  -0.459 -10.091  1.00  0.00    -0.394 OA
ATOM     37  H   UNL     1      16.442  -1.140 -10.614  1.00  0.00     0.210 HD
ENDBRANCH  35  36
ENDBRANCH  29  35
BRANCH  30  38
ATOM     38  O   UNL     1      18.666   0.276  -9.213  1.00  0.00    -0.387 OA
ATOM     39  H   UNL     1      18.763   1.086  -8.643  1.00  0.00     0.211 HD
ENDBRANCH  30  38
ENDBRANCH   1  25
TORSDOF 11
ENDMDL
MODEL 4
REMARK VINA RESULT:    -5.735      2.888      4.987
REMARK INTER + INTRA:          -9.934
REMARK INTER:                  -8.729
REMARK INTRA:                  -1.205
REMARK UNBOUND:                -1.684
REMARK SMILES O=c1c(O[C@H]2O[C@H](CO)[C@H](O)[C@@H](O)[C@@H]2O)c(-c2ccc(O)cc2)oc2cc(O)cc(O)c12
REMARK SMILES IDX 4 1 3 2 16 3 24 4 2 5 25 6 1 7 32 8 26 9 30 10 27 11 29 12
REMARK SMILES IDX 17 13 18 14 19 15 20 16 23 17 22 18 21 19 31 21 28 23 5 25
REMARK SMILES IDX 14 26 6 27 12 28 7 29 10 30 15 31 13 33 8 35 9 36 11 38
REMARK H PARENT 21 20 31 22 28 24 15 32 13 34 9 37 11 39
REMARK Flexibility Score: inf
ROOT
ATOM      1  O   UNL     1      17.084  -1.565 -11.746  1.00  0.00    -0.454 OA
ENDROOT
BRANCH   1   2
ATOM      2  C   UNL     1      17.393  -2.463 -12.790  1.00  0.00     0.214 A 
ATOM      3  C   UNL     1      17.276  -2.003 -14.119  1.00  0.00     0.180 A 
ATOM      4  O   UNL     1      17.456  -2.837 -15.136  1.00  0.00    -0.452 OA
ATOM      5  C   UNL     1      17.787  -3.806 -12.582  1.00  0.00     0.239 A 
ATOM      6  C   UNL     1      17.802  -4.107 -14.985  1.00  0.00     0.146 A 
ATOM      7  O   UNL     1      17.940  -4.252 -11.414  1.00  0.00    -0.285 OA
ATOM      8  C   UNL     1      18.008  -4.648 -13.694  1.00  0.00     0.111 A 
ATOM      9  C   UNL     1      17.977  -4.902 -16.121  1.00  0.00     0.094 A 
ATOM     10  C   UNL     1      18.425  -5.997 -13.572  1.00  0.00     0.134 A 
ATOM     11  C   UNL     1      18.387  -6.234 -15.993  1.00  0.00     0.123 A 
ATOM     12  C   UNL     1      18.615  -6.774 -14.724  1.00  0.00     0.093 A 
BRANCH   3  13
ATOM     13  C   UNL     1      16.940  -0.595 -14.426  1.00  0.00     0.021 A 
ATOM     14  C   UNL     1      15.604  -0.183 -14.581  1.00  0.00     0.016 A 
ATOM     15  C   UNL     1      15.305   1.152 -14.874  1.00  0.00     0.047 A 
ATOM     16  C   UNL     1      16.333   2.095 -14.983  1.00  0.00     0.115 A 
ATOM     17  C   UNL     1      17.962   0.362 -14.512  1.00  0.00     0.016 A 
ATOM     18  C   UNL     1      17.661   1.700 -14.793  1.00  0.00     0.047 A 
BRANCH  16  19
ATOM     19  O   UNL     1      16.046   3.428 -15.272  1.00  0.00    -0.508 OA
ATOM     20  H   UNL     1      16.468   4.187 -14.750  1.00  0.00     0.293 HD
ENDBRANCH  16  19
ENDBRANCH   3  13
BRANCH  10  21
ATOM     21  O   UNL     1      18.661  -6.570 -12.320  1.00  0.00    -0.507 OA
ATOM     22  H   UNL     1      17.921  -6.678 -11.634  1.00  0.00     0.293 HD
ENDBRANCH  10  21
BRANCH  11  23
ATOM     23  O   UNL     1      18.577  -7.029 -17.121  1.00  0.00    -0.508 OA
ATOM     24  H   UNL     1      19.381  -7.641 -17.209  1.00  0.00     0.293 HD
ENDBRANCH  11  23
ENDBRANCH   1   2
BRANCH   1  25
ATOM     25  C   UNL     1      15.922  -1.568 -10.909  1.00  0.00     0.339 C 
ATOM     26  C   UNL     1      15.485  -0.109 -10.611  1.00  0.00     0.214 C 
ATOM     27  O   UNL     1      16.154  -2.284  -9.705  1.00  0.00    -0.332 OA
ATOM     28  C   UNL     1      15.927   0.342  -9.200  1.00  0.00     0.180 C 
ATOM     29  C   UNL     1      17.299  -1.810  -9.002  1.00  0.00     0.179 C 
ATOM     30  C   UNL     1      17.316  -0.249  -8.868  1.00  0.00     0.177 C 
BRANCH  26  31
ATOM     31  O   UNL     1      14.094   0.044 -10.758  1.00  0.00    -0.384 OA
ATOM     32  H   UNL     1      13.717   0.256  -9.865  1.00  0.00     0.211 HD
ENDBRANCH  26  31
BRANCH  28  33
ATOM     33  O   UNL     1      15.930   1.745  -9.099  1.00  0.00    -0.387 OA
ATOM     34  H   UNL     1      16.528   2.099  -9.810  1.00  0.00     0.211 HD
ENDBRANCH  28  33
BRANCH  29  35
ATOM     35  C   UNL     1      17.342  -2.540  -7.647  1.00  0.00     0.191 C 
BRANCH  35  36
ATOM     36  O   UNL     1      17.579  -3.911  -7.821  1.00  0.00    -0.394 OA
ATOM     37  H   UNL     1      17.191  -4.371  -7.030  1.00  0.00     0.210 HD
ENDBRANCH  35  36
ENDBRANCH  29  35
BRANCH  30  38
ATOM     38  O   UNL     1      17.793   0.186  -7.616  1.00  0.00    -0.387 OA
ATOM     39  H   UNL     1      18.142   1.112  -7.718  1.00  0.00     0.211 HD
ENDBRANCH  30  38
ENDBRANCH   1  25
TORSDOF 11
ENDMDL
MODEL 5
REMARK VINA RESULT:    -5.645      3.588      6.843
REMARK INTER + INTRA:          -9.804
REMARK INTER:                  -8.460
REMARK INTRA:                  -1.344
REMARK UNBOUND:                -1.684
REMARK SMILES O=c1c(O[C@H]2O[C@H](CO)[C@H](O)[C@@H](O)[C@@H]2O)c(-c2ccc(O)cc2)oc2cc(O)cc(O)c12
REMARK SMILES IDX 4 1 3 2 16 3 24 4 2 5 25 6 1 7 32 8 26 9 30 10 27 11 29 12
REMARK SMILES IDX 17 13 18 14 19 15 20 16 23 17 22 18 21 19 31 21 28 23 5 25
REMARK SMILES IDX 14 26 6 27 12 28 7 29 10 30 15 31 13 33 8 35 9 36 11 38
REMARK H PARENT 21 20 31 22 28 24 15 32 13 34 9 37 11 39
REMARK Flexibility Score: inf
ROOT
ATOM      1  O   UNL     1      19.556  -1.003  -8.862  1.00  0.00    -0.454 OA
ENDROOT
BRANCH   1   2
ATOM      2  C   UNL     1      20.577  -1.956  -9.067  1.00  0.00     0.214 A 
ATOM      3  C   UNL     1      20.707  -2.524 -10.352  1.00  0.00     0.180 A 
ATOM      4  O   UNL     1      21.584  -3.498 -10.569  1.00  0.00    -0.452 OA
ATOM      5  C   UNL     1      21.459  -2.395  -8.052  1.00  0.00     0.239 A 
ATOM      6  C   UNL     1      22.411  -3.954  -9.641  1.00  0.00     0.146 A 
ATOM      7  O   UNL     1      21.404  -1.892  -6.898  1.00  0.00    -0.285 OA
ATOM      8  C   UNL     1      22.404  -3.405  -8.337  1.00  0.00     0.111 A 
ATOM      9  C   UNL     1      23.305  -4.977  -9.972  1.00  0.00     0.094 A 
ATOM     10  C   UNL     1      23.337  -3.883  -7.383  1.00  0.00     0.134 A 
ATOM     11  C   UNL     1      24.222  -5.446  -9.025  1.00  0.00     0.123 A 
ATOM     12  C   UNL     1      24.239  -4.896  -7.740  1.00  0.00     0.093 A 
BRANCH   3  13
ATOM     13  C   UNL     1      19.875  -2.072 -11.489  1.00  0.00     0.021 A 
ATOM     14  C   UNL     1      19.869  -0.726 -11.897  1.00  0.00     0.016 A 
ATOM     15  C   UNL     1      19.073  -0.317 -12.972  1.00  0.00     0.047 A 
ATOM     16  C   UNL     1      18.301  -1.251 -13.672  1.00  0.00     0.115 A 
ATOM     17  C   UNL     1      19.116  -3.007 -12.211  1.00  0.00     0.016 A 
ATOM     18  C   UNL     1      18.330  -2.597 -13.294  1.00  0.00     0.047 A 
BRANCH  16  19
ATOM     19  O   UNL     1      17.507  -0.855 -14.746  1.00  0.00    -0.508 OA
ATOM     20  H   UNL     1      16.572  -1.221 -14.879  1.00  0.00     0.293 HD
ENDBRANCH  16  19
ENDBRANCH   3  13
BRANCH  10  21
ATOM     21  O   UNL     1      23.382  -3.358  -6.090  1.00  0.00    -0.507 OA
ATOM     22  H   UNL     1      22.541  -3.224  -5.539  1.00  0.00     0.293 HD
ENDBRANCH  10  21
BRANCH  11  23
ATOM     23  O   UNL     1      25.125  -6.455  -9.351  1.00  0.00    -0.508 OA
ATOM     24  H   UNL     1      25.651  -6.436 -10.218  1.00  0.00     0.293 HD
ENDBRANCH  11  23
ENDBRANCH   1   2
BRANCH   1  25
ATOM     25  C   UNL     1      18.447  -1.094  -7.960  1.00  0.00     0.339 C 
ATOM     26  C   UNL     1      17.851  -2.527  -8.002  1.00  0.00     0.214 C 
ATOM     27  O   UNL     1      17.456  -0.123  -8.260  1.00  0.00    -0.332 OA
ATOM     28  C   UNL     1      16.562  -2.583  -8.853  1.00  0.00     0.180 C 
ATOM     29  C   UNL     1      17.027  -0.184  -9.617  1.00  0.00     0.179 C 
ATOM     30  C   UNL     1      16.695  -1.645 -10.075  1.00  0.00     0.177 C 
BRANCH  26  31
ATOM     31  O   UNL     1      17.600  -3.009  -6.705  1.00  0.00    -0.384 OA
ATOM     32  H   UNL     1      17.088  -3.856  -6.791  1.00  0.00     0.211 HD
ENDBRANCH  26  31
BRANCH  28  33
ATOM     33  O   UNL     1      16.278  -3.902  -9.249  1.00  0.00    -0.387 OA
ATOM     34  H   UNL     1      15.395  -4.151  -8.866  1.00  0.00     0.211 HD
ENDBRANCH  28  33
BRANCH  29  35
ATOM     35  C   UNL     1      15.844   0.788  -9.770  1.00  0.00     0.191 C 
BRANCH  35  36
ATOM     36  O   UNL     1      14.671   0.244  -9.227  1.00  0.00    -0.394 OA
ATOM     37  H   UNL     1      13.972   0.311  -9.931  1.00  0.00     0.210 HD
ENDBRANCH  35  36
ENDBRANCH  29  35
BRANCH  30  38
ATOM     38  O   UNL     1      15.569  -1.710 -10.919  1.00  0.00    -0.387 OA
ATOM     39  H   UNL     1      15.130  -0.817 -10.925  1.00  0.00     0.211 HD
ENDBRANCH  30  38
ENDBRANCH   1  25
TORSDOF 11
ENDMDL
MODEL 6
REMARK VINA RESULT:    -5.612      3.444      6.643
REMARK INTER + INTRA:          -9.757
REMARK INTER:                  -8.445
REMARK INTRA:                  -1.312
REMARK UNBOUND:                -1.684
REMARK SMILES O=c1c(O[C@H]2O[C@H](CO)[C@H](O)[C@@H](O)[C@@H]2O)c(-c2ccc(O)cc2)oc2cc(O)cc(O)c12
REMARK SMILES IDX 4 1 3 2 16 3 24 4 2 5 25 6 1 7 32 8 26 9 30 10 27 11 29 12
REMARK SMILES IDX 17 13 18 14 19 15 20 16 23 17 22 18 21 19 31 21 28 23 5 25
REMARK SMILES IDX 14 26 6 27 12 28 7 29 10 30 15 31 13 33 8 35 9 36 11 38
REMARK H PARENT 21 20 31 22 28 24 15 32 13 34 9 37 11 39
REMARK Flexibility Score: inf
ROOT
ATOM      1  O   UNL     1      18.071  -1.001 -10.255  1.00  0.00    -0.454 OA
ENDROOT
BRANCH   1   2
ATOM      2  C   UNL     1      16.865  -0.285 -10.096  1.00  0.00     0.214 A 
ATOM      3  C   UNL     1      15.840  -0.494 -11.044  1.00  0.00     0.180 A 
ATOM      4  O   UNL     1      14.727   0.230 -10.998  1.00  0.00    -0.452 OA
ATOM      5  C   UNL     1      16.635   0.650  -9.060  1.00  0.00     0.239 A 
ATOM      6  C   UNL     1      14.482   1.132 -10.059  1.00  0.00     0.146 A 
ATOM      7  O   UNL     1      17.506   0.844  -8.172  1.00  0.00    -0.285 OA
ATOM      8  C   UNL     1      15.420   1.369  -9.026  1.00  0.00     0.111 A 
ATOM      9  C   UNL     1      13.275   1.836 -10.093  1.00  0.00     0.094 A 
ATOM     10  C   UNL     1      15.103   2.305  -8.010  1.00  0.00     0.134 A 
ATOM     11  C   UNL     1      12.969   2.760  -9.087  1.00  0.00     0.123 A 
ATOM     12  C   UNL     1      13.878   2.987  -8.050  1.00  0.00     0.093 A 
BRANCH   3  13
ATOM     13  C   UNL     1      15.968  -1.503 -12.117  1.00  0.00     0.021 A 
ATOM     14  C   UNL     1      15.320  -2.749 -12.026  1.00  0.00     0.016 A 
ATOM     15  C   UNL     1      15.455  -3.693 -13.050  1.00  0.00     0.047 A 
ATOM     16  C   UNL     1      16.210  -3.392 -14.189  1.00  0.00     0.115 A 
ATOM     17  C   UNL     1      16.703  -1.201 -13.274  1.00  0.00     0.016 A 
ATOM     18  C   UNL     1      16.827  -2.142 -14.302  1.00  0.00     0.047 A 
BRANCH  16  19
ATOM     19  O   UNL     1      16.350  -4.323 -15.216  1.00  0.00    -0.508 OA
ATOM     20  H   UNL     1      16.859  -5.189 -15.082  1.00  0.00     0.293 HD
ENDBRANCH  16  19
ENDBRANCH   3  13
BRANCH  10  21
ATOM     21  O   UNL     1      15.988   2.559  -6.959  1.00  0.00    -0.507 OA
ATOM     22  H   UNL     1      16.607   1.841  -6.598  1.00  0.00     0.293 HD
ENDBRANCH  10  21
BRANCH  11  23
ATOM     23  O   UNL     1      11.763   3.455  -9.107  1.00  0.00    -0.508 OA
ATOM     24  H   UNL     1      11.175   3.521  -8.283  1.00  0.00     0.293 HD
ENDBRANCH  11  23
ENDBRANCH   1   2
BRANCH   1  25
ATOM     25  C   UNL     1      18.306  -2.386  -9.976  1.00  0.00     0.339 C 
ATOM     26  C   UNL     1      17.460  -2.826  -8.751  1.00  0.00     0.214 C 
ATOM     27  O   UNL     1      19.685  -2.643  -9.758  1.00  0.00    -0.332 OA
ATOM     28  C   UNL     1      18.314  -2.904  -7.466  1.00  0.00     0.180 C 
ATOM     29  C   UNL     1      20.241  -1.809  -8.747  1.00  0.00     0.179 C 
ATOM     30  C   UNL     1      19.356  -1.761  -7.455  1.00  0.00     0.177 C 
BRANCH  26  31
ATOM     31  O   UNL     1      16.826  -4.059  -8.990  1.00  0.00    -0.384 OA
ATOM     32  H   UNL     1      15.853  -3.935  -8.830  1.00  0.00     0.211 HD
ENDBRANCH  26  31
BRANCH  28  33
ATOM     33  O   UNL     1      17.501  -2.866  -6.318  1.00  0.00    -0.387 OA
ATOM     34  H   UNL     1      17.542  -3.761  -5.888  1.00  0.00     0.211 HD
ENDBRANCH  28  33
BRANCH  29  35
ATOM     35  C   UNL     1      21.677  -2.297  -8.486  1.00  0.00     0.191 C 
BRANCH  35  36
ATOM     36  O   UNL     1      22.488  -1.253  -8.018  1.00  0.00    -0.394 OA
ATOM     37  H   UNL     1      21.934  -0.723  -7.386  1.00  0.00     0.210 HD
ENDBRANCH  35  36
ENDBRANCH  29  35
BRANCH  30  38
ATOM     38  O   UNL     1      20.119  -1.750  -6.271  1.00  0.00    -0.387 OA
ATOM     39  H   UNL     1      21.079  -1.831  -6.516  1.00  0.00     0.211 HD
ENDBRANCH  30  38
ENDBRANCH   1  25
TORSDOF 11
ENDMDL
MODEL 7
REMARK VINA RESULT:    -5.524      3.348      7.663
REMARK INTER + INTRA:          -9.630
REMARK INTER:                  -8.248
REMARK INTRA:                  -1.383
REMARK UNBOUND:                -1.684
REMARK SMILES O=c1c(O[C@H]2O[C@H](CO)[C@H](O)[C@@H](O)[C@@H]2O)c(-c2ccc(O)cc2)oc2cc(O)cc(O)c12
REMARK SMILES IDX 4 1 3 2 16 3 24 4 2 5 25 6 1 7 32 8 26 9 30 10 27 11 29 12
REMARK SMILES IDX 17 13 18 14 19 15 20 16 23 17 22 18 21 19 31 21 28 23 5 25
REMARK SMILES IDX 14 26 6 27 12 28 7 29 10 30 15 31 13 33 8 35 9 36 11 38
REMARK H PARENT 21 20 31 22 28 24 15 32 13 34 9 37 11 39
REMARK Flexibility Score: inf
ROOT
ATOM      1  O   UNL     1      17.767  -0.973  -8.965  1.00  0.00    -0.454 OA
ENDROOT
BRANCH   1   2
ATOM      2  C   UNL     1      19.074  -1.295  -8.540  1.00  0.00     0.214 A 
ATOM      3  C   UNL     1      20.154  -0.892  -9.354  1.00  0.00     0.180 A 
ATOM      4  O   UNL     1      21.395  -1.258  -9.051  1.00  0.00    -0.452 OA
ATOM      5  C   UNL     1      19.362  -2.021  -7.361  1.00  0.00     0.239 A 
ATOM      6  C   UNL     1      21.705  -1.958  -7.970  1.00  0.00     0.146 A 
ATOM      7  O   UNL     1      18.433  -2.371  -6.585  1.00  0.00    -0.285 OA
ATOM      8  C   UNL     1      20.700  -2.354  -7.056  1.00  0.00     0.111 A 
ATOM      9  C   UNL     1      23.043  -2.286  -7.734  1.00  0.00     0.094 A 
ATOM     10  C   UNL     1      21.074  -3.059  -5.884  1.00  0.00     0.134 A 
ATOM     11  C   UNL     1      23.405  -2.983  -6.576  1.00  0.00     0.123 A 
ATOM     12  C   UNL     1      22.424  -3.361  -5.656  1.00  0.00     0.093 A 
BRANCH   3  13
ATOM     13  C   UNL     1      19.949  -0.069 -10.566  1.00  0.00     0.021 A 
ATOM     14  C   UNL     1      19.605   1.292 -10.472  1.00  0.00     0.016 A 
ATOM     15  C   UNL     1      19.412   2.054 -11.629  1.00  0.00     0.047 A 
ATOM     16  C   UNL     1      19.593   1.476 -12.890  1.00  0.00     0.115 A 
ATOM     17  C   UNL     1      20.153  -0.634 -11.834  1.00  0.00     0.016 A 
ATOM     18  C   UNL     1      19.972   0.133 -12.990  1.00  0.00     0.047 A 
BRANCH  16  19
ATOM     19  O   UNL     1      19.406   2.226 -14.049  1.00  0.00    -0.508 OA
ATOM     20  H   UNL     1      18.619   2.855 -14.154  1.00  0.00     0.293 HD
ENDBRANCH  16  19
ENDBRANCH   3  13
BRANCH  10  21
ATOM     21  O   UNL     1      20.120  -3.453  -4.943  1.00  0.00    -0.507 OA
ATOM     22  H   UNL     1      20.084  -4.402  -4.585  1.00  0.00     0.293 HD
ENDBRANCH  10  21
BRANCH  11  23
ATOM     23  O   UNL     1      24.738  -3.302  -6.328  1.00  0.00    -0.508 OA
ATOM     24  H   UNL     1      25.431  -3.297  -7.069  1.00  0.00     0.293 HD
ENDBRANCH  11  23
ENDBRANCH   1   2
BRANCH   1  25
ATOM     25  C   UNL     1      16.659  -1.866  -9.129  1.00  0.00     0.339 C 
ATOM     26  C   UNL     1      17.112  -3.127  -9.915  1.00  0.00     0.214 C 
ATOM     27  O   UNL     1      15.572  -1.227  -9.780  1.00  0.00    -0.332 OA
ATOM     28  C   UNL     1      16.678  -3.062 -11.396  1.00  0.00     0.180 C 
ATOM     29  C   UNL     1      15.951  -0.637 -11.020  1.00  0.00     0.179 C 
ATOM     30  C   UNL     1      16.790  -1.610 -11.916  1.00  0.00     0.177 C 
BRANCH  26  31
ATOM     31  O   UNL     1      16.623  -4.301  -9.314  1.00  0.00    -0.384 OA
ATOM     32  H   UNL     1      17.194  -5.055  -9.615  1.00  0.00     0.211 HD
ENDBRANCH  26  31
BRANCH  28  33
ATOM     33  O   UNL     1      17.439  -3.947 -12.182  1.00  0.00    -0.387 OA
ATOM     34  H   UNL     1      18.251  -3.460 -12.487  1.00  0.00     0.211 HD
ENDBRANCH  28  33
BRANCH  29  35
ATOM     35  C   UNL     1      14.665  -0.134 -11.702  1.00  0.00     0.191 C 
BRANCH  35  36
ATOM     36  O   UNL     1      13.757  -1.183 -11.902  1.00  0.00    -0.394 OA
ATOM     37  H   UNL     1      13.655  -1.290 -12.885  1.00  0.00     0.210 HD
ENDBRANCH  35  36
ENDBRANCH  29  35
BRANCH  30  38
ATOM     38  O   UNL     1      16.466  -1.509 -13.283  1.00  0.00    -0.387 OA
ATOM     39  H   UNL     1      16.054  -0.619 -13.443  1.00  0.00     0.211 HD
ENDBRANCH  30  38
ENDBRANCH   1  25
TORSDOF 11
ENDMDL
MODEL 8
REMARK VINA RESULT:    -5.449      1.815      3.094
REMARK INTER + INTRA:          -9.522
REMARK INTER:                  -8.001
REMARK INTRA:                  -1.521
REMARK UNBOUND:                -1.684
REMARK SMILES O=c1c(O[C@H]2O[C@H](CO)[C@H](O)[C@@H](O)[C@@H]2O)c(-c2ccc(O)cc2)oc2cc(O)cc(O)c12
REMARK SMILES IDX 4 1 3 2 16 3 24 4 2 5 25 6 1 7 32 8 26 9 30 10 27 11 29 12
REMARK SMILES IDX 17 13 18 14 19 15 20 16 23 17 22 18 21 19 31 21 28 23 5 25
REMARK SMILES IDX 14 26 6 27 12 28 7 29 10 30 15 31 13 33 8 35 9 36 11 38
REMARK H PARENT 21 20 31 22 28 24 15 32 13 34 9 37 11 39
REMARK Flexibility Score: inf
ROOT
ATOM      1  O   UNL     1      19.395   0.749 -14.067  1.00  0.00    -0.454 OA
ENDROOT
BRANCH   1   2
ATOM      2  C   UNL     1      19.392   0.447 -15.446  1.00  0.00     0.214 A 
ATOM      3  C   UNL     1      18.298  -0.279 -15.963  1.00  0.00     0.180 A 
ATOM      4  O   UNL     1      18.295  -0.675 -17.231  1.00  0.00    -0.452 OA
ATOM      5  C   UNL     1      20.434   0.805 -16.332  1.00  0.00     0.239 A 
ATOM      6  C   UNL     1      19.262  -0.382 -18.088  1.00  0.00     0.146 A 
ATOM      7  O   UNL     1      21.414   1.483 -15.924  1.00  0.00    -0.285 OA
ATOM      8  C   UNL     1      20.372   0.397 -17.683  1.00  0.00     0.111 A 
ATOM      9  C   UNL     1      19.162  -0.839 -19.405  1.00  0.00     0.094 A 
ATOM     10  C   UNL     1      21.363   0.733 -18.639  1.00  0.00     0.134 A 
ATOM     11  C   UNL     1      20.145  -0.504 -20.344  1.00  0.00     0.123 A 
ATOM     12  C   UNL     1      21.235   0.282 -19.961  1.00  0.00     0.093 A 
BRANCH   3  13
ATOM     13  C   UNL     1      17.132  -0.631 -15.123  1.00  0.00     0.021 A 
ATOM     14  C   UNL     1      16.037   0.242 -14.993  1.00  0.00     0.016 A 
ATOM     15  C   UNL     1      14.945  -0.107 -14.192  1.00  0.00     0.047 A 
ATOM     16  C   UNL     1      14.919  -1.345 -13.539  1.00  0.00     0.115 A 
ATOM     17  C   UNL     1      17.087  -1.880 -14.484  1.00  0.00     0.016 A 
ATOM     18  C   UNL     1      15.988  -2.233 -13.693  1.00  0.00     0.047 A 
BRANCH  16  19
ATOM     19  O   UNL     1      13.835  -1.704 -12.740  1.00  0.00    -0.508 OA
ATOM     20  H   UNL     1      13.679  -1.278 -11.834  1.00  0.00     0.293 HD
ENDBRANCH  16  19
ENDBRANCH   3  13
BRANCH  10  21
ATOM     21  O   UNL     1      22.466   1.516 -18.292  1.00  0.00    -0.507 OA
ATOM     22  H   UNL     1      23.381   1.360 -18.700  1.00  0.00     0.293 HD
ENDBRANCH  10  21
BRANCH  11  23
ATOM     23  O   UNL     1      20.045  -0.944 -21.662  1.00  0.00    -0.508 OA
ATOM     24  H   UNL     1      20.458  -0.423 -22.427  1.00  0.00     0.293 HD
ENDBRANCH  11  23
ENDBRANCH   1   2
BRANCH   1  25
ATOM     25  C   UNL     1      20.021   0.006 -13.014  1.00  0.00     0.339 C 
ATOM     26  C   UNL     1      19.044  -0.131 -11.815  1.00  0.00     0.214 C 
ATOM     27  O   UNL     1      21.240   0.611 -12.608  1.00  0.00    -0.332 OA
ATOM     28  C   UNL     1      19.386   0.864 -10.684  1.00  0.00     0.180 C 
ATOM     29  C   UNL     1      21.075   1.980 -12.251  1.00  0.00     0.179 C 
ATOM     30  C   UNL     1      19.861   2.206 -11.287  1.00  0.00     0.177 C 
BRANCH  26  31
ATOM     31  O   UNL     1      19.033  -1.448 -11.319  1.00  0.00    -0.384 OA
ATOM     32  H   UNL     1      19.336  -1.418 -10.374  1.00  0.00     0.211 HD
ENDBRANCH  26  31
BRANCH  28  33
ATOM     33  O   UNL     1      18.286   1.049  -9.827  1.00  0.00    -0.387 OA
ATOM     34  H   UNL     1      18.621   1.463  -8.987  1.00  0.00     0.211 HD
ENDBRANCH  28  33
BRANCH  29  35
ATOM     35  C   UNL     1      22.414   2.469 -11.671  1.00  0.00     0.191 C 
BRANCH  35  36
ATOM     36  O   UNL     1      22.533   3.862 -11.781  1.00  0.00    -0.394 OA
ATOM     37  H   UNL     1      23.501   4.058 -11.889  1.00  0.00     0.210 HD
ENDBRANCH  35  36
ENDBRANCH  29  35
BRANCH  30  38
ATOM     38  O   UNL     1      20.123   3.171 -10.295  1.00  0.00    -0.387 OA
ATOM     39  H   UNL     1      19.257   3.453  -9.895  1.00  0.00     0.211 HD
ENDBRANCH  30  38
ENDBRANCH   1  25
TORSDOF 11
ENDMDL
MODEL 9
REMARK VINA RESULT:    -5.444      3.411      4.771
REMARK INTER + INTRA:          -9.516
REMARK INTER:                  -8.158
REMARK INTRA:                  -1.358
REMARK UNBOUND:                -1.684
REMARK SMILES O=c1c(O[C@H]2O[C@H](CO)[C@H](O)[C@@H](O)[C@@H]2O)c(-c2ccc(O)cc2)oc2cc(O)cc(O)c12
REMARK SMILES IDX 4 1 3 2 16 3 24 4 2 5 25 6 1 7 32 8 26 9 30 10 27 11 29 12
REMARK SMILES IDX 17 13 18 14 19 15 20 16 23 17 22 18 21 19 31 21 28 23 5 25
REMARK SMILES IDX 14 26 6 27 12 28 7 29 10 30 15 31 13 33 8 35 9 36 11 38
REMARK H PARENT 21 20 31 22 28 24 15 32 13 34 9 37 11 39
REMARK Flexibility Score: inf
ROOT
ATOM      1  O   UNL     1      17.072  -1.561 -11.456  1.00  0.00    -0.454 OA
ENDROOT
BRANCH   1   2
ATOM      2  C   UNL     1      17.118  -2.489 -12.518  1.00  0.00     0.214 A 
ATOM      3  C   UNL     1      16.313  -2.242 -13.651  1.00  0.00     0.180 A 
ATOM      4  O   UNL     1      16.244  -3.135 -14.632  1.00  0.00    -0.452 OA
ATOM      5  C   UNL     1      17.903  -3.666 -12.502  1.00  0.00     0.239 A 
ATOM      6  C   UNL     1      16.943  -4.260 -14.645  1.00  0.00     0.146 A 
ATOM      7  O   UNL     1      18.664  -3.911 -11.529  1.00  0.00    -0.285 OA
ATOM      8  C   UNL     1      17.829  -4.568 -13.585  1.00  0.00     0.111 A 
ATOM      9  C   UNL     1      16.807  -5.131 -15.729  1.00  0.00     0.094 A 
ATOM     10  C   UNL     1      18.598  -5.757 -13.656  1.00  0.00     0.134 A 
ATOM     11  C   UNL     1      17.568  -6.304 -15.791  1.00  0.00     0.123 A 
ATOM     12  C   UNL     1      18.462  -6.609 -14.762  1.00  0.00     0.093 A 
BRANCH   3  13
ATOM     13  C   UNL     1      15.517  -1.002 -13.782  1.00  0.00     0.021 A 
ATOM     14  C   UNL     1      16.035   0.129 -14.438  1.00  0.00     0.016 A 
ATOM     15  C   UNL     1      15.269   1.295 -14.550  1.00  0.00     0.047 A 
ATOM     16  C   UNL     1      13.966   1.332 -14.039  1.00  0.00     0.115 A 
ATOM     17  C   UNL     1      14.202  -0.964 -13.294  1.00  0.00     0.016 A 
ATOM     18  C   UNL     1      13.432   0.198 -13.418  1.00  0.00     0.047 A 
BRANCH  16  19
ATOM     19  O   UNL     1      13.193   2.486 -14.147  1.00  0.00    -0.508 OA
ATOM     20  H   UNL     1      13.277   3.109 -14.942  1.00  0.00     0.293 HD
ENDBRANCH  16  19
ENDBRANCH   3  13
BRANCH  10  21
ATOM     21  O   UNL     1      19.501  -6.095 -12.645  1.00  0.00    -0.507 OA
ATOM     22  H   UNL     1      19.200  -6.557 -11.793  1.00  0.00     0.293 HD
ENDBRANCH  10  21
BRANCH  11  23
ATOM     23  O   UNL     1      17.448  -7.170 -16.875  1.00  0.00    -0.508 OA
ATOM     24  H   UNL     1      16.965  -6.894 -17.723  1.00  0.00     0.293 HD
ENDBRANCH  11  23
ENDBRANCH   1   2
BRANCH   1  25
ATOM     25  C   UNL     1      16.150  -1.536 -10.359  1.00  0.00     0.339 C 
ATOM     26  C   UNL     1      15.981  -0.081  -9.847  1.00  0.00     0.214 C 
ATOM     27  O   UNL     1      16.570  -2.397  -9.311  1.00  0.00    -0.332 OA
ATOM     28  C   UNL     1      16.797   0.169  -8.559  1.00  0.00     0.180 C 
ATOM     29  C   UNL     1      17.898  -2.119  -8.879  1.00  0.00     0.179 C 
ATOM     30  C   UNL     1      18.141  -0.592  -8.630  1.00  0.00     0.177 C 
BRANCH  26  31
ATOM     31  O   UNL     1      14.625   0.227  -9.633  1.00  0.00    -0.384 OA
ATOM     32  H   UNL     1      14.473   0.255  -8.652  1.00  0.00     0.211 HD
ENDBRANCH  26  31
BRANCH  28  33
ATOM     33  O   UNL     1      16.999   1.546  -8.351  1.00  0.00    -0.387 OA
ATOM     34  H   UNL     1      16.521   2.035  -9.073  1.00  0.00     0.211 HD
ENDBRANCH  28  33
BRANCH  29  35
ATOM     35  C   UNL     1      18.170  -2.991  -7.639  1.00  0.00     0.191 C 
BRANCH  35  36
ATOM     36  O   UNL     1      17.284  -2.678  -6.599  1.00  0.00    -0.394 OA
ATOM     37  H   UNL     1      17.433  -1.722  -6.373  1.00  0.00     0.210 HD
ENDBRANCH  35  36
ENDBRANCH  29  35
BRANCH  30  38
ATOM     38  O   UNL     1      18.951  -0.344  -7.505  1.00  0.00    -0.387 OA
ATOM     39  H   UNL     1      19.371  -1.201  -7.225  1.00  0.00     0.211 HD
ENDBRANCH  30  38
ENDBRANCH   1  25
TORSDOF 11
ENDMDL
