MODEL 1
REMARK VINA RESULT:    39.896      0.000      0.000
REMARK INTER + INTRA:          43.394
REMARK INTER:                  43.394
REMARK INTRA:                   0.000
REMARK UNBOUND:                 0.000
REMARK SMILES Cc1cc(O)c2c(c1)C(=O)c1cc(O)cc(O)c1C2=O
REMARK SMILES IDX 1 1 2 2 8 3 7 4 6 5 4 6 3 7 19 8 20 9 18 10 11 11 9 12 10 13
REMARK SMILES IDX 12 14 13 15 15 16 16 17 5 18 17 20 14 22
REMARK H PARENT 5 19 17 21 14 23
REMARK Flexibility Score: inf
ROOT
ATOM      1  C   UNL     1       8.029   9.137  31.848  1.00  0.00     0.044 C 
ATOM      2  C   UNL     1       9.141  10.089  31.519  1.00  0.00    -0.047 A 
ATOM      3  C   UNL     1       9.194  10.702  30.262  1.00  0.00     0.016 A 
ATOM      4  C   UNL     1      10.251  11.569  29.929  1.00  0.00     0.038 A 
ATOM      5  C   UNL     1      11.280  11.815  30.865  1.00  0.00     0.076 A 
ATOM      6  C   UNL     1      11.230  11.176  32.127  1.00  0.00     0.127 A 
ATOM      7  C   UNL     1      10.169  10.317  32.439  1.00  0.00     0.050 A 
ATOM      8  C   UNL     1      12.393  12.737  30.501  1.00  0.00     0.201 C 
ATOM      9  O   UNL     1      13.310  12.969  31.333  1.00  0.00    -0.288 OA
ATOM     10  C   UNL     1      12.429  13.389  29.161  1.00  0.00     0.076 A 
ATOM     11  C   UNL     1      11.393  13.128  28.236  1.00  0.00     0.041 A 
ATOM     12  C   UNL     1      10.284  12.217  28.598  1.00  0.00     0.194 C 
ATOM     13  O   UNL     1       9.362  11.990  27.766  1.00  0.00    -0.289 OA
ATOM     14  C   UNL     1      11.418  13.739  26.969  1.00  0.00     0.059 A 
ATOM     15  C   UNL     1      12.457  14.602  26.615  1.00  0.00     0.120 A 
ATOM     16  C   UNL     1      13.482  14.862  27.523  1.00  0.00     0.093 A 
ATOM     17  C   UNL     1      13.479  14.266  28.791  1.00  0.00     0.131 A 
ENDROOT
BRANCH   6  18
ATOM     18  O   UNL     1      12.232  11.385  33.075  1.00  0.00    -0.507 OA
ATOM     19  H   UNL     1      13.187  11.080  32.922  1.00  0.00     0.293 HD
ENDBRANCH   6  18
BRANCH  17  20
ATOM     20  O   UNL     1      14.521  14.550  29.675  1.00  0.00    -0.507 OA
ATOM     21  H   UNL     1      14.508  14.227  30.636  1.00  0.00     0.293 HD
ENDBRANCH  17  20
BRANCH  15  22
ATOM     22  O   UNL     1      12.482  15.207  25.359  1.00  0.00    -0.508 OA
ATOM     23  H   UNL     1      13.278  15.752  25.050  1.00  0.00     0.293 HD
ENDBRANCH  15  22
TORSDOF 3
ENDMDL
MODEL 2
REMARK VINA RESULT:    40.611      1.210      5.492
REMARK INTER + INTRA:          44.172
REMARK INTER:                  44.172
REMARK INTRA:                   0.000
REMARK UNBOUND:                 0.000
REMARK SMILES Cc1cc(O)c2c(c1)C(=O)c1cc(O)cc(O)c1C2=O
REMARK SMILES IDX 1 1 2 2 8 3 7 4 6 5 4 6 3 7 19 8 20 9 18 10 11 11 9 12 10 13
REMARK SMILES IDX 12 14 13 15 15 16 16 17 5 18 17 20 14 22
REMARK H PARENT 5 19 17 21 14 23
REMARK Flexibility Score: inf
ROOT
ATOM      1  C   UNL     1      11.781  15.305  24.758  1.00  0.00     0.044 C 
ATOM      2  C   UNL     1      11.989  14.647  26.091  1.00  0.00    -0.047 A 
ATOM      3  C   UNL     1      11.012  13.793  26.614  1.00  0.00     0.016 A 
ATOM      4  C   UNL     1      11.180  13.199  27.878  1.00  0.00     0.038 A 
ATOM      5  C   UNL     1      12.339  13.475  28.637  1.00  0.00     0.076 A 
ATOM      6  C   UNL     1      13.313  14.356  28.110  1.00  0.00     0.127 A 
ATOM      7  C   UNL     1      13.128  14.937  26.849  1.00  0.00     0.050 A 
ATOM      8  C   UNL     1      12.506  12.837  29.974  1.00  0.00     0.201 C 
ATOM      9  O   UNL     1      13.540  13.072  30.654  1.00  0.00    -0.288 OA
ATOM     10  C   UNL     1      11.459  11.923  30.513  1.00  0.00     0.076 A 
ATOM     11  C   UNL     1      10.305  11.660  29.741  1.00  0.00     0.041 A 
ATOM     12  C   UNL     1      10.140  12.289  28.411  1.00  0.00     0.194 C 
ATOM     13  O   UNL     1       9.106  12.048  27.728  1.00  0.00    -0.289 OA
ATOM     14  C   UNL     1       9.312  10.798  30.240  1.00  0.00     0.059 A 
ATOM     15  C   UNL     1       9.456  10.198  31.493  1.00  0.00     0.120 A 
ATOM     16  C   UNL     1      10.592  10.453  32.259  1.00  0.00     0.093 A 
ATOM     17  C   UNL     1      11.594  11.308  31.782  1.00  0.00     0.131 A 
ENDROOT
BRANCH   6  18
ATOM     18  O   UNL     1      14.467  14.663  28.833  1.00  0.00    -0.507 OA
ATOM     19  H   UNL     1      14.830  14.044  29.550  1.00  0.00     0.293 HD
ENDBRANCH   6  18
BRANCH  17  20
ATOM     20  O   UNL     1      12.718  11.541  32.576  1.00  0.00    -0.507 OA
ATOM     21  H   UNL     1      13.606  11.090  32.389  1.00  0.00     0.293 HD
ENDBRANCH  17  20
BRANCH  15  22
ATOM     22  O   UNL     1       8.472   9.343  31.989  1.00  0.00    -0.508 OA
ATOM     23  H   UNL     1       7.932   9.578  32.813  1.00  0.00     0.293 HD
ENDBRANCH  15  22
TORSDOF 3
ENDMDL
MODEL 3
REMARK VINA RESULT:    41.589      2.147      3.161
REMARK INTER + INTRA:          45.236
REMARK INTER:                  45.236
REMARK INTRA:                   0.000
REMARK UNBOUND:                 0.000
REMARK SMILES Cc1cc(O)c2c(c1)C(=O)c1cc(O)cc(O)c1C2=O
REMARK SMILES IDX 1 1 2 2 8 3 7 4 6 5 4 6 3 7 19 8 20 9 18 10 11 11 9 12 10 13
REMARK SMILES IDX 12 14 13 15 15 16 16 17 5 18 17 20 14 22
REMARK H PARENT 5 19 17 21 14 23
REMARK Flexibility Score: inf
ROOT
ATOM      1  C   UNL     1       8.278   9.319  32.467  1.00  0.00     0.044 C 
ATOM      2  C   UNL     1       9.396   9.974  31.708  1.00  0.00    -0.047 A 
ATOM      3  C   UNL     1       9.837  11.251  32.070  1.00  0.00     0.016 A 
ATOM      4  C   UNL     1      10.859  11.890  31.345  1.00  0.00     0.038 A 
ATOM      5  C   UNL     1      11.439  11.244  30.230  1.00  0.00     0.076 A 
ATOM      6  C   UNL     1      10.973   9.961  29.858  1.00  0.00     0.127 A 
ATOM      7  C   UNL     1       9.954   9.341  30.594  1.00  0.00     0.050 A 
ATOM      8  C   UNL     1      12.523  11.931  29.471  1.00  0.00     0.201 C 
ATOM      9  O   UNL     1      13.051  11.359  28.480  1.00  0.00    -0.288 OA
ATOM     10  C   UNL     1      12.988  13.288  29.875  1.00  0.00     0.076 A 
ATOM     11  C   UNL     1      12.394  13.920  30.990  1.00  0.00     0.041 A 
ATOM     12  C   UNL     1      11.321  13.237  31.748  1.00  0.00     0.194 C 
ATOM     13  O   UNL     1      10.797  13.808  32.745  1.00  0.00    -0.289 OA
ATOM     14  C   UNL     1      12.826  15.201  31.380  1.00  0.00     0.059 A 
ATOM     15  C   UNL     1      13.838  15.855  30.674  1.00  0.00     0.120 A 
ATOM     16  C   UNL     1      14.427  15.237  29.573  1.00  0.00     0.093 A 
ATOM     17  C   UNL     1      14.014  13.962  29.166  1.00  0.00     0.131 A 
ENDROOT
BRANCH   6  18
ATOM     18  O   UNL     1      11.513   9.294  28.757  1.00  0.00    -0.507 OA
ATOM     19  H   UNL     1      12.324   9.648  28.262  1.00  0.00     0.293 HD
ENDBRANCH   6  18
BRANCH  17  20
ATOM     20  O   UNL     1      14.625  13.373  28.058  1.00  0.00    -0.507 OA
ATOM     21  H   UNL     1      14.612  13.812  27.145  1.00  0.00     0.293 HD
ENDBRANCH  17  20
BRANCH  15  22
ATOM     22  O   UNL     1      14.267  17.125  31.060  1.00  0.00    -0.508 OA
ATOM     23  H   UNL     1      13.639  17.783  31.506  1.00  0.00     0.293 HD
ENDBRANCH  15  22
TORSDOF 3
ENDMDL
MODEL 4
REMARK VINA RESULT:    42.057      0.855      0.951
REMARK INTER + INTRA:          45.745
REMARK INTER:                  45.745
REMARK INTRA:                   0.000
REMARK UNBOUND:                 0.000
REMARK SMILES Cc1cc(O)c2c(c1)C(=O)c1cc(O)cc(O)c1C2=O
REMARK SMILES IDX 1 1 2 2 8 3 7 4 6 5 4 6 3 7 19 8 20 9 18 10 11 11 9 12 10 13
REMARK SMILES IDX 12 14 13 15 15 16 16 17 5 18 17 20 14 22
REMARK H PARENT 5 19 17 21 14 23
REMARK Flexibility Score: inf
ROOT
ATOM      1  C   UNL     1       8.628   9.793  31.778  1.00  0.00     0.044 C 
ATOM      2  C   UNL     1       9.707  10.702  31.267  1.00  0.00    -0.047 A 
ATOM      3  C   UNL     1       9.595  11.282  29.999  1.00  0.00     0.016 A 
ATOM      4  C   UNL     1      10.616  12.107  29.493  1.00  0.00     0.038 A 
ATOM      5  C   UNL     1      11.776  12.343  30.265  1.00  0.00     0.076 A 
ATOM      6  C   UNL     1      11.891  11.735  31.538  1.00  0.00     0.127 A 
ATOM      7  C   UNL     1      10.862  10.918  32.024  1.00  0.00     0.050 A 
ATOM      8  C   UNL     1      12.850  13.220  29.719  1.00  0.00     0.201 C 
ATOM      9  O   UNL     1      13.884  13.442  30.404  1.00  0.00    -0.288 OA
ATOM     10  C   UNL     1      12.711  13.838  28.370  1.00  0.00     0.076 A 
ATOM     11  C   UNL     1      11.546  13.589  27.611  1.00  0.00     0.041 A 
ATOM     12  C   UNL     1      10.476  12.722  28.154  1.00  0.00     0.194 C 
ATOM     13  O   UNL     1       9.437  12.505  27.469  1.00  0.00    -0.289 OA
ATOM     14  C   UNL     1      11.405  14.168  26.337  1.00  0.00     0.059 A 
ATOM     15  C   UNL     1      12.406  14.989  25.814  1.00  0.00     0.120 A 
ATOM     16  C   UNL     1      13.558  15.238  26.558  1.00  0.00     0.093 A 
ATOM     17  C   UNL     1      13.721  14.673  27.829  1.00  0.00     0.131 A 
ENDROOT
BRANCH   6  18
ATOM     18  O   UNL     1      13.025  11.935  32.327  1.00  0.00    -0.507 OA
ATOM     19  H   UNL     1      13.673  11.183  32.533  1.00  0.00     0.293 HD
ENDBRANCH   6  18
BRANCH  17  20
ATOM     20  O   UNL     1      14.887  14.944  28.546  1.00  0.00    -0.507 OA
ATOM     21  H   UNL     1      14.904  14.935  29.560  1.00  0.00     0.293 HD
ENDBRANCH  17  20
BRANCH  15  22
ATOM     22  O   UNL     1      12.267  15.563  24.551  1.00  0.00    -0.508 OA
ATOM     23  H   UNL     1      12.436  15.031  23.705  1.00  0.00     0.293 HD
ENDBRANCH  15  22
TORSDOF 3
ENDMDL
