MODEL 1
REMARK VINA RESULT:    -5.041      0.000      0.000
REMARK INTER + INTRA:          -6.456
REMARK INTER:                  -6.220
REMARK INTRA:                  -0.235
REMARK UNBOUND:                -0.235
REMARK SMILES CCOC(=O)c1ccc(O)c(O)c1
REMARK SMILES IDX 4 1 5 2 3 3 2 4 1 5 6 6 13 7 7 8 11 9 8 10 9 11 12 12 10 14
REMARK H PARENT 12 13 10 15
REMARK Flexibility Score: inf
ROOT
ATOM      1  C   UNL     1      -5.509  14.069   7.118  1.00  0.00     0.338 C 
ATOM      2  O   UNL     1      -6.365  14.071   8.046  1.00  0.00    -0.246 OA
ENDROOT
BRANCH   1   3
ATOM      3  O   UNL     1      -5.833  13.533   5.864  1.00  0.00    -0.462 OA
BRANCH   3   4
ATOM      4  C   UNL     1      -7.142  13.589   5.298  1.00  0.00     0.230 C 
ATOM      5  C   UNL     1      -7.504  15.022   4.924  1.00  0.00     0.049 C 
ENDBRANCH   3   4
ENDBRANCH   1   3
BRANCH   1   6
ATOM      6  C   UNL     1      -4.163  14.639   7.348  1.00  0.00     0.064 A 
ATOM      7  C   UNL     1      -3.675  15.665   6.522  1.00  0.00     0.065 A 
ATOM      8  C   UNL     1      -3.352  14.161   8.393  1.00  0.00     0.020 A 
ATOM      9  C   UNL     1      -2.400  16.209   6.734  1.00  0.00     0.158 A 
ATOM     10  C   UNL     1      -2.081  14.702   8.605  1.00  0.00     0.051 A 
ATOM     11  C   UNL     1      -1.600  15.724   7.782  1.00  0.00     0.157 A 
BRANCH   9  12
ATOM     12  O   UNL     1      -1.926  17.228   5.909  1.00  0.00    -0.504 OA
ATOM     13  H   UNL     1      -2.019  17.181   4.901  1.00  0.00     0.293 HD
ENDBRANCH   9  12
BRANCH  11  14
ATOM     14  O   UNL     1      -0.327  16.243   8.019  1.00  0.00    -0.504 OA
ATOM     15  H   UNL     1      -0.138  17.237   7.992  1.00  0.00     0.293 HD
ENDBRANCH  11  14
ENDBRANCH   1   6
TORSDOF 5
ENDMDL
MODEL 2
REMARK VINA RESULT:    -4.910      1.966      5.461
REMARK INTER + INTRA:          -6.293
REMARK INTER:                  -5.981
REMARK INTRA:                  -0.312
REMARK UNBOUND:                -0.235
REMARK SMILES CCOC(=O)c1ccc(O)c(O)c1
REMARK SMILES IDX 4 1 5 2 3 3 2 4 1 5 6 6 13 7 7 8 11 9 8 10 9 11 12 12 10 14
REMARK H PARENT 12 13 10 15
REMARK Flexibility Score: inf
ROOT
ATOM      1  C   UNL     1      -4.442  16.173   6.875  1.00  0.00     0.338 C 
ATOM      2  O   UNL     1      -4.620  17.340   7.321  1.00  0.00    -0.246 OA
ENDROOT
BRANCH   1   3
ATOM      3  O   UNL     1      -3.149  15.639   6.798  1.00  0.00    -0.462 OA
BRANCH   3   4
ATOM      4  C   UNL     1      -2.382  15.265   7.941  1.00  0.00     0.230 C 
ATOM      5  C   UNL     1      -2.862  13.930   8.497  1.00  0.00     0.049 C 
ENDBRANCH   3   4
ENDBRANCH   1   3
BRANCH   1   6
ATOM      6  C   UNL     1      -5.599  15.361   6.437  1.00  0.00     0.064 A 
ATOM      7  C   UNL     1      -6.908  15.762   6.753  1.00  0.00     0.065 A 
ATOM      8  C   UNL     1      -5.407  14.178   5.701  1.00  0.00     0.020 A 
ATOM      9  C   UNL     1      -8.010  14.997   6.342  1.00  0.00     0.158 A 
ATOM     10  C   UNL     1      -6.504  13.414   5.291  1.00  0.00     0.051 A 
ATOM     11  C   UNL     1      -7.805  13.817   5.607  1.00  0.00     0.157 A 
BRANCH   9  12
ATOM     12  O   UNL     1      -9.304  15.404   6.660  1.00  0.00    -0.504 OA
ATOM     13  H   UNL     1      -9.710  15.223   7.571  1.00  0.00     0.293 HD
ENDBRANCH   9  12
BRANCH  11  14
ATOM     14  O   UNL     1      -8.879  13.034   5.184  1.00  0.00    -0.504 OA
ATOM     15  H   UNL     1      -8.748  12.114   4.783  1.00  0.00     0.293 HD
ENDBRANCH  11  14
ENDBRANCH   1   6
TORSDOF 5
ENDMDL
MODEL 3
REMARK VINA RESULT:    -4.879      1.440      5.492
REMARK INTER + INTRA:          -6.255
REMARK INTER:                  -6.115
REMARK INTRA:                  -0.140
REMARK UNBOUND:                -0.235
REMARK SMILES CCOC(=O)c1ccc(O)c(O)c1
REMARK SMILES IDX 4 1 5 2 3 3 2 4 1 5 6 6 13 7 7 8 11 9 8 10 9 11 12 12 10 14
REMARK H PARENT 12 13 10 15
REMARK Flexibility Score: inf
ROOT
ATOM      1  C   UNL     1      -2.691  15.821   7.324  1.00  0.00     0.338 C 
ATOM      2  O   UNL     1      -2.334  16.702   6.493  1.00  0.00    -0.246 OA
ENDROOT
BRANCH   1   3
ATOM      3  O   UNL     1      -1.937  15.603   8.484  1.00  0.00    -0.462 OA
BRANCH   3   4
ATOM      4  C   UNL     1      -0.515  15.718   8.532  1.00  0.00     0.230 C 
ATOM      5  C   UNL     1       0.065  14.772   9.577  1.00  0.00     0.049 C 
ENDBRANCH   3   4
ENDBRANCH   1   3
BRANCH   1   6
ATOM      6  C   UNL     1      -3.912  15.021   7.079  1.00  0.00     0.064 A 
ATOM      7  C   UNL     1      -4.771  14.694   8.141  1.00  0.00     0.065 A 
ATOM      8  C   UNL     1      -4.227  14.574   5.783  1.00  0.00     0.020 A 
ATOM      9  C   UNL     1      -5.929  13.934   7.916  1.00  0.00     0.158 A 
ATOM     10  C   UNL     1      -5.381  13.817   5.558  1.00  0.00     0.051 A 
ATOM     11  C   UNL     1      -6.234  13.495   6.617  1.00  0.00     0.157 A 
BRANCH   9  12
ATOM     12  O   UNL     1      -6.776  13.617   8.976  1.00  0.00    -0.504 OA
ATOM     13  H   UNL     1      -7.183  12.693   9.073  1.00  0.00     0.293 HD
ENDBRANCH   9  12
BRANCH  11  14
ATOM     14  O   UNL     1      -7.377  12.738   6.360  1.00  0.00    -0.504 OA
ATOM     15  H   UNL     1      -8.271  13.167   6.154  1.00  0.00     0.293 HD
ENDBRANCH  11  14
ENDBRANCH   1   6
TORSDOF 5
ENDMDL
MODEL 4
REMARK VINA RESULT:    -4.819      1.877      5.058
REMARK INTER + INTRA:          -6.181
REMARK INTER:                  -6.028
REMARK INTRA:                  -0.152
REMARK UNBOUND:                -0.235
REMARK SMILES CCOC(=O)c1ccc(O)c(O)c1
REMARK SMILES IDX 4 1 5 2 3 3 2 4 1 5 6 6 13 7 7 8 11 9 8 10 9 11 12 12 10 14
REMARK H PARENT 12 13 10 15
REMARK Flexibility Score: inf
ROOT
ATOM      1  C   UNL     1      -3.181  14.692   7.784  1.00  0.00     0.338 C 
ATOM      2  O   UNL     1      -2.871  13.610   8.353  1.00  0.00    -0.246 OA
ENDROOT
BRANCH   1   3
ATOM      3  O   UNL     1      -2.258  15.745   7.724  1.00  0.00    -0.462 OA
BRANCH   3   4
ATOM      4  C   UNL     1      -2.025  16.523   6.551  1.00  0.00     0.230 C 
ATOM      5  C   UNL     1      -0.542  16.840   6.403  1.00  0.00     0.049 C 
ENDBRANCH   3   4
ENDBRANCH   1   3
BRANCH   1   6
ATOM      6  C   UNL     1      -4.519  14.852   7.172  1.00  0.00     0.064 A 
ATOM      7  C   UNL     1      -4.943  13.980   6.155  1.00  0.00     0.065 A 
ATOM      8  C   UNL     1      -5.382  15.879   7.595  1.00  0.00     0.020 A 
ATOM      9  C   UNL     1      -6.210  14.126   5.570  1.00  0.00     0.158 A 
ATOM     10  C   UNL     1      -6.645  16.026   7.012  1.00  0.00     0.051 A 
ATOM     11  C   UNL     1      -7.064  15.155   6.002  1.00  0.00     0.157 A 
BRANCH   9  12
ATOM     12  O   UNL     1      -6.622  13.255   4.563  1.00  0.00    -0.504 OA
ATOM     13  H   UNL     1      -6.868  13.590   3.639  1.00  0.00     0.293 HD
ENDBRANCH   9  12
BRANCH  11  14
ATOM     14  O   UNL     1      -8.329  15.327   5.440  1.00  0.00    -0.504 OA
ATOM     15  H   UNL     1      -8.603  16.190   4.987  1.00  0.00     0.293 HD
ENDBRANCH  11  14
ENDBRANCH   1   6
TORSDOF 5
ENDMDL
MODEL 5
REMARK VINA RESULT:    -4.797      2.695      4.197
REMARK INTER + INTRA:          -6.154
REMARK INTER:                  -5.906
REMARK INTRA:                  -0.248
REMARK UNBOUND:                -0.235
REMARK SMILES CCOC(=O)c1ccc(O)c(O)c1
REMARK SMILES IDX 4 1 5 2 3 3 2 4 1 5 6 6 13 7 7 8 11 9 8 10 9 11 12 12 10 14
REMARK H PARENT 12 13 10 15
REMARK Flexibility Score: inf
ROOT
ATOM      1  C   UNL     1      -8.782  14.578   5.627  1.00  0.00     0.338 C 
ATOM      2  O   UNL     1      -9.525  13.598   5.342  1.00  0.00    -0.246 OA
ENDROOT
BRANCH   1   3
ATOM      3  O   UNL     1      -9.248  15.887   5.452  1.00  0.00    -0.462 OA
BRANCH   3   4
ATOM      4  C   UNL     1     -10.355  16.432   6.168  1.00  0.00     0.230 C 
ATOM      5  C   UNL     1      -9.880  17.440   7.207  1.00  0.00     0.049 C 
ENDBRANCH   3   4
ENDBRANCH   1   3
BRANCH   1   6
ATOM      6  C   UNL     1      -7.418  14.347   6.154  1.00  0.00     0.064 A 
ATOM      7  C   UNL     1      -7.152  14.497   7.525  1.00  0.00     0.065 A 
ATOM      8  C   UNL     1      -6.370  13.977   5.292  1.00  0.00     0.020 A 
ATOM      9  C   UNL     1      -5.861  14.280   8.031  1.00  0.00     0.158 A 
ATOM     10  C   UNL     1      -5.084  13.761   5.795  1.00  0.00     0.051 A 
ATOM     11  C   UNL     1      -4.823  13.910   7.159  1.00  0.00     0.157 A 
BRANCH   9  12
ATOM     12  O   UNL     1      -5.608  14.431   9.393  1.00  0.00    -0.504 OA
ATOM     13  H   UNL     1      -4.742  14.110   9.811  1.00  0.00     0.293 HD
ENDBRANCH   9  12
BRANCH  11  14
ATOM     14  O   UNL     1      -3.529  13.688   7.631  1.00  0.00    -0.504 OA
ATOM     15  H   UNL     1      -2.898  13.035   7.182  1.00  0.00     0.293 HD
ENDBRANCH  11  14
ENDBRANCH   1   6
TORSDOF 5
ENDMDL
MODEL 6
REMARK VINA RESULT:    -4.696      3.437      6.552
REMARK INTER + INTRA:          -6.029
REMARK INTER:                  -5.738
REMARK INTRA:                  -0.292
REMARK UNBOUND:                -0.235
REMARK SMILES CCOC(=O)c1ccc(O)c(O)c1
REMARK SMILES IDX 4 1 5 2 3 3 2 4 1 5 6 6 13 7 7 8 11 9 8 10 9 11 12 12 10 14
REMARK H PARENT 12 13 10 15
REMARK Flexibility Score: inf
ROOT
ATOM      1  C   UNL     1      -6.635  15.687   7.377  1.00  0.00     0.338 C 
ATOM      2  O   UNL     1      -6.357  15.351   8.561  1.00  0.00    -0.246 OA
ENDROOT
BRANCH   1   3
ATOM      3  O   UNL     1      -5.614  15.816   6.425  1.00  0.00    -0.462 OA
BRANCH   3   4
ATOM      4  C   UNL     1      -4.683  14.778   6.124  1.00  0.00     0.230 C 
ATOM      5  C   UNL     1      -5.380  13.616   5.426  1.00  0.00     0.049 C 
ENDBRANCH   3   4
ENDBRANCH   1   3
BRANCH   1   6
ATOM      6  C   UNL     1      -8.039  15.941   6.987  1.00  0.00     0.064 A 
ATOM      7  C   UNL     1      -8.864  16.748   7.789  1.00  0.00     0.065 A 
ATOM      8  C   UNL     1      -8.570  15.377   5.813  1.00  0.00     0.020 A 
ATOM      9  C   UNL     1     -10.197  16.991   7.426  1.00  0.00     0.158 A 
ATOM     10  C   UNL     1      -9.899  15.619   5.451  1.00  0.00     0.051 A 
ATOM     11  C   UNL     1     -10.715  16.423   6.250  1.00  0.00     0.157 A 
BRANCH   9  12
ATOM     12  O   UNL     1     -11.006  17.795   8.228  1.00  0.00    -0.504 OA
ATOM     13  H   UNL     1     -10.629  18.579   8.747  1.00  0.00     0.293 HD
ENDBRANCH   9  12
BRANCH  11  14
ATOM     14  O   UNL     1     -12.036  16.646   5.862  1.00  0.00    -0.504 OA
ATOM     15  H   UNL     1     -12.344  16.523   4.905  1.00  0.00     0.293 HD
ENDBRANCH  11  14
ENDBRANCH   1   6
TORSDOF 5
ENDMDL
MODEL 7
REMARK VINA RESULT:    -4.686      1.823      2.688
REMARK INTER + INTRA:          -6.017
REMARK INTER:                  -5.733
REMARK INTRA:                  -0.284
REMARK UNBOUND:                -0.235
REMARK SMILES CCOC(=O)c1ccc(O)c(O)c1
REMARK SMILES IDX 4 1 5 2 3 3 2 4 1 5 6 6 13 7 7 8 11 9 8 10 9 11 12 12 10 14
REMARK H PARENT 12 13 10 15
REMARK Flexibility Score: inf
ROOT
ATOM      1  C   UNL     1      -6.308  14.446   5.443  1.00  0.00     0.338 C 
ATOM      2  O   UNL     1      -6.305  13.338   4.839  1.00  0.00    -0.246 OA
ENDROOT
BRANCH   1   3
ATOM      3  O   UNL     1      -7.386  15.328   5.289  1.00  0.00    -0.462 OA
BRANCH   3   4
ATOM      4  C   UNL     1      -8.607  15.213   6.018  1.00  0.00     0.230 C 
ATOM      5  C   UNL     1      -8.729  16.336   7.041  1.00  0.00     0.049 C 
ENDBRANCH   3   4
ENDBRANCH   1   3
BRANCH   1   6
ATOM      6  C   UNL     1      -5.176  14.815   6.322  1.00  0.00     0.064 A 
ATOM      7  C   UNL     1      -4.511  13.832   7.074  1.00  0.00     0.065 A 
ATOM      8  C   UNL     1      -4.751  16.152   6.420  1.00  0.00     0.020 A 
ATOM      9  C   UNL     1      -3.437  14.175   7.910  1.00  0.00     0.158 A 
ATOM     10  C   UNL     1      -3.682  16.495   7.252  1.00  0.00     0.051 A 
ATOM     11  C   UNL     1      -3.022  15.515   7.998  1.00  0.00     0.157 A 
BRANCH   9  12
ATOM     12  O   UNL     1      -2.784  13.192   8.651  1.00  0.00    -0.504 OA
ATOM     13  H   UNL     1      -3.197  12.794   9.486  1.00  0.00     0.293 HD
ENDBRANCH   9  12
BRANCH  11  14
ATOM     14  O   UNL     1      -1.959  15.888   8.819  1.00  0.00    -0.504 OA
ATOM     15  H   UNL     1      -1.633  16.845   8.876  1.00  0.00     0.293 HD
ENDBRANCH  11  14
ENDBRANCH   1   6
TORSDOF 5
ENDMDL
MODEL 8
REMARK VINA RESULT:    -4.684      3.401      6.478
REMARK INTER + INTRA:          -6.014
REMARK INTER:                  -5.776
REMARK INTRA:                  -0.239
REMARK UNBOUND:                -0.235
REMARK SMILES CCOC(=O)c1ccc(O)c(O)c1
REMARK SMILES IDX 4 1 5 2 3 3 2 4 1 5 6 6 13 7 7 8 11 9 8 10 9 11 12 12 10 14
REMARK H PARENT 12 13 10 15
REMARK Flexibility Score: inf
ROOT
ATOM      1  C   UNL     1      -7.427  14.559   5.360  1.00  0.00     0.338 C 
ATOM      2  O   UNL     1      -7.832  13.553   4.714  1.00  0.00    -0.246 OA
ENDROOT
BRANCH   1   3
ATOM      3  O   UNL     1      -6.058  14.853   5.415  1.00  0.00    -0.462 OA
BRANCH   3   4
ATOM      4  C   UNL     1      -5.056  13.886   5.723  1.00  0.00     0.230 C 
ATOM      5  C   UNL     1      -4.399  14.200   7.062  1.00  0.00     0.049 C 
ENDBRANCH   3   4
ENDBRANCH   1   3
BRANCH   1   6
ATOM      6  C   UNL     1      -8.396  15.435   6.054  1.00  0.00     0.064 A 
ATOM      7  C   UNL     1      -9.717  15.543   5.587  1.00  0.00     0.065 A 
ATOM      8  C   UNL     1      -8.011  16.174   7.187  1.00  0.00     0.020 A 
ATOM      9  C   UNL     1     -10.641  16.372   6.240  1.00  0.00     0.158 A 
ATOM     10  C   UNL     1      -8.930  17.001   7.838  1.00  0.00     0.051 A 
ATOM     11  C   UNL     1     -10.244  17.104   7.372  1.00  0.00     0.157 A 
BRANCH   9  12
ATOM     12  O   UNL     1     -11.950  16.471   5.770  1.00  0.00    -0.504 OA
ATOM     13  H   UNL     1     -12.387  17.369   5.600  1.00  0.00     0.293 HD
ENDBRANCH   9  12
BRANCH  11  14
ATOM     14  O   UNL     1     -11.138  17.938   8.043  1.00  0.00    -0.504 OA
ATOM     15  H   UNL     1     -11.239  17.919   9.050  1.00  0.00     0.293 HD
ENDBRANCH  11  14
ENDBRANCH   1   6
TORSDOF 5
ENDMDL
MODEL 9
REMARK VINA RESULT:    -4.581      3.474      5.268
REMARK INTER + INTRA:          -5.888
REMARK INTER:                  -5.629
REMARK INTRA:                  -0.259
REMARK UNBOUND:                -0.235
REMARK SMILES CCOC(=O)c1ccc(O)c(O)c1
REMARK SMILES IDX 4 1 5 2 3 3 2 4 1 5 6 6 13 7 7 8 11 9 8 10 9 11 12 12 10 14
REMARK H PARENT 12 13 10 15
REMARK Flexibility Score: inf
ROOT
ATOM      1  C   UNL     1      -9.816  16.679   6.543  1.00  0.00     0.338 C 
ATOM      2  O   UNL     1      -9.857  17.794   7.133  1.00  0.00    -0.246 OA
ENDROOT
BRANCH   1   3
ATOM      3  O   UNL     1     -10.913  16.243   5.788  1.00  0.00    -0.462 OA
BRANCH   3   4
ATOM      4  C   UNL     1     -12.213  16.031   6.336  1.00  0.00     0.230 C 
ATOM      5  C   UNL     1     -12.379  14.582   6.778  1.00  0.00     0.049 C 
ENDBRANCH   3   4
ENDBRANCH   1   3
BRANCH   1   6
ATOM      6  C   UNL     1      -8.608  15.830   6.643  1.00  0.00     0.064 A 
ATOM      7  C   UNL     1      -8.263  14.960   5.595  1.00  0.00     0.065 A 
ATOM      8  C   UNL     1      -7.790  15.879   7.786  1.00  0.00     0.020 A 
ATOM      9  C   UNL     1      -7.120  14.152   5.683  1.00  0.00     0.158 A 
ATOM     10  C   UNL     1      -6.651  15.074   7.875  1.00  0.00     0.051 A 
ATOM     11  C   UNL     1      -6.310  14.211   6.830  1.00  0.00     0.157 A 
BRANCH   9  12
ATOM     12  O   UNL     1      -6.786  13.293   4.637  1.00  0.00    -0.504 OA
ATOM     13  H   UNL     1      -6.046  12.607   4.729  1.00  0.00     0.293 HD
ENDBRANCH   9  12
BRANCH  11  14
ATOM     14  O   UNL     1      -5.167  13.421   6.948  1.00  0.00    -0.504 OA
ATOM     15  H   UNL     1      -4.921  12.957   7.814  1.00  0.00     0.293 HD
ENDBRANCH  11  14
ENDBRANCH   1   6
TORSDOF 5
ENDMDL
