MODEL 1
REMARK VINA RESULT:    -7.231      0.000      0.000
REMARK INTER + INTRA:         -10.639
REMARK INTER:                  -9.768
REMARK INTRA:                  -0.872
REMARK UNBOUND:                -0.872
REMARK SMILES CC[C@@H](CC[C@@H](C)[C@@H]1CC[C@H]2[C@H]3CC(=O)C4=CC(=O)CC[C@@]4(C)[C@H]3CC[C@@]21C)C(C)C
REMARK SMILES IDX 4 1 3 2 2 3 1 4 29 5 30 6 31 7 5 8 6 9 7 10 8 11 9 12 27 13
REMARK SMILES IDX 10 14 11 15 26 16 28 17 12 18 25 19 24 20 13 21 22 22 14 23
REMARK SMILES IDX 16 24 21 25 23 26 15 27 17 28 20 29 18 30 19 31
REMARK H PARENT
REMARK Flexibility Score: inf
ROOT
ATOM      1  C   UNL     1      18.723  25.451  27.563  1.00  0.00     0.004 C 
ENDROOT
BRANCH   1   2
ATOM      2  C   UNL     1      19.910  24.475  27.875  1.00  0.00    -0.009 C 
BRANCH   2   3
ATOM      3  C   UNL     1      21.191  25.286  28.249  1.00  0.00     0.000 C 
ATOM      4  C   UNL     1      20.948  26.764  28.556  1.00  0.00     0.004 C 
ENDBRANCH   2   3
BRANCH   2   5
ATOM      5  C   UNL     1      20.181  23.505  26.659  1.00  0.00    -0.014 C 
ATOM      6  C   UNL     1      18.895  22.890  26.062  1.00  0.00     0.007 C 
ATOM      7  C   UNL     1      20.957  24.201  25.521  1.00  0.00     0.007 C 
ENDBRANCH   2   5
ENDBRANCH   1   2
BRANCH   1   8
ATOM      8  C   UNL     1      17.521  25.313  28.540  1.00  0.00     0.004 C 
BRANCH   8   9
ATOM      9  C   UNL     1      16.197  25.997  28.079  1.00  0.00    -0.011 C 
ATOM     10  C   UNL     1      15.323  24.959  27.344  1.00  0.00     0.008 C 
BRANCH   9  11
ATOM     11  C   UNL     1      15.483  26.661  29.326  1.00  0.00    -0.002 C 
ATOM     12  C   UNL     1      14.012  27.169  29.097  1.00  0.00     0.005 C 
ATOM     13  C   UNL     1      16.227  27.882  30.018  1.00  0.00    -0.026 C 
ATOM     14  C   UNL     1      13.931  28.615  29.579  1.00  0.00     0.005 C 
ATOM     15  C   UNL     1      15.374  29.061  29.504  1.00  0.00    -0.001 C 
ATOM     16  C   UNL     1      17.709  28.206  29.644  1.00  0.00     0.007 C 
ATOM     17  C   UNL     1      16.167  27.621  31.558  1.00  0.00     0.012 C 
ATOM     18  C   UNL     1      15.735  30.490  29.974  1.00  0.00     0.004 C 
ATOM     19  C   UNL     1      18.155  29.620  30.142  1.00  0.00     0.005 C 
ATOM     20  C   UNL     1      17.236  30.774  29.629  1.00  0.00     0.003 C 
ATOM     21  C   UNL     1      15.336  30.828  31.425  1.00  0.00     0.085 C 
ATOM     22  C   UNL     1      17.677  32.252  30.008  1.00  0.00    -0.000 C 
ATOM     23  C   UNL     1      15.853  32.161  31.863  1.00  0.00     0.159 C 
ATOM     24  C   UNL     1      17.168  32.658  31.393  1.00  0.00     0.005 C 
ATOM     25  C   UNL     1      19.235  32.405  29.958  1.00  0.00     0.020 C 
ATOM     26  C   UNL     1      17.050  33.240  28.976  1.00  0.00     0.017 C 
ATOM     27  O   UNL     1      15.185  32.820  32.707  1.00  0.00    -0.295 OA
ATOM     28  C   UNL     1      17.811  33.598  32.118  1.00  0.00     0.055 C 
ATOM     29  C   UNL     1      19.723  33.797  30.384  1.00  0.00     0.081 C 
ATOM     30  C   UNL     1      19.073  34.214  31.671  1.00  0.00     0.156 C 
ATOM     31  O   UNL     1      19.595  35.125  32.365  1.00  0.00    -0.295 OA
ENDBRANCH   9  11
ENDBRANCH   8   9
ENDBRANCH   1   8
TORSDOF 6
ENDMDL
MODEL 2
REMARK VINA RESULT:    -7.000      2.776      5.751
REMARK INTER + INTRA:         -10.328
REMARK INTER:                  -8.529
REMARK INTRA:                  -1.799
REMARK UNBOUND:                -0.872
REMARK SMILES CC[C@@H](CC[C@@H](C)[C@@H]1CC[C@H]2[C@H]3CC(=O)C4=CC(=O)CC[C@@]4(C)[C@H]3CC[C@@]21C)C(C)C
REMARK SMILES IDX 4 1 3 2 2 3 1 4 29 5 30 6 31 7 5 8 6 9 7 10 8 11 9 12 27 13
REMARK SMILES IDX 10 14 11 15 26 16 28 17 12 18 25 19 24 20 13 21 22 22 14 23
REMARK SMILES IDX 16 24 21 25 23 26 15 27 17 28 20 29 18 30 19 31
REMARK H PARENT
REMARK Flexibility Score: inf
ROOT
ATOM      1  C   UNL     1      15.716  29.136  30.245  1.00  0.00     0.004 C 
ENDROOT
BRANCH   1   2
ATOM      2  C   UNL     1      16.620  28.399  29.196  1.00  0.00    -0.009 C 
BRANCH   2   3
ATOM      3  C   UNL     1      16.511  26.853  29.382  1.00  0.00     0.000 C 
ATOM      4  C   UNL     1      16.523  26.048  28.082  1.00  0.00     0.004 C 
ENDBRANCH   2   3
BRANCH   2   5
ATOM      5  C   UNL     1      18.119  28.885  29.298  1.00  0.00    -0.014 C 
ATOM      6  C   UNL     1      19.011  27.958  30.155  1.00  0.00     0.007 C 
ATOM      7  C   UNL     1      18.775  29.040  27.910  1.00  0.00     0.007 C 
ENDBRANCH   2   5
ENDBRANCH   1   2
BRANCH   1   8
ATOM      8  C   UNL     1      15.167  30.505  29.751  1.00  0.00     0.004 C 
BRANCH   8   9
ATOM      9  C   UNL     1      14.991  31.595  30.853  1.00  0.00    -0.011 C 
ATOM     10  C   UNL     1      15.220  30.954  32.237  1.00  0.00     0.008 C 
BRANCH   9  11
ATOM     11  C   UNL     1      15.956  32.813  30.549  1.00  0.00    -0.002 C 
ATOM     12  C   UNL     1      16.145  33.190  29.035  1.00  0.00     0.005 C 
ATOM     13  C   UNL     1      17.431  32.728  31.130  1.00  0.00    -0.026 C 
ATOM     14  C   UNL     1      17.643  33.263  28.750  1.00  0.00     0.005 C 
ATOM     15  C   UNL     1      18.223  32.398  29.847  1.00  0.00    -0.001 C 
ATOM     16  C   UNL     1      17.796  31.624  32.176  1.00  0.00     0.007 C 
ATOM     17  C   UNL     1      17.734  34.119  31.776  1.00  0.00     0.012 C 
ATOM     18  C   UNL     1      19.759  32.254  29.946  1.00  0.00     0.004 C 
ATOM     19  C   UNL     1      19.341  31.468  32.365  1.00  0.00     0.005 C 
ATOM     20  C   UNL     1      20.099  31.177  31.030  1.00  0.00     0.003 C 
ATOM     21  C   UNL     1      20.538  33.578  30.090  1.00  0.00     0.085 C 
ATOM     22  C   UNL     1      21.660  30.906  31.148  1.00  0.00    -0.000 C 
ATOM     23  C   UNL     1      21.996  33.358  30.340  1.00  0.00     0.159 C 
ATOM     24  C   UNL     1      22.463  32.209  31.151  1.00  0.00     0.005 C 
ATOM     25  C   UNL     1      21.993  30.084  32.439  1.00  0.00     0.020 C 
ATOM     26  C   UNL     1      22.119  30.083  29.905  1.00  0.00     0.017 C 
ATOM     27  O   UNL     1      22.817  34.216  29.914  1.00  0.00    -0.295 OA
ATOM     28  C   UNL     1      23.678  32.271  31.738  1.00  0.00     0.055 C 
ATOM     29  C   UNL     1      23.497  29.852  32.641  1.00  0.00     0.081 C 
ATOM     30  C   UNL     1      24.256  31.137  32.480  1.00  0.00     0.156 C 
ATOM     31  O   UNL     1      25.416  31.238  32.956  1.00  0.00    -0.295 OA
ENDBRANCH   9  11
ENDBRANCH   8   9
ENDBRANCH   1   8
TORSDOF 6
ENDMDL
MODEL 3
REMARK VINA RESULT:    -6.868      3.517      7.101
REMARK INTER + INTRA:         -10.149
REMARK INTER:                  -8.271
REMARK INTRA:                  -1.878
REMARK UNBOUND:                -0.872
REMARK SMILES CC[C@@H](CC[C@@H](C)[C@@H]1CC[C@H]2[C@H]3CC(=O)C4=CC(=O)CC[C@@]4(C)[C@H]3CC[C@@]21C)C(C)C
REMARK SMILES IDX 4 1 3 2 2 3 1 4 29 5 30 6 31 7 5 8 6 9 7 10 8 11 9 12 27 13
REMARK SMILES IDX 10 14 11 15 26 16 28 17 12 18 25 19 24 20 13 21 22 22 14 23
REMARK SMILES IDX 16 24 21 25 23 26 15 27 17 28 20 29 18 30 19 31
REMARK H PARENT
REMARK Flexibility Score: inf
ROOT
ATOM      1  C   UNL     1      15.668  31.094  29.381  1.00  0.00     0.004 C 
ENDROOT
BRANCH   1   2
ATOM      2  C   UNL     1      15.352  32.418  30.161  1.00  0.00    -0.009 C 
BRANCH   2   3
ATOM      3  C   UNL     1      16.123  33.617  29.524  1.00  0.00     0.000 C 
ATOM      4  C   UNL     1      17.321  33.223  28.660  1.00  0.00     0.004 C 
ENDBRANCH   2   3
BRANCH   2   5
ATOM      5  C   UNL     1      15.692  32.267  31.695  1.00  0.00    -0.014 C 
ATOM      6  C   UNL     1      16.580  33.406  32.246  1.00  0.00     0.007 C 
ATOM      7  C   UNL     1      14.421  32.181  32.567  1.00  0.00     0.007 C 
ENDBRANCH   2   5
ENDBRANCH   1   2
BRANCH   1   8
ATOM      8  C   UNL     1      15.272  29.801  30.149  1.00  0.00     0.004 C 
BRANCH   8   9
ATOM      9  C   UNL     1      16.456  29.002  30.776  1.00  0.00    -0.011 C 
ATOM     10  C   UNL     1      15.905  27.723  31.440  1.00  0.00     0.008 C 
BRANCH   9  11
ATOM     11  C   UNL     1      17.549  28.721  29.666  1.00  0.00    -0.002 C 
ATOM     12  C   UNL     1      18.039  27.233  29.531  1.00  0.00     0.005 C 
ATOM     13  C   UNL     1      18.884  29.579  29.734  1.00  0.00    -0.026 C 
ATOM     14  C   UNL     1      19.564  27.232  29.575  1.00  0.00     0.005 C 
ATOM     15  C   UNL     1      19.868  28.529  30.291  1.00  0.00    -0.001 C 
ATOM     16  C   UNL     1      18.968  30.818  30.683  1.00  0.00     0.007 C 
ATOM     17  C   UNL     1      19.169  30.071  28.278  1.00  0.00     0.012 C 
ATOM     18  C   UNL     1      21.345  28.939  30.493  1.00  0.00     0.004 C 
ATOM     19  C   UNL     1      20.436  31.318  30.884  1.00  0.00     0.005 C 
ATOM     20  C   UNL     1      21.400  30.207  31.409  1.00  0.00     0.003 C 
ATOM     21  C   UNL     1      22.183  29.043  29.202  1.00  0.00     0.085 C 
ATOM     22  C   UNL     1      22.889  30.657  31.735  1.00  0.00    -0.000 C 
ATOM     23  C   UNL     1      23.550  29.595  29.452  1.00  0.00     0.159 C 
ATOM     24  C   UNL     1      23.774  30.632  30.486  1.00  0.00     0.005 C 
ATOM     25  C   UNL     1      22.918  32.090  32.368  1.00  0.00     0.020 C 
ATOM     26  C   UNL     1      23.501  29.651  32.757  1.00  0.00     0.017 C 
ATOM     27  O   UNL     1      24.498  29.218  28.709  1.00  0.00    -0.295 OA
ATOM     28  C   UNL     1      24.863  31.425  30.396  1.00  0.00     0.055 C 
ATOM     29  C   UNL     1      24.339  32.605  32.639  1.00  0.00     0.081 C 
ATOM     30  C   UNL     1      25.209  32.414  31.432  1.00  0.00     0.156 C 
ATOM     31  O   UNL     1      26.268  33.085  31.316  1.00  0.00    -0.295 OA
ENDBRANCH   9  11
ENDBRANCH   8   9
ENDBRANCH   1   8
TORSDOF 6
ENDMDL
MODEL 4
REMARK VINA RESULT:    -6.803      2.257      4.273
REMARK INTER + INTRA:         -10.061
REMARK INTER:                  -8.386
REMARK INTRA:                  -1.675
REMARK UNBOUND:                -0.872
REMARK SMILES CC[C@@H](CC[C@@H](C)[C@@H]1CC[C@H]2[C@H]3CC(=O)C4=CC(=O)CC[C@@]4(C)[C@H]3CC[C@@]21C)C(C)C
REMARK SMILES IDX 4 1 3 2 2 3 1 4 29 5 30 6 31 7 5 8 6 9 7 10 8 11 9 12 27 13
REMARK SMILES IDX 10 14 11 15 26 16 28 17 12 18 25 19 24 20 13 21 22 22 14 23
REMARK SMILES IDX 16 24 21 25 23 26 15 27 17 28 20 29 18 30 19 31
REMARK H PARENT
REMARK Flexibility Score: inf
ROOT
ATOM      1  C   UNL     1      15.734  26.557  30.152  1.00  0.00     0.004 C 
ENDROOT
BRANCH   1   2
ATOM      2  C   UNL     1      16.311  26.487  28.695  1.00  0.00    -0.009 C 
BRANCH   2   3
ATOM      3  C   UNL     1      16.207  25.030  28.142  1.00  0.00     0.000 C 
ATOM      4  C   UNL     1      15.113  24.819  27.095  1.00  0.00     0.004 C 
ENDBRANCH   2   3
BRANCH   2   5
ATOM      5  C   UNL     1      17.800  27.011  28.650  1.00  0.00    -0.014 C 
ATOM      6  C   UNL     1      18.853  25.880  28.614  1.00  0.00     0.007 C 
ATOM      7  C   UNL     1      18.051  27.943  27.445  1.00  0.00     0.007 C 
ENDBRANCH   2   5
ENDBRANCH   1   2
BRANCH   1   8
ATOM      8  C   UNL     1      14.393  27.338  30.261  1.00  0.00     0.004 C 
BRANCH   8   9
ATOM      9  C   UNL     1      14.196  28.155  31.575  1.00  0.00    -0.011 C 
ATOM     10  C   UNL     1      15.025  27.504  32.701  1.00  0.00     0.008 C 
BRANCH   9  11
ATOM     11  C   UNL     1      14.560  29.673  31.312  1.00  0.00    -0.002 C 
ATOM     12  C   UNL     1      14.204  30.238  29.889  1.00  0.00     0.005 C 
ATOM     13  C   UNL     1      16.070  30.104  31.551  1.00  0.00    -0.026 C 
ATOM     14  C   UNL     1      15.453  30.907  29.321  1.00  0.00     0.005 C 
ATOM     15  C   UNL     1      16.563  30.229  30.094  1.00  0.00    -0.001 C 
ATOM     16  C   UNL     1      17.056  29.130  32.274  1.00  0.00     0.007 C 
ATOM     17  C   UNL     1      16.026  31.435  32.369  1.00  0.00     0.012 C 
ATOM     18  C   UNL     1      18.022  30.677  29.846  1.00  0.00     0.004 C 
ATOM     19  C   UNL     1      18.550  29.561  32.108  1.00  0.00     0.005 C 
ATOM     20  C   UNL     1      18.986  29.714  30.616  1.00  0.00     0.003 C 
ATOM     21  C   UNL     1      18.299  32.177  30.072  1.00  0.00     0.085 C 
ATOM     22  C   UNL     1      20.517  30.052  30.357  1.00  0.00    -0.000 C 
ATOM     23  C   UNL     1      19.754  32.511  29.971  1.00  0.00     0.159 C 
ATOM     24  C   UNL     1      20.786  31.557  30.439  1.00  0.00     0.005 C 
ATOM     25  C   UNL     1      21.440  29.300  31.374  1.00  0.00     0.020 C 
ATOM     26  C   UNL     1      20.892  29.592  28.914  1.00  0.00     0.017 C 
ATOM     27  O   UNL     1      20.082  33.656  29.553  1.00  0.00    -0.295 OA
ATOM     28  C   UNL     1      22.011  32.023  30.764  1.00  0.00     0.055 C 
ATOM     29  C   UNL     1      22.928  29.645  31.216  1.00  0.00     0.081 C 
ATOM     30  C   UNL     1      23.121  31.131  31.145  1.00  0.00     0.156 C 
ATOM     31  O   UNL     1      24.254  31.623  31.383  1.00  0.00    -0.295 OA
ENDBRANCH   9  11
ENDBRANCH   8   9
ENDBRANCH   1   8
TORSDOF 6
ENDMDL
MODEL 5
REMARK VINA RESULT:    -6.784      2.607      4.754
REMARK INTER + INTRA:         -10.036
REMARK INTER:                  -8.498
REMARK INTRA:                  -1.537
REMARK UNBOUND:                -0.872
REMARK SMILES CC[C@@H](CC[C@@H](C)[C@@H]1CC[C@H]2[C@H]3CC(=O)C4=CC(=O)CC[C@@]4(C)[C@H]3CC[C@@]21C)C(C)C
REMARK SMILES IDX 4 1 3 2 2 3 1 4 29 5 30 6 31 7 5 8 6 9 7 10 8 11 9 12 27 13
REMARK SMILES IDX 10 14 11 15 26 16 28 17 12 18 25 19 24 20 13 21 22 22 14 23
REMARK SMILES IDX 16 24 21 25 23 26 15 27 17 28 20 29 18 30 19 31
REMARK H PARENT
REMARK Flexibility Score: inf
ROOT
ATOM      1  C   UNL     1      14.432  23.778  28.314  1.00  0.00     0.004 C 
ENDROOT
BRANCH   1   2
ATOM      2  C   UNL     1      14.652  22.682  27.214  1.00  0.00    -0.009 C 
BRANCH   2   3
ATOM      3  C   UNL     1      15.046  21.324  27.876  1.00  0.00     0.000 C 
ATOM      4  C   UNL     1      14.517  21.125  29.296  1.00  0.00     0.004 C 
ENDBRANCH   2   3
BRANCH   2   5
ATOM      5  C   UNL     1      15.737  23.144  26.163  1.00  0.00    -0.014 C 
ATOM      6  C   UNL     1      17.026  22.292  26.191  1.00  0.00     0.007 C 
ATOM      7  C   UNL     1      15.186  23.140  24.721  1.00  0.00     0.007 C 
ENDBRANCH   2   5
ENDBRANCH   1   2
BRANCH   1   8
ATOM      8  C   UNL     1      14.663  25.231  27.811  1.00  0.00     0.004 C 
BRANCH   8   9
ATOM      9  C   UNL     1      15.560  26.124  28.723  1.00  0.00    -0.011 C 
ATOM     10  C   UNL     1      15.631  25.495  30.130  1.00  0.00     0.008 C 
BRANCH   9  11
ATOM     11  C   UNL     1      16.975  26.322  28.042  1.00  0.00    -0.002 C 
ATOM     12  C   UNL     1      18.016  25.162  28.250  1.00  0.00     0.005 C 
ATOM     13  C   UNL     1      17.772  27.647  28.404  1.00  0.00    -0.026 C 
ATOM     14  C   UNL     1      19.317  25.779  28.755  1.00  0.00     0.005 C 
ATOM     15  C   UNL     1      18.843  27.081  29.361  1.00  0.00    -0.001 C 
ATOM     16  C   UNL     1      17.054  28.805  29.171  1.00  0.00     0.007 C 
ATOM     17  C   UNL     1      18.306  28.225  27.054  1.00  0.00     0.012 C 
ATOM     18  C   UNL     1      19.892  28.053  29.949  1.00  0.00     0.004 C 
ATOM     19  C   UNL     1      18.061  29.855  29.744  1.00  0.00     0.005 C 
ATOM     20  C   UNL     1      19.149  29.226  30.672  1.00  0.00     0.003 C 
ATOM     21  C   UNL     1      20.998  28.501  28.971  1.00  0.00     0.085 C 
ATOM     22  C   UNL     1      20.151  30.239  31.375  1.00  0.00    -0.000 C 
ATOM     23  C   UNL     1      21.881  29.557  29.553  1.00  0.00     0.159 C 
ATOM     24  C   UNL     1      21.334  30.587  30.468  1.00  0.00     0.005 C 
ATOM     25  C   UNL     1      19.416  31.554  31.803  1.00  0.00     0.020 C 
ATOM     26  C   UNL     1      20.732  29.558  32.653  1.00  0.00     0.017 C 
ATOM     27  O   UNL     1      23.088  29.605  29.186  1.00  0.00    -0.295 OA
ATOM     28  C   UNL     1      21.997  31.754  30.614  1.00  0.00     0.055 C 
ATOM     29  C   UNL     1      20.352  32.599  32.425  1.00  0.00     0.081 C 
ATOM     30  C   UNL     1      21.573  32.789  31.574  1.00  0.00     0.156 C 
ATOM     31  O   UNL     1      22.264  33.832  31.702  1.00  0.00    -0.295 OA
ENDBRANCH   9  11
ENDBRANCH   8   9
ENDBRANCH   1   8
TORSDOF 6
ENDMDL
MODEL 6
REMARK VINA RESULT:    -6.561      7.840     10.966
REMARK INTER + INTRA:          -9.734
REMARK INTER:                  -8.283
REMARK INTRA:                  -1.451
REMARK UNBOUND:                -0.872
REMARK SMILES CC[C@@H](CC[C@@H](C)[C@@H]1CC[C@H]2[C@H]3CC(=O)C4=CC(=O)CC[C@@]4(C)[C@H]3CC[C@@]21C)C(C)C
REMARK SMILES IDX 4 1 3 2 2 3 1 4 29 5 30 6 31 7 5 8 6 9 7 10 8 11 9 12 27 13
REMARK SMILES IDX 10 14 11 15 26 16 28 17 12 18 25 19 24 20 13 21 22 22 14 23
REMARK SMILES IDX 16 24 21 25 23 26 15 27 17 28 20 29 18 30 19 31
REMARK H PARENT
REMARK Flexibility Score: inf
ROOT
ATOM      1  C   UNL     1      30.230  32.000  29.953  1.00  0.00     0.004 C 
ENDROOT
BRANCH   1   2
ATOM      2  C   UNL     1      31.782  32.198  30.061  1.00  0.00    -0.009 C 
BRANCH   2   3
ATOM      3  C   UNL     1      32.109  33.406  30.994  1.00  0.00     0.000 C 
ATOM      4  C   UNL     1      30.890  34.193  31.476  1.00  0.00     0.004 C 
ENDBRANCH   2   3
BRANCH   2   5
ATOM      5  C   UNL     1      32.430  32.384  28.634  1.00  0.00    -0.014 C 
ATOM      6  C   UNL     1      31.673  31.640  27.510  1.00  0.00     0.007 C 
ATOM      7  C   UNL     1      32.545  33.871  28.237  1.00  0.00     0.007 C 
ENDBRANCH   2   5
ENDBRANCH   1   2
BRANCH   1   8
ATOM      8  C   UNL     1      29.717  30.677  30.592  1.00  0.00     0.004 C 
BRANCH   8   9
ATOM      9  C   UNL     1      28.917  30.839  31.921  1.00  0.00    -0.011 C 
ATOM     10  C   UNL     1      29.910  31.021  33.088  1.00  0.00     0.008 C 
BRANCH   9  11
ATOM     11  C   UNL     1      27.883  32.029  31.774  1.00  0.00    -0.002 C 
ATOM     12  C   UNL     1      27.429  32.725  33.108  1.00  0.00     0.005 C 
ATOM     13  C   UNL     1      26.531  31.719  31.000  1.00  0.00    -0.026 C 
ATOM     14  C   UNL     1      25.903  32.763  33.125  1.00  0.00     0.005 C 
ATOM     15  C   UNL     1      25.541  31.638  32.182  1.00  0.00    -0.001 C 
ATOM     16  C   UNL     1      26.379  30.387  30.197  1.00  0.00     0.007 C 
ATOM     17  C   UNL     1      26.307  32.906  30.008  1.00  0.00     0.012 C 
ATOM     18  C   UNL     1      24.049  31.376  31.874  1.00  0.00     0.004 C 
ATOM     19  C   UNL     1      24.894  30.093  29.805  1.00  0.00     0.005 C 
ATOM     20  C   UNL     1      23.927  30.062  31.031  1.00  0.00     0.003 C 
ATOM     21  C   UNL     1      23.272  32.580  31.302  1.00  0.00     0.085 C 
ATOM     22  C   UNL     1      22.416  29.671  30.732  1.00  0.00    -0.000 C 
ATOM     23  C   UNL     1      21.884  32.215  30.881  1.00  0.00     0.159 C 
ATOM     24  C   UNL     1      21.592  30.885  30.296  1.00  0.00     0.005 C 
ATOM     25  C   UNL     1      22.330  28.559  29.632  1.00  0.00     0.020 C 
ATOM     26  C   UNL     1      21.774  29.122  32.043  1.00  0.00     0.017 C 
ATOM     27  O   UNL     1      20.980  33.093  30.957  1.00  0.00    -0.295 OA
ATOM     28  C   UNL     1      20.494  30.734  29.525  1.00  0.00     0.055 C 
ATOM     29  C   UNL     1      20.889  28.191  29.252  1.00  0.00     0.081 C 
ATOM     30  C   UNL     1      20.080  29.427  28.986  1.00  0.00     0.156 C 
ATOM     31  O   UNL     1      19.016  29.342  28.319  1.00  0.00    -0.295 OA
ENDBRANCH   9  11
ENDBRANCH   8   9
ENDBRANCH   1   8
TORSDOF 6
ENDMDL
MODEL 7
REMARK VINA RESULT:    -6.485      5.248      8.022
REMARK INTER + INTRA:          -9.632
REMARK INTER:                  -8.295
REMARK INTRA:                  -1.337
REMARK UNBOUND:                -0.872
REMARK SMILES CC[C@@H](CC[C@@H](C)[C@@H]1CC[C@H]2[C@H]3CC(=O)C4=CC(=O)CC[C@@]4(C)[C@H]3CC[C@@]21C)C(C)C
REMARK SMILES IDX 4 1 3 2 2 3 1 4 29 5 30 6 31 7 5 8 6 9 7 10 8 11 9 12 27 13
REMARK SMILES IDX 10 14 11 15 26 16 28 17 12 18 25 19 24 20 13 21 22 22 14 23
REMARK SMILES IDX 16 24 21 25 23 26 15 27 17 28 20 29 18 30 19 31
REMARK H PARENT
REMARK Flexibility Score: inf
ROOT
ATOM      1  C   UNL     1      27.038  30.636  31.464  1.00  0.00     0.004 C 
ENDROOT
BRANCH   1   2
ATOM      2  C   UNL     1      28.388  31.432  31.535  1.00  0.00    -0.009 C 
BRANCH   2   3
ATOM      3  C   UNL     1      28.132  32.885  32.045  1.00  0.00     0.000 C 
ATOM      4  C   UNL     1      29.362  33.793  32.036  1.00  0.00     0.004 C 
ENDBRANCH   2   3
BRANCH   2   5
ATOM      5  C   UNL     1      29.119  31.435  30.135  1.00  0.00    -0.014 C 
ATOM      6  C   UNL     1      30.349  30.502  30.078  1.00  0.00     0.007 C 
ATOM      7  C   UNL     1      28.167  31.050  28.982  1.00  0.00     0.007 C 
ENDBRANCH   2   5
ENDBRANCH   1   2
BRANCH   1   8
ATOM      8  C   UNL     1      25.897  31.253  32.322  1.00  0.00     0.004 C 
BRANCH   8   9
ATOM      9  C   UNL     1      24.591  31.609  31.548  1.00  0.00    -0.011 C 
ATOM     10  C   UNL     1      24.961  32.353  30.249  1.00  0.00     0.008 C 
BRANCH   9  11
ATOM     11  C   UNL     1      23.744  30.292  31.308  1.00  0.00    -0.002 C 
ATOM     12  C   UNL     1      23.893  29.617  29.896  1.00  0.00     0.005 C 
ATOM     13  C   UNL     1      22.177  30.389  31.545  1.00  0.00    -0.026 C 
ATOM     14  C   UNL     1      22.493  29.390  29.332  1.00  0.00     0.005 C 
ATOM     15  C   UNL     1      21.671  30.409  30.087  1.00  0.00    -0.001 C 
ATOM     16  C   UNL     1      21.569  31.647  32.247  1.00  0.00     0.007 C 
ATOM     17  C   UNL     1      21.778  29.132  32.385  1.00  0.00     0.012 C 
ATOM     18  C   UNL     1      20.145  30.465  29.839  1.00  0.00     0.004 C 
ATOM     19  C   UNL     1      20.016  31.732  32.080  1.00  0.00     0.005 C 
ATOM     20  C   UNL     1      19.554  31.706  30.588  1.00  0.00     0.003 C 
ATOM     21  C   UNL     1      19.387  29.145  30.087  1.00  0.00     0.085 C 
ATOM     22  C   UNL     1      17.997  31.889  30.326  1.00  0.00    -0.000 C 
ATOM     23  C   UNL     1      17.905  29.310  29.983  1.00  0.00     0.159 C 
ATOM     24  C   UNL     1      17.245  30.559  30.430  1.00  0.00     0.005 C 
ATOM     25  C   UNL     1      17.375  32.921  31.326  1.00  0.00     0.020 C 
ATOM     26  C   UNL     1      17.795  32.422  28.874  1.00  0.00     0.017 C 
ATOM     27  O   UNL     1      17.215  28.331  29.582  1.00  0.00    -0.295 OA
ATOM     28  C   UNL     1      15.935  30.530  30.756  1.00  0.00     0.055 C 
ATOM     29  C   UNL     1      15.857  33.085  31.165  1.00  0.00     0.081 C 
ATOM     30  C   UNL     1      15.183  31.745  31.116  1.00  0.00     0.156 C 
ATOM     31  O   UNL     1      13.951  31.660  31.356  1.00  0.00    -0.295 OA
ENDBRANCH   9  11
ENDBRANCH   8   9
ENDBRANCH   1   8
TORSDOF 6
ENDMDL
MODEL 8
REMARK VINA RESULT:    -6.286      4.637      8.644
REMARK INTER + INTRA:          -9.362
REMARK INTER:                  -7.962
REMARK INTRA:                  -1.401
REMARK UNBOUND:                -0.872
REMARK SMILES CC[C@@H](CC[C@@H](C)[C@@H]1CC[C@H]2[C@H]3CC(=O)C4=CC(=O)CC[C@@]4(C)[C@H]3CC[C@@]21C)C(C)C
REMARK SMILES IDX 4 1 3 2 2 3 1 4 29 5 30 6 31 7 5 8 6 9 7 10 8 11 9 12 27 13
REMARK SMILES IDX 10 14 11 15 26 16 28 17 12 18 25 19 24 20 13 21 22 22 14 23
REMARK SMILES IDX 16 24 21 25 23 26 15 27 17 28 20 29 18 30 19 31
REMARK H PARENT
REMARK Flexibility Score: inf
ROOT
ATOM      1  C   UNL     1      24.752  32.815  30.146  1.00  0.00     0.004 C 
ENDROOT
BRANCH   1   2
ATOM      2  C   UNL     1      25.909  32.274  31.056  1.00  0.00    -0.009 C 
BRANCH   2   3
ATOM      3  C   UNL     1      26.949  33.404  31.337  1.00  0.00     0.000 C 
ATOM      4  C   UNL     1      26.442  34.533  32.234  1.00  0.00     0.004 C 
ENDBRANCH   2   3
BRANCH   2   5
ATOM      5  C   UNL     1      26.598  31.010  30.406  1.00  0.00    -0.014 C 
ATOM      6  C   UNL     1      25.672  30.228  29.447  1.00  0.00     0.007 C 
ATOM      7  C   UNL     1      27.886  31.380  29.640  1.00  0.00     0.007 C 
ENDBRANCH   2   5
ENDBRANCH   1   2
BRANCH   1   8
ATOM      8  C   UNL     1      23.396  32.988  30.887  1.00  0.00     0.004 C 
BRANCH   8   9
ATOM      9  C   UNL     1      22.841  31.707  31.582  1.00  0.00    -0.011 C 
ATOM     10  C   UNL     1      23.068  31.820  33.103  1.00  0.00     0.008 C 
BRANCH   9  11
ATOM     11  C   UNL     1      21.324  31.502  31.178  1.00  0.00    -0.002 C 
ATOM     12  C   UNL     1      20.312  31.283  32.361  1.00  0.00     0.005 C 
ATOM     13  C   UNL     1      21.002  30.333  30.152  1.00  0.00    -0.026 C 
ATOM     14  C   UNL     1      19.495  30.030  32.058  1.00  0.00     0.005 C 
ATOM     15  C   UNL     1      20.395  29.280  31.103  1.00  0.00    -0.001 C 
ATOM     16  C   UNL     1      22.165  29.625  29.384  1.00  0.00     0.007 C 
ATOM     17  C   UNL     1      20.024  30.933  29.091  1.00  0.00     0.012 C 
ATOM     18  C   UNL     1      19.894  27.947  30.501  1.00  0.00     0.004 C 
ATOM     19  C   UNL     1      21.707  28.294  28.703  1.00  0.00     0.005 C 
ATOM     20  C   UNL     1      21.063  27.280  29.700  1.00  0.00     0.003 C 
ATOM     21  C   UNL     1      18.558  28.029  29.735  1.00  0.00     0.085 C 
ATOM     22  C   UNL     1      20.661  25.862  29.107  1.00  0.00    -0.000 C 
ATOM     23  C   UNL     1      18.214  26.747  29.047  1.00  0.00     0.159 C 
ATOM     24  C   UNL     1      19.272  25.889  28.464  1.00  0.00     0.005 C 
ATOM     25  C   UNL     1      21.714  25.372  28.056  1.00  0.00     0.020 C 
ATOM     26  C   UNL     1      20.610  24.829  30.275  1.00  0.00     0.017 C 
ATOM     27  O   UNL     1      16.996  26.449  28.901  1.00  0.00    -0.295 OA
ATOM     28  C   UNL     1      18.945  25.016  27.487  1.00  0.00     0.055 C 
ATOM     29  C   UNL     1      21.340  24.037  27.397  1.00  0.00     0.081 C 
ATOM     30  C   UNL     1      19.916  24.062  26.923  1.00  0.00     0.156 C 
ATOM     31  O   UNL     1      19.536  23.236  26.053  1.00  0.00    -0.295 OA
ENDBRANCH   9  11
ENDBRANCH   8   9
ENDBRANCH   1   8
TORSDOF 6
ENDMDL
MODEL 9
REMARK VINA RESULT:    -6.130      3.923      6.850
REMARK INTER + INTRA:          -9.153
REMARK INTER:                  -7.718
REMARK INTRA:                  -1.435
REMARK UNBOUND:                -0.872
REMARK SMILES CC[C@@H](CC[C@@H](C)[C@@H]1CC[C@H]2[C@H]3CC(=O)C4=CC(=O)CC[C@@]4(C)[C@H]3CC[C@@]21C)C(C)C
REMARK SMILES IDX 4 1 3 2 2 3 1 4 29 5 30 6 31 7 5 8 6 9 7 10 8 11 9 12 27 13
REMARK SMILES IDX 10 14 11 15 26 16 28 17 12 18 25 19 24 20 13 21 22 22 14 23
REMARK SMILES IDX 16 24 21 25 23 26 15 27 17 28 20 29 18 30 19 31
REMARK H PARENT
REMARK Flexibility Score: inf
ROOT
ATOM      1  C   UNL     1      26.199  30.687  29.635  1.00  0.00     0.004 C 
ENDROOT
BRANCH   1   2
ATOM      2  C   UNL     1      26.667  31.331  30.986  1.00  0.00    -0.009 C 
BRANCH   2   3
ATOM      3  C   UNL     1      26.578  30.285  32.142  1.00  0.00     0.000 C 
ATOM      4  C   UNL     1      25.402  30.484  33.098  1.00  0.00     0.004 C 
ENDBRANCH   2   3
BRANCH   2   5
ATOM      5  C   UNL     1      25.826  32.625  31.318  1.00  0.00    -0.014 C 
ATOM      6  C   UNL     1      26.694  33.834  31.736  1.00  0.00     0.007 C 
ATOM      7  C   UNL     1      24.933  33.058  30.136  1.00  0.00     0.007 C 
ENDBRANCH   2   5
ENDBRANCH   1   2
BRANCH   1   8
ATOM      8  C   UNL     1      25.396  29.366  29.811  1.00  0.00     0.004 C 
BRANCH   8   9
ATOM      9  C   UNL     1      24.295  29.100  28.738  1.00  0.00    -0.011 C 
ATOM     10  C   UNL     1      24.934  28.393  27.525  1.00  0.00     0.008 C 
BRANCH   9  11
ATOM     11  C   UNL     1      23.105  28.288  29.393  1.00  0.00    -0.002 C 
ATOM     12  C   UNL     1      22.253  27.395  28.419  1.00  0.00     0.005 C 
ATOM     13  C   UNL     1      22.032  29.119  30.219  1.00  0.00    -0.026 C 
ATOM     14  C   UNL     1      20.780  27.733  28.635  1.00  0.00     0.005 C 
ATOM     15  C   UNL     1      20.851  29.123  29.225  1.00  0.00    -0.001 C 
ATOM     16  C   UNL     1      22.314  30.612  30.584  1.00  0.00     0.007 C 
ATOM     17  C   UNL     1      21.796  28.336  31.551  1.00  0.00     0.012 C 
ATOM     18  C   UNL     1      19.536  29.819  29.648  1.00  0.00     0.004 C 
ATOM     19  C   UNL     1      21.031  31.359  31.075  1.00  0.00     0.005 C 
ATOM     20  C   UNL     1      19.852  31.298  30.052  1.00  0.00     0.003 C 
ATOM     21  C   UNL     1      18.678  29.044  30.669  1.00  0.00     0.085 C 
ATOM     22  C   UNL     1      18.544  32.117  30.430  1.00  0.00    -0.000 C 
ATOM     23  C   UNL     1      17.509  29.841  31.153  1.00  0.00     0.159 C 
ATOM     24  C   UNL     1      17.610  31.308  31.333  1.00  0.00     0.005 C 
ATOM     25  C   UNL     1      18.909  33.469  31.132  1.00  0.00     0.020 C 
ATOM     26  C   UNL     1      17.759  32.436  29.120  1.00  0.00     0.017 C 
ATOM     27  O   UNL     1      16.456  29.227  31.482  1.00  0.00    -0.295 OA
ATOM     28  C   UNL     1      16.750  31.927  32.170  1.00  0.00     0.055 C 
ATOM     29  C   UNL     1      17.680  34.271  31.583  1.00  0.00     0.081 C 
ATOM     30  C   UNL     1      16.721  33.392  32.332  1.00  0.00     0.156 C 
ATOM     31  O   UNL     1      15.858  33.913  33.085  1.00  0.00    -0.295 OA
ENDBRANCH   9  11
ENDBRANCH   8   9
ENDBRANCH   1   8
TORSDOF 6
ENDMDL
